#------------------------------------------------------------------------------
#$Date: 2017-08-11 01:55:32 +0300 (Fri, 11 Aug 2017) $
#$Revision: 199706 $
#$URL: file:///home/coder/svn-repositories/cod/cif/4/12/63/4126328.cif $
#------------------------------------------------------------------------------
#
# This file is available in the Crystallography Open Database (COD),
# http://www.crystallography.net/
#
# All data on this site have been placed in the public domain by the
# contributors.
#
data_4126328
loop_
_publ_author_name
'Jin, Shengfei'
'Nguyen, Vu T.'
'Dang, Hang T.'
'Nguyen, Dat P.'
'Arman, Hadi D.'
'Larionov, Oleg V.'
_publ_section_title
;
 Photoinduced Carboborative Ring Contraction Enables Regio- and
 Stereoselective Synthesis of Multiply Substituted Five-Membered
 Carbocycles and Heterocycles.
;
_journal_name_full               'Journal of the American Chemical Society'
_journal_paper_doi               10.1021/jacs.7b07128
_journal_year                    2017
_chemical_absolute_configuration syn
_chemical_formula_moiety         'C12 H22 O2'
_chemical_formula_sum            'C12 H22 O2'
_chemical_formula_weight         198.29
_space_group_crystal_system      monoclinic
_space_group_IT_number           4
_space_group_name_Hall           'P 2yb'
_space_group_name_H-M_alt        'P 1 21 1'
_symmetry_space_group_name_Hall  'P 2yb'
_symmetry_space_group_name_H-M   'P 1 21 1'
_atom_sites_solution_hydrogens   mixed
_atom_sites_solution_primary     dual
_audit_creation_date             2017-02-07
_audit_creation_method
;
Olex2 1.2
(compiled 2017.01.04 svn.r3372 for OlexSys, GUI svn.r5292)
;
_cell_angle_alpha                90
_cell_angle_beta                 92.901(5)
_cell_angle_gamma                90
_cell_formula_units_Z            2
_cell_length_a                   7.2193(4)
_cell_length_b                   6.1407(4)
_cell_length_c                   13.5485(7)
_cell_measurement_reflns_used    2629
_cell_measurement_temperature    98
_cell_measurement_theta_max      38.9870
_cell_measurement_theta_min      2.9890
_cell_volume                     599.86(6)
_computing_cell_refinement       'CrysAlisPro 1.171.38.41 (Rigaku OD, 2015)'
_computing_data_collection       'CrysAlisPro 1.171.38.41 (Rigaku OD, 2015)'
_computing_data_reduction        'CrysAlisPro 1.171.38.41 (Rigaku OD, 2015)'
_computing_molecular_graphics    'Olex2 (Dolomanov et al., 2009)'
_computing_publication_material  'Olex2 (Dolomanov et al., 2009)'
_computing_structure_refinement  'ShelXL (Sheldrick, 2015)'
_computing_structure_solution    'ShelXT (Sheldrick, 2015)'
_diffrn_ambient_temperature      98
_diffrn_detector                 'CCD plate'
_diffrn_measured_fraction_theta_full 0.999
_diffrn_measured_fraction_theta_max 0.999
_diffrn_measurement_details
;
List of Runs (angles in degrees, time in seconds):

  # Type    Start    End  Width  t~exp~   \w     \q     \k     \f   Frames
--------------------------------------------------------------------------
  1  \w    -68.00  55.00   0.50   50.00    --  -35.00  70.00   0.00  246
  2  \w    -63.00  42.00   0.50   50.00    --  -35.00  70.00 180.00  210
  3  \w    -80.00 -20.00   0.50   50.00    --  -35.00   0.00 180.00  120
  4  \w    -61.00 -27.00   0.50   50.00    --  -35.00  70.00  90.00   68
  5  \w   -115.00 -85.00   0.50   50.00    --  -35.00   0.00 270.00   60
;
_diffrn_measurement_device       'abstract diffractometer'
_diffrn_measurement_device_type
'dtrek-CrysAlisPro-abstract goniometer imported rigaku-d*trek images'
_diffrn_measurement_method       '\w scans'
_diffrn_orient_matrix_type
'CrysAlisPro convention (1999,Acta A55,543-557)'
_diffrn_orient_matrix_UB_11      0.0897194000
_diffrn_orient_matrix_UB_12      0.0111477000
_diffrn_orient_matrix_UB_13      -0.0185379000
_diffrn_orient_matrix_UB_21      0.0402537000
_diffrn_orient_matrix_UB_22      -0.0135796000
_diffrn_orient_matrix_UB_23      0.0484296000
_diffrn_orient_matrix_UB_31      0.0038730000
_diffrn_orient_matrix_UB_32      -0.1141321000
_diffrn_orient_matrix_UB_33      -0.0076206000
_diffrn_radiation_monochromator  graphite
_diffrn_radiation_probe          x-ray
_diffrn_radiation_type           MoK\a
_diffrn_radiation_wavelength     0.71073
_diffrn_reflns_av_R_equivalents  0.0175
_diffrn_reflns_av_unetI/netI     0.0200
_diffrn_reflns_Laue_measured_fraction_full 0.999
_diffrn_reflns_Laue_measured_fraction_max 0.999
_diffrn_reflns_limit_h_max       8
_diffrn_reflns_limit_h_min       -8
_diffrn_reflns_limit_k_max       5
_diffrn_reflns_limit_k_min       -7
_diffrn_reflns_limit_l_max       16
_diffrn_reflns_limit_l_min       -16
_diffrn_reflns_number            4082
_diffrn_reflns_point_group_measured_fraction_full 0.857
_diffrn_reflns_point_group_measured_fraction_max 0.858
_diffrn_reflns_theta_full        25.242
_diffrn_reflns_theta_max         25.499
_diffrn_reflns_theta_min         2.825
_diffrn_source                   'fine-focus sealed X-ray tube'
_diffrn_source_type              'Enhance (Mo) X-ray Source'
_exptl_absorpt_coefficient_mu    0.072
_exptl_absorpt_correction_T_max  1.00000
_exptl_absorpt_correction_T_min  0.76273
_exptl_absorpt_correction_type   multi-scan
_exptl_absorpt_process_details
;
CrysAlisPro 1.171.38.41 (Rigaku Oxford Diffraction, 2015)
Empirical absorption correction using spherical harmonics,
 implemented in SCALE3 ABSPACK scaling algorithm.
;
_exptl_crystal_colour            'clear colourless'
_exptl_crystal_colour_lustre     clear
_exptl_crystal_colour_primary    colourless
_exptl_crystal_density_diffrn    1.098
_exptl_crystal_description       plate
_exptl_crystal_F_000             220
_exptl_crystal_size_max          0.5
_exptl_crystal_size_mid          0.17
_exptl_crystal_size_min          0.1
_refine_diff_density_max         0.218
_refine_diff_density_min         -0.121
_refine_diff_density_rms         0.033
_refine_ls_abs_structure_details
;

;
_refine_ls_extinction_method     none
_refine_ls_goodness_of_fit_ref   1.025
_refine_ls_hydrogen_treatment    mixed
_refine_ls_matrix_type           full
_refine_ls_number_parameters     136
_refine_ls_number_reflns         1921
_refine_ls_number_restraints     1
_refine_ls_restrained_S_all      1.024
_refine_ls_R_factor_all          0.0383
_refine_ls_R_factor_gt           0.0368
_refine_ls_shift/su_max          0.000
_refine_ls_shift/su_mean         0.000
_refine_ls_structure_factor_coef Fsqd
_refine_ls_weighting_details
'w=1/[\s^2^(Fo^2^)+(0.0500P)^2^+0.1500P] where P=(Fo^2^+2Fc^2^)/3'
_refine_ls_weighting_scheme      calc
_refine_ls_wR_factor_gt          0.0925
_refine_ls_wR_factor_ref         0.0937
_reflns_Friedel_coverage         0.561
_reflns_Friedel_fraction_full    0.683
_reflns_Friedel_fraction_max     0.685
_reflns_number_gt                1873
_reflns_number_total             1921
_reflns_threshold_expression     'I > 2\s(I)'
_iucr_refine_instructions_details
;

    cd1547.res created by SHELXL-2014/7

TITL cd1547_a.res in P2(1)
REM Old TITL cd1547 in P21/c #14
REM SHELXT solution in P2(1)
REM R1 0.145, Rweak 0.049, Alpha 0.001, Orientation as input
REM Flack x = -0.351 ( 1.147 ) from Parsons' quotients
REM Formula found by SHELXT: C11 O3
CELL 0.71073 7.2193 6.1407 13.5485 90 92.901 90
ZERR 2 0.0004 0.0004 0.0007 0 0.005 0
LATT -1
SYMM -X,0.5+Y,-Z
SFAC C O H
UNIT 24 4 44
 
L.S. 6
PLAN  10
TEMP -175.15
BOND $H
list 4
fmap 2
ACTA
OMIT -3 51
OMIT 0 5 5
REM <olex2.extras>
REM <HklSrc "%.\\cd1547.hkl">
REM </olex2.extras>
 
WGHT    0.050000    0.150000
FVAR       1.52838
O2    2    0.457674    0.274372    0.924720    11.00000    0.04104    0.02263 =
         0.02206    0.00144   -0.00171    0.00519
O1    2    0.545315    0.858181    0.879161    11.00000    0.04965    0.02426 =
         0.02118   -0.00070   -0.00124    0.00035
C5    1    0.410297    0.535449    0.789873    11.00000    0.03022    0.02334 =
         0.02141   -0.00121   -0.00100    0.00272
C10   1    0.322703    0.409333    0.873868    11.00000    0.03120    0.02378 =
         0.02215   -0.00185    0.00331    0.00525
AFIX  13
H10   3    0.283075    0.520201    0.922578    11.00000   -1.20000
AFIX   0
C1    1    0.584862    0.659585    0.830441    11.00000    0.03332    0.02305 =
         0.02197    0.00052   -0.00228    0.00016
AFIX  13
H1A   3    0.654201    0.562785    0.878800    11.00000   -1.20000
AFIX   0
C4    1    0.489059    0.387465    0.709580    11.00000    0.03331    0.02974 =
         0.02002   -0.00248    0.00136   -0.00018
AFIX  23
H4A   3    0.414836    0.403246    0.646522    11.00000   -1.20000
H4B   3    0.485487    0.233009    0.730341    11.00000   -1.20000
AFIX   0
C3    1    0.692842    0.460619    0.696530    11.00000    0.02880    0.03474 =
         0.02402   -0.00046   -0.00107    0.00269
AFIX  13
H3    3    0.774712    0.364648    0.739451    11.00000   -1.20000
AFIX   0
C6    1    0.753674    0.436681    0.591340    11.00000    0.02686    0.04446 =
         0.02704   -0.00541    0.00338   -0.00105
C9    1    0.268307    0.696362    0.743579    11.00000    0.03506    0.02962 =
         0.02870    0.00333   -0.00383    0.00434
AFIX 137
H9A   3    0.173821    0.616238    0.703816    11.00000   -1.50000
H9B   3    0.331363    0.799214    0.701315    11.00000   -1.50000
H9C   3    0.209071    0.776381    0.796046    11.00000   -1.50000
AFIX   0
C2    1    0.702120    0.689006    0.741179    11.00000    0.03094    0.03455 =
         0.02627   -0.00149   -0.00018   -0.00255
AFIX  23
H2A   3    0.831093    0.730804    0.761081    11.00000   -1.20000
H2B   3    0.647936    0.799110    0.694800    11.00000   -1.20000
AFIX   0
C11   1    0.150086    0.280930    0.841180    11.00000    0.03314    0.03212 =
         0.03733    0.00122    0.00197    0.00116
AFIX  23
H11A  3    0.181068    0.182207    0.786650    11.00000   -1.20000
H11B  3    0.054107    0.383770    0.814971    11.00000   -1.20000
AFIX   0
C12   1    0.069533    0.146249    0.923438    11.00000    0.04449    0.04138 =
         0.04533   -0.00719    0.01653   -0.00968
AFIX 137
H12A  3   -0.046457    0.077964    0.898767    11.00000   -1.50000
H12B  3    0.044928    0.241208    0.979416    11.00000   -1.50000
H12C  3    0.158410    0.033104    0.944945    11.00000   -1.50000
AFIX   0
C8    1    0.867237    0.279810    0.567311    11.00000    0.04213    0.06319 =
         0.03377   -0.01001    0.00435    0.01085
AFIX  93
H8A   3    0.901173    0.264631    0.500823    11.00000   -1.20000
H8B   3    0.915251    0.181786    0.616458    11.00000   -1.20000
AFIX   0
C7    1    0.674124    0.595506    0.516614    11.00000    0.04541    0.05174 =
         0.02621   -0.00007    0.00600    0.00034
AFIX 137
H7A   3    0.538649    0.596715    0.518799    11.00000   -1.50000
H7B   3    0.709091    0.552183    0.450473    11.00000   -1.50000
H7C   3    0.722624    0.741451    0.531717    11.00000   -1.50000
AFIX   0
H2    3    0.478026    0.162711    0.894718    11.00000   -1.50000
H1    3    0.528214    0.831560    0.934896    11.00000   -1.50000
HKLF 4
 
REM  cd1547_a.res in P2(1)
REM R1 =  0.0368 for    1873 Fo > 4sig(Fo)  and  0.0383 for all    1921 data
REM    136 parameters refined using      1 restraints
 
END  
     
WGHT      0.0495      0.1167 

REM Highest difference peak  0.218,  deepest hole -0.121,  1-sigma level  0.033
Q1    1   0.4957  0.5876  0.8139  11.00000  0.05    0.22
Q2    1   0.5933  0.4068  0.7021  11.00000  0.05    0.20
Q3    1   0.2400  0.3534  0.8575  11.00000  0.05    0.18
Q4    1   0.4479  0.4566  0.7565  11.00000  0.05    0.16
Q5    1   0.8801  0.4416  0.5836  11.00000  0.05    0.16
Q6    1   0.3706  0.4670  0.8279  11.00000  0.05    0.15
Q7    1   0.3401  0.6115  0.7684  11.00000  0.05    0.15
Q8    1   0.7441  0.2892  0.5783  11.00000  0.05    0.15
Q9    1   0.6287  0.6825  0.7800  11.00000  0.05    0.14
Q10   1   0.7098  0.4468  0.6400  11.00000  0.05    0.14

  REM The information below was added by Olex2.
  REM
  REM R1 = 0.0368 for 1873 Fo > 4sig(Fo) and 0.0383 for all 10256 data
  REM n/a parameters refined using n/a restraints
  REM Highest difference peak 0.22, deepest hole -0.12
  REM Mean Shift 0, Max Shift 0.000.

  REM +++ Tabular Listing of Refinement Information +++
  REM R1_all = 0.0383
  REM R1_gt = 0.0368
  REM wR_ref = 0.0937
  REM GOOF = 1.025
  REM Shift_max = 0.000
  REM Shift_mean = 0
  REM Reflections_all = 10256
  REM Reflections_gt = 1873
  REM Parameters = n/a
  REM Hole = -0.12
  REM Peak = 0.22
  REM Flack = 0.4(8)

  
;
_cod_data_source_file            ja7b07128_si_002.cif
_cod_data_source_block           cd1547
_cod_database_code               4126328
_shelx_shelxl_version_number     2014/7
_chemical_oxdiff_formula         C12O2H12
_shelx_space_group_comment
;
The symmetry employed for this shelxl refinement is uniquely defined
by the following loop, which should always be used as a source of
symmetry information in preference to the above space-group names.
They are only intended as comments.
;
_reflns_odcompleteness_completeness 99.93
_reflns_odcompleteness_iscentric 1
_reflns_odcompleteness_theta     26.32
_olex2_refinement_description
;
1. Fixed Uiso
 At 1.2 times of:
  All C(H) groups, All C(H,H) groups
 At 1.5 times of:
  All C(H,H,H) groups, All C(H,H,H,H,H) groups
2.a Ternary CH refined with riding coordinates:
 C10(H10), C1(H1A), C3(H3)
2.b Secondary CH2 refined with riding coordinates:
 C4(H4A,H4B), C2(H2A,H2B), C11(H11A,H11B)
2.c X=CH2 refined with riding coordinates:
 C8(H8A,H8B)
2.d Idealised Me refined as rotating group:
 C9(H9A,H9B,H9C), C12(H12A,H12B,H12C), C7(H7A,H7B,H7C)
;
_olex2_exptl_crystal_mounting_method 'nylon loop'
_olex2_submission_special_instructions 'No special instructions were received'
_oxdiff_exptl_absorpt_empirical_details
;
Empirical correction (ABSPACK) includes:
- Absorption correction using spherical harmonics
- Frame scaling
- Detector area scaling
;
_oxdiff_exptl_absorpt_empirical_full_max 1.310
_oxdiff_exptl_absorpt_empirical_full_min 0.818
loop_
_space_group_symop_operation_xyz
'x, y, z'
'-x, y+1/2, -z'
loop_
_atom_site_label
_atom_site_type_symbol
_atom_site_fract_x
_atom_site_fract_y
_atom_site_fract_z
_atom_site_U_iso_or_equiv
_atom_site_adp_type
_atom_site_occupancy
_atom_site_site_symmetry_order
_atom_site_calc_flag
_atom_site_refinement_flags_posn
O2 O 0.4577(2) 0.2744(3) 0.92472(11) 0.0287(4) Uani 1 1 d .
O1 O 0.5453(2) 0.8582(3) 0.87916(11) 0.0318(4) Uani 1 1 d .
C5 C 0.4103(3) 0.5354(4) 0.78987(15) 0.0251(5) Uani 1 1 d .
C10 C 0.3227(3) 0.4093(4) 0.87387(15) 0.0256(5) Uani 1 1 d .
H10 H 0.2831 0.5202 0.9226 0.031 Uiso 1 1 calc R
C1 C 0.5849(3) 0.6596(4) 0.83044(15) 0.0262(5) Uani 1 1 d .
H1A H 0.6542 0.5628 0.8788 0.031 Uiso 1 1 calc R
C4 C 0.4891(3) 0.3875(4) 0.70958(14) 0.0277(5) Uani 1 1 d .
H4A H 0.4148 0.4032 0.6465 0.033 Uiso 1 1 calc R
H4B H 0.4855 0.2330 0.7303 0.033 Uiso 1 1 calc R
C3 C 0.6928(3) 0.4606(4) 0.69653(15) 0.0293(5) Uani 1 1 d .
H3 H 0.7747 0.3646 0.7395 0.035 Uiso 1 1 calc R
C6 C 0.7537(3) 0.4367(5) 0.59134(16) 0.0327(6) Uani 1 1 d .
C9 C 0.2683(3) 0.6964(4) 0.74358(16) 0.0313(5) Uani 1 1 d .
H9A H 0.1738 0.6162 0.7038 0.047 Uiso 1 1 calc GR
H9B H 0.3314 0.7992 0.7013 0.047 Uiso 1 1 calc GR
H9C H 0.2091 0.7764 0.7960 0.047 Uiso 1 1 calc GR
C2 C 0.7021(3) 0.6890(4) 0.74118(16) 0.0306(5) Uani 1 1 d .
H2A H 0.8311 0.7308 0.7611 0.037 Uiso 1 1 calc R
H2B H 0.6479 0.7991 0.6948 0.037 Uiso 1 1 calc R
C11 C 0.1501(3) 0.2809(5) 0.84118(17) 0.0342(5) Uani 1 1 d .
H11A H 0.1811 0.1822 0.7866 0.041 Uiso 1 1 calc R
H11B H 0.0541 0.3838 0.8150 0.041 Uiso 1 1 calc R
C12 C 0.0695(4) 0.1462(5) 0.92344(19) 0.0433(7) Uani 1 1 d .
H12A H -0.0465 0.0780 0.8988 0.065 Uiso 1 1 calc GR
H12B H 0.0449 0.2412 0.9794 0.065 Uiso 1 1 calc GR
H12C H 0.1584 0.0331 0.9449 0.065 Uiso 1 1 calc GR
C8 C 0.8672(4) 0.2798(6) 0.56731(19) 0.0463(7) Uani 1 1 d .
H8A H 0.9012 0.2646 0.5008 0.056 Uiso 1 1 calc R
H8B H 0.9153 0.1818 0.6165 0.056 Uiso 1 1 calc R
C7 C 0.6741(4) 0.5955(5) 0.51661(17) 0.0410(7) Uani 1 1 d .
H7A H 0.5386 0.5967 0.5188 0.061 Uiso 1 1 calc GR
H7B H 0.7091 0.5522 0.4505 0.061 Uiso 1 1 calc GR
H7C H 0.7226 0.7415 0.5317 0.061 Uiso 1 1 calc GR
H2 H 0.478(5) 0.163(7) 0.895(3) 0.061 Uiso 1 1 d R
H1 H 0.528(4) 0.832(7) 0.935(3) 0.061 Uiso 1 1 d R
loop_
_atom_site_aniso_label
_atom_site_aniso_U_11
_atom_site_aniso_U_22
_atom_site_aniso_U_33
_atom_site_aniso_U_23
_atom_site_aniso_U_13
_atom_site_aniso_U_12
O2 0.0410(9) 0.0226(9) 0.0221(8) 0.0014(6) -0.0017(6) 0.0052(8)
O1 0.0496(10) 0.0243(9) 0.0212(7) -0.0007(7) -0.0012(7) 0.0004(7)
C5 0.0302(11) 0.0233(12) 0.0214(10) -0.0012(8) -0.0010(8) 0.0027(9)
C10 0.0312(11) 0.0238(12) 0.0221(10) -0.0019(8) 0.0033(8) 0.0052(9)
C1 0.0333(12) 0.0231(12) 0.0220(10) 0.0005(9) -0.0023(8) 0.0002(9)
C4 0.0333(12) 0.0297(13) 0.0200(9) -0.0025(9) 0.0014(8) -0.0002(10)
C3 0.0288(12) 0.0347(14) 0.0240(10) -0.0005(9) -0.0011(8) 0.0027(10)
C6 0.0269(11) 0.0445(15) 0.0270(11) -0.0054(10) 0.0034(8) -0.0010(11)
C9 0.0351(12) 0.0296(13) 0.0287(11) 0.0033(10) -0.0038(9) 0.0043(10)
C2 0.0309(11) 0.0345(14) 0.0263(10) -0.0015(10) -0.0002(9) -0.0026(10)
C11 0.0331(11) 0.0321(14) 0.0373(12) 0.0012(11) 0.0020(9) 0.0012(12)
C12 0.0445(14) 0.0414(16) 0.0453(14) -0.0072(12) 0.0165(11) -0.0097(13)
C8 0.0421(13) 0.063(2) 0.0338(13) -0.0100(13) 0.0043(10) 0.0108(15)
C7 0.0454(14) 0.0517(17) 0.0262(11) -0.0001(12) 0.0060(10) 0.0003(13)
loop_
_atom_type_symbol
_atom_type_description
_atom_type_scat_dispersion_real
_atom_type_scat_dispersion_imag
_atom_type_scat_source
C C 0.0033 0.0016 'International Tables Vol C Tables 4.2.6.8 and 6.1.1.4'
O O 0.0106 0.0060 'International Tables Vol C Tables 4.2.6.8 and 6.1.1.4'
H H 0.0000 0.0000 'International Tables Vol C Tables 4.2.6.8 and 6.1.1.4'
loop_
_geom_angle_atom_site_label_1
_geom_angle_atom_site_label_2
_geom_angle_atom_site_label_3
_geom_angle
C10 O2 H2 113(3)
C1 O1 H1 108(3)
C10 C5 C1 110.03(16)
C10 C5 C4 113.81(19)
C4 C5 C1 102.53(17)
C9 C5 C10 109.59(18)
C9 C5 C1 110.04(19)
C9 C5 C4 110.63(17)
O2 C10 C5 110.65(17)
O2 C10 H10 106.7
O2 C10 C11 111.60(19)
C5 C10 H10 106.7
C11 C10 C5 114.00(17)
C11 C10 H10 106.7
O1 C1 C5 114.05(18)
O1 C1 H1A 108.1
O1 C1 C2 113.57(19)
C5 C1 H1A 108.1
C2 C1 C5 104.58(17)
C2 C1 H1A 108.1
C5 C4 H4A 110.3
C5 C4 H4B 110.3
C5 C4 C3 107.06(18)
H4A C4 H4B 108.6
C3 C4 H4A 110.3
C3 C4 H4B 110.3
C4 C3 H3 107.3
C6 C3 C4 113.47(18)
C6 C3 H3 107.3
C6 C3 C2 116.8(2)
C2 C3 C4 104.05(18)
C2 C3 H3 107.3
C8 C6 C3 121.1(2)
C8 C6 C7 122.1(2)
C7 C6 C3 116.8(2)
C5 C9 H9A 109.5
C5 C9 H9B 109.5
C5 C9 H9C 109.5
H9A C9 H9B 109.5
H9A C9 H9C 109.5
H9B C9 H9C 109.5
C1 C2 C3 101.00(19)
C1 C2 H2A 111.6
C1 C2 H2B 111.6
C3 C2 H2A 111.6
C3 C2 H2B 111.6
H2A C2 H2B 109.4
C10 C11 H11A 108.8
C10 C11 H11B 108.8
C10 C11 C12 113.9(2)
H11A C11 H11B 107.7
C12 C11 H11A 108.8
C12 C11 H11B 108.8
C11 C12 H12A 109.5
C11 C12 H12B 109.5
C11 C12 H12C 109.5
H12A C12 H12B 109.5
H12A C12 H12C 109.5
H12B C12 H12C 109.5
C6 C8 H8A 120.0
C6 C8 H8B 120.0
H8A C8 H8B 120.0
C6 C7 H7A 109.5
C6 C7 H7B 109.5
C6 C7 H7C 109.5
H7A C7 H7B 109.5
H7A C7 H7C 109.5
H7B C7 H7C 109.5
loop_
_geom_bond_atom_site_label_1
_geom_bond_atom_site_label_2
_geom_bond_distance
O2 C10 1.429(3)
O2 H2 0.81(4)
O1 C1 1.423(3)
O1 H1 0.79(3)
C5 C10 1.539(3)
C5 C1 1.550(3)
C5 C4 1.548(3)
C5 C9 1.535(3)
C10 H10 1.0000
C10 C11 1.521(3)
C1 H1A 1.0000
C1 C2 1.522(3)
C4 H4A 0.9900
C4 H4B 0.9900
C4 C3 1.557(3)
C3 H3 1.0000
C3 C6 1.520(3)
C3 C2 1.527(3)
C6 C8 1.316(4)
C6 C7 1.499(4)
C9 H9A 0.9800
C9 H9B 0.9800
C9 H9C 0.9800
C2 H2A 0.9900
C2 H2B 0.9900
C11 H11A 0.9900
C11 H11B 0.9900
C11 C12 1.526(3)
C12 H12A 0.9800
C12 H12B 0.9800
C12 H12C 0.9800
C8 H8A 0.9500
C8 H8B 0.9500
C7 H7A 0.9800
C7 H7B 0.9800
C7 H7C 0.9800
loop_
_refln_index_h
_refln_index_k
_refln_index_l
_refln_F_squared_meas
_refln_F_squared_sigma
0 -10 1 7.81 2.32
0 -10 2 2.1 1.66
0 -10 3 -0.66 1.18
0 -10 4 12.09 2.89
0 -10 5 15.82 3.29
0 -10 6 3.76 1.89
0 -10 7 5.58 2.28
0 -10 8 11.09 2.9
0 -10 9 10.22 3.1
0 -9 0 3.52 1.71
0 -9 0 0.23 0.85
0 -9 1 1.28 1.15
0 -9 1 2 1.19
0 -9 -1 1.51 1.37
0 -9 -1 2.13 1.28
0 -9 2 23.27 2.83
0 -9 2 29.35 3.91
0 -9 -2 30.74 3.79
0 -9 3 29.68 3.93
0 -9 3 23.83 2.92
0 -9 4 38.55 3.6
0 -9 4 36.7 4.27
0 -9 -5 33.6 3.55
0 -9 5 36.04 3.64
0 -9 5 38.49 4.51
0 -9 -6 13.75 2.42
0 -9 6 8.27 2.34
0 -9 6 10.99 2.18
0 -9 7 3.62 1.73
0 -9 7 4.63 1.82
0 -9 -7 5.78 1.9
0 -9 -8 6.75 1.92
0 -9 8 5.15 1.8
0 -9 8 7.75 2.63
0 -9 9 1.74 1.75
0 -9 -9 6.02 2.03
0 -9 -10 31.14 3.98
0 -9 10 30.7 4.45
0 -9 11 15.9 3.41
0 -9 -11 17.96 3.34
0 -9 12 2.2 1.7
0 -9 -12 6.99 2.29
0 -9 13 14.97 3.31
0 -8 0 70.29 4.3
0 -8 0 78.49 5.57
0 -8 -1 48.53 3.6
0 -8 -1 49.17 3.54
0 -8 1 49.9 4.54
0 -8 1 50.93 3.72
0 -8 -1 47.26 4.24
0 -8 2 17.08 2.22
0 -8 -2 13.12 1.9
0 -8 -2 17.17 2.6
0 -8 -2 12.03 1.88
0 -8 2 20.04 3.09
0 -8 3 21.36 2.5
0 -8 -3 23.55 3.01
0 -8 3 27.06 3.39
0 -8 -3 22.09 2.64
0 -8 4 24.34 3.49
0 -8 4 27.59 2.88
0 -8 -4 27.99 3.14
0 -8 -4 25.03 3.01
0 -8 5 22.31 2.66
0 -8 5 22.59 3.35
0 -8 -5 20.53 2.78
0 -8 6 5.88 2.03
0 -8 -6 3.42 1.43
0 -8 -7 4.02 1.67
0 -8 7 4.73 1.59
0 -8 8 35.73 4.18
0 -8 -8 32.6 3.61
0 -8 9 9.07 2.4
0 -8 -9 10.11 2.25
0 -8 10 6.45 2.1
0 -8 -10 6.6 1.89
0 -8 -11 5.9 2.04
0 -8 11 3.98 1.73
0 -8 12 8.74 2.48
0 -8 -12 18.02 3.27
0 -8 13 12.37 2.75
0 -8 -13 17.24 3.13
0 -8 14 27.42 4.14
0 -8 -14 27.03 3.96
0 -8 15 8.5 2.7
0 -8 -15 6.49 2.26
0 -8 -16 10.29 2.83
0 -7 0 0.49 0.82
0 -7 0 0.89 0.77
0 -7 0 0.61 0.65
0 -7 -1 198.08 6.56
0 -7 -1 222.29 8.23
0 -7 1 212.86 8.41
0 -7 1 211.41 6.97
0 -7 1 209.4 6.01
0 -7 -1 210.3 6.63
0 -7 -2 94.18 4.72
0 -7 -2 89.9 4.44
0 -7 2 87.41 4.54
0 -7 2 98.84 5.75
0 -7 -2 91.94 5.24
0 -7 -3 100.14 4.65
0 -7 3 107.75 5.15
0 -7 -3 106.66 5.32
0 -7 -3 118.78 5.8
0 -7 3 113.32 6.4
0 -7 -4 9.35 1.79
0 -7 -4 9.29 1.76
0 -7 4 10.41 2.05
0 -7 -5 11.9 1.98
0 -7 -5 15.71 2.11
0 -7 5 13.51 2.45
0 -7 -6 29.09 3.15
0 -7 6 24.59 3.23
0 -7 7 66.6 5.2
0 -7 -7 57.8 4.46
0 -7 8 4.21 1.66
0 -7 -8 3.54 1.34
0 -7 -9 2.98 1.46
0 -7 9 2.12 1.31
0 -7 -10 7.72 2.03
0 -7 10 8.07 2.08
0 -7 -11 8.76 2.04
0 -7 11 7.82 2.14
0 -7 12 12.26 2.67
0 -7 -12 17.38 2.86
0 -7 13 4.9 1.87
0 -7 -13 6.12 2.07
0 -7 -14 19.01 3.17
0 -7 14 14.36 2.8
0 -7 15 6.9 2.53
0 -7 -15 7.46 2.35
0 -7 -16 9.38 2.47
0 -7 16 11.79 2.65
0 -7 -17 18.13 3.37
0 -7 -18 6.73 2.39
0 -6 0 2 1.17
0 -6 0 1.94 0.8
0 -6 0 1.82 0.74
0 -6 -1 25.01 2.15
0 -6 1 24.42 2.04
0 -6 -1 26.17 2.29
0 -6 -1 26.06 2.6
0 -6 1 25.41 2.23
0 -6 1 27.22 2.79
0 -6 -2 196.32 6.3
0 -6 2 189.74 6.09
0 -6 2 182.06 4.87
0 -6 -2 201.35 6.03
0 -6 -2 187.96 6.67
0 -6 2 185.88 7.15
0 -6 -3 4.06 0.94
0 -6 3 3.02 1.24
0 -6 -3 4.07 1.1
0 -6 -3 3.29 0.96
0 -6 4 47.42 3.9
0 -6 -4 44.76 3.26
0 -6 -4 44.69 3.28
0 -6 5 8.95 1.93
0 -6 -5 9.19 1.69
0 -6 5 5.8 0.91
0 -6 -5 5.29 1.26
0 -6 6 7.91 1.79
0 -6 -6 9.95 1.74
0 -6 6 8.88 1.24
0 -6 -6 8.44 1.39
0 -6 7 6.38 1.19
0 -6 7 4.56 1.59
0 -6 -7 8.15 1.76
0 -6 8 158.86 5.85
0 -6 -8 159.9 6.99
0 -6 8 156.62 7.35
0 -6 9 31.35 3.35
0 -6 9 30.76 2.76
0 -6 -9 36.26 3.54
0 -6 10 13.71 2
0 -6 -10 14.35 2.43
0 -6 10 13.07 2.34
0 -6 -11 28.21 3.37
0 -6 11 27.46 3.34
0 -6 11 23.25 2.67
0 -6 -12 78.49 5.61
0 -6 12 72.53 4.94
0 -6 12 76.21 5.49
0 -6 13 78.22 5.64
0 -6 13 72.17 5.05
0 -6 -13 81.13 5.99
0 -6 14 34.31 3.67
0 -6 -14 35.36 4.05
0 -6 14 31.15 3.73
0 -6 -15 21.99 3.36
0 -6 15 15.22 2.88
0 -6 15 13.55 2.62
0 -6 16 4.59 1.85
0 -6 16 1.36 1.33
0 -6 -16 6.66 2.13
0 -6 -17 3.91 1.88
0 -6 17 3.35 1.74
0 -6 18 7.11 2.23
0 -6 -18 10.46 2.5
0 -6 -19 10.64 2.78
0 -6 19 10.55 2.65
0 -6 20 2.92 1.92
0 -5 0 -0.82 0.58
0 -5 0 0.97 0.63
0 -5 0 1.11 0.67
0 -5 -1 233.93 5.96
0 -5 -1 246.44 7.05
0 -5 -1 249.3 6.06
0 -5 1 239.16 7.17
0 -5 1 245.33 5.57
0 -5 1 239.15 6.12
0 -5 -2 87.59 3.55
0 -5 -2 83.54 3.79
0 -5 2 66.57 1.6
0 -5 2 85.58 4.42
0 -5 2 87.72 3.07
0 -5 -2 90.51 4.19
0 -5 -3 135.06 5
0 -5 3 140.59 5.83
0 -5 -3 142.89 4.66
0 -5 -3 143.43 5.07
0 -5 3 136.42 3.27
0 -5 -4 2.82 0.76
0 -5 4 2.83 1.19
0 -5 -4 3.13 0.87
0 -5 4 3.19 0.7
0 -5 5 96.57 3.6
0 -5 5 99.53 5.16
0 -5 -5 97.15 3.94
0 -5 -5 89.04 4.39
0 -5 -6 132.24 4.29
0 -5 6 113.45 5.53
0 -5 -6 123.31 5.36
0 -5 6 133.75 4.65
0 -5 7 8.73 1.36
0 -5 7 8.66 1.7
0 -5 -7 8.33 1.53
0 -5 8 85.71 4.95
0 -5 8 79.93 4.14
0 -5 -8 82.27 4.62
0 -5 -9 1.95 1.03
0 -5 9 0.28 0.64
0 -5 9 0.92 0.86
0 -5 10 17.55 2.51
0 -5 10 16.26 2.12
0 -5 -10 15.24 2.17
0 -5 11 216.11 8.39
0 -5 -11 206.77 8.05
0 -5 11 214.4 7.83
0 -5 12 8.88 1.9
0 -5 12 9.45 1.9
0 -5 -12 8.19 1.86
0 -5 13 34.71 3.54
0 -5 -13 30.8 3.44
0 -5 13 41.34 3.89
0 -5 14 12.76 2.43
0 -5 -14 16.06 2.7
0 -5 14 12.34 2.42
0 -5 -15 26.62 3.55
0 -5 15 29.52 3.53
0 -5 15 27.6 3.4
0 -5 -16 44.93 4.52
0 -5 16 51.78 4.85
0 -5 16 55.86 4.79
0 -5 17 8.93 2.06
0 -5 17 9.93 2.48
0 -5 -17 13 2.53
0 -5 -18 30.38 3.8
0 -5 18 26.79 3.83
0 -5 -19 4.47 1.85
0 -5 19 4.83 2.06
0 -5 20 29.26 4.14
0 -5 -20 6.68 3.57
0 -5 21 4.89 2.15
0 -5 22 16.21 3.29
0 -4 0 83.95 3.71
0 -4 0 86.23 3.11
0 -4 0 87.11 3.25
0 -4 1 35.68 1.92
0 -4 -1 38.79 2.17
0 -4 1 26.89 0.82
0 -4 -1 33.35 2.29
0 -4 -1 38.74 2.23
0 -4 1 36.1 2.58
0 -4 -2 341.32 6.91
0 -4 -2 334.51 6.87
0 -4 2 357.91 5.42
0 -4 2 340.79 4.56
0 -4 2 325.36 7.57
0 -4 -2 344.67 6.37
0 -4 3 188.26 4.08
0 -4 -3 183.53 4.72
0 -4 3 189.73 3.38
0 -4 -3 186.57 5.39
0 -4 -3 177.25 4.94
0 -4 3 176.75 5.67
0 -4 -4 85.76 3.81
0 -4 4 93.95 3.27
0 -4 -4 83.48 3.27
0 -4 4 87.06 4.11
0 -4 5 174.64 4.88
0 -4 -5 163.43 4.24
0 -4 -5 165.24 5.51
0 -4 5 158.86 5.74
0 -4 6 75.33 3.45
0 -4 6 71.59 3.97
0 -4 -6 73.41 2.62
0 -4 -6 73.37 3.86
0 -4 7 242.82 6.6
0 -4 -7 237.1 7.05
0 -4 7 233.33 7.32
0 -4 8 186.78 6.68
0 -4 8 193.14 6.26
0 -4 -8 196.69 6.62
0 -4 -9 48.04 3.39
0 -4 9 49.18 3.33
0 -4 9 45.28 3.41
0 -4 10 18.45 2.18
0 -4 -10 16.6 2.29
0 -4 10 17.23 2.21
0 -4 11 2.61 1.19
0 -4 -11 2.52 1.15
0 -4 11 2.19 1.01
0 -4 12 77.54 4.71
0 -4 12 76.12 4.85
0 -4 -12 72.5 4.58
0 -4 13 38.37 3.67
0 -4 13 42.64 3.59
0 -4 -13 38.92 3.5
0 -4 14 85.63 5.26
0 -4 -14 87.81 5.47
0 -4 14 85.32 5.52
0 -4 -15 1.96 1.14
0 -4 15 1.9 1.17
0 -4 15 0.92 1.03
0 -4 16 10.73 2.07
0 -4 16 10.52 2.29
0 -4 -16 10.31 2.27
0 -4 -17 75.52 5.54
0 -4 17 66.79 5.43
0 -4 18 28.89 3.87
0 -4 -18 23.2 3.22
0 -4 -19 11.56 2.92
0 -4 19 11.02 2.89
0 -4 20 13.04 2.96
0 -4 -20 6.67 2.63
0 -4 21 4.78 2.07
0 -4 22 4.59 2.24
0 -3 0 0.42 0.49
0 -3 0 -0.02 0.38
0 -3 -1 106.84 3.04
0 -3 -1 104.64 3.36
0 -3 1 104.03 2.73
0 -3 1 98.31 1.93
0 -3 -1 98.95 3.09
0 -3 1 100.98 3.56
0 -3 -2 570.53 7.07
0 -3 2 567.55 5.53
0 -3 -2 542.05 7.78
0 -3 2 549.31 8.53
0 -3 2 569.5 5.94
0 -3 -2 563.99 7.44
0 -3 3 671.11 9.62
0 -3 -3 652.45 8.98
0 -3 3 652.93 4.89
0 -3 -3 658.83 7.56
0 -3 -3 682.22 7.87
0 -3 -4 233.91 4.33
0 -3 4 231.78 5.93
0 -3 -4 224.86 5.53
0 -3 -5 93.06 2.52
0 -3 -5 92.28 3.68
0 -3 5 93.07 3.86
0 -3 -6 51.34 1.61
0 -3 -6 65.95 3.27
0 -3 6 66.43 3.35
0 -3 7 115.73 4.6
0 -3 -7 113.29 4.54
0 -3 8 339.43 8.2
0 -3 -8 353.34 8.24
0 -3 9 89.99 4.3
0 -3 9 109.83 4.77
0 -3 -9 113.04 4.78
0 -3 -10 277.73 7.81
0 -3 10 276.37 7.73
0 -3 10 278.75 8.16
0 -3 -11 319.04 8.66
0 -3 11 317.17 8.48
0 -3 11 310.01 8.96
0 -3 12 27.23 2.55
0 -3 -12 27.38 2.76
0 -3 12 19.79 2.51
0 -3 -13 68.19 4.29
0 -3 13 72.84 4.27
0 -3 13 70.49 4.68
0 -3 14 11.81 2.24
0 -3 14 12.47 1.97
0 -3 -14 17.44 2.39
0 -3 -15 31.36 3.18
0 -3 15 31.52 3.54
0 -3 15 35.02 3.19
0 -3 16 3.42 1.32
0 -3 -16 1.77 1.19
0 -3 16 4.22 1.69
0 -3 -17 2.8 1.38
0 -3 17 1.96 1.51
0 -3 -18 35.52 3.56
0 -3 18 43.3 4.58
0 -3 -19 44.72 4.12
0 -3 19 41.78 4.66
0 -3 20 1.23 1.47
0 -3 -20 3.82 2.1
0 -3 21 2.71 1.83
0 -3 22 2.11 1.59
0 -3 23 4.71 2.32
0 -2 0 1454.74 8.94
0 -2 0 1460.62 10.36
0 -2 1 593.06 4.95
0 -2 -1 596.63 6.26
0 -2 -1 598.08 5.81
0 -2 -1 587.95 6.29
0 -2 1 589.72 7.04
0 -2 2 5.49 0.76
0 -2 -2 6.01 0.61
0 -2 2 5.44 0.41
0 -2 -2 4.45 0.7
0 -2 -2 5.67 0.61
0 -2 -3 229.91 3.25
0 -2 -3 230.58 4.62
0 -2 3 233.65 4.87
0 -2 4 1490.92 12.81
0 -2 -4 1501.57 12.58
0 -2 -4 1478.13 7.42
0 -2 5 246.64 5.52
0 -2 -5 252.87 5.5
0 -2 6 314.8 6.36
0 -2 -6 331.01 6.69
0 -2 -7 835.15 10.98
0 -2 7 815.11 10.69
0 -2 8 1.17 0.25
0 -2 -8 0.31 0.38
0 -2 -9 196.41 5.89
0 -2 9 207.11 3.23
0 -2 9 197.22 5.69
0 -2 10 417.07 8.55
0 -2 -10 415.28 8.9
0 -2 10 433.11 5.23
0 -2 -11 282.71 7.55
0 -2 11 299.59 7.51
0 -2 -12 538.45 10.81
0 -2 12 568.7 10.72
0 -2 12 547.06 12.26
0 -2 13 10.86 1.93
0 -2 -13 15.07 1.95
0 -2 13 15.39 1.86
0 -2 -14 27.28 2.7
0 -2 14 23.3 2.93
0 -2 14 25.48 2.49
0 -2 15 3.53 1.56
0 -2 15 -0.03 0.63
0 -2 -15 2.05 1.28
0 -2 16 24.01 3.15
0 -2 -16 21.5 2.62
0 -2 17 88.83 6.21
0 -2 -17 85.77 5.12
0 -2 18 3.54 1.63
0 -2 -18 5.09 1.59
0 -2 -19 41.84 3.74
0 -2 19 40.3 4.43
0 -2 -20 8.89 2.01
0 -2 20 12.01 2.67
0 -2 21 1.52 1.45
0 -2 22 5.92 2.23
0 -2 23 8.26 2.95
0 -2 24 6.15 2.64
0 -1 0 0.89 0.22
0 -1 0 1.28 0.22
0 -1 -1 5258.77 12.52
0 -1 1 5101.86 15.32
0 -1 -1 5112.46 11.99
0 -1 2 498.59 5.25
0 -1 -2 487.91 5.18
0 -1 -3 4739.82 17.42
0 -1 3 4689.49 17.34
0 -1 -4 620.81 6.96
0 -1 4 628.23 3.97
0 -1 4 637.52 6.82
0 -1 5 79.24 2.58
0 -1 5 83.97 1.79
0 -1 -5 76.09 2.68
0 -1 6 161.81 2.88
0 -1 -6 148.45 3.97
0 -1 6 144.12 3.69
0 -1 -7 144.85 4.09
0 -1 7 147.83 4.01
0 -1 8 155.99 4.3
0 -1 -8 145.26 4.39
0 -1 -9 805.69 10.82
0 -1 9 804.86 10.23
0 -1 -10 18 0.72
0 -1 10 24.3 1.9
0 -1 -10 24.18 2.02
0 -1 11 115.4 4.22
0 -1 -11 119.43 4.54
0 -1 12 82.54 3.69
0 -1 12 78.81 4.61
0 -1 -12 81.24 3.89
0 -1 13 114.74 4.49
0 -1 13 114.69 5.75
0 -1 -13 114.06 4.78
0 -1 -14 105.95 4.81
0 -1 14 100.62 5.67
0 -1 -15 181.54 6.54
0 -1 15 158.08 7.49
0 -1 -16 26.1 2.69
0 -1 16 18.81 2.81
0 -1 17 4.74 1.55
0 -1 -17 6.92 1.55
0 -1 18 29.75 3.83
0 -1 -18 26.9 2.82
0 -1 19 4.44 1.84
0 -1 -19 7.35 1.77
0 -1 20 21.22 3.34
0 -1 21 7.65 2.5
0 -1 22 27.11 4.15
0 -1 23 3.88 2.11
0 -1 24 8.26 2.96
0 0 -2 1358.39 5.15
0 0 2 1356.98 5.1
0 0 -2 1361.74 5.91
0 0 2 1370.13 5.95
0 0 3 2808.8 8.97
0 0 -3 2818.69 10.53
0 0 3 2885.3 10.6
0 0 -3 2782.53 8.92
0 0 -4 30.35 1.08
0 0 4 31.86 1.34
0 0 4 30.37 1.1
0 0 -4 29.17 1.25
0 0 -5 2788.51 11.62
0 0 -5 2761.63 13.65
0 0 5 2790.18 11.77
0 0 -6 1158.16 8.3
0 0 -6 1115.74 9.26
0 0 6 1180.52 8.33
0 0 -7 274.83 4.39
0 0 7 285.32 4.57
0 0 -7 269.18 4.98
0 0 -8 6.84 0.91
0 0 8 6.14 0.8
0 0 9 126.77 3.6
0 0 -9 135.24 3.99
0 0 -10 54.47 2.67
0 0 -11 5.45 1.07
0 0 12 16.34 2.17
0 0 -12 15.16 1.67
0 0 -13 0.35 0.52
0 0 13 1.23 0.83
0 0 14 38.96 3.51
0 0 -14 47.15 2.98
0 0 15 10.2 2.01
0 0 -15 11.51 1.58
0 0 16 31.53 3.59
0 0 -16 24.51 2.3
0 0 -17 20.78 2.22
0 0 17 22.01 3.02
0 0 18 15.87 2.94
0 0 19 0.32 1.05
0 0 20 11.47 2.82
0 0 21 119.35 8.06
0 0 22 47.53 5.32
0 0 23 27.31 4.37
0 0 24 40.12 5.08
0 1 0 1.81 0.27
0 1 0 0.78 0.24
0 1 -1 5163.31 15.27
0 1 1 5064.16 14.37
0 1 -2 489.62 5.16
0 1 2 496.72 4.34
0 1 2 483.42 5.26
0 1 -3 4777.78 17.5
0 1 -4 628.21 3.93
0 1 -5 76.65 1.7
0 1 -6 148.71 2.75
0 1 -7 146.08 3.04
0 1 -8 160.94 3.5
0 1 -9 851.38 8.72
0 1 -10 29.3 1.78
0 1 11 119.67 5.32
0 1 -11 121.86 3.72
0 1 -12 82.21 3.22
0 1 12 85.84 4.73
0 1 13 121.04 5.92
0 1 -13 119.54 3.99
0 1 -14 100.1 3.81
0 1 14 100.26 5.59
0 1 15 159.42 7.38
0 1 16 20.03 2.8
0 1 17 5.98 1.77
0 1 18 29.6 3.71
0 1 19 6.72 1.96
0 1 20 21.1 3.49
0 1 21 8.57 2.58
0 1 22 29.73 4.34
0 1 23 4.1 2.31
0 1 24 11.11 2.94
0 2 0 1454.09 9.12
0 2 -1 581.26 5.1
0 2 1 614.12 6.2
0 2 2 6.47 0.61
0 2 2 4.33 0.37
0 2 -2 5.31 0.42
0 2 3 239.69 3.1
0 2 3 223.23 3.34
0 2 4 1495.94 10.33
0 2 4 1503.04 6.51
0 2 7 742.32 10.09
0 2 8 2.31 0.89
0 2 9 206.62 6.1
0 2 10 418.45 9.17
0 2 11 291.67 8.17
0 2 12 561.95 11.92
0 2 13 12.39 1.98
0 2 14 25.91 2.92
0 2 15 1.46 1.24
0 2 16 18.22 2.76
0 2 17 89.46 6.03
0 2 18 3.21 1.7
0 2 19 47.18 4.78
0 2 20 10.3 2.6
0 2 21 3.83 2.04
0 2 22 9.07 2.7
0 2 23 6.96 2.34
0 2 24 5.7 2.6
0 2 24 8.18 3.01
0 3 -2 565.88 5.56
0 3 3 614.69 4.89
0 3 -3 660.84 5.03
0 3 4 236.06 3.74
0 3 5 95.47 2.2
0 3 5 97.3 2.82
0 3 6 63.22 1.51
0 3 6 63.49 2.62
0 3 7 117.78 3.92
0 3 8 362.41 7.44
0 3 9 116.92 4.56
0 3 10 291.73 7.64
0 3 11 334.28 8.66
0 3 12 23.47 2.52
0 3 13 67.25 4.32
0 3 14 14.89 2.24
0 3 15 31.42 3.31
0 3 16 4.11 1.55
0 3 17 2.43 1.56
0 3 18 45.3 4.52
0 3 19 46.45 4.76
0 3 20 1.97 1.68
0 3 21 3.01 1.9
0 3 22 2.73 1.58
0 3 23 4.51 2.4
0 3 23 1.6 1.64
0 4 4 69.13 1.41
0 4 -4 84.2 1.92
0 4 5 166.22 3.31
0 4 6 73.89 2.51
0 4 6 75.26 2.62
0 4 7 230.44 5.09
0 4 7 222.99 3.42
0 4 8 198.34 5.23
0 4 9 49.9 2.86
0 4 10 14.63 1.8
0 4 11 3.25 1.07
0 4 12 70.72 4.13
0 4 13 44.33 3.48
0 4 14 78.49 4.87
0 4 15 0.74 0.93
0 4 16 9.24 2.14
0 4 17 66.16 5.17
0 4 18 26.14 3.45
0 4 19 15.72 2.9
0 4 20 10.33 2.64
0 4 20 14.88 3.13
0 4 21 8.06 2.63
0 4 21 9.34 2.56
0 5 -5 17.82 0.72
0 5 6 92.89 1.87
0 5 7 8.75 0.84
0 5 8 83.56 3.07
0 5 9 1.1 0.71
0 5 10 15.75 1.67
0 5 11 205.06 6.34
0 5 11 195.24 6.11
0 5 12 8.62 1.58
0 5 12 10.19 1.7
0 5 13 31.53 2.94
0 5 13 32.72 2.82
0 5 14 10.58 1.99
0 5 14 11.14 1.88
0 5 15 32.87 3.33
0 5 15 24.3 2.77
0 5 16 51.4 4.31
0 5 16 50.53 4.16
-1 -11 4 5.03 2.33
-1 -11 3 3.78 2.14
-1 -11 2 3.32 2.24
-1 -11 1 4.3 2.17
1 -10 -11 5.47 2.3
-1 -10 10 8.52 2.86
1 -10 -10 5.26 2.08
1 -10 -9 9.57 2.64
-1 -10 9 8.23 2.82
1 -10 -8 4.04 1.83
-1 -10 8 4 2.13
1 -10 -7 6.17 2.2
-1 -10 7 3.17 1.83
-1 -10 6 11.27 2.82
1 -10 -6 13.89 2.69
-1 -10 5 18 3.46
-1 -10 4 8.01 2.52
-1 -10 3 11.09 2.77
-1 -10 2 4.22 1.99
-1 -10 1 1.8 1.45
-1 -10 0 7.09 2.36
-1 -10 -1 18.1 3.17
1 -10 2 3.28 1.51
1 -10 3 4.48 1.82
1 -10 4 5.12 1.85
1 -10 5 9.85 2.44
1 -10 6 3.38 1.73
1 -10 7 2.6 1.63
1 -10 8 8.85 2.48
1 -10 9 5.74 2.14
-1 -9 14 7.48 2.7
1 -9 -14 8.97 2.77
1 -9 -13 9.24 2.61
-1 -9 13 4.25 2.18
1 -9 -12 12.06 2.9
-1 -9 12 11.3 2.95
-1 -9 11 15.43 3.18
1 -9 -11 16.5 3.1
-1 -9 10 6.18 2.31
1 -9 -10 5.18 2.02
-1 -9 9 5.5 2.29
1 -9 -9 8.81 2.4
1 -9 -8 6.53 1.87
-1 -9 8 4.67 1.92
-1 -9 7 23.87 3.85
1 -9 -7 26.42 3.46
-1 -9 6 5.4 2.21
1 -9 -6 10.46 2.37
1 -9 -5 8.69 2.04
-1 -9 5 9.49 2.46
1 -9 -4 52.68 4.32
-1 -9 4 58.93 5.5
1 -9 -3 10.13 2.06
-1 -9 3 15.43 2.86
-1 -9 2 31.15 4.01
1 -9 -2 29.84 3.07
1 -9 -1 17.65 2.64
-1 -9 1 13.97 2.62
1 -9 0 21.32 2.89
-1 -9 0 20.95 3.32
1 -9 1 8.23 1.95
-1 -9 -1 7.45 2.03
1 -9 2 14.74 2.47
-1 -9 -2 14.77 2.81
1 -9 3 2.69 1.21
-1 -9 -3 3.17 1.49
1 -9 3 3.62 1.62
1 -9 4 11.58 2.66
1 -9 4 8.7 2.06
1 -9 5 16.27 2.64
1 -9 5 18.95 3.19
1 -9 6 7.22 2.17
1 -9 6 6.03 1.89
1 -9 7 2.8 2.02
1 -9 7 2.98 1.5
1 -9 8 6.5 1.89
-1 -8 17 6.87 2.64
-1 -8 16 2.86 1.96
1 -8 -16 3.05 2.08
1 -8 -15 10.35 2.74
-1 -8 15 6.41 2.35
1 -8 -14 3.75 1.92
-1 -8 14 6.88 2.27
-1 -8 13 2.41 1.61
1 -8 -13 1.2 1.72
-1 -8 12 13.79 3.01
1 -8 -12 19.99 3.61
1 -8 -11 27.67 3.9
-1 -8 11 22.99 3.69
-1 -8 10 6.18 2.09
1 -8 -10 7.49 2.2
-1 -8 9 8.81 2.22
1 -8 -9 10.95 2.45
-1 -8 8 27.28 3.69
1 -8 -8 33.45 3.84
1 -8 -7 15.03 2.6
-1 -8 7 10.7 2.29
-1 -8 6 12.37 2.55
1 -8 -6 6.18 1.84
-1 -8 5 7.03 2.01
1 -8 -5 6.17 1.67
-1 -8 5 5.83 1.57
1 -8 -4 8.15 1.8
-1 -8 4 9.19 2.12
-1 -8 4 9.65 1.83
-1 -8 3 3.23 1.44
-1 -8 3 2.43 1.07
1 -8 -3 5.78 1.58
1 -8 -3 5.43 1.68
-1 -8 2 3.99 1.57
1 -8 -2 1.29 0.96
-1 -8 2 3.25 1.24
1 -8 -2 2.26 1.34
1 -8 -1 46.98 3.75
-1 -8 1 39.75 3.04
-1 -8 1 45.69 4.31
1 -8 -1 42.91 4.08
1 -8 -1 45.61 3.53
1 -8 0 10.37 1.92
-1 -8 0 7.72 1.39
1 -8 0 7.89 1.52
-1 -8 0 10.52 2.28
1 -8 0 7.8 1.96
-1 -8 -1 5.33 1.64
-1 -8 -1 4.71 1.19
1 -8 1 5.98 1.8
1 -8 1 6.8 1.56
1 -8 2 47.33 4.65
1 -8 2 38.61 3.53
-1 -8 -2 41.28 3.93
-1 -8 -3 4.75 1.52
1 -8 3 7.01 1.97
1 -8 3 6.91 1.68
1 -8 4 4.91 1.84
1 -8 4 8.23 1.67
-1 -8 -4 5.93 1.75
-1 -8 -5 25.87 3
1 -8 5 24.96 3.49
1 -8 5 28.32 3.21
1 -8 6 12.4 2.68
-1 -8 -7 11.01 2.31
1 -8 7 9.65 2.41
1 -8 8 7.31 2.12
-1 -8 -8 4.71 1.53
1 -8 9 7.74 2.21
-1 -8 -9 9.59 2.1
1 -8 10 4.78 1.75
-1 -8 -10 7.56 2.1
1 -8 11 3.38 1.79
1 -7 -18 7.09 2.5
-1 -7 18 10.03 2.53
1 -7 -17 17.64 3.36
-1 -7 17 16.93 3.21
-1 -7 16 2.7 1.67
1 -7 -16 5.78 2.34
-1 -7 15 6.47 2.22
1 -7 -15 5.81 2.1
1 -7 -14 17.68 3.31
-1 -7 14 15.06 2.81
-1 -7 13 25.61 3.67
1 -7 -13 27.35 3.85
-1 -7 12 17.14 2.83
1 -7 -12 19.42 3.14
1 -7 -11 26.28 3.39
-1 -7 11 25.47 3.55
1 -7 -10 75.48 5.63
-1 -7 10 82.07 6.11
-1 -7 9 25.59 3.37
1 -7 -9 25.51 3.24
-1 -7 8 15.24 2.67
1 -7 -8 16.49 2.62
1 -7 -7 20.46 2.72
-1 -7 7 24.23 3.18
-1 -7 6 17.99 2.67
1 -7 -6 20.5 2.6
1 -7 -5 25.54 2.79
-1 -7 5 25.24 3.33
1 -7 -4 33.92 3.15
-1 -7 4 44.13 4.04
1 -7 -3 36.92 3.13
-1 -7 3 38.98 2.94
1 -7 -3 33.37 2.97
1 -7 -3 36.04 3.36
-1 -7 3 39.2 3.74
1 -7 -2 49.5 3.98
-1 -7 2 50.03 3.21
1 -7 -2 57.89 3.64
1 -7 -2 52.72 3.68
-1 -7 2 58.05 4.47
-1 -7 1 82.26 5.25
1 -7 -1 78.19 4.06
1 -7 -1 77.61 4.43
-1 -7 1 75.54 3.87
1 -7 -1 70.78 4.83
-1 -7 0 46.58 2.96
1 -7 0 46.08 3.06
1 -7 0 45.72 3.87
1 -7 0 46.22 3.46
-1 -7 0 53.02 4.21
-1 -7 -1 87.97 4.02
1 -7 1 98.66 4.99
-1 -7 -1 87.24 5.17
1 -7 1 97.68 5.73
1 -7 1 96.03 4.24
1 -7 2 10.97 1.9
1 -7 2 9.07 1.29
-1 -7 -2 7.88 1.67
-1 -7 -2 8.78 1.39
1 -7 2 12.62 2.13
1 -7 3 2.39 0.65
-1 -7 -3 8.24 1.59
1 -7 3 6.41 1.67
1 -7 3 7.14 1.58
-1 -7 -3 9.56 1.71
-1 -7 -4 6.64 1.54
-1 -7 -4 10.75 1.77
1 -7 4 9.04 2.06
1 -7 5 5.53 1.83
-1 -7 -5 4.37 1.47
-1 -7 -5 1.59 0.9
-1 -7 -6 3.47 1.21
-1 -7 -6 1.61 1.08
1 -7 6 4.19 1.68
1 -7 7 30.47 3.48
-1 -7 -7 34.87 3.48
1 -7 8 13.82 2.56
-1 -7 -8 11.29 2.24
1 -7 9 2.99 1.46
-1 -7 -9 1.79 1.14
1 -7 10 -0.1 1.33
-1 -7 -10 3.84 1.5
1 -7 11 27.19 3.62
-1 -7 -11 24.94 3.3
1 -7 12 6.64 2.02
-1 -7 -12 11.7 2.59
1 -7 13 6.07 2
-1 -7 -13 3.06 1.49
-1 -7 -14 20.44 3.34
-1 -6 20 2.26 1.83
1 -6 -20 3.34 2.51
-1 -6 19 4.55 2.2
1 -6 -19 5.26 2.27
-1 -6 19 3.32 1.83
1 -6 -18 4.7 2.09
-1 -6 18 6.78 2.29
-1 -6 18 4.45 1.95
-1 -6 17 2.94 1.75
1 -6 -17 4.67 1.96
-1 -6 17 6.54 2.12
-1 -6 16 7.94 2.18
-1 -6 16 7.13 2.07
1 -6 -16 10.39 2.47
1 -6 -15 3.91 1.92
-1 -6 15 4.84 1.73
-1 -6 15 3.32 1.35
1 -6 -14 36.3 4.11
-1 -6 14 26.76 3.25
-1 -6 14 29.76 3.7
-1 -6 13 23.74 2.97
1 -6 -13 18.03 2.82
-1 -6 13 21.21 3.13
-1 -6 12 48.19 3.94
1 -6 -12 47.51 4.32
-1 -6 12 47.66 4.41
1 -6 -11 8.3 1.94
-1 -6 11 9.16 1.74
-1 -6 11 11.07 2.25
-1 -6 10 30.11 2.89
-1 -6 10 31.89 3.45
1 -6 -10 27.14 3.13
-1 -6 9 2.5 0.9
-1 -6 9 1.9 1.34
-1 -6 8 9.9 1.54
1 -6 -8 9.19 1.77
-1 -6 8 7.07 1.89
1 -6 -7 59.78 4.26
-1 -6 7 53.09 3.2
-1 -6 7 57.98 4.46
1 -6 -6 49.27 3.79
-1 -6 6 48.42 2.84
-1 -6 6 53.3 4.2
1 -6 -5 147.29 6.19
-1 -6 5 147.48 6.7
-1 -6 5 142.71 4.37
-1 -6 4 14.71 2.12
1 -6 -4 12.15 1.67
-1 -6 4 5.64 0.81
1 -6 -4 16.59 2.11
-1 -6 3 65.56 4.39
1 -6 -3 61.9 3.74
1 -6 -3 61.2 3.61
1 -6 -3 62.98 3.92
1 -6 -2 277.73 8.18
-1 -6 2 270.98 8.66
1 -6 -2 291.22 7.78
-1 -6 2 287.82 7.05
1 -6 -2 277.16 7.58
1 -6 -1 28.94 2.86
-1 -6 1 32.03 2.31
-1 -6 1 33.59 3.12
1 -6 -1 27.81 2.46
1 -6 -1 30.23 2.42
1 -6 0 67.18 3.45
1 -6 0 65.11 3.7
1 -6 0 68.48 4.37
-1 -6 0 64.35 4.1
-1 -6 0 66.9 3.25
-1 -6 -1 24.19 2.55
1 -6 1 20 1.81
1 -6 1 19.39 2.03
1 -6 1 24.01 2.67
-1 -6 -1 21.52 1.81
-1 -6 -1 18.26 1.89
1 -6 2 10.53 1.29
-1 -6 -2 11.72 1.79
1 -6 2 9.27 1.54
-1 -6 -2 10.75 1.38
-1 -6 -2 9.89 1.48
1 -6 2 10.06 1.78
1 -6 3 33.35 2
1 -6 3 30.27 3.04
-1 -6 -3 33.04 2.74
-1 -6 -3 34 2.81
1 -6 4 1.21 0.49
1 -6 4 3.84 1.4
1 -6 4 2.47 0.56
-1 -6 -4 3.3 1.14
-1 -6 -4 1.84 0.83
1 -6 5 10.24 2.23
1 -6 5 6.22 0.95
-1 -6 -5 9.31 1.73
-1 -6 -5 7.36 1.39
1 -6 6 1.45 0.76
1 -6 6 0.87 1
-1 -6 -6 2.12 0.92
-1 -6 -6 1.79 1.02
-1 -6 -7 26.56 2.22
1 -6 7 32.64 3.37
-1 -6 -7 30.71 3.08
1 -6 7 29.51 2.39
-1 -6 -8 13.46 2.15
1 -6 8 16.3 2.5
1 -6 8 16.58 1.98
-1 -6 -9 62.9 4.61
1 -6 9 57.66 4.64
1 -6 9 57.41 3.71
1 -6 9 50.63 3.55
1 -6 10 5.87 1.54
1 -6 10 5.88 1.76
-1 -6 -10 7.18 1.87
1 -6 10 5.26 1.38
-1 -6 -11 21.5 2.89
1 -6 11 22.04 2.66
1 -6 11 19.14 2.88
1 -6 11 21.11 2.57
1 -6 12 19.99 2.97
1 -6 12 23.48 2.82
-1 -6 -12 21.62 3.04
-1 -6 -13 23.24 3.07
1 -6 13 29.94 3.66
1 -6 13 29.77 3.32
-1 -6 -14 12.77 2.47
1 -6 14 12.67 2.36
1 -6 14 13.48 2.66
1 -6 14 13.69 2.46
1 -6 15 30.27 3.6
-1 -6 -15 28.25 3.72
1 -6 15 29.46 3.74
1 -6 16 2.36 1.48
-1 -6 -16 5.26 1.85
1 -6 16 4.06 1.78
1 -6 17 4.25 2.13
1 -6 17 4.76 1.9
1 -6 18 22.77 3.66
1 -6 18 28.51 3.95
1 -6 19 22.63 3.68
1 -6 20 3.92 2.23
-1 -5 22 12.7 3.09
-1 -5 21 24.95 3.96
1 -5 -21 7.66 3.65
1 -5 -20 1.28 1.78
-1 -5 20 8.38 2.42
-1 -5 19 17.07 2.82
1 -5 -19 24.06 3.58
-1 -5 19 22.97 3.67
1 -5 -18 12.82 2.52
-1 -5 18 11.99 2.53
-1 -5 18 12.82 2.67
-1 -5 17 29.14 3.57
1 -5 -17 29.56 3.73
-1 -5 17 33.77 3.99
-1 -5 16 60.81 4.9
1 -5 -16 55.82 5.05
-1 -5 16 60.43 5.12
-1 -5 15 25.71 3.38
-1 -5 15 24.39 3.26
1 -5 -15 26.4 3.37
-1 -5 14 2.22 1.34
1 -5 -14 1.05 1.01
-1 -5 13 10.23 2.02
1 -5 -13 9.64 2.08
-1 -5 13 7.34 1.8
1 -5 -12 27.08 3.21
-1 -5 12 24 2.91
-1 -5 12 24.73 2.84
1 -5 -11 48.15 4.09
-1 -5 11 46.9 3.94
-1 -5 11 45.58 3.65
1 -5 -10 4.98 1.5
-1 -5 10 8.64 1.74
-1 -5 10 7.56 1.52
1 -5 -9 12.69 2.17
-1 -5 9 13.64 2.07
-1 -5 8 52.32 3.82
1 -5 -8 55.55 3.92
-1 -5 7 6.36 1.23
1 -5 -7 8.55 1.66
1 -5 -6 102.8 4.95
-1 -5 6 82.53 4.7
-1 -5 5 0.32 0.54
1 -5 -5 1.56 1.08
-1 -5 4 55.31 3.69
1 -5 -4 51.19 3.05
1 -5 -4 55.08 3.34
1 -5 -4 56.09 3.24
1 -5 -3 173.87 5.76
-1 -5 3 172.99 6.3
1 -5 -3 170.62 5.62
1 -5 -3 179.61 5.6
-1 -5 2 80.04 2.26
1 -5 -2 93.23 4.1
1 -5 -2 94.19 4.3
1 -5 -2 90.56 3.96
-1 -5 2 93.12 4.59
-1 -5 1 15.58 1.88
-1 -5 1 17.52 1.55
1 -5 -1 21.22 1.88
1 -5 -1 17.21 1.9
1 -5 -1 18.7 1.86
1 -5 0 102.68 3.84
-1 -5 0 96.86 4.49
1 -5 0 95.64 4.61
-1 -5 0 95.88 3.7
1 -5 0 99.07 4.17
-1 -5 0 104.79 3.62
-1 -5 -1 97.77 4.37
1 -5 1 93.51 4.65
1 -5 1 102.91 3.65
-1 -5 -1 106.84 3.62
-1 -5 -1 97.79 3.93
1 -5 1 99.73 4.25
-1 -5 -2 330.37 7.82
1 -5 2 298.75 3.76
-1 -5 -2 326.85 6.28
1 -5 2 332.22 6.06
-1 -5 -2 325.5 7.5
1 -5 2 323.06 8.67
-1 -5 -3 107.33 4.56
1 -5 3 109.64 5.27
1 -5 3 114.15 3.06
-1 -5 -3 114.24 4.48
1 -5 3 118.2 3.34
1 -5 4 111.37 5.33
-1 -5 -4 107.86 4.76
-1 -5 -4 108.02 4.27
1 -5 4 108.54 2.82
1 -5 4 111.08 3.64
-1 -5 -5 47.6 3.33
1 -5 5 45.15 2.55
1 -5 5 45.95 3.6
-1 -5 -5 45.61 2.72
-1 -5 -6 66.94 3.12
1 -5 6 71.01 3.51
-1 -5 -6 73.35 4.21
1 -5 6 73.8 4.61
1 -5 6 70.63 3.43
-1 -5 -7 107.11 5.28
1 -5 7 107.84 5.58
-1 -5 -7 97.1 3.54
1 -5 7 98.95 4.42
-1 -5 -8 31.58 3.1
1 -5 8 30.54 3.03
1 -5 8 30.32 2.61
1 -5 9 55.63 4.16
-1 -5 -9 62.08 4.33
1 -5 9 59.23 3.88
1 -5 10 75.66 4.57
1 -5 10 74.36 4.91
-1 -5 -10 74.41 4.86
-1 -5 -11 13.08 2.19
1 -5 11 10.46 2.02
1 -5 11 13.22 2.18
1 -5 12 27.14 3.08
1 -5 12 22.9 3.04
-1 -5 -12 25.34 3.06
1 -5 13 26.98 3.18
-1 -5 -13 24.16 3.11
1 -5 13 32.34 3.47
1 -5 14 0.23 0.94
1 -5 14 3.15 1.45
-1 -5 -14 2.64 1.46
-1 -5 -15 7.47 1.93
1 -5 15 11.43 2.23
-1 -5 -16 4.28 1.71
1 -5 16 0.56 1.13
-1 -5 -17 4.28 1.72
1 -5 17 4 1.56
1 -5 18 42.92 4.7
1 -5 19 3.86 1.84
1 -5 20 14.23 3.14
1 -5 20 15.37 3.11
1 -5 21 6.95 2.66
1 -5 21 2.78 1.92
-1 -4 22 3.53 2.19
1 -4 -22 1.71 2.21
1 -4 -21 1.21 1.7
-1 -4 21 2.84 1.83
-1 -4 20 17.95 3.32
1 -4 -20 8.74 2.94
-1 -4 19 13.86 3.06
1 -4 -19 12.36 3.1
1 -4 -18 32.82 3.84
-1 -4 18 33.65 3.58
-1 -4 18 34.2 4.27
-1 -4 17 84.23 5.5
1 -4 -17 91.39 6.14
-1 -4 17 87.68 6.18
-1 -4 16 4.9 1.52
-1 -4 16 1.8 1.55
1 -4 -16 5.37 1.84
-1 -4 15 115.74 6.71
1 -4 -15 116.35 6.46
-1 -4 15 117.57 6.19
-1 -4 14 65.71 4.85
1 -4 -14 55.84 4.47
-1 -4 14 62.31 4.42
1 -4 -13 130.08 6.54
-1 -4 13 122.23 5.99
-1 -4 13 129.52 6.53
-1 -4 12 40.32 3.4
1 -4 -12 45.8 3.86
-1 -4 11 10.71 1.78
1 -4 -11 17.26 2.44
-1 -4 10 37.45 3.09
1 -4 -10 40.8 3.43
-1 -4 9 31.57 2.85
1 -4 -9 29.63 2.88
-1 -4 8 166.78 6.22
1 -4 -8 182.7 6.47
1 -4 -7 363.09 8.81
-1 -4 7 360.66 8.87
1 -4 -6 39.88 2.83
-1 -4 6 40.89 2.97
-1 -4 5 23.44 2.19
1 -4 -5 27.85 2.31
-1 -4 4 8.2 1.35
1 -4 -4 10.48 1.3
1 -4 -4 6.9 1.22
-1 -4 3 88.31 4.03
1 -4 -3 88.24 3.56
1 -4 -3 85.46 3.5
1 -4 -3 86.08 3.66
-1 -4 2 171.17 5.49
1 -4 -2 172.5 4.93
1 -4 -2 163.58 4.77
1 -4 -2 171.96 5.13
-1 -4 1 272.9 3.59
1 -4 -1 284.28 6.3
1 -4 -1 290.51 6.94
-1 -4 1 285.86 6.94
1 -4 -1 273.47 5.94
-1 -4 0 59.08 1.45
1 -4 0 77.05 3.3
-1 -4 0 76.6 2.72
-1 -4 0 72.01 2.95
1 -4 0 73.49 2.9
-1 -4 0 71.52 3.43
1 -4 0 77.21 3.76
-1 -4 -1 3.38 0.75
1 -4 1 3.45 1.02
1 -4 1 3.24 0.38
1 -4 1 2.65 0.68
-1 -4 -1 3.8 0.68
-1 -4 -1 2.97 0.76
1 -4 2 207.3 4.27
-1 -4 -2 193.37 5.4
1 -4 2 207.59 3.75
-1 -4 -2 201.1 5.4
1 -4 2 199.38 6.12
-1 -4 -2 207.9 4.36
-1 -4 -3 127.84 4.17
1 -4 3 134.16 3.09
1 -4 3 123.45 4.91
1 -4 3 138.19 3.7
-1 -4 -3 126.53 4.58
1 -4 4 123.1 3.8
1 -4 4 129.27 3.98
1 -4 4 130 2.62
1 -4 4 121.61 5.03
-1 -4 -4 120.87 4.63
-1 -4 -4 128.22 4.03
-1 -4 -5 18.03 1.47
1 -4 5 20.75 1.78
-1 -4 -5 19.89 2
1 -4 5 13.64 0.61
1 -4 5 18 1.99
1 -4 6 440.63 8.59
1 -4 6 419.53 9.74
-1 -4 -6 402.92 6.39
-1 -4 -6 415.49 9.13
1 -4 7 712.59 13.02
-1 -4 -7 691.4 7.73
1 -4 7 721.69 11.62
-1 -4 -7 685.22 12.07
-1 -4 -8 104.45 4.99
1 -4 8 107.66 5.27
1 -4 8 103.6 4.7
-1 -4 -8 88.8 2.33
1 -4 9 177.46 6.79
1 -4 9 172.99 6.36
-1 -4 -9 176.92 6.71
1 -4 10 80.44 4.53
1 -4 10 73.31 4.42
-1 -4 -10 87.85 4.93
1 -4 11 12.13 1.94
-1 -4 -11 12.6 2.03
1 -4 11 12.63 1.94
1 -4 12 51.46 3.93
1 -4 12 53.53 4.16
-1 -4 -12 54.01 4.12
-1 -4 -13 15.67 2.24
1 -4 13 10.46 2.01
1 -4 13 9.23 1.76
-1 -4 -14 15.16 2.41
1 -4 14 14.1 2.34
1 -4 14 17.1 2.46
-1 -4 -15 10.99 2.18
1 -4 15 17.63 2.88
1 -4 16 2 1.68
-1 -4 -16 5.7 1.84
-1 -4 -17 16.95 2.7
1 -4 17 14.89 2.83
1 -4 18 3.16 1.61
-1 -4 -18 7.73 2.19
1 -4 19 11.38 2.71
1 -4 20 25.5 3.82
1 -4 21 7.42 2.49
1 -4 22 3.44 2.02
1 -4 22 4.66 2.34
-1 -3 23 4.53 2.41
-1 -3 22 13.02 3.02
1 -3 -22 3.51 2.75
-1 -3 21 3.43 1.83
1 -3 -21 0.19 1.67
-1 -3 20 12.2 2.78
1 -3 -20 6.22 2.52
1 -3 -19 6.85 1.86
-1 -3 19 3.16 1.69
1 -3 -18 25.61 3.21
-1 -3 18 26.46 3.7
-1 -3 18 22.03 2.8
-1 -3 17 13.42 2.24
-1 -3 17 15.96 2.88
1 -3 -17 14.81 2.43
-1 -3 16 106.83 6.61
1 -3 -16 105.26 5.95
-1 -3 16 113.64 5.77
1 -3 -15 22 2.65
-1 -3 15 22.93 2.62
-1 -3 15 25.03 3.14
-1 -3 14 35.98 3.13
1 -3 -14 34.64 3.34
-1 -3 13 37.52 3.08
1 -3 -13 33.54 3.16
-1 -3 12 52.46 3.54
1 -3 -12 48.77 3.68
1 -3 -11 19.02 2.32
-1 -3 11 17.4 1.97
1 -3 -10 423.06 9.71
-1 -3 10 408.5 9.31
1 -3 -9 27.4 2.46
-1 -3 9 26.7 2.3
-1 -3 8 27.53 2.37
1 -3 -8 30.04 2.44
-1 -3 7 41.28 2.72
1 -3 -7 40.36 2.73
-1 -3 6 218.34 6.06
1 -3 -6 222.73 6.01
1 -3 -5 244.78 6.05
-1 -3 5 245.9 6.29
-1 -3 4 301.63 6.69
1 -3 -4 278.3 6.18
-1 -3 3 68.44 3.09
1 -3 -3 68.66 2.81
1 -3 -3 68.53 2.6
1 -3 -3 63.47 2.85
1 -3 -2 1077.83 11.04
1 -3 -2 1127.58 11.03
1 -3 -2 1143.28 11.19
-1 -3 2 1106.88 12.04
1 -3 -1 1.99 0.47
-1 -3 1 1.2 0.57
1 -3 -1 0.42 0.28
1 -3 -1 1.21 0.53
-1 -3 0 2.08 0.6
1 -3 0 3.74 0.88
-1 -3 0 2.64 0.39
1 -3 0 2.65 0.55
1 -3 0 2.81 0.34
-1 -3 0 2.79 0.67
-1 -3 -1 8.73 1.04
-1 -3 -1 8.57 1.02
-1 -3 -1 10.17 0.7
1 -3 1 9.73 1.29
1 -3 1 8.74 0.94
1 -3 1 9.88 0.73
-1 -3 -1 10.33 0.82
-1 -3 -2 83.9 1.99
-1 -3 -2 89.91 3.05
1 -3 2 95.47 2.5
1 -3 2 99.91 2.83
1 -3 2 89.46 3.68
-1 -3 -2 95.38 2.52
-1 -3 -2 87.21 3.37
-1 -3 -3 773.6 10.16
1 -3 3 790.57 6.4
1 -3 3 774.76 8.55
-1 -3 -3 788.66 8.65
1 -3 3 746.95 10.68
-1 -3 -4 9.67 1.29
1 -3 4 7.83 0.56
1 -3 4 8.88 1.29
1 -3 4 10.79 1.18
-1 -3 -4 8.33 0.9
-1 -3 -5 255.65 6.4
-1 -3 -5 260.73 4.48
1 -3 5 260.22 6.73
1 -3 5 261.54 5.97
-1 -3 -6 118.01 2.74
1 -3 6 122.42 4.42
1 -3 6 121.35 4.73
-1 -3 -6 118.04 4.51
-1 -3 -7 168.12 2.94
1 -3 7 183.08 5.69
1 -3 7 190.98 6.15
-1 -3 -7 185.6 5.89
1 -3 8 661.36 11.51
1 -3 8 654.15 11.54
-1 -3 -8 681.27 11.53
-1 -3 -9 95.63 4.49
1 -3 9 95.82 4.55
1 -3 9 103.16 4.84
1 -3 10 208.46 7.22
1 -3 10 193.98 6.54
-1 -3 -10 205.88 6.92
1 -3 11 196.48 7.29
-1 -3 -11 197.99 7.04
1 -3 11 199.14 6.91
1 -3 12 9.79 1.71
1 -3 12 8.39 1.7
-1 -3 -12 12.45 2.09
1 -3 13 112.08 5.48
1 -3 13 114.66 6.12
-1 -3 -13 114.8 5.6
1 -3 14 18.89 2.67
-1 -3 -14 19.96 2.69
1 -3 15 8.07 1.96
-1 -3 -15 12.51 2.12
1 -3 16 4.54 1.77
-1 -3 -16 3.22 1.14
1 -3 17 16.37 2.85
-1 -3 -17 11.83 2.34
1 -3 18 2.34 1.5
1 -3 19 19.83 3.43
1 -3 20 23.03 3.74
1 -3 21 15.46 3.21
1 -3 22 4.92 2.27
1 -3 23 5.65 2.32
1 -3 23 7.3 2.75
-1 -2 24 7.39 2.78
-1 -2 23 5.7 2.46
1 -2 -22 1.67 1.95
-1 -2 22 7.62 2.37
-1 -2 21 3.06 1.88
1 -2 -21 2.06 1.82
-1 -2 20 15.14 3.04
1 -2 -20 16.09 2.55
1 -2 -19 48.2 4.27
-1 -2 19 47.07 4.88
1 -2 -18 9.77 2.05
-1 -2 18 11.21 2.57
-1 -2 17 51.17 3.72
1 -2 -17 45.33 3.76
-1 -2 17 53.6 4.78
-1 -2 16 4.5 1.25
1 -2 -16 2.64 1.19
-1 -2 16 3.65 1.46
1 -2 -15 47.9 3.67
-1 -2 15 47.21 3.38
1 -2 -14 5.31 1.27
-1 -2 14 8.35 1.43
-1 -2 13 66.33 3.66
1 -2 -13 66.42 4.04
1 -2 -12 112.23 5
-1 -2 12 117.91 4.81
-1 -2 11 34.95 2.52
1 -2 -11 39.4 2.91
-1 -2 10 69.36 3.4
1 -2 -10 70.55 3.69
-1 -2 9 424.54 8.17
1 -2 -9 429.69 8.71
-1 -2 9 439.13 5.5
1 -2 -8 44.11 2.73
-1 -2 8 41.5 2.5
-1 -2 8 38.57 1.56
-1 -2 7 159.72 4.74
1 -2 -7 148.76 4.66
1 -2 -6 713.46 9.72
-1 -2 6 710.01 9.53
1 -2 -5 2483.99 17.43
-1 -2 5 2478.59 17.08
-1 -2 4 801.23 9.46
1 -2 -4 763.66 9.34
1 -2 -3 501.12 6.63
1 -2 -3 489.94 7.12
-1 -2 3 501.51 7.26
-1 -2 2 425.94 6.46
1 -2 -2 433.07 6
1 -2 -2 419.4 6.24
1 -2 -1 1272.82 10
-1 -2 1 1342.66 10.84
1 -2 -1 1307.58 10.19
1 -2 -1 1292.21 10.18
-1 -2 0 660.52 7.22
-1 -2 0 637.21 5.03
1 -2 0 628.22 7.4
1 -2 0 639.72 4.77
1 -2 0 630.09 6.46
1 -2 1 865.66 6.85
-1 -2 -1 887.93 7.95
-1 -2 -1 875.81 6.29
-1 -2 -1 852.67 8.13
1 -2 1 880.49 9.29
-1 -2 -1 877.19 5.53
1 -2 1 886.35 7.05
-1 -2 -2 332.79 4.28
1 -2 2 339.02 6.03
1 -2 2 336.45 4.95
-1 -2 -2 335.72 4.63
1 -2 2 339.65 3.97
1 -2 2 337.35 4.85
-1 -2 -2 319.85 5.38
-1 -2 -3 576.77 5.81
1 -2 3 585.62 4.7
-1 -2 -3 562.89 7.67
-1 -2 -3 571.89 6.4
1 -2 3 585.19 8.31
1 -2 3 580.94 7.25
-1 -2 -4 404 6.87
-1 -2 -4 422.59 4.7
1 -2 4 421.52 6.8
1 -2 4 425.41 3.79
1 -2 4 423.8 7.36
1 -2 5 460.59 7.72
1 -2 5 465.04 4.12
1 -2 5 467.92 8.03
-1 -2 -5 477.84 4.69
-1 -2 -5 467.01 7.7
1 -2 5 462.08 3.86
-1 -2 -6 203.34 5.39
1 -2 6 202.75 5.45
1 -2 6 206.09 5.6
-1 -2 -6 191.33 2.77
1 -2 6 212.82 2.76
-1 -2 -7 66.67 1.48
1 -2 7 82.34 3.77
1 -2 7 80.29 3.54
1 -2 7 86.01 1.88
-1 -2 -7 84.81 3.63
1 -2 8 81.31 4
-1 -2 -8 78.04 3.65
1 -2 8 78.67 3.59
1 -2 8 89.64 2.18
1 -2 9 53.8 3.43
-1 -2 -9 55.13 3.28
1 -2 9 55.32 3.09
1 -2 10 152.87 6.03
-1 -2 -10 159.15 5.65
1 -2 10 159.63 5.52
1 -2 11 46.91 3.03
-1 -2 -11 46.95 3.22
1 -2 11 47.02 3.55
-1 -2 -12 302.06 8.21
1 -2 12 301.1 9.37
-1 -2 -13 20.91 2.35
1 -2 13 21.59 2.64
1 -2 14 67.4 4.82
-1 -2 -14 66.67 4.11
1 -2 15 10.15 2.06
-1 -2 -15 10.75 1.76
-1 -2 -16 47.59 3.65
1 -2 16 47.61 4.39
1 -2 17 17.55 2.84
-1 -2 -17 15.71 2.28
1 -2 18 5.27 1.85
1 -2 19 99.79 7.12
1 -2 20 14.35 2.98
1 -2 21 7.38 2.51
1 -2 22 3.19 1.85
1 -2 23 4.19 2
-1 -1 24 8.09 2.78
-1 -1 23 1.35 1.67
-1 -1 22 8.87 2.45
-1 -1 21 4.86 2.16
1 -1 -21 3.98 1.46
-1 -1 20 5.04 2.27
1 -1 -20 4.34 1.6
-1 -1 19 7.36 1.98
1 -1 -19 10.51 2
-1 -1 18 20.34 3.25
1 -1 -18 15.03 2.3
-1 -1 17 10.64 2.25
1 -1 -17 12.38 1.97
-1 -1 16 18.57 2.07
-1 -1 16 20.66 2.79
1 -1 -16 19.78 2.24
-1 -1 15 12.15 1.66
1 -1 -15 12.8 1.87
1 -1 -14 6.84 1.35
-1 -1 14 7.84 1.29
1 -1 -13 62.1 3.63
-1 -1 13 63.93 3.28
-1 -1 12 41.06 2.57
1 -1 -12 38.66 2.73
1 -1 -11 4.62 1.01
-1 -1 11 2.56 0.73
-1 -1 10 15.39 1.48
1 -1 -10 18.77 1.77
-1 -1 9 388.03 6.8
1 -1 -9 398 7.65
-1 -1 8 264.23 5.43
1 -1 -8 245.8 5.63
1 -1 -7 179.32 4.57
-1 -1 7 181.85 4.32
-1 -1 6 85.85 2.32
1 -1 -6 75.98 2.91
-1 -1 6 75.92 2.65
-1 -1 5 986.12 7.29
-1 -1 5 963.65 9.05
1 -1 -5 965 9.86
-1 -1 4 2699.34 11.52
1 -1 -4 2738.65 15.57
-1 -1 4 2708.67 14.48
-1 -1 3 196.54 3.66
1 -1 -3 191.17 3.83
-1 -1 2 869.11 7.21
1 -1 -2 815.84 6.85
1 -1 -2 818.46 7.34
1 -1 -1 3637.68 14.18
-1 -1 1 3657.29 13.98
1 -1 -1 3552.83 13.42
-1 -1 0 1419.69 7.93
-1 -1 0 1419.31 7.23
1 -1 0 1398.81 8.06
1 -1 0 1430.14 7.21
1 -1 1 5382.72 16.32
-1 -1 -1 5279.89 15.49
-1 -1 -1 5239.07 14.41
1 -1 1 5231.67 14.85
1 -1 2 414.19 5.18
-1 -1 -2 410.96 3.86
1 -1 2 414 5.47
-1 -1 -2 418.38 5.15
1 -1 2 417.08 5.26
1 -1 2 412.23 4.27
-1 -1 -2 418.49 4.89
-1 -1 -3 2235.96 13.07
-1 -1 -3 2245.09 13.17
1 -1 3 2236.26 13.55
1 -1 3 2222.28 13.4
1 -1 4 613.61 7.53
-1 -1 -4 647.18 7.6
1 -1 4 633.21 5.14
1 -1 4 611.84 7.85
-1 -1 -5 193.31 4.46
1 -1 5 211.37 3.34
1 -1 5 186.73 4.78
1 -1 5 181.12 4.3
-1 -1 -6 483.37 5.15
1 -1 6 470.55 7.27
1 -1 6 480.98 8.31
-1 -1 -6 495.81 7.63
1 -1 7 73.2 3.02
-1 -1 -7 76.42 2.13
1 -1 7 75.68 3.51
-1 -1 -7 80.75 3.25
1 -1 8 51.68 2.64
-1 -1 -8 56.13 2.87
1 -1 8 52.33 3.1
-1 -1 -8 52.5 1.79
-1 -1 -9 266.5 6.43
1 -1 9 263.83 7.36
-1 -1 -9 269.44 4.12
-1 -1 -10 349.26 7.6
-1 -1 -10 332.03 4.67
1 -1 10 341.88 8.8
1 -1 11 32.62 2.96
-1 -1 -11 35.01 2.55
-1 -1 -12 138.82 5.11
1 -1 12 145.89 6.32
-1 -1 -13 37.4 2.77
1 -1 13 41.98 3.56
1 -1 14 21.24 2.62
-1 -1 -14 19.48 2.09
1 -1 15 128.91 6.77
-1 -1 -15 136.6 5.56
1 -1 16 11.54 2.26
1 -1 17 14.13 2.46
1 -1 18 34.39 3.99
1 -1 19 13.59 2.85
1 -1 20 47.59 5.18
1 -1 21 14.86 3.16
1 -1 22 10.4 2.81
1 -1 23 5.18 2.17
1 -1 24 13.18 3.43
1 -1 24 9.81 2.84
-1 0 24 17.73 3.72
-1 0 23 1.7 1.44
-1 0 22 5.62 2.47
-1 0 21 49 5.3
-1 0 20 14.32 2.88
-1 0 19 2.01 1.42
1 0 -19 4.68 1.48
-1 0 18 4.53 1.93
1 0 -18 4.39 1.31
-1 0 17 17.02 2.7
1 0 -17 17.03 2.22
1 0 -16 122.75 5.19
-1 0 16 126.33 6.94
1 0 -15 10.34 1.55
1 0 -14 15.88 1.89
-1 0 13 122.33 3.9
1 0 -13 116.39 4.56
1 0 -12 88.97 3.8
-1 0 12 93.5 3.36
-1 0 11 33.37 1.93
1 0 -11 33.4 2.25
1 0 -10 92.23 3.49
-1 0 10 96.3 3.09
-1 0 9 10.38 1
1 0 -9 13.55 1.33
-1 0 8 21.23 1.32
1 0 -8 18.33 1.43
1 0 -7 2.53 0.53
-1 0 7 1.9 0.47
-1 0 6 309.79 4.28
1 0 -6 314.16 5.22
1 0 -6 307.38 4.2
1 0 -5 2748.23 14.3
1 0 -5 2701.62 11.72
-1 0 5 2686.79 11.92
1 0 -4 111.42 2.17
1 0 -4 111.14 2.64
-1 0 4 112.23 2.73
-1 0 4 112.97 2.26
1 0 -3 542.83 4.48
-1 0 3 563.65 5.57
-1 0 3 551.32 4.49
1 0 -3 545.08 5.48
1 0 -2 922.56 6.54
-1 0 2 932.84 5.54
-1 0 2 947.02 6.85
-1 0 1 645.93 5.44
-1 0 1 667.98 4.2
1 0 -1 673.87 5.25
-1 0 0 6974.67 16.06
1 0 0 7055.89 15.81
-1 0 -1 731.59 5.98
1 0 1 746.54 5.82
1 0 2 9870.8 24.22
1 0 2 9999 24.82
-1 0 -2 9762.19 24.85
1 0 3 23.74 1.38
1 0 3 26.79 1.21
-1 0 -4 276.87 4.24
1 0 4 277.83 5.11
-1 0 -5 811 7.72
-1 0 -5 818.82 7.7
1 0 5 804.38 9.7
1 0 6 346.62 6.85
-1 0 -6 340.64 5.37
1 0 7 10.93 1.36
-1 0 -7 11.97 1.18
-1 0 -8 233.31 5.03
1 0 8 221.12 6.26
-1 0 -9 29.63 1.92
1 0 9 29.84 2.46
1 0 10 151.29 5.79
-1 0 -10 151.08 4.49
1 0 11 19.09 2.25
-1 0 -11 17.7 1.72
-1 0 -12 116.45 4.34
1 0 12 110.95 5.51
1 0 13 44.98 3.63
1 0 14 -0.17 0.55
1 0 15 8.91 2.03
1 0 16 41.96 4.02
1 0 17 63.61 5.13
1 0 18 3.17 1.88
1 0 19 8.81 2.35
1 0 20 9.36 2.43
1 0 21 16.71 3.26
1 0 22 24.39 3.93
1 0 23 22.89 3.79
1 0 24 29.04 4.46
1 0 24 31.46 4.68
-1 1 24 6.5 2.7
-1 1 23 5.36 2.23
-1 1 22 12.69 3
-1 1 21 3.88 1.78
-1 1 20 5.04 1.97
-1 1 19 8.15 2.4
-1 1 18 20.65 3.23
-1 1 17 13.26 2.38
1 1 -17 9.74 1.5
1 1 -16 14.94 1.76
-1 1 16 20.15 2.83
1 1 -15 12.55 1.57
1 1 -14 6.11 1.08
1 1 -13 59.33 2.91
1 1 -12 37.79 2.3
1 1 -11 2.82 0.7
1 1 -10 19.47 1.46
1 1 -9 397.39 5.98
-1 1 9 332.37 3.66
-1 1 8 224.91 2.78
1 1 -8 245.21 4.32
1 1 -7 180.51 3.49
-1 1 7 162.22 2.19
1 1 -6 82.07 2.27
-1 1 6 70.79 1.38
1 1 -5 967.65 6.92
-1 1 5 946.05 4.83
1 1 -4 2678.22 10.75
1 1 -3 204.88 2.82
1 1 -2 862.35 7.21
-1 1 2 877.16 7.6
-1 1 2 835.23 6.94
1 1 -1 3466.51 13.3
-1 1 1 3537.66 10.9
-1 1 1 3564.14 13.57
1 1 0 1393.84 7.96
-1 1 0 1429.48 8.93
-1 1 0 1408.13 8.28
-1 1 0 1416.7 7.31
1 1 1 5285.6 15.08
-1 1 -1 5254.48 15.46
-1 1 -1 5330.52 18.2
1 1 1 5412.75 17.02
1 1 1 5188.56 14.25
-1 1 -1 5222.16 16.01
-1 1 -1 5491.56 16.8
-1 1 -2 421.86 5.35
1 1 2 421.61 5.03
1 1 3 2227.21 13.02
1 1 3 2248.38 12.57
1 1 4 602.73 7.44
1 1 5 187.94 4.53
1 1 6 483.59 7.88
1 1 7 75.65 3.37
1 1 8 52.32 3.07
1 1 9 269.8 7.24
1 1 10 340.45 8.57
1 1 11 33.27 2.88
1 1 12 154.16 6.35
1 1 13 40.43 3.46
1 1 14 23.23 2.72
1 1 15 147.39 7.1
1 1 16 15.13 2.69
1 1 17 12.16 2.32
1 1 18 43.53 4.57
1 1 19 14.31 2.9
1 1 20 47.66 5.05
1 1 21 14.3 3.02
1 1 22 9.19 2.63
1 1 23 6.44 2.44
1 1 23 8.35 2.78
1 1 24 9.73 2.94
1 1 24 6.79 2.59
-1 2 24 11.14 3.21
-1 2 23 4.62 2.27
-1 2 22 7.34 2.4
-1 2 21 2.55 1.7
-1 2 20 19.5 3.26
-1 2 19 44.11 4.7
-1 2 18 10.59 2.46
-1 2 17 58.08 4.89
-1 2 16 3.84 1.55
-1 2 15 50.8 4.2
1 2 -14 6.06 0.88
-1 2 14 6.4 1.42
1 2 -13 60.24 2.41
1 2 -12 120.26 3.3
1 2 -11 36.66 1.74
1 2 -10 66.32 2.13
1 2 -9 449.24 5.08
1 2 -8 41.42 1.42
1 2 -7 140.47 2.28
1 2 -6 703.17 4.77
1 2 -5 2464.98 8.47
-1 2 5 2259.97 8.62
-1 2 4 829.23 6.07
1 2 -4 817.99 5.31
-1 2 3 500.45 5.28
-1 2 2 465.38 5.6
1 2 -2 439.75 4.48
-1 2 1 1306 6.4
1 2 -1 1281.4 8.56
-1 2 0 643.54 4.99
-1 2 -1 872.71 7.02
1 2 1 881.79 5.91
-1 2 -1 885.25 6.91
1 2 2 337.86 4.22
1 2 2 350.52 3.88
-1 2 -2 342.23 5.02
-1 2 -2 338.71 4.1
1 2 3 566.87 6.36
1 2 3 583.71 5.48
1 2 3 592.12 5.57
1 2 4 413.25 5.92
1 2 4 399.44 5.95
1 2 5 471.36 7.04
1 2 6 208.76 5.16
1 2 7 78.67 3.4
1 2 8 77.18 3.62
1 2 9 56.64 3.26
1 2 10 163.65 5.86
1 2 11 46.25 3.34
1 2 12 307.65 8.89
1 2 13 21.42 2.55
1 2 14 75.13 4.87
1 2 15 13.09 2.36
1 2 16 50.83 4.38
1 2 17 14.08 2.49
1 2 18 6.67 2.14
1 2 19 108.25 7.21
1 2 20 18.52 3.15
1 2 21 5.55 2.09
1 2 21 5.52 2.39
1 2 22 2.5 1.66
1 2 22 2.51 1.75
1 2 23 6.5 2.56
1 2 23 5.14 2.32
1 2 24 8.37 3.02
-1 3 23 3.14 2.04
-1 3 22 9.58 2.83
-1 3 21 4.36 1.85
-1 3 20 17.25 3.24
-1 3 19 4.61 1.87
-1 3 18 29.09 3.72
-1 3 17 12.42 2.52
-1 3 16 109.57 6.51
-1 3 15 22.4 2.82
-1 3 14 34.4 3.29
-1 3 13 35.26 3.21
-1 3 12 50.26 3.55
-1 3 6 210.32 3.16
-1 3 5 256.15 4
1 3 -4 281.57 3.24
1 3 -3 72.63 1.95
-1 3 2 1089.13 5.61
-1 3 1 1.6 0.24
1 3 2 95.98 1.99
-1 3 -3 792.08 6.87
1 3 3 793.91 6.75
1 3 4 10.11 0.92
1 3 5 274.11 5.39
1 3 6 119.2 3.81
1 3 7 180.84 4.99
1 3 8 660.49 10.24
1 3 9 106.89 4.43
1 3 10 208.06 6.59
1 3 11 215.03 7.11
1 3 12 9.95 1.61
1 3 13 122.98 5.93
1 3 14 16.34 2.36
1 3 15 9.75 2.02
1 3 16 3.76 1.53
1 3 17 11.12 2.44
1 3 18 1.67 1.43
1 3 19 21.62 3.39
1 3 19 23.05 3.51
1 3 20 25.67 3.9
1 3 20 24.56 3.56
1 3 21 21.34 3.45
1 3 21 14.75 2.95
1 3 22 6.62 2.46
1 3 23 6.94 2.79
-1 4 21 3.13 2.03
-1 4 20 12.49 2.88
-1 4 19 16.4 2.91
-1 4 18 28.28 3.54
-1 4 17 90.61 6
-1 4 16 2.98 1.33
-1 4 15 112.54 6.14
-1 4 14 62.14 4.34
-1 4 13 128.16 5.97
-1 4 12 43.11 3.29
-1 4 11 14.55 1.88
-1 4 10 40.28 2.83
-1 4 9 27.21 2.11
-1 4 8 104.02 1.55
-1 4 8 174.1 4.92
-1 4 7 348 4.55
-1 4 7 352.68 6.38
-1 4 6 38.24 1.88
-1 4 5 23.64 1.27
1 4 -5 19.61 0.8
1 4 -4 10.08 0.82
-1 4 4 6.83 0.55
-1 4 4 7.84 0.55
-1 4 -4 112 2.71
1 4 4 126.24 2.67
1 4 5 20.35 1.28
1 4 6 423.54 6.59
1 4 7 728.64 9.75
1 4 8 112.68 4.32
1 4 9 186.08 5.73
1 4 10 82.92 4.06
1 4 11 12.02 1.75
1 4 11 10.7 1.64
1 4 12 44.63 3.42
1 4 12 49.28 3.65
1 4 13 10.59 1.84
1 4 13 11.46 2
1 4 14 18.07 2.62
1 4 14 19.98 2.56
1 4 15 14.55 2.48
1 4 15 12.53 2.34
1 4 16 1.73 1.42
1 4 16 1.18 1.26
1 4 17 18.08 2.91
1 4 18 7.13 2.14
1 4 19 14.61 2.87
1 4 20 31.12 4.22
1 4 21 9.96 3.02
-1 5 16 58.39 4.53
-1 5 15 20.95 2.79
-1 5 14 3.66 1.51
-1 5 13 7.76 1.6
-1 5 12 19.65 2.18
-1 5 11 43.66 2.93
-1 5 10 5.01 0.97
-1 5 9 12.21 1.38
-1 5 8 57.83 2.54
-1 5 7 6.2 0.75
-1 5 6 70.43 1.78
1 5 -5 1.55 0.36
1 5 6 67.4 2.1
1 5 7 99.78 3.07
1 5 8 30.39 1.9
1 5 9 53.81 2.87
1 5 10 75.67 3.7
1 5 11 7.99 1.44
1 5 12 25.04 2.58
1 5 13 23.79 2.66
1 5 14 4.32 1.57
1 5 15 11.15 2.12
1 5 16 5.8 1.86
-2 -11 3 6.14 2.62
-2 -11 2 5.03 2.3
2 -10 -10 8.85 2.55
-2 -10 10 8.68 2.78
-2 -10 9 6.85 2.67
2 -10 -9 5.96 2.25
2 -10 -8 6.82 2.3
-2 -10 8 8.07 2.67
2 -10 -7 3.75 1.95
-2 -10 7 3.95 2.24
2 -10 -6 5.33 2.01
-2 -10 6 2.15 1.73
-2 -10 5 4.91 2.12
-2 -10 4 7.19 2.58
-2 -10 3 27.5 4.03
-2 -10 2 7.11 2.37
-2 -10 1 6.07 2.32
2 -10 -1 5.43 1.98
-2 -10 0 11.92 2.85
2 -10 0 16.63 2.87
2 -10 1 38.22 4.1
-2 -10 -1 30.2 4.11
2 -10 2 16.82 2.94
2 -10 3 7.75 2.33
2 -10 4 18.72 3.13
2 -10 5 16.75 2.97
2 -10 6 15.25 2.98
2 -10 7 6.09 2.11
2 -10 8 20.98 3.35
2 -10 9 4.65 2.11
2 -10 10 5.78 2.27
2 -9 -14 8.71 2.9
2 -9 -13 5.97 2.37
-2 -9 13 3.86 2.03
2 -9 -12 8.8 2.63
-2 -9 12 9.71 2.79
-2 -9 11 4.06 1.96
2 -9 -11 3.25 1.9
2 -9 -10 8.99 2.55
-2 -9 10 4.93 2.32
-2 -9 9 5.56 2.17
2 -9 -9 12.41 2.84
-2 -9 8 4.39 2.17
2 -9 -8 7.35 2.35
2 -9 -7 9.8 2.42
-2 -9 7 10.37 2.72
2 -9 -6 6.99 2.01
-2 -9 6 2.08 1.58
2 -9 -5 17.22 2.78
-2 -9 5 17.56 3.14
-2 -9 4 34.08 4.26
2 -9 -4 35.18 3.68
-2 -9 3 9.33 2.5
2 -9 -3 10.01 2.16
2 -9 -2 5.05 1.7
-2 -9 2 5.19 2.01
2 -9 -2 7.01 2.06
-2 -9 1 15.89 2.85
2 -9 -1 25.54 3.23
-2 -9 0 14.9 2.83
2 -9 0 9.22 2.15
2 -9 1 18.08 2.7
-2 -9 -1 17.68 3.07
2 -9 2 6.88 1.93
-2 -9 -2 6.04 1.82
2 -9 3 17.65 2.77
-2 -9 -3 15.59 2.79
2 -9 4 21.46 3.14
2 -9 5 6.91 2
2 -9 6 10.88 2.35
2 -9 7 5.38 1.71
2 -9 8 5.77 1.97
-2 -8 16 4.03 2.21
2 -8 -16 8.32 2.74
-2 -8 15 6.47 2.35
2 -8 -15 9.53 2.79
2 -8 -14 3.63 2.23
-2 -8 14 1.24 1.45
2 -8 -13 3.26 1.8
-2 -8 13 0.86 1.64
-2 -8 12 8.36 2.55
2 -8 -12 7.81 2.34
-2 -8 11 59.63 5.66
2 -8 -11 48.15 5.02
2 -8 -10 44.14 4.49
-2 -8 10 39.42 4.54
2 -8 -9 32.64 3.85
-2 -8 9 25.18 3.68
-2 -8 8 112.8 7.47
2 -8 -8 111.82 6.81
-2 -8 7 49.37 4.98
2 -8 -7 50.29 4.4
-2 -8 6 22.18 2.43
2 -8 -6 25.54 3.19
2 -8 -5 9.78 2.06
-2 -8 5 9.71 2.25
-2 -8 4 40.57 4.24
2 -8 -4 35.43 3.5
2 -8 -3 15.41 2.4
2 -8 -3 13.08 2.13
-2 -8 3 12.5 2.56
2 -8 -2 27.92 2.87
-2 -8 2 25.54 3.32
2 -8 -2 27.13 3.07
2 -8 -1 3.66 1.23
2 -8 -1 4.36 1.44
-2 -8 1 7.77 1.96
2 -8 0 83.15 4.48
-2 -8 0 85.63 5.75
2 -8 0 92.96 5.6
2 -8 1 11.11 2.15
-2 -8 -1 7.51 2.04
-2 -8 -2 7.29 1.88
2 -8 2 3.11 1.19
-2 -8 -3 10.98 2.21
2 -8 3 8.83 1.92
2 -8 4 6.68 1.77
-2 -8 -4 5.34 1.62
-2 -8 -5 29.88 3.19
2 -8 5 38 3.8
-2 -7 19 8.74 2.66
-2 -7 18 10.54 2.72
2 -7 -18 15.5 3.51
-2 -7 17 1.45 1.51
2 -7 -17 3.5 1.85
2 -7 -16 11.39 2.96
-2 -7 16 15.93 3.12
2 -7 -15 4.02 1.77
-2 -7 15 7.11 2.23
-2 -7 14 3.24 1.82
2 -7 -14 -0.33 1.14
-2 -7 13 11.62 2.57
2 -7 -13 14.88 2.87
-2 -7 12 7.56 2.09
2 -7 -12 7.13 2.1
-2 -7 11 62.41 5.3
2 -7 -11 65.24 5.4
-2 -7 10 30.56 3.9
2 -7 -10 31.96 3.84
2 -7 -9 130.51 7.23
-2 -7 9 121.59 7.19
2 -7 -8 17.62 2.69
-2 -7 8 16.82 2.71
-2 -7 7 59.87 4.88
2 -7 -7 55.89 4.47
2 -7 -6 5.54 1.64
-2 -7 6 4.44 1.89
2 -7 -5 11.09 2.02
-2 -7 5 9.71 2.24
-2 -7 4 31.19 3.46
2 -7 -4 28.85 2.94
2 -7 -4 22.81 2.63
-2 -7 4 21.32 2.15
-2 -7 3 30.98 3.43
2 -7 -3 30.43 2.98
-2 -7 3 28.27 2.32
2 -7 -3 39.49 3.3
2 -7 -2 28.36 2.97
-2 -7 2 32.16 3.43
2 -7 -2 30.6 2.88
-2 -7 2 26.14 2.19
-2 -7 1 5.65 1.64
2 -7 -1 6.71 1.76
-2 -7 1 5.95 1.13
2 -7 -1 8.06 1.67
-2 -7 0 28.01 3.01
-2 -7 0 23.96 1.9
2 -7 0 26.76 2.41
2 -7 0 28.32 2.9
2 -7 1 10.34 1.5
2 -7 1 13.05 2
-2 -7 -1 13.57 2.19
-2 -7 -2 33.68 3.28
2 -7 2 36 2.53
2 -7 2 39.75 3.43
2 -7 3 38.65 3.41
-2 -7 -3 38.62 3.37
-2 -7 -4 26.39 2.72
2 -7 4 25.76 3.34
2 -7 5 11.92 2.35
-2 -7 -5 11.42 1.86
-2 -7 -6 2.14 1.03
2 -7 6 0.85 0.99
2 -6 -20 6.09 3.25
-2 -6 20 11.17 2.85
-2 -6 20 11.61 2.78
-2 -6 19 6.64 2.24
-2 -6 19 4.44 2.12
2 -6 -19 7.03 2.53
2 -6 -18 2.19 1.56
-2 -6 18 4.26 1.76
-2 -6 18 5.58 2.21
-2 -6 17 12.65 2.66
-2 -6 17 6.99 2.25
2 -6 -17 8.1 2.28
-2 -6 16 11.48 2.55
-2 -6 16 9.61 2.44
2 -6 -16 10.73 2.65
-2 -6 15 5.3 1.87
2 -6 -15 10.4 2.45
-2 -6 15 6.16 1.98
-2 -6 14 13.53 2.46
2 -6 -14 11.42 2.48
-2 -6 14 17.02 2.92
-2 -6 13 8.41 2.14
-2 -6 13 5.85 1.77
2 -6 -13 6.01 1.89
-2 -6 12 145.73 7.77
-2 -6 12 136.68 6.76
2 -6 -12 156.5 8.1
2 -6 -11 9.47 2.38
-2 -6 11 7.91 1.73
-2 -6 11 8.63 2.17
-2 -6 10 47.21 4.27
2 -6 -10 44.84 4.13
2 -6 -9 9.59 2.16
-2 -6 9 8.5 1.83
-2 -6 8 3.3 1.27
2 -6 -8 2.73 1.3
-2 -6 7 136.37 6.77
2 -6 -7 144.81 6.63
2 -6 -6 94.67 5.23
-2 -6 6 101.02 5.66
-2 -6 5 16.04 2.31
2 -6 -5 16.02 2.21
-2 -6 4 109.25 5.74
2 -6 -4 112.81 5.33
2 -6 -4 110.71 5.27
-2 -6 3 161.46 6.79
2 -6 -3 168.07 6.23
2 -6 -3 165.46 6.28
-2 -6 2 4.66 0.98
2 -6 -2 5.44 1.33
-2 -6 2 2.96 1.14
2 -6 -2 1.99 1.1
2 -6 -1 26.37 2.36
-2 -6 1 22.23 2.49
-2 -6 1 21.84 1.73
2 -6 -1 25.52 2.54
-2 -6 0 20.48 2.44
2 -6 0 19.18 2.18
-2 -6 0 17.21 1.5
2 -6 0 20.76 2.04
-2 -6 -1 136.7 4.07
-2 -6 -1 141.12 5.98
2 -6 1 140.88 4.89
2 -6 1 136.87 5.78
2 -6 1 141.53 6.41
2 -6 2 122.66 6.1
-2 -6 -2 116.5 5.31
2 -6 2 127.77 4.35
2 -6 2 120.09 5.5
-2 -6 -3 24.93 2.47
2 -6 3 23.92 2.92
2 -6 3 25.79 1.89
-2 -6 -4 36.55 2.89
2 -6 4 40.06 3.73
2 -6 4 40.54 2.11
2 -6 5 6.71 1.78
2 -6 5 5.8 1
-2 -6 -5 7.5 1.45
2 -6 6 18.09 1.79
-2 -6 -6 16.16 1.98
2 -6 6 22.26 2.93
2 -6 7 3.15 1.03
-2 -6 -7 1.8 0.74
2 -6 7 2.75 1.44
2 -6 8 21.41 3.01
2 -6 8 18.4 2.12
-2 -6 -8 14.64 2.24
-2 -6 -9 22.59 2.88
2 -6 9 18.24 2.27
2 -6 10 97.51 5.43
2 -6 11 95.92 5.66
2 -6 12 16.93 2.7
2 -6 13 9.44 2.34
2 -6 14 3.97 1.66
2 -6 15 45.35 4.6
2 -6 16 6.98 2.14
2 -6 17 50.07 5.08
2 -6 18 30.83 4.26
2 -6 19 6.03 2.5
2 -6 20 3.04 2.19
2 -5 -21 8.28 4.3
-2 -5 21 24.42 3.93
-2 -5 20 4.3 1.94
-2 -5 20 5.41 2.31
2 -5 -20 -1.25 1.5
-2 -5 19 56.42 5.04
-2 -5 19 52.7 5.38
2 -5 -19 61.84 5.67
-2 -5 18 15.61 3
-2 -5 18 20.95 3.18
2 -5 -18 19.37 3.3
-2 -5 17 14.83 2.61
-2 -5 17 16.2 2.88
2 -5 -17 17.14 3.01
-2 -5 16 3.22 1.56
2 -5 -16 5.06 1.99
-2 -5 16 5.4 2.02
2 -5 -15 39.41 4.23
-2 -5 15 38.46 3.93
-2 -5 15 32.89 3.71
-2 -5 14 43.17 4.12
2 -5 -14 40.87 4.23
2 -5 -13 2.1 1.46
-2 -5 13 3.39 1.31
2 -5 -12 25.49 3.19
-2 -5 12 21.96 2.87
2 -5 -11 8.19 1.87
-2 -5 11 8.09 1.91
-2 -5 10 2.19 1.04
2 -5 -10 2.24 1.16
-2 -5 9 40.33 3.52
2 -5 -9 38.38 3.51
-2 -5 8 19.48 2.45
2 -5 -8 22.28 2.65
-2 -5 7 78.81 4.68
2 -5 -7 79.67 4.64
-2 -5 6 87.03 4.85
2 -5 -6 98.3 4.93
-2 -5 5 36.02 3.14
2 -5 -5 37.3 2.99
2 -5 -4 94.17 4.43
-2 -5 4 96.89 4.98
2 -5 -4 100 4.57
-2 -5 3 173.78 6.39
2 -5 -3 162.95 5.58
2 -5 -3 177.43 5.98
2 -5 -2 1.38 0.92
-2 -5 2 1.99 0.96
2 -5 -2 2.54 1.04
-2 -5 1 1.91 0.57
2 -5 -1 2.94 0.91
2 -5 -1 1.06 0.64
-2 -5 1 0.56 0.55
2 -5 0 52.03 3.23
-2 -5 0 47.35 3.17
2 -5 0 47.22 2.69
-2 -5 0 45.84 2.09
2 -5 1 139.33 5.38
-2 -5 -1 132.82 5.15
2 -5 1 130.1 4.29
2 -5 1 132.18 5.66
-2 -5 -1 134.56 3.5
-2 -5 -2 689.77 11.46
2 -5 2 696.65 13.16
2 -5 2 669.23 9.14
2 -5 2 711.38 7.42
2 -5 3 377.46 6.25
-2 -5 -3 367.93 8.22
2 -5 3 361.23 6.22
2 -5 3 362.59 9.68
2 -5 4 12.36 1.12
2 -5 4 14.41 1.44
-2 -5 -4 15.34 1.64
2 -5 4 13.66 2.09
2 -5 5 65.3 2.2
-2 -5 -5 62.9 3.28
2 -5 5 68.76 4.44
2 -5 5 68.9 3.31
-2 -5 -5 55.09 3.59
2 -5 6 77.97 4.86
-2 -5 -6 74.87 4.3
2 -5 6 80.86 3.9
-2 -5 -6 74.49 3.5
-2 -5 -7 57.61 2.94
2 -5 7 61.06 3.68
2 -5 7 63.91 4.38
-2 -5 -7 61.83 4.05
-2 -5 -8 103.5 3.65
2 -5 8 112.12 5.92
-2 -5 -8 118.39 5.62
2 -5 8 127.69 5.55
2 -5 9 19.53 2.56
-2 -5 -9 20.44 2.5
2 -5 9 19.85 2.3
2 -5 10 39.35 3.35
-2 -5 -10 34.37 3.33
2 -5 11 12.75 2.14
-2 -5 -11 10.81 2.12
2 -5 11 9.07 1.77
2 -5 12 28.99 3.22
-2 -5 -12 29.9 3.31
2 -5 12 36.96 3.58
2 -5 13 1.38 1.3
2 -5 13 3.23 1.43
2 -5 14 8.12 2.02
2 -5 14 6.38 1.88
2 -5 15 5.71 1.84
2 -5 15 7.63 2.18
2 -5 16 1.69 1.24
2 -5 16 1.61 1.31
2 -5 17 3.61 1.82
2 -5 18 7.66 2.5
2 -5 19 12.32 2.9
2 -5 20 7.61 2.64
2 -5 21 6.92 2.77
-2 -4 22 5.58 2.43
2 -4 -22 4.52 2.61
2 -4 -21 10.08 3.07
-2 -4 21 15.82 3.37
-2 -4 20 7.21 2.41
2 -4 -20 6.97 2.95
-2 -4 19 13.43 2.97
-2 -4 19 13.38 2.4
2 -4 -19 9.26 2.95
-2 -4 18 29.87 4.03
-2 -4 18 28.8 3.47
2 -4 -18 24.76 3.42
2 -4 -17 7.37 2
-2 -4 17 3.58 1.56
-2 -4 17 3.7 1.56
-2 -4 16 28.57 3.15
2 -4 -16 25.71 3.46
-2 -4 15 96.82 5.67
2 -4 -15 88.3 5.85
2 -4 -14 7.44 2.04
-2 -4 14 9.66 1.93
-2 -4 13 19.4 2.44
2 -4 -13 26.62 3.13
-2 -4 12 24.17 2.68
2 -4 -12 23.23 2.79
-2 -4 11 54.22 3.83
2 -4 -11 47.83 3.9
-2 -4 10 28.26 2.8
2 -4 -10 28.28 2.92
-2 -4 9 72.65 4.29
2 -4 -9 76.86 4.52
-2 -4 8 44.23 3.26
2 -4 -8 43.01 3.22
2 -4 -7 144.18 5.64
-2 -4 7 141.19 5.7
2 -4 -6 66.03 3.69
-2 -4 6 64.92 3.8
-2 -4 5 206.67 6.49
2 -4 -5 209.82 6.45
-2 -4 4 3.25 0.99
2 -4 -4 1.94 0.92
2 -4 -4 2.17 0.74
2 -4 -3 67.12 3.44
2 -4 -3 63.07 3.28
-2 -4 3 65.6 3.58
2 -4 -2 296.61 6.93
-2 -4 2 292.79 7.27
2 -4 -2 289.77 7
-2 -4 1 95.12 4.17
2 -4 -1 97.35 3.82
2 -4 -1 99.2 4.09
-2 -4 0 428.93 8.55
2 -4 0 416.92 8.33
2 -4 0 420.95 7.66
-2 -4 0 428.63 5.33
2 -4 1 59.29 2.12
-2 -4 -1 61.4 3.18
2 -4 1 60.62 2.81
-2 -4 -1 60.11 1.93
2 -4 1 58.24 3.49
2 -4 2 20.58 1.55
-2 -4 -2 17.37 1.68
2 -4 2 17.28 1.93
2 -4 2 16.56 1.27
2 -4 3 119.71 3.46
-2 -4 -3 115.74 4.18
2 -4 3 115.75 4.96
2 -4 3 116.13 3.63
2 -4 4 26.96 1.56
2 -4 4 27.29 1.99
-2 -4 -4 21.77 2.14
-2 -4 -4 25.6 1.92
2 -4 4 23.75 2.43
2 -4 5 121.94 2.95
2 -4 5 113.95 5.16
-2 -4 -5 115.26 4.72
-2 -4 -5 119.6 3.99
2 -4 5 128.18 4.62
2 -4 6 440.95 9.05
2 -4 6 419.89 4.76
-2 -4 -6 410.44 9.07
2 -4 6 429.54 10.11
-2 -4 -6 453.8 7.6
2 -4 7 68.83 1.36
2 -4 7 94.06 4.85
2 -4 7 93.13 4.37
-2 -4 -7 93.13 4.52
-2 -4 -7 94.33 3.26
-2 -4 -8 85.84 4.49
2 -4 8 93.73 4.95
2 -4 8 95.74 4.68
2 -4 8 94.18 4.63
-2 -4 -8 88.64 2.94
2 -4 9 136.65 5.89
2 -4 9 141.92 5.88
-2 -4 -9 112.77 3.03
-2 -4 -9 125.29 5.6
2 -4 10 3.92 1.25
-2 -4 -10 8.31 1.56
2 -4 11 1.22 1.18
-2 -4 -11 3.98 1.38
2 -4 12 14.25 2.3
-2 -4 -12 7.48 1.67
-2 -4 -13 5.67 1.52
2 -4 13 5.19 1.65
2 -4 14 39.84 3.95
2 -4 15 35.14 3.87
2 -4 16 3.57 1.48
2 -4 17 33.1 3.97
2 -4 17 35.04 4.22
2 -4 18 8.36 2.33
2 -4 18 12.08 2.81
2 -4 19 13.21 2.96
2 -4 19 7.35 2.35
2 -4 20 7.89 2.23
2 -4 21 22.85 3.94
2 -4 22 13.24 3.36
-2 -3 23 6.8 2.68
2 -3 -23 1.03 2.54
2 -3 -22 2.97 2.8
-2 -3 22 11.93 2.9
2 -3 -21 3.22 1.95
-2 -3 21 7.54 2.59
2 -3 -20 6.59 2.71
-2 -3 20 17.73 3.2
2 -3 -19 14.78 2.71
-2 -3 19 13.76 2.95
-2 -3 18 53.4 5.1
-2 -3 18 49.46 4.02
2 -3 -18 45.56 4.28
-2 -3 17 67.2 4.64
2 -3 -17 67.65 5.06
-2 -3 16 119.77 5.96
2 -3 -16 117.39 6.41
2 -3 -15 25.41 2.95
-2 -3 15 30.22 2.99
-2 -3 14 102.53 5.18
2 -3 -14 104.85 5.75
-2 -3 13 5.05 1.3
2 -3 -13 4.99 1.53
2 -3 -12 12.42 1.98
-2 -3 12 8.63 1.5
-2 -3 11 44.65 3.2
2 -3 -11 43.92 3.48
-2 -3 10 39.91 2.95
2 -3 -10 39.82 3.15
-2 -3 9 448.37 9.67
2 -3 -9 443.7 9.76
2 -3 -8 239.55 6.99
-2 -3 8 255.25 7.01
2 -3 -7 171.7 5.75
-2 -3 7 175.92 5.71
2 -3 -6 489.52 9.54
-2 -3 6 461.27 8.99
2 -3 -5 101.04 4.22
-2 -3 5 107.28 4.31
2 -3 -4 91.72 3.68
-2 -3 4 89.7 3.8
2 -3 -4 90.99 3.9
2 -3 -3 83.57 3.58
-2 -3 3 86.12 3.66
2 -3 -3 85.44 3.44
2 -3 -2 661.55 9.56
-2 -3 2 690.06 10.07
2 -3 -2 653.45 9.36
2 -3 -1 460.9 7.57
-2 -3 1 468.98 7.98
2 -3 -1 477.43 7.98
2 -3 0 6.78 0.72
-2 -3 0 7.27 1.04
-2 -3 0 6.83 0.56
2 -3 0 7.34 0.98
2 -3 0 6.68 0.97
2 -3 1 267.32 4.64
-2 -3 -1 255.17 5.58
2 -3 1 262.03 5.29
-2 -3 -2 73.51 2.95
2 -3 2 69.68 2.63
2 -3 2 78.1 2.76
-2 -3 -3 709.1 8.8
2 -3 3 725.19 7.83
2 -3 3 747.92 9.5
2 -3 4 115.68 2.97
2 -3 4 104.91 4.43
2 -3 4 115.13 4.09
-2 -3 -4 116.82 3.5
2 -3 5 518.16 6.1
2 -3 5 522.7 9.92
-2 -3 -5 522.11 7.2
2 -3 5 532.97 9.14
-2 -3 -5 526.73 9.26
-2 -3 -6 179.15 5.62
2 -3 6 180.89 3.4
-2 -3 -6 183.02 4.12
2 -3 6 175.35 5.98
2 -3 6 185.21 5.81
2 -3 6 184.25 5.67
2 -3 7 657.97 11.35
-2 -3 -7 667.3 11.12
2 -3 7 657.06 6.22
-2 -3 -7 666.36 7.58
2 -3 7 670.97 6.11
-2 -3 -8 259.52 4.47
2 -3 8 264.83 3.93
-2 -3 -8 261.35 7.15
2 -3 8 267.76 3.82
2 -3 8 269.39 7.67
-2 -3 -9 42.99 3.15
-2 -3 -9 39.19 1.64
2 -3 9 39.5 1.53
2 -3 9 44.66 3.33
2 -3 10 38.97 1.58
-2 -3 -10 33.68 1.27
2 -3 10 53.7 3.83
-2 -3 -10 50.66 3.41
-2 -3 -11 2.3 1.07
2 -3 11 0.26 0.26
2 -3 11 1.66 0.89
2 -3 12 58.89 4.35
-2 -3 -12 58.99 3.95
2 -3 13 22.62 2.94
-2 -3 -13 19.11 2.5
2 -3 14 71.64 5.12
2 -3 15 44.66 4.28
2 -3 16 23.73 3.35
2 -3 17 2.12 1.45
2 -3 18 2.84 1.62
2 -3 19 17.33 3.22
2 -3 19 16.64 3.16
2 -3 20 37.67 4.59
2 -3 20 33.72 4.55
2 -3 21 8.37 2.53
2 -3 21 6.38 2.47
2 -3 22 23.42 3.93
2 -3 23 2.67 2.12
-2 -2 23 5.96 2.49
2 -2 -22 8.6 3.48
-2 -2 22 33.11 4.66
2 -2 -21 2.18 1.99
-2 -2 21 7.48 2.46
-2 -2 20 48.83 5.19
2 -2 -20 43.42 4.12
-2 -2 19 22.76 3.45
2 -2 -19 23.43 3
2 -2 -18 3.93 1.45
-2 -2 17 124.85 5.8
2 -2 -17 123.04 6.31
-2 -2 16 6.06 1.36
2 -2 -16 6.15 1.7
2 -2 -15 5.38 1.49
-2 -2 15 6.55 1.47
-2 -2 14 30.59 2.64
2 -2 -14 30.8 2.97
-2 -2 13 20.94 2.12
2 -2 -13 21.81 2.48
2 -2 -12 21.45 2.32
-2 -2 12 25.25 2.22
-2 -2 11 32.38 2.48
2 -2 -11 32.05 2.67
-2 -2 10 199.6 5.97
2 -2 -10 191.29 6.14
2 -2 -9 86.85 4.01
-2 -2 9 82.48 3.66
-2 -2 8 242.86 6.16
2 -2 -8 254.49 6.81
-2 -2 7 54.91 2.9
2 -2 -7 54.76 3.13
-2 -2 6 170.12 4.94
2 -2 -6 177.21 5.4
-2 -2 5 138.17 4.3
2 -2 -5 136.91 4.51
-2 -2 4 255.15 5.64
2 -2 -4 259.52 5.91
2 -2 -3 520.41 8.02
-2 -2 3 509.59 7.61
2 -2 -3 489.94 7.26
2 -2 -2 56.9 2.59
-2 -2 2 51.37 2.39
2 -2 -2 53.17 2.37
2 -2 -1 60.04 2.51
-2 -2 1 62.85 2.56
2 -2 -1 63.05 2.59
-2 -2 0 404.95 6.18
2 -2 0 402.71 5.37
2 -2 0 389.4 6.12
2 -2 1 544.14 6.89
-2 -2 -1 525.59 6.83
2 -2 1 540.81 6.65
2 -2 2 2534 14.29
-2 -2 -2 2521.96 14.35
2 -2 2 2523.85 15.57
2 -2 3 80.13 3.11
2 -2 3 83.1 2.58
-2 -2 -3 76.15 2.45
-2 -2 -4 1604.07 10.92
2 -2 4 1605.3 14.64
2 -2 4 1591.21 11.2
-2 -2 -5 1399.15 9.98
2 -2 5 1404.28 14.43
2 -2 5 1427.82 10.78
2 -2 5 1377.15 14.62
-2 -2 -6 11.94 0.94
2 -2 6 12.83 1.57
-2 -2 -6 11.56 1.46
-2 -2 -7 10.25 0.85
-2 -2 -7 9.88 1.39
2 -2 7 9.03 1.33
-2 -2 -8 167.74 5.43
-2 -2 -8 179.13 3.46
2 -2 8 169.58 6
2 -2 9 19.63 2.2
-2 -2 -9 19.4 1.11
-2 -2 -9 16.12 1.88
-2 -2 -10 108.63 2.54
2 -2 10 118.67 5.53
-2 -2 -10 111.82 4.75
-2 -2 -11 77.73 4.1
-2 -2 -11 63.55 1.87
2 -2 11 79.2 4.74
-2 -2 -12 0.22 0.17
2 -2 12 12.87 1.97
2 -2 13 99.14 5.76
2 -2 14 5.14 1.59
2 -2 15 1.7 1.24
2 -2 16 24 3.31
2 -2 17 6.92 2.2
2 -2 18 8.23 2.16
2 -2 19 24.84 3.78
2 -2 20 4.69 1.93
2 -2 20 4.37 1.88
2 -2 21 5.7 2.1
2 -2 21 8.61 2.53
2 -2 22 0.28 1.39
2 -2 22 6.49 2.47
2 -2 23 9.27 3.02
-2 -1 24 4.95 2.47
-2 -1 23 13.05 3.28
-2 -1 22 16.32 3.39
-2 -1 21 16.98 3.32
2 -1 -21 13.05 2.42
2 -1 -20 10.14 1.99
-2 -1 20 7.01 2.32
2 -1 -19 8.81 1.92
-2 -1 19 10.44 2.47
2 -1 -18 10.4 1.89
2 -1 -17 18.71 2.26
2 -1 -16 3.17 1.32
-2 -1 16 1.35 0.85
-2 -1 15 27.41 2.3
2 -1 -15 23.97 2.51
-2 -1 14 8.16 1.37
2 -1 -14 7.62 1.53
-2 -1 13 91.84 3.94
2 -1 -13 83.22 4.24
2 -1 -12 121.97 4.92
-2 -1 12 123.13 4.39
-2 -1 11 93.37 3.75
2 -1 -11 90.87 4.09
2 -1 -10 380.33 8.12
-2 -1 10 400.43 7.44
-2 -1 9 308.49 6.34
2 -1 -9 310.17 7.18
2 -1 -8 91.02 3.78
-2 -1 8 87.34 3.3
2 -1 -7 660.63 9.7
-2 -1 7 654.92 8.68
2 -1 -6 1140.11 12.11
-2 -1 6 1124.51 10.94
-2 -1 5 2495.54 15.75
2 -1 -5 2516.24 17.4
-2 -1 4 1454.55 11.65
2 -1 -4 1450.86 12.78
2 -1 -3 436.32 6.7
-2 -1 3 440.87 6.2
2 -1 -2 408.14 6.14
-2 -1 2 439.84 5.83
2 -1 -2 432.46 5.74
-2 -1 1 2874.65 14.24
2 -1 -1 2862.91 15.69
2 -1 -1 2809.38 14.33
2 -1 0 1244.76 10.23
2 -1 0 1247.84 9.44
-2 -1 0 1267.06 9.33
2 -1 1 78.76 2.55
-2 -1 -1 82.72 2.3
2 -1 1 77.28 2.61
2 -1 2 91.78 2.97
2 -1 3 1486.04 12.94
2 -1 4 953.2 11.02
2 -1 5 705.52 9.91
2 -1 5 701.86 10.23
2 -1 6 15.54 1.62
2 -1 7 88.05 4.03
2 -1 8 8.92 1.5
2 -1 9 52.51 3.43
2 -1 10 355.48 9.34
2 -1 11 72.74 4.49
2 -1 12 16.31 2.29
2 -1 13 94.51 5.49
2 -1 14 130.68 6.79
2 -1 15 124.71 6.89
2 -1 16 114.91 6.85
2 -1 17 98.84 6.6
2 -1 18 0.96 1.1
2 -1 19 18.67 3.19
2 -1 20 51.82 5.27
2 -1 20 61.47 5.75
2 -1 21 2.13 2.1
2 -1 21 3.5 1.96
2 -1 22 6.56 2.45
2 -1 22 6.12 2.24
2 -1 23 5.58 2.68
-2 0 24 9.18 2.97
-2 0 23 9.3 2.83
-2 0 22 3.25 1.99
-2 0 21 2.84 1.71
-2 0 20 58.7 5.55
2 0 -19 41.73 3.44
-2 0 19 54.05 5.33
2 0 -18 31.85 2.93
2 0 -17 8.49 1.69
2 0 -16 24.61 2.45
-2 0 15 0.81 0.56
2 0 -15 1.54 0.9
-2 0 14 45.27 2.49
2 0 -14 42.69 2.99
-2 0 13 44.13 2.39
2 0 -13 42.95 2.87
-2 0 12 2.06 0.69
2 0 -12 2.08 0.71
-2 0 11 69.21 2.76
2 0 -11 67.83 3.27
-2 0 10 429.18 6.55
2 0 -10 417.4 7.76
2 0 -9 28.93 2.03
-2 0 9 28.45 1.67
2 0 -8 650.37 9.24
-2 0 8 631.22 7.54
-2 0 7 1036.92 9.32
2 0 -7 1039.4 11.01
-2 0 6 259.95 4.54
2 0 -6 251.4 5.27
2 0 -5 1.87 0.67
-2 0 5 1.63 0.44
-2 0 4 1160.68 8.82
2 0 -4 1146.69 10.32
-2 0 3 20.35 1.16
2 0 -3 16.16 1.27
2 0 -2 6.99 0.82
-2 0 2 6.37 0.59
2 0 -1 1514.07 11.13
-2 0 1 1463.86 8.21
2 0 -1 1468.15 8.12
2 0 0 6.78 0.75
2 0 0 6.63 0.53
2 0 1 4836.18 19.39
2 0 2 1738.57 12.54
2 0 3 114.47 3.53
2 0 4 498.97 8.07
2 0 5 1144.02 12.5
2 0 5 1111.94 12.61
2 0 6 149.81 4.78
2 0 7 11.03 1.46
2 0 8 8.01 1.32
2 0 9 107.18 4.86
2 0 10 25.82 2.53
2 0 11 71.15 4.33
2 0 12 164.82 6.96
2 0 13 292.9 9.59
2 0 14 161.81 7.48
2 0 15 12.89 2.48
2 0 16 92.33 6.09
2 0 17 2.25 1.61
2 0 18 33.19 3.94
2 0 19 23.09 3.45
2 0 20 12.3 2.73
2 0 20 8.46 2.49
2 0 21 5 2.36
2 0 21 5.26 2.17
2 0 22 15.13 3.23
2 0 22 12.12 2.96
2 0 23 5.7 2.88
-2 1 24 6.07 2.59
-2 1 23 13.54 3.42
-2 1 22 12.93 3.16
-2 1 21 11.15 2.89
-2 1 20 6.3 2.23
-2 1 19 5.57 2
-2 1 18 9.97 2.11
2 1 -17 21.8 2.19
2 1 -16 1.95 0.89
2 1 -15 23.53 2.16
2 1 -14 8.46 1.21
-2 1 13 59.46 2.03
2 1 -13 82.27 3.54
2 1 -12 122.13 4.15
-2 1 12 110.21 2.71
-2 1 11 86.39 2.34
2 1 -11 90.18 3.41
2 1 -10 375.3 6.66
-2 1 10 385.89 4.91
-2 1 9 310.3 4.38
2 1 -9 304.49 5.93
-2 1 8 91.55 2.34
2 1 -8 83.61 2.98
-2 1 7 679.74 6.31
2 1 -7 666.36 8
-2 1 6 1156.22 8.03
2 1 -6 1140.99 10.04
-2 1 5 2518.27 11.8
2 1 -5 2535.3 14.41
2 1 -4 1507.6 11.1
2 1 -3 446.87 6.16
2 1 0 1262.56 9.5
2 1 1 85.01 2.59
2 1 2 99.57 2.99
2 1 3 1478.54 12.35
2 1 4 945.83 10.76
2 1 5 708.08 9.97
2 1 6 17.16 1.66
2 1 6 14.13 1.61
2 1 7 81.09 3.77
2 1 7 80.5 3.63
2 1 8 9.89 1.47
2 1 9 53.59 3.39
2 1 10 344.8 8.94
2 1 11 86.45 4.69
2 1 12 15.52 2.08
2 1 13 106.2 5.69
2 1 14 129.48 6.57
2 1 15 127.97 6.81
2 1 16 123.65 6.93
2 1 17 111.1 6.79
2 1 18 2.35 1.47
2 1 19 21.63 3.39
2 1 19 16.91 3
2 1 20 62.94 5.8
2 1 20 51.66 5.19
2 1 21 4.04 2.39
2 1 21 5.74 2.54
2 1 22 10.89 2.82
2 1 23 12.54 3.46
-2 2 24 4.41 2.53
-2 2 23 3.74 2.22
-2 2 22 30.83 4.31
-2 2 21 6.81 2.34
-2 2 20 50.99 5.31
-2 2 19 27.13 3.62
-2 2 18 3.03 1.71
2 2 -15 3.98 0.91
2 2 -14 24.76 1.8
2 2 -13 20.95 1.59
2 2 -12 24.73 1.61
2 2 -11 30.4 1.75
2 2 -10 182.47 3.96
-2 2 9 32.46 1.03
-2 2 9 53.31 1.14
-2 2 8 228.62 2.92
2 2 -8 251.87 4.39
-2 2 7 62.11 1.68
2 2 -7 59.29 2.13
2 2 -6 179.6 3.61
2 2 -5 130.29 3.15
2 2 -4 248.93 4.63
2 2 1 543.25 6.43
2 2 2 2556.82 14.65
2 2 2 2501.88 7.98
2 2 3 83.12 2.9
2 2 4 1572.54 13.52
2 2 5 1408.54 13.74
2 2 6 13.48 1.49
2 2 7 10.97 1.51
2 2 8 176.26 5.71
2 2 8 171.38 5.73
2 2 9 19.3 2.14
2 2 9 19.09 1.96
2 2 10 116.53 5.11
2 2 10 117.75 5.32
2 2 11 84.5 4.59
2 2 12 10.18 1.93
2 2 13 100.91 5.52
2 2 14 4.02 1.47
2 2 15 1.74 1.27
2 2 15 2.03 1.32
2 2 16 25.48 3.14
2 2 16 23.57 3.13
2 2 17 6.29 2
2 2 17 7.14 1.97
2 2 18 10.53 2.36
2 2 18 14.31 2.94
2 2 19 24.84 3.52
2 2 19 36.89 4.42
2 2 20 6.9 2.38
2 2 21 10.24 2.85
2 2 22 3.19 1.98
2 2 23 8.81 3.05
-2 3 23 5.94 2.4
-2 3 22 12.03 3.05
-2 3 21 4.32 2.06
-2 3 20 17.2 3.18
-2 3 19 16.85 3.21
-2 3 18 54.5 5.01
-2 3 17 69.09 5.38
-2 3 16 113.39 6.69
2 3 -11 30.71 1.16
2 3 -10 32.64 1.18
2 3 -9 369.82 3.96
-2 3 8 222.36 2.8
2 3 -8 239.56 3.41
-2 3 8 209.34 2.89
2 3 -7 174.46 3.06
-2 3 7 176.84 3.33
2 3 -6 464.98 5.42
2 3 -5 96.93 2.88
-2 3 2 680.63 6.73
-2 3 1 493 5.9
2 3 2 76.51 2.46
2 3 3 738.5 8.22
2 3 4 114.16 3.53
2 3 5 513.97 7.92
2 3 6 180.75 5.15
2 3 7 689.6 10.66
2 3 8 281.01 7.39
2 3 9 45.21 3.18
2 3 10 54.13 3.52
2 3 11 3.74 1.3
2 3 12 63.16 4.18
2 3 13 21.41 2.67
2 3 14 67.89 4.78
2 3 15 48.04 4.17
2 3 16 21.72 3.05
2 3 17 1.52 1.26
2 3 18 3.28 1.82
2 3 19 20.74 3.45
2 3 20 37.38 4.78
2 3 21 10.39 2.99
2 3 22 24.9 4.39
2 3 23 5.82 2.71
-2 4 21 15.04 3.1
-2 4 20 6.95 2.25
-2 4 19 12.51 2.78
-2 4 18 24.9 3.39
-2 4 17 5.09 1.81
-2 4 16 25.12 3.2
-2 4 15 82.63 5.39
-2 4 14 6.38 1.61
2 4 -7 107.81 1.79
2 4 -7 106.93 1.71
2 4 -6 55.41 1.97
2 4 -6 59.17 1.82
-2 4 3 59.71 1.9
-2 4 2 292.84 4.23
-2 4 1 86.74 2.36
-2 4 0 403.55 5.49
2 4 4 24.65 1.51
2 4 5 113.47 3.5
2 4 6 445.16 7.63
2 4 7 89.66 3.64
2 4 8 94.25 4.06
2 4 9 140.73 5.25
2 4 10 9.92 1.63
2 4 11 1.55 0.86
2 4 12 10.33 1.83
2 4 13 5.06 1.53
2 4 14 46.48 4.01
2 4 15 38.63 3.82
2 4 16 4.35 1.73
2 4 17 31.1 3.81
2 4 18 12.3 2.78
2 4 19 12.78 2.91
2 4 20 6.34 2.35
2 4 21 18.78 3.62
-2 5 15 33.55 3.4
-2 5 14 39.45 3.48
-2 5 13 3.76 1.34
-2 5 12 25.1 2.49
-2 5 11 7.8 1.39
-2 5 10 2.63 0.93
-2 5 9 37.13 2.45
-2 5 8 19.37 1.64
2 5 -6 57.69 1.95
2 5 5 59.78 2.23
2 5 6 75.34 2.72
2 5 7 59.58 2.67
2 5 8 119.78 4.17
2 5 9 16.17 1.75
2 5 10 33.98 2.55
2 5 11 8.45 1.5
2 5 12 29.03 2.77
2 5 13 4.39 1.48
2 5 14 7.67 1.81
2 5 15 4.32 1.74
2 5 16 2.96 1.49
3 -10 -10 6.64 2.57
-3 -10 9 2.29 1.74
3 -10 -9 3.8 2.25
-3 -10 8 9.15 2.84
3 -10 -8 8.01 2.58
-3 -10 7 3.44 2.08
3 -10 -7 5.1 2.07
-3 -10 6 4.62 2.19
-3 -10 5 7.31 2.49
-3 -10 4 8.17 2.57
-3 -10 3 11.78 2.92
-3 -10 2 3.85 2.04
-3 -10 1 3.99 1.96
3 -10 -1 5.33 2.05
-3 -10 0 12.63 2.93
3 -10 0 14.18 2.84
-3 -10 -1 7.77 2.3
3 -10 1 10.32 2.53
3 -10 2 5.13 2.13
3 -10 3 9.38 2.62
3 -10 4 23.79 3.54
3 -10 5 15.27 3.05
3 -10 6 6.96 2.41
3 -10 7 2.55 1.78
3 -10 8 20.09 3.64
3 -10 9 6.56 2.39
3 -9 -13 17.94 3.77
-3 -9 13 13.98 3.39
-3 -9 12 6.88 2.52
3 -9 -12 9.54 2.84
-3 -9 11 11.75 3.09
3 -9 -11 8.81 2.5
-3 -9 10 4.77 2.1
3 -9 -10 5.29 2.12
-3 -9 9 3.15 1.82
3 -9 -9 3.8 1.76
-3 -9 8 14.16 3.04
3 -9 -8 13.19 2.79
-3 -9 7 7.17 2.31
3 -9 -7 9.36 2.34
3 -9 -6 11.1 2.48
-3 -9 6 11.02 2.9
-3 -9 5 10.96 2.73
3 -9 -5 11.26 2.35
3 -9 -4 13.77 2.42
-3 -9 4 9.69 2.73
-3 -9 3 6.19 2.24
3 -9 -3 4.94 1.7
3 -9 -2 2.07 1.54
-3 -9 2 2.47 1.48
-3 -9 1 13.02 2.6
3 -9 -1 14.45 2.6
-3 -9 0 6.82 2.07
3 -9 0 4.84 1.74
-3 -9 -1 37.97 4.29
3 -9 1 35.29 3.93
3 -9 2 13.57 2.64
-3 -9 -2 8.77 2.3
-3 -9 -3 4.19 1.83
3 -9 3 3.31 1.69
3 -9 4 20.72 3.1
3 -9 5 21.93 3.26
3 -9 6 2.25 1.38
3 -9 7 3.71 1.78
3 -9 8 3.07 1.7
3 -9 9 29.55 3.89
3 -8 -16 4.38 2.22
-3 -8 16 12.36 3.13
-3 -8 15 8.97 3
3 -8 -15 3.78 2.16
-3 -8 14 9.61 2.72
3 -8 -14 7.64 2.57
3 -8 -13 8.81 2.53
-3 -8 13 6.52 2.44
3 -8 -12 5.29 2.03
-3 -8 12 3.43 1.77
-3 -8 11 11.49 2.95
3 -8 -11 10.36 2.56
-3 -8 10 9.96 2.59
3 -8 -10 8.82 2.48
-3 -8 9 29.32 3.99
3 -8 -9 33.7 3.98
-3 -8 8 75.68 6.08
3 -8 -8 87.97 6.18
-3 -8 7 27.63 3.74
3 -8 -7 33.15 3.83
3 -8 -6 10.52 2.29
-3 -8 6 16.18 3.03
-3 -8 5 7.17 2.07
3 -8 -5 8.78 2.14
-3 -8 4 39.36 4.26
3 -8 -4 43.88 3.95
3 -8 -3 10.09 2.18
3 -8 -3 9.33 2.1
-3 -8 3 9.62 2.17
3 -8 -2 10.36 2.01
3 -8 -2 14.75 2.36
-3 -8 2 14.82 2.74
-3 -8 1 3.52 1.57
3 -8 -1 0.65 1.1
3 -8 -1 -0.04 1.11
-3 -8 0 41.28 4.1
3 -8 0 42.24 3.28
3 -8 0 41.63 4.03
3 -8 1 24.24 3.14
-3 -8 -1 24.5 3.17
-3 -8 -2 26.78 3.2
3 -8 2 35.21 3.72
3 -8 3 4.92 1.56
-3 -8 -3 5.73 1.68
-3 -8 -4 5.54 1.66
3 -8 4 5.98 1.78
-3 -8 -5 37.49 3.58
3 -8 5 48.66 4.42
3 -8 6 9.8 2.32
3 -7 -18 10.34 3.23
-3 -7 18 5.37 2.33
3 -7 -17 10.79 3.02
-3 -7 17 10.44 2.64
-3 -7 16 12.14 2.86
3 -7 -16 19.7 3.61
-3 -7 15 2.19 1.61
3 -7 -15 2.62 1.72
3 -7 -14 7.02 2.25
-3 -7 14 3.57 1.73
-3 -7 13 18.1 3.26
3 -7 -13 17.44 3.23
3 -7 -12 27.66 3.8
-3 -7 12 32.53 4.03
-3 -7 11 20.46 3.22
3 -7 -11 20.21 3.26
-3 -7 10 19.01 3.09
3 -7 -10 20.47 3.21
-3 -7 9 78.7 5.78
3 -7 -9 76.82 5.72
-3 -7 8 25.94 3.38
3 -7 -8 29.21 3.58
-3 -7 7 94.55 6.18
3 -7 -7 89.08 5.79
-3 -7 6 5.58 1.83
3 -7 -6 3.8 1.66
3 -7 -5 12.47 2.25
-3 -7 5 7.92 1.98
3 -7 -4 4.11 1.53
-3 -7 4 4.22 1.5
3 -7 -4 2.52 1.26
-3 -7 3 20.63 2.85
3 -7 -3 22.69 2.62
3 -7 -3 22.98 2.7
3 -7 -2 8.31 1.88
3 -7 -2 10.47 1.83
-3 -7 2 11.6 2.11
3 -7 -1 4.25 1.28
3 -7 -1 4.01 1.42
-3 -7 1 1.62 1.08
-3 -7 0 11.24 2.06
3 -7 0 16.16 2.02
3 -7 0 9.41 1.86
3 -7 1 15.91 2.37
3 -7 1 11.73 1.68
-3 -7 -1 13.65 2.23
3 -7 2 37.38 3.55
-3 -7 -2 37.48 3.45
3 -7 2 39.21 2.75
-3 -7 -3 23.4 2.76
3 -7 3 24.55 2.99
-3 -7 -4 30.26 3.03
3 -7 4 42.51 3.9
-3 -7 -5 3.52 1.17
-3 -7 -6 13.96 1.99
-3 -6 20 5.76 2.37
-3 -6 20 4.62 2.31
3 -6 -20 4.92 3.03
3 -6 -19 2.34 2.34
-3 -6 19 6.91 2.39
-3 -6 19 5.56 2.41
-3 -6 18 16.98 3.15
3 -6 -18 15.85 3.26
-3 -6 18 15.79 3.13
-3 -6 17 7.07 2.37
3 -6 -17 7.36 2.31
-3 -6 17 8.03 2.34
3 -6 -16 19.93 3.5
-3 -6 16 16.95 3.2
-3 -6 16 12.72 2.54
-3 -6 15 6.04 2.03
-3 -6 15 5.88 2.02
3 -6 -15 8.08 2.38
-3 -6 14 2.84 1.52
3 -6 -14 6.15 2.09
-3 -6 13 41.17 4.16
3 -6 -13 52.02 4.84
-3 -6 12 34.81 3.95
3 -6 -12 30.08 3.73
3 -6 -11 10.66 2.2
-3 -6 11 9.82 2.23
-3 -6 10 78.58 5.44
3 -6 -10 80.93 5.68
-3 -6 9 16.62 2.65
3 -6 -9 27.03 3.28
3 -6 -8 13.19 2.34
-3 -6 8 13.2 2.31
-3 -6 7 47.11 4.04
3 -6 -7 41.6 3.73
-3 -6 6 72.73 4.97
3 -6 -6 77.07 4.83
-3 -6 5 30.12 3.26
3 -6 -5 27.16 2.89
-3 -6 4 26.5 2.98
3 -6 -4 28.08 2.85
3 -6 -4 34.12 3.22
-3 -6 3 55.75 2.64
-3 -6 3 51.76 3.99
3 -6 -3 57.96 3.8
3 -6 -3 62.62 4.12
-3 -6 2 16.54 1.31
3 -6 -2 22.01 2.37
3 -6 -2 19.87 2.45
-3 -6 2 19.32 2.56
3 -6 -1 45.68 3.54
-3 -6 1 42.5 3.55
3 -6 -1 45.33 3.18
-3 -6 0 3.94 1.18
3 -6 0 3.72 1.01
3 -6 0 3.84 1.32
3 -6 1 22.64 2.49
3 -6 1 18.57 1.89
-3 -6 -1 18.44 2.27
3 -6 2 28.52 2.8
-3 -6 -2 30.86 2.82
3 -6 2 31.07 2.29
-3 -6 -3 118.66 5.37
3 -6 3 118.27 4.21
3 -6 4 74.45 3.12
-3 -6 -4 76.2 4.26
3 -6 4 56.48 2.78
3 -6 5 38.21 2.54
-3 -6 -5 40.59 3.11
-3 -6 -6 6.36 1.38
3 -6 6 6.41 1.3
3 -6 7 3.26 1.14
-3 -6 -7 3.28 1.02
3 -6 8 86.3 4.63
-3 -6 -8 1.1 0.68
3 -6 9 7.18 1.54
3 -6 10 31.55 3.14
3 -6 11 45.91 3.97
3 -6 12 96.45 5.89
3 -6 13 8.46 2.15
3 -6 14 1.99 1.52
3 -6 15 19.31 3.07
3 -6 16 2.88 1.8
3 -6 17 51.48 5.17
3 -6 18 15.47 3.1
3 -6 19 3.97 2.28
3 -5 -21 2.67 2.5
-3 -5 21 4.94 2.37
3 -5 -20 1.46 2.38
-3 -5 20 7.1 2.53
-3 -5 19 21.48 3.61
3 -5 -19 13.92 3.45
-3 -5 19 21.39 3.39
-3 -5 18 15.04 2.87
3 -5 -18 16.31 3.2
-3 -5 18 12.49 2.79
-3 -5 17 13.38 2.58
3 -5 -17 21.26 3.43
-3 -5 17 15.73 2.72
-3 -5 16 6.64 2.1
3 -5 -16 4.92 1.91
-3 -5 15 1.44 1.42
3 -5 -15 2.56 1.7
-3 -5 14 20.99 2.91
3 -5 -14 22.3 3.38
-3 -5 13 9.28 2
3 -5 -13 7.47 2.16
3 -5 -12 16.41 2.74
-3 -5 12 14.12 2.5
3 -5 -11 3.96 1.53
-3 -5 11 7.5 1.89
3 -5 -10 1.75 1.32
-3 -5 10 2.28 0.97
-3 -5 9 18.04 2.53
3 -5 -9 16.93 2.44
3 -5 -8 9.58 1.91
-3 -5 8 10.4 1.99
-3 -5 7 52.96 3.9
3 -5 -7 50.66 3.82
3 -5 -6 24.11 2.61
-3 -5 6 23.18 2.6
3 -5 -5 13.37 1.84
-3 -5 5 12.47 2.07
3 -5 -5 11.98 1.81
3 -5 -4 33.65 3.04
-3 -5 4 29.72 2.87
3 -5 -4 31.26 2.85
-3 -5 3 174.69 6.57
3 -5 -3 171.51 6.35
3 -5 -3 177.91 6.36
-3 -5 2 95.11 2.83
3 -5 -2 94.05 4.51
3 -5 -2 89.89 4.58
-3 -5 2 88.19 4.63
3 -5 -1 78.65 4.29
-3 -5 1 73.75 4.25
3 -5 -1 74.54 3.92
-3 -5 1 74.64 2.2
3 -5 0 34.25 2.83
-3 -5 0 42.47 3.14
3 -5 0 42.05 2.88
3 -5 1 42.39 3.19
-3 -5 -1 43.05 3.13
3 -5 1 47.08 2.87
-3 -5 -2 208.46 6.69
3 -5 2 206.59 4.89
3 -5 2 209.44 5.9
-3 -5 -3 490.77 10.01
3 -5 3 525.93 8.86
3 -5 3 496.07 8.26
3 -5 4 26.15 1.87
-3 -5 -4 28.73 2.45
3 -5 4 28.67 2.14
3 -5 5 37.68 2.65
-3 -5 -5 42.05 2.87
3 -5 5 43.18 2.26
3 -5 6 4.95 1.22
3 -5 6 5.63 0.81
-3 -5 -6 6.51 1.22
3 -5 7 10.32 1.6
-3 -5 -7 9.17 1.31
3 -5 8 49.01 3.57
-3 -5 -8 40.74 2.6
3 -5 9 16.72 2.21
-3 -5 -9 0.16 0.42
3 -5 10 10.6 1.86
3 -5 11 32.24 3.33
3 -5 12 39.63 3.78
3 -5 13 16.13 2.77
3 -5 14 5.45 1.81
3 -5 15 13.54 2.77
3 -5 16 2.24 1.66
3 -5 17 4.52 1.98
3 -5 18 20.5 3.49
3 -5 19 15.22 3.31
3 -5 20 9.86 2.96
3 -5 21 5.82 2.57
3 -4 -22 4.53 2.96
-3 -4 22 15.43 3.42
-3 -4 21 13.82 3.15
3 -4 -21 4.62 2.74
3 -4 -20 1.32 1.67
-3 -4 20 5.19 2.4
-3 -4 19 9.11 2.2
3 -4 -19 4.52 2.42
-3 -4 19 8.49 2.25
-3 -4 18 11.67 2.28
3 -4 -18 9 2.22
-3 -4 17 13.94 2.38
3 -4 -17 15.33 2.9
3 -4 -16 38.07 4
-3 -4 16 33.68 3.58
3 -4 -15 8.01 2.08
-3 -4 15 7.1 1.77
-3 -4 14 4.53 1.54
3 -4 -14 4.94 1.73
3 -4 -13 3.56 1.39
-3 -4 13 1.85 1.1
-3 -4 12 42.8 3.61
3 -4 -12 43.91 3.95
3 -4 -11 7.24 1.72
-3 -4 11 7.42 1.72
-3 -4 10 93.83 5.06
3 -4 -10 92.62 5.25
3 -4 -9 9.92 1.88
-3 -4 9 9.53 1.66
3 -4 -8 9.81 1.76
-3 -4 8 6.75 1.39
3 -4 -7 135.04 5.92
-3 -4 7 125.16 5.53
3 -4 -6 5.36 1.39
-3 -4 6 6.54 1.6
-3 -4 5 45.18 3.29
3 -4 -5 43.71 2.97
3 -4 -5 49.85 3.49
3 -4 -4 117.73 4.86
-3 -4 4 115.37 5.03
3 -4 -4 125.64 5.24
-3 -4 3 147.31 5.55
3 -4 -3 142.22 5.39
3 -4 -3 140.63 5.21
3 -4 -2 451.95 9.27
-3 -4 2 446.76 9.45
3 -4 -2 443.31 9.15
3 -4 -1 236.45 6.7
-3 -4 1 228.36 3.18
-3 -4 1 243.15 6.86
3 -4 -1 242.9 6.52
3 -4 0 230.99 6.66
-3 -4 0 248.66 6.78
3 -4 0 243.66 6.3
3 -4 1 73.08 3.3
-3 -4 -1 73.84 3.65
3 -4 1 74.14 2.89
-3 -4 -2 188.74 5.66
3 -4 2 187.82 4.88
3 -4 2 191.57 5.23
-3 -4 -3 180.87 5.46
3 -4 3 183.21 4.9
3 -4 3 175.64 5.03
3 -4 4 2.71 0.74
-3 -4 -4 2.74 0.83
3 -4 4 2.49 0.71
3 -4 5 98.14 3.33
3 -4 5 97.44 4.21
-3 -4 -5 97.48 3.87
3 -4 6 115.97 3.43
-3 -4 -6 113.53 4.1
3 -4 6 112.12 4.85
3 -4 7 48.69 2.1
-3 -4 -7 45.11 2.55
3 -4 7 48.48 3.34
3 -4 8 10.67 0.95
-3 -4 -8 10.15 1.24
3 -4 8 12.86 1.88
3 -4 9 6.01 1.52
3 -4 9 0.43 0.31
-3 -4 -9 3.87 0.79
-3 -4 -10 0.45 0.41
3 -4 10 46.49 3.85
3 -4 11 17.09 2.48
3 -4 12 59.33 4.52
3 -4 13 10.13 2.21
3 -4 14 9.25 2.07
3 -4 15 4.23 1.92
3 -4 16 4.85 1.89
3 -4 17 5.19 2.14
3 -4 18 4.23 2.32
3 -4 19 8.71 2.71
3 -4 20 29.34 4.47
3 -4 21 18.86 3.88
3 -3 -23 1.82 2.89
-3 -3 23 7.63 2.79
3 -3 -22 1.73 2.03
-3 -3 22 4.93 2.32
3 -3 -21 2.22 2.11
-3 -3 21 10.4 3.01
-3 -3 20 12.15 2.74
3 -3 -20 7.52 2.45
3 -3 -19 5.75 2.02
3 -3 -18 4.75 1.86
-3 -3 18 4.8 1.63
-3 -3 17 57.7 4.33
3 -3 -17 49.52 4.4
3 -3 -16 22.9 2.96
-3 -3 16 19.11 2.54
-3 -3 15 44.71 3.6
3 -3 -15 46.01 4.05
-3 -3 14 79.08 4.67
3 -3 -14 82.46 5.2
-3 -3 13 28.53 2.78
3 -3 -13 23.76 2.8
3 -3 -12 5.48 1.75
-3 -3 12 5.14 1.24
3 -3 -11 97.06 5.12
-3 -3 11 96.42 4.85
-3 -3 10 57.25 3.6
3 -3 -10 55.16 3.86
-3 -3 9 189.35 6.45
3 -3 -9 185.78 6.93
-3 -3 8 41.94 3.07
3 -3 -8 47.22 3.52
-3 -3 7 107.91 4.76
3 -3 -7 113.29 5.19
-3 -3 6 58.94 3.39
3 -3 -6 53.99 3.46
-3 -3 5 96.36 4.26
3 -3 -5 100.78 4.52
3 -3 -4 138.86 4.89
-3 -3 4 140.95 4.97
3 -3 -4 139.77 5.13
-3 -3 3 198.3 5.75
3 -3 -3 189.86 5.77
3 -3 -3 185.73 5.44
-3 -3 2 355.42 7.56
3 -3 -2 381.12 7.91
3 -3 -2 341.74 7.37
3 -3 -1 11.58 1.45
3 -3 -1 9.43 1.28
-3 -3 1 7.25 1.15
3 -3 0 100.6 3.32
3 -3 0 105.98 3.93
-3 -3 0 105.26 4.05
3 -3 0 106.1 4.13
3 -3 1 688.97 8.99
-3 -3 -1 707.85 10.1
3 -3 1 695.57 9.73
-3 -3 -2 92.53 3.6
3 -3 2 86.92 3.33
3 -3 2 94.09 3.46
-3 -3 -3 90.53 3.45
3 -3 3 91.91 3.33
3 -3 3 89.19 3.6
3 -3 4 44.72 2.73
3 -3 4 42.47 2.29
-3 -3 -4 46.78 2.47
-3 -3 -5 103.99 3.61
3 -3 5 95.76 3.35
3 -3 5 103.96 4.4
3 -3 6 31.16 1.94
-3 -3 -6 34.71 2.05
3 -3 6 37.34 2.85
3 -3 7 308.5 5.94
-3 -3 -7 324.51 6.13
3 -3 7 335.75 8.88
3 -3 8 124.17 3.77
3 -3 8 153.57 6.38
-3 -3 -8 137.21 3.95
3 -3 9 47.82 2.43
-3 -3 -9 55.52 2.47
3 -3 9 58.45 3.97
-3 -3 -10 18.27 1.4
3 -3 10 14.55 1.43
3 -3 10 18.07 2.43
3 -3 11 19.61 2.61
3 -3 11 15.41 1.42
3 -3 12 0.68 0.51
3 -3 12 54.18 4.39
3 -3 13 46.94 4.15
3 -3 14 55.76 4.65
3 -3 15 50.54 4.6
3 -3 16 18.86 2.95
3 -3 17 3.81 1.8
3 -3 18 2.73 1.95
3 -3 19 13.92 3.08
3 -3 20 12.03 3.1
3 -3 21 10.23 3.08
3 -3 22 31.87 4.7
-3 -2 23 5.6 2.72
3 -2 -22 1.62 2.27
-3 -2 22 6.81 2.38
-3 -2 21 9.82 2.51
3 -2 -21 1.65 1.96
3 -2 -20 17.94 2.95
3 -2 -19 5.8 1.98
3 -2 -18 7.46 2.02
3 -2 -17 17.3 2.51
-3 -2 17 17.82 2.3
-3 -2 16 52.34 3.63
3 -2 -16 56.02 4.29
3 -2 -15 8.59 1.82
-3 -2 15 5.45 1.34
-3 -2 14 88.22 4.49
3 -2 -14 87 5.03
-3 -2 13 58.67 3.64
3 -2 -13 61.76 4.04
3 -2 -12 7.17 1.47
-3 -2 12 4 1.06
-3 -2 11 66.78 3.63
3 -2 -11 69.66 4.08
-3 -2 10 86.04 4.09
3 -2 -10 86.43 4.53
-3 -2 9 92.97 4.17
3 -2 -9 91.22 4.64
-3 -2 8 355.6 7.9
3 -2 -8 368.26 8.75
-3 -2 7 44.74 2.76
3 -2 -7 42.21 2.95
3 -2 -6 1.36 0.91
-3 -2 6 1.95 0.71
3 -2 -5 184.42 5.75
-3 -2 5 184.37 5.31
3 -2 -4 26.86 2
-3 -2 4 31.69 2.19
3 -2 -4 25.51 2.14
-3 -2 3 181.67 5.04
3 -2 -3 189.56 5.42
3 -2 -3 186.94 4.96
3 -2 -2 499.42 8.54
3 -2 -2 505.36 8.01
-3 -2 2 471.06 7.9
3 -2 -1 54.47 2.77
-3 -2 1 50.53 2.46
3 -2 -1 50.61 2.57
-3 -2 1 38.06 0.85
3 -2 0 1258.76 12.52
-3 -2 0 1255.23 12.06
3 -2 0 1247.48 12.71
3 -2 0 1226.39 11.69
3 -2 1 428.03 7.16
3 -2 1 443.65 7.45
-3 -2 -1 438.2 7
3 -2 2 257.16 5.78
3 -2 2 255.27 5.58
-3 -2 -2 263.69 5.32
3 -2 3 468.68 7.5
-3 -2 -3 476.86 7.07
3 -2 3 469.81 8.21
3 -2 4 1035.03 11.35
-3 -2 -4 1050.25 10.52
3 -2 4 1032.8 12.88
3 -2 5 99.02 3.56
3 -2 5 104.45 4.38
-3 -2 -5 98 3.17
-3 -2 -6 127.74 3.62
3 -2 6 129.03 5.08
-3 -2 -7 33.03 1.83
3 -2 7 39.01 3.07
-3 -2 -8 82.17 2.88
3 -2 8 75.14 4.2
3 -2 9 6.03 1.34
-3 -2 -9 8.12 0.98
3 -2 10 157.51 6.6
-3 -2 -10 162.86 4.07
3 -2 11 72.6 4.74
-3 -2 -11 83.48 2.87
3 -2 11 82.6 5
3 -2 12 15.2 2.6
-3 -2 -12 13.56 1.15
3 -2 12 17.59 2.53
3 -2 13 81.31 5.39
3 -2 13 86.88 5.5
3 -2 14 10.12 2.38
3 -2 14 11.74 2.16
3 -2 15 16.22 2.84
3 -2 15 14.79 2.54
3 -2 16 6.45 1.98
3 -2 16 7.92 2.08
3 -2 17 9.89 2.51
3 -2 18 3.76 1.68
3 -2 19 9.55 2.32
3 -2 20 4.7 2.25
3 -2 21 3.36 2.31
3 -2 22 17.05 3.62
3 -2 23 3.79 2.38
-3 -1 23 1.93 2.07
-3 -1 22 23.27 4
-3 -1 21 51.22 5.53
3 -1 -21 40.58 4.03
3 -1 -20 15.04 2.48
3 -1 -19 18.75 2.62
3 -1 -18 17.81 2.57
3 -1 -17 44.38 3.8
3 -1 -16 16.02 2.16
-3 -1 16 17.83 2.01
-3 -1 15 24.7 2.24
3 -1 -15 24.8 2.63
-3 -1 14 30.65 2.39
3 -1 -14 30.31 2.77
3 -1 -13 7.56 1.59
-3 -1 13 6.37 1.25
3 -1 -12 153.06 5.79
-3 -1 12 156.53 5.15
-3 -1 11 172.58 5.32
3 -1 -11 181.37 6.25
-3 -1 10 424.79 8.23
3 -1 -10 430.68 9.45
3 -1 -9 213.58 6.44
-3 -1 9 203.33 5.57
-3 -1 8 106.53 3.9
3 -1 -8 104.58 4.4
-3 -1 7 60.39 2.89
3 -1 -7 54.88 3.13
-3 -1 6 179.64 4.88
3 -1 -6 181.92 5.45
3 -1 -5 810.53 11.05
-3 -1 5 824.86 10.08
-3 -1 4 151.66 4.18
3 -1 -4 150.75 4.65
3 -1 -3 37.17 2.26
-3 -1 3 33.84 1.98
3 -1 -3 35.81 1.97
-3 -1 2 16.39 0.93
3 -1 -2 17.23 1.55
3 -1 -2 17.29 1.35
-3 -1 2 14.51 1.31
3 -1 -1 72.19 3.05
-3 -1 1 76.61 2.77
-3 -1 1 76.84 1.75
3 -1 -1 75.11 2.7
3 -1 0 1790.29 14.04
-3 -1 0 1772.62 13.03
3 -1 0 1785.45 14.72
3 -1 0 1762.22 12.98
3 -1 1 2825.14 18.31
3 -1 1 2946.19 19.18
3 -1 2 551.22 8.49
3 -1 2 567.17 8.48
3 -1 3 91.97 3.62
3 -1 4 167.38 5.15
3 -1 5 167.88 5.43
3 -1 6 93.01 4.3
3 -1 7 19.29 2.16
3 -1 8 39.72 3.01
3 -1 9 108.06 5.16
3 -1 10 171.79 6.88
3 -1 10 167.94 6.76
3 -1 11 243.05 8.37
3 -1 11 237.62 8.31
3 -1 12 44.87 3.79
3 -1 12 51.15 4.1
3 -1 13 69.19 4.9
3 -1 13 68.37 4.91
3 -1 14 56.29 4.57
3 -1 14 60.3 4.76
3 -1 15 92.01 6.09
3 -1 15 88.51 6
3 -1 16 6.04 1.69
3 -1 16 4.89 1.36
3 -1 17 45.26 4.51
3 -1 17 45.03 4.65
3 -1 18 16.82 3.07
3 -1 19 5.41 2.17
3 -1 20 10.52 2.69
3 -1 21 11.19 2.91
3 -1 22 15.01 3.57
3 -1 23 5.5 2.91
-3 0 24 0.51 1.74
-3 0 23 20.16 3.81
-3 0 22 7.2 2.53
-3 0 21 8.56 2.82
3 0 -19 56.15 4.03
3 0 -18 14.64 2.15
3 0 -17 5.8 1.41
3 0 -16 5.21 1.36
-3 0 15 57.66 2.97
3 0 -15 58.97 3.69
-3 0 14 41.09 2.46
3 0 -14 45.82 3.12
3 0 -13 2.95 1.07
-3 0 13 2.11 0.76
3 0 -12 76.01 3.83
-3 0 12 71.69 3.1
3 0 -11 27.34 2.37
-3 0 11 24.9 1.83
-3 0 10 85.61 3.29
3 0 -10 87.33 3.94
-3 0 9 361.86 6.58
3 0 -9 370.61 7.79
-3 0 8 367.96 6.57
3 0 -8 375.39 7.67
3 0 -7 31.01 2.17
-3 0 7 29.32 1.83
-3 0 6 75.7 2.81
3 0 -6 81.02 3.41
3 0 -5 716.84 9.72
-3 0 5 694.15 8.26
3 0 -4 0.7 0.47
-3 0 4 2.14 0.69
3 0 -3 0.84 0.48
3 0 -2 8.53 1.11
3 0 -1 624.78 8.92
3 0 -1 600.3 6.34
3 0 0 50.39 2.41
3 0 0 49.33 1.8
3 0 1 20.5 1.63
3 0 2 150.42 4.3
3 0 3 33.41 2.16
3 0 4 909.38 11.81
3 0 5 116.11 4.51
3 0 6 586.99 10.56
3 0 7 10.12 1.68
3 0 8 38.48 3
3 0 9 215.03 7.17
3 0 10 17.91 2.36
3 0 11 8.28 1.61
3 0 11 9.74 1.7
3 0 12 96.23 5.48
3 0 12 91 5.29
3 0 13 30.44 3.22
3 0 13 31.42 3.44
3 0 14 40.03 3.89
3 0 14 41.4 3.89
3 0 15 202.45 8.82
3 0 15 199.68 8.76
3 0 16 111.91 6.81
3 0 16 123.18 7.1
3 0 17 5.05 2.2
3 0 18 25.81 3.7
3 0 19 4.29 1.84
3 0 20 13.24 3.25
3 0 21 4.36 2.24
3 0 22 3.52 2.41
3 0 23 15.15 3.54
-3 1 24 17.73 3.84
-3 1 23 2.04 1.77
-3 1 22 19.59 3.88
-3 1 21 49.72 5.57
-3 1 20 14.4 2.73
3 1 -17 44.27 3.2
3 1 -16 15.01 1.86
3 1 -15 21.5 2.14
3 1 -14 27.85 2.32
3 1 -13 7.26 1.28
-3 1 13 5.89 0.8
-3 1 12 147.34 3.7
3 1 -12 146.4 4.93
-3 1 11 182.71 4.23
3 1 -11 183.27 5.47
-3 1 10 426.01 6.35
3 1 -10 414.65 7.93
-3 1 9 215.08 4.54
3 1 -9 196.67 5.27
-3 1 8 113.68 3.16
3 1 -8 109.76 3.91
-3 1 7 56.42 2.26
3 1 -7 55.47 2.71
-3 1 6 184.97 4.08
3 1 -6 181.02 4.76
3 1 -5 810.63 10.01
3 1 -4 152.38 4.42
3 1 -3 37.41 2.21
3 1 0 1792.11 13.95
3 1 1 2892 18.2
3 1 1 2886.46 9.69
3 1 2 543.86 8.28
3 1 3 100.02 3.75
3 1 4 168.45 5.06
3 1 5 168.19 5.29
3 1 6 94.78 4.19
3 1 7 22.27 2.19
3 1 8 31.54 2.72
3 1 9 114.63 5.37
3 1 10 166.54 6.56
3 1 11 230.42 7.99
3 1 12 47.82 3.86
3 1 13 60.56 4.52
3 1 14 64.44 4.7
3 1 15 97.59 6.11
3 1 16 3.13 1.55
3 1 17 50.48 4.76
3 1 18 17.56 3.07
3 1 19 4.2 1.85
3 1 20 10.5 2.86
3 1 21 13.08 3.46
3 1 22 15.79 3.49
3 1 23 6.08 2.71
-3 2 23 4.23 2.16
-3 2 22 10.21 2.77
-3 2 21 6.99 2.37
-3 2 20 20.8 3.48
3 2 -15 6.23 1.2
3 2 -14 81.15 3.4
3 2 -13 54.84 2.69
3 2 -12 4.66 0.99
3 2 -11 75.86 3.15
-3 2 11 60.75 1.9
-3 2 10 85.15 2.41
3 2 -10 90.42 3.34
-3 2 9 88.82 2.55
3 2 -9 92.65 3.33
-3 2 8 380.91 5.5
3 2 -8 351.56 6.39
3 2 -7 41.94 2.24
3 2 -6 2.45 0.78
3 2 -5 185.74 4.79
3 2 -4 28.59 2.05
3 2 1 443.63 7.17
3 2 2 264.19 5.66
3 2 3 483.14 8
3 2 4 1045.99 12.43
3 2 5 97.63 3.97
3 2 6 129.16 4.79
3 2 7 35.84 2.81
3 2 8 75.6 4.07
3 2 9 9.02 1.59
3 2 10 164.18 6.63
3 2 11 91.48 5.28
3 2 12 16.14 2.48
3 2 13 98.78 5.9
3 2 14 14.34 2.77
3 2 15 14.45 2.81
3 2 16 6.8 1.99
3 2 17 8.7 2.28
3 2 18 8.27 2.45
3 2 19 13.29 3.03
3 2 20 4.62 2.05
3 2 21 3.16 2.11
3 2 22 14.42 3.36
3 2 23 5.55 2.63
-3 3 23 7.78 2.72
-3 3 22 9.59 2.79
-3 3 21 5.68 2.46
-3 3 20 15.22 3.23
-3 3 19 3.32 1.8
-3 3 18 0.95 0.86
3 3 -12 4.27 0.73
3 3 -11 90.28 2.89
-3 3 10 40.56 1.37
3 3 -10 58.12 2.32
3 3 -9 183.67 4.2
-3 3 9 188.02 3.52
3 3 -8 45.87 2.2
3 3 -7 96.81 3.25
3 3 -6 50.92 2.56
3 3 -5 94.21 3.63
3 3 2 87.78 3.26
3 3 3 81.31 3.24
3 3 4 48.02 2.61
3 3 4 45.14 1.45
3 3 5 111.04 4.13
3 3 6 39.23 2.63
3 3 7 328.87 7.84
3 3 8 135.76 5.36
3 3 9 58.98 3.7
3 3 10 21.18 2.45
3 3 11 23.32 2.59
3 3 12 58.64 4.23
3 3 13 41 3.75
3 3 14 58.13 4.58
3 3 15 57.33 4.75
3 3 16 15.83 2.77
3 3 17 3.09 1.58
3 3 18 3.23 1.9
3 3 19 12.2 2.77
3 3 20 13.61 3.13
3 3 21 13.03 3.27
3 3 22 20.03 4.03
-3 4 21 15.83 3.2
-3 4 20 3.18 1.9
-3 4 19 10.15 2.71
-3 4 18 9.48 2.42
-3 4 17 13.25 2.58
3 4 -9 8.33 0.76
3 4 -8 7.96 0.88
3 4 -7 122.65 3.59
3 4 -6 4.76 0.97
3 4 4 3.17 0.78
3 4 5 96.59 3.8
3 4 6 113.26 4.25
3 4 7 47.78 2.96
3 4 8 11.55 1.62
3 4 9 3.95 1.13
3 4 10 39.34 3.08
3 4 11 16.47 2.25
3 4 12 61.48 4.22
3 4 13 9.66 1.99
3 4 14 11.41 2.32
3 4 15 6.22 1.92
3 4 16 6.85 2.15
3 4 17 7.01 2.36
3 4 18 5.69 2.32
3 4 19 6.67 2.27
3 4 20 26.95 3.86
3 4 21 9.31 2.86
-3 5 15 1.71 1.23
-3 5 14 17.17 2.49
3 5 -7 46.95 2.1
3 5 -6 23.37 1.85
3 5 5 38.55 2.24
3 5 6 5.73 1.06
3 5 7 9.13 1.33
3 5 8 45.68 2.84
3 5 9 12.64 1.66
3 5 10 7.78 1.46
3 5 11 31.73 2.81
3 5 12 34.72 3.06
3 5 13 14.51 2.31
3 5 14 4.36 1.51
3 5 15 7.98 2.04
3 5 16 2.77 1.34
4 -10 -8 4.23 2.33
-4 -10 7 7.75 2.71
-4 -10 6 7.06 2.46
-4 -10 5 4.87 2.26
-4 -10 4 18.71 3.52
-4 -10 3 6 2.3
-4 -10 2 4.61 1.99
-4 -10 1 5.92 2.17
4 -10 -1 7.18 2.41
-4 -10 0 6.27 2.36
4 -10 0 9.08 2.57
4 -10 1 2.99 1.86
-4 -10 -1 3.81 2.01
4 -10 2 9.62 2.5
4 -10 3 5.12 2.16
4 -10 4 11.91 2.93
4 -10 5 8.47 2.56
4 -10 6 4.54 2.26
4 -10 7 3.77 2.08
-4 -9 12 15.9 3.51
4 -9 -12 11.06 2.96
-4 -9 11 4.62 2.38
4 -9 -11 9.16 2.79
4 -9 -10 2.87 1.83
-4 -9 10 5.46 2.36
-4 -9 9 5.37 2.37
4 -9 -9 8.43 2.61
-4 -9 8 10.85 2.84
4 -9 -8 9.44 2.42
4 -9 -7 14.25 2.79
-4 -9 7 12.69 2.83
-4 -9 6 2.34 1.47
4 -9 -6 3.82 1.81
-4 -9 5 25.81 3.72
4 -9 -5 23.05 3.31
-4 -9 4 14.67 2.97
4 -9 -4 15.77 2.73
4 -9 -3 4.92 1.64
-4 -9 3 4.51 1.94
-4 -9 2 2.25 1.7
4 -9 -2 2.86 1.64
-4 -9 1 6.15 1.85
4 -9 -1 7.3 2.19
-4 -9 0 16.94 2.98
4 -9 0 16.76 3.07
-4 -9 -1 12.74 2.7
4 -9 1 18.93 3.08
4 -9 2 12.12 2.54
-4 -9 -2 12.09 2.57
-4 -9 -3 18.53 2.94
4 -9 3 18.73 3.18
4 -9 4 10.42 2.45
4 -9 5 10.48 2.54
4 -9 6 4.3 1.89
4 -9 7 8.33 2.34
4 -9 8 15.33 3.01
4 -9 9 21.08 3.53
4 -9 10 9.17 2.55
4 -9 11 10.06 2.68
-4 -8 15 4.83 2.31
4 -8 -15 10.65 3.16
-4 -8 14 6.93 2.34
4 -8 -14 5.51 2.6
-4 -8 13 6.24 2.24
4 -8 -13 0.63 1.45
-4 -8 12 12.65 2.83
4 -8 -12 19.32 3.53
-4 -8 11 1.08 1.64
4 -8 -11 1.42 1.53
-4 -8 10 4.14 1.83
4 -8 -10 8.72 2.58
-4 -8 9 5.92 2.11
4 -8 -9 6.16 2.09
4 -8 -8 4.22 1.84
-4 -8 8 4.42 1.76
4 -8 -7 22.88 3.39
-4 -8 7 18.8 3.22
4 -8 -6 25.85 3.45
-4 -8 6 21.26 3.34
4 -8 -5 8.72 2.12
-4 -8 5 10.71 2.29
-4 -8 4 3.49 1.64
4 -8 -4 3.15 1.54
-4 -8 3 16.17 2.88
4 -8 -3 13.15 2.27
4 -8 -3 16.6 2.88
4 -8 -2 16.37 2.76
4 -8 -2 11.8 2.2
-4 -8 2 9.23 2.18
4 -8 -1 4.88 1.7
-4 -8 1 3.08 1.47
4 -8 -1 3.44 1.46
4 -8 0 15.45 2.77
-4 -8 0 12.1 2.39
4 -8 0 11.84 2.01
4 -8 1 10.68 2.29
-4 -8 -1 12.94 2.36
4 -8 2 2.22 1.48
-4 -8 -2 3.48 1.54
4 -8 3 25.17 3.39
-4 -8 -3 19.44 2.91
4 -8 4 5.82 1.92
-4 -8 -4 3.55 1.48
-4 -8 -5 23.59 2.98
4 -8 5 34.63 3.96
4 -8 6 19.66 3.13
4 -8 7 3.66 1.66
-4 -7 18 2.93 2.05
4 -7 -17 13.77 3.23
-4 -7 17 12.39 2.86
4 -7 -16 12.22 3.03
-4 -7 16 11.78 2.82
-4 -7 15 10.54 2.6
4 -7 -15 11.86 3.09
4 -7 -14 9.29 2.65
-4 -7 14 9.41 2.64
4 -7 -13 2.41 1.77
-4 -7 13 2.46 1.78
4 -7 -12 21.94 3.5
-4 -7 12 22.61 3.42
4 -7 -11 11.14 2.54
-4 -7 11 9.4 2.26
4 -7 -10 0.76 1.17
-4 -7 10 7.37 2.13
4 -7 -9 21.87 3.13
-4 -7 9 16.76 2.94
4 -7 -8 20.35 2.96
-4 -7 8 21.37 3.26
4 -7 -7 9.92 2.16
-4 -7 7 8.44 2.06
-4 -7 6 3.31 1.25
4 -7 -6 3.85 1.48
4 -7 -5 5.13 1.69
-4 -7 5 1.91 1.37
-4 -7 4 11.12 2.23
4 -7 -4 10.06 2.09
4 -7 -4 11.1 2.26
4 -7 -3 17.87 2.69
4 -7 -3 13.34 2.14
-4 -7 3 14.76 2.53
4 -7 -2 2.55 1.38
4 -7 -2 3.45 1.63
-4 -7 2 3.28 1.48
4 -7 -1 14.57 2.42
-4 -7 1 12.34 2.35
4 -7 -1 10.62 1.86
4 -7 0 2.31 1.29
4 -7 0 5.98 1.77
-4 -7 0 3.12 1.52
-4 -7 -1 8.4 1.89
4 -7 1 4.64 1.35
4 -7 1 5.99 1.4
4 -7 2 12.86 2.4
4 -7 2 10.02 1.58
-4 -7 -2 12.51 2.11
4 -7 3 4.15 1.05
-4 -7 -3 4.58 1.48
4 -7 3 1.75 1.09
4 -7 4 65.76 5.03
-4 -7 -4 58.05 4.33
-4 -7 -5 45.36 3.8
4 -7 5 48.87 4.36
-4 -7 -6 60.03 4.18
-4 -6 19 2.72 1.88
4 -6 -19 3.3 2.58
-4 -6 19 3.27 2.16
-4 -6 18 4.03 1.93
4 -6 -18 5.11 2.21
-4 -6 18 2.92 1.91
-4 -6 17 10.03 2.65
4 -6 -17 10.07 2.78
-4 -6 17 6.73 2.24
-4 -6 16 29.18 3.87
4 -6 -16 25.91 3.99
-4 -6 15 5.8 1.97
4 -6 -15 10.11 2.96
4 -6 -14 13.08 2.67
-4 -6 14 12.64 2.59
-4 -6 13 26.16 3.47
4 -6 -13 25.62 3.62
4 -6 -12 11.25 2.53
-4 -6 12 7.66 2.15
4 -6 -11 9.19 2.43
-4 -6 11 3.42 1.45
-4 -6 10 37.62 3.86
4 -6 -10 42.44 4.34
-4 -6 9 46.38 4.32
4 -6 -9 40.66 3.95
-4 -6 8 29.64 3.52
4 -6 -8 28.83 3.24
-4 -6 7 52.07 4.37
4 -6 -7 48.22 4.18
-4 -6 6 50.65 4.28
4 -6 -6 52.58 4.19
4 -6 -5 8.46 1.91
-4 -6 5 5.68 1.58
4 -6 -5 9.3 1.85
4 -6 -4 6.49 1.62
-4 -6 4 4.81 1.67
4 -6 -4 5.38 1.53
-4 -6 3 58.14 4.35
4 -6 -3 59.93 4.13
4 -6 -3 58.27 4.21
4 -6 -2 47.5 3.88
-4 -6 2 55.24 4.15
4 -6 -2 51.68 3.73
4 -6 -1 7.82 1.76
4 -6 -1 8.34 1.58
-4 -6 1 6.57 1.54
4 -6 0 27.25 3.01
-4 -6 0 19.22 2.44
4 -6 0 26.47 2.58
4 -6 1 8 1.41
-4 -6 -1 10.3 1.94
4 -6 1 10.83 2.01
4 -6 2 15.35 2.34
4 -6 2 18.55 2.06
-4 -6 -2 17.39 2.33
4 -6 3 11.21 1.36
-4 -6 -3 21.02 2.41
4 -6 3 17.51 1.99
4 -6 3 20.64 2.7
-4 -6 -4 31.35 2.94
4 -6 4 30.35 2.37
4 -6 4 34.3 2.48
4 -6 5 50.96 3.22
-4 -6 -5 51.04 3.6
4 -6 5 41.26 2.58
-4 -6 -6 25.41 2.59
4 -6 6 25.52 2.46
4 -6 7 54.84 3.68
-4 -6 -7 49.92 3.51
-4 -6 -8 12.97 1.72
4 -6 8 24.88 2.72
4 -6 9 3.23 1.32
4 -6 10 76.84 5.06
4 -6 11 10.36 2.04
4 -6 12 8.79 2.11
4 -6 13 4.79 1.91
4 -6 14 4.13 1.75
4 -6 15 22.29 3.39
4 -6 16 3.36 2.1
4 -6 17 14.21 2.93
4 -6 18 11.05 2.84
4 -6 19 6.29 2.55
-4 -5 21 4.68 2.36
4 -5 -20 2.07 2.17
-4 -5 20 2.96 1.84
-4 -5 19 2.41 1.72
4 -5 -19 2.3 2.85
-4 -5 19 3.66 2.12
-4 -5 18 26.69 3.8
4 -5 -18 22.91 3.77
-4 -5 17 34.83 4.05
4 -5 -17 38.21 4.68
4 -5 -16 4.99 2.11
-4 -5 16 5.5 1.78
-4 -5 15 33.56 3.89
4 -5 -15 34.53 4.11
-4 -5 14 44.64 4.28
4 -5 -14 50.14 4.84
-4 -5 13 51.39 4.55
4 -5 -13 51.1 4.76
-4 -5 12 49.19 4.3
4 -5 -12 45.84 4.41
4 -5 -11 6.2 1.96
-4 -5 11 1.91 1.37
-4 -5 10 15.12 2.39
4 -5 -10 11.68 2.33
4 -5 -9 20.11 2.73
-4 -5 9 22.47 2.72
4 -5 -8 19.8 2.58
-4 -5 8 15.76 2.37
-4 -5 7 41.87 3.77
4 -5 -7 47.73 3.97
-4 -5 6 66.47 4.42
4 -5 -6 68.7 4.66
4 -5 -5 102.39 5.28
-4 -5 5 104.19 5.59
4 -5 -5 104.09 5.61
-4 -5 4 66.18 4.33
4 -5 -4 66.63 4.38
4 -5 -4 62.65 4.13
-4 -5 3 53.56 3.94
4 -5 -3 52.52 3.86
4 -5 -3 49 3.61
-4 -5 2 25.57 2.79
4 -5 -2 26 2.59
4 -5 -2 23.87 2.63
-4 -5 1 55.72 3.82
4 -5 -1 59.89 3.7
4 -5 -1 50.21 3.73
-4 -5 0 22.28 2.35
4 -5 0 25.48 2.41
4 -5 0 22.71 2.42
4 -5 1 15.98 2.14
-4 -5 -1 19.43 2.22
4 -5 1 18.98 1.99
4 -5 2 1.79 0.95
4 -5 2 3.03 0.75
4 -5 2 1.55 0.92
-4 -5 -2 3.05 1.07
4 -5 3 132.41 4.86
4 -5 3 124.09 4.63
-4 -5 -3 130.35 5.49
4 -5 4 28.77 2.44
-4 -5 -4 26.38 2.49
4 -5 4 29.2 2.25
4 -5 5 11.12 1.63
4 -5 5 8.93 1.29
-4 -5 -5 9.79 1.6
4 -5 6 10.9 1.29
-4 -5 -6 11.92 1.71
4 -5 6 13.06 1.9
4 -5 7 78.78 4.56
4 -5 7 56.69 2.62
-4 -5 -7 74.19 3.92
4 -5 8 89.71 4.99
-4 -5 -8 81.21 4.06
-4 -5 -9 62.09 3.42
4 -5 9 77.57 4.84
4 -5 10 8.24 1.8
4 -5 11 26.33 3.1
4 -5 12 12 2.29
4 -5 13 60.71 5.12
4 -5 14 6.86 2.08
4 -5 15 2.95 1.92
4 -5 16 25.73 3.74
4 -5 17 7.63 2.4
4 -5 18 19.21 3.66
4 -5 19 5.12 2.28
4 -5 20 11.83 3.19
4 -4 -22 2.19 2.44
4 -4 -21 6.06 3.14
-4 -4 21 10.68 2.87
4 -4 -20 4.76 3.37
-4 -4 19 6.67 2.17
4 -4 -19 2.31 2.29
-4 -4 18 9.44 2.31
4 -4 -18 5.89 2.14
4 -4 -17 2.36 1.68
-4 -4 17 4.16 1.54
4 -4 -16 24.65 3.44
-4 -4 16 22.47 3.07
-4 -4 15 12.09 2.3
4 -4 -15 13.96 2.65
4 -4 -14 9.5 2.24
-4 -4 14 7.77 1.86
-4 -4 13 3.58 1.29
4 -4 -13 4.87 1.59
-4 -4 12 26.87 2.99
4 -4 -12 28.16 3.22
4 -4 -11 0.64 1.17
-4 -4 11 1.59 1.1
4 -4 -10 16.87 2.44
-4 -4 10 12.65 2.01
-4 -4 9 30.29 2.96
4 -4 -9 26.67 3.11
-4 -4 8 18.84 2.44
4 -4 -8 17.47 2.48
-4 -4 7 84.67 4.79
4 -4 -7 77.86 4.87
-4 -4 6 86.72 4.76
4 -4 -6 99.1 5.4
-4 -4 5 57.29 3.81
4 -4 -5 48.45 3.63
4 -4 -5 50.62 3.49
4 -4 -4 137.39 5.61
4 -4 -4 136.47 5.73
-4 -4 4 133.84 5.7
4 -4 -3 140.4 5.72
-4 -4 3 137.72 5.65
4 -4 -3 129.47 5.36
4 -4 -2 661.67 12
-4 -4 2 700.04 12.35
4 -4 -2 718.18 12.47
4 -4 -1 319.36 8.35
-4 -4 1 332.88 8.4
4 -4 -1 328.34 8.33
-4 -4 0 134.93 5.29
4 -4 0 129.05 5.1
4 -4 0 119.21 5.1
4 -4 1 120.09 4.32
-4 -4 -1 127.02 5.1
4 -4 1 133.7 5
4 -4 1 123.21 5.19
4 -4 2 154.87 5.04
4 -4 2 157.69 5.32
-4 -4 -2 158.21 5.61
4 -4 3 86.95 3.99
4 -4 3 93.78 4.01
-4 -4 -3 103.12 4.47
4 -4 4 7.25 1.27
4 -4 4 6.71 1.25
-4 -4 -4 6.52 1.27
4 -4 5 15.48 1.95
4 -4 5 13.1 1.49
-4 -4 -5 15.87 1.74
4 -4 6 3.2 1.04
4 -4 6 1.4 0.66
-4 -4 -6 1.91 0.63
4 -4 7 60.86 2.94
-4 -4 -7 68.65 3.47
4 -4 7 63.99 4.04
4 -4 8 5.48 1.41
4 -4 8 5.05 1
-4 -4 -8 4.25 0.96
4 -4 9 9.87 1.9
4 -4 9 6.03 1.02
-4 -4 -9 6.7 1.16
4 -4 10 20.08 2.68
-4 -4 -10 11.87 1.41
4 -4 11 17.27 2.63
4 -4 12 45.45 4.29
4 -4 13 23.27 3.21
4 -4 14 12.44 2.56
4 -4 15 37.15 4.23
4 -4 16 1.53 1.66
4 -4 17 13.94 2.94
4 -4 18 25.48 3.84
4 -4 19 34.26 4.71
4 -4 20 25.02 4.04
4 -4 21 4.31 2.42
-4 -3 22 2.59 2.25
4 -3 -22 3.19 2.53
4 -3 -21 2.86 2.16
4 -3 -20 5.43 2.64
4 -3 -19 4.47 2.48
4 -3 -18 10.5 2.37
-4 -3 18 6.27 1.77
-4 -3 17 13.42 2.28
4 -3 -17 12.81 2.54
4 -3 -16 23.99 3.15
-4 -3 16 16.33 2.4
-4 -3 15 78.44 4.98
4 -3 -15 77.75 5.47
-4 -3 14 25.74 2.87
4 -3 -14 22.55 2.96
4 -3 -13 10.43 2.15
-4 -3 13 8.16 1.69
4 -3 -12 13.68 2.36
-4 -3 12 11.59 1.86
4 -3 -11 2.82 1.46
-4 -3 11 1.24 0.93
4 -3 -10 1.32 1.3
-4 -3 10 0.6 0.68
-4 -3 9 22.15 2.39
4 -3 -9 22.98 2.7
-4 -3 8 145.3 5.86
4 -3 -8 142.92 6.25
-4 -3 7 63.69 3.83
4 -3 -7 64.42 4.2
-4 -3 6 175.98 6.11
4 -3 -6 179.1 6.68
-4 -3 5 387.33 8.92
4 -3 -5 400.94 9.6
-4 -3 4 295.21 7.73
4 -3 -4 293.44 8
4 -3 -4 283.32 7.48
-4 -3 3 330.38 8.02
4 -3 -3 337.67 8.48
4 -3 -3 325.71 7.79
-4 -3 2 140.23 5.14
4 -3 -2 140.68 5.28
4 -3 -2 134.98 4.97
4 -3 -1 337.68 8.01
-4 -3 1 329.39 7.77
4 -3 -1 351.02 8.07
4 -3 0 153.02 4.8
4 -3 0 151.32 5.25
4 -3 0 146.07 5.14
-4 -3 0 165.69 5.38
4 -3 1 121.76 4.75
4 -3 1 127.46 4.68
-4 -3 -1 127.43 4.63
4 -3 1 126.21 4.49
4 -3 2 242.66 6.42
-4 -3 -2 250.8 6.28
4 -3 2 255.42 6.55
4 -3 3 131.67 4.83
4 -3 3 131.47 4.61
-4 -3 -3 133.3 4.57
4 -3 4 63.13 3.2
-4 -3 -4 60.93 3.11
4 -3 4 61.13 3.48
4 -3 5 27.14 2.45
4 -3 5 25.85 2.07
-4 -3 -5 27.04 2.04
4 -3 6 40.19 2.73
-4 -3 -6 44.76 2.59
4 -3 6 47.58 3.34
4 -3 7 89.73 3.94
-4 -3 -7 107.22 3.97
4 -3 7 106.69 5.23
4 -3 8 42.54 2.71
-4 -3 -8 51.16 2.76
4 -3 8 53.99 3.9
-4 -3 -9 0.5 0.53
4 -3 9 1.24 0.71
4 -3 10 26.98 2.33
-4 -3 -10 36.68 2.29
4 -3 10 37.8 3.56
4 -3 11 4.31 1.5
-4 -3 -11 3.68 0.8
4 -3 11 2.67 0.89
4 -3 12 14.34 2.43
4 -3 12 2.53 0.82
4 -3 13 18.41 2.91
4 -3 14 17.32 2.93
4 -3 15 31.38 3.95
4 -3 16 39.64 4.53
4 -3 17 3.14 1.73
4 -3 18 6.3 2.27
4 -3 19 15.42 3.23
4 -3 20 16.61 3.39
4 -3 21 14.18 3.34
-4 -2 23 3.61 2.44
-4 -2 22 6.08 2.63
4 -2 -22 1.17 2.16
4 -2 -21 3.68 2.72
4 -2 -20 2.38 2.07
4 -2 -19 20.48 3.01
4 -2 -18 5.33 1.75
-4 -2 17 12.44 2.1
4 -2 -17 9.37 2.07
-4 -2 16 53.62 3.85
4 -2 -16 54.48 4.43
-4 -2 15 39.21 3.21
4 -2 -15 39.76 3.59
-4 -2 14 213.3 7.4
4 -2 -14 206.36 7.91
4 -2 -13 8.6 1.85
-4 -2 13 8.88 1.64
-4 -2 12 25.52 2.49
4 -2 -12 27.94 2.96
-4 -2 11 203.11 6.8
4 -2 -11 208.32 7.8
-4 -2 10 33.19 2.7
4 -2 -10 31.28 3.06
-4 -2 9 307.71 8
4 -2 -9 316.56 8.98
-4 -2 8 56.14 3.35
4 -2 -8 58.97 3.81
4 -2 -7 403.39 9.56
-4 -2 7 394.85 8.73
-4 -2 6 99.07 4.3
4 -2 -6 99.7 4.65
-4 -2 5 31.59 2.38
4 -2 -5 33.52 2.74
-4 -2 4 139.99 4.85
4 -2 -4 143.24 5.37
4 -2 -4 141.89 4.76
4 -2 -3 119.77 4.74
-4 -2 3 115.41 4.25
4 -2 -3 113.57 4.26
4 -2 -2 25.24 2.17
-4 -2 2 25.72 2.01
4 -2 -2 27.84 2.11
-4 -2 2 27.43 1.08
4 -2 -1 56.96 3.17
-4 -2 1 56.06 2.97
4 -2 -1 59.05 2.96
4 -2 0 130.56 4.52
4 -2 0 141.82 4.9
-4 -2 0 143.49 4.59
4 -2 0 142.99 4.64
4 -2 1 201.17 5.64
4 -2 1 196.43 5.69
-4 -2 -1 215.87 5.52
4 -2 2 205.65 5.84
4 -2 2 201.34 5.82
-4 -2 -2 215.63 5.53
4 -2 3 48.66 2.93
4 -2 3 51.29 2.94
-4 -2 -3 55.64 2.77
4 -2 4 126.29 4.98
4 -2 4 115.87 4.5
-4 -2 -4 124.72 4.12
4 -2 5 73.6 3.65
4 -2 5 82.29 4.1
-4 -2 -5 78.98 3.29
-4 -2 -6 111.28 3.87
4 -2 6 102.94 4.38
4 -2 6 107.69 4.91
-4 -2 -7 120.23 4.02
4 -2 7 118.01 5.35
-4 -2 -8 103.64 3.74
4 -2 8 105.69 5.33
4 -2 9 51.96 3.92
-4 -2 -10 376.01 7.16
4 -2 10 380.15 10.92
-4 -2 -11 159.18 4.68
4 -2 11 169.39 7.6
4 -2 12 10.65 2.16
-4 -2 -12 6.91 1.06
4 -2 13 4.58 1.55
-4 -2 -13 0.65 0.49
4 -2 14 66.8 5.41
4 -2 15 34.13 4.04
4 -2 16 8.91 2.37
4 -2 17 83.48 6.54
4 -2 18 14.41 3.13
4 -2 19 1.46 1.65
4 -2 20 2.74 1.72
4 -2 21 0.96 1.53
4 -2 22 9.83 2.94
-4 -1 23 4.51 2.42
-4 -1 22 12.93 3.12
4 -1 -21 3.9 1.8
4 -1 -20 7.01 2
4 -1 -19 28.29 3.41
4 -1 -18 34.6 3.49
4 -1 -17 31.25 3.33
4 -1 -16 3.32 1.46
-4 -1 16 1.68 0.91
-4 -1 15 72.01 3.95
4 -1 -15 74.86 4.63
4 -1 -14 19.22 2.43
-4 -1 14 18.32 2.1
-4 -1 13 22.44 2.18
4 -1 -13 21.73 2.54
-4 -1 12 33.98 2.69
4 -1 -12 32.8 3.05
-4 -1 11 28.43 2.41
4 -1 -11 31.91 2.91
-4 -1 10 136.84 5.02
4 -1 -10 134.59 5.57
-4 -1 9 65.43 3.39
4 -1 -9 58.46 3.65
-4 -1 8 168.73 5.38
4 -1 -8 174.5 6.13
4 -1 -7 5.92 1.21
-4 -1 7 3.92 0.9
4 -1 -6 3.7 1.04
-4 -1 6 2.28 0.74
-4 -1 5 370.61 7.41
4 -1 -5 358.99 8.2
4 -1 -4 473.79 9.19
-4 -1 4 478.42 8.29
4 -1 -3 19.18 1.88
-4 -1 3 17.45 1.61
4 -1 -3 19.18 1.67
4 -1 -2 106.77 4.29
-4 -1 2 115.8 3.98
4 -1 -2 118.54 3.79
4 -1 -1 296.45 7.1
-4 -1 1 284.78 6.2
4 -1 -1 294.55 5.93
4 -1 0 476.35 8.51
4 -1 0 469.28 8.79
4 -1 0 486.97 7.57
4 -1 1 80.64 3.6
4 -1 1 83.95 3.81
4 -1 2 311.98 7.21
4 -1 2 327.28 7.53
4 -1 3 15.85 1.75
4 -1 4 282.99 7.36
4 -1 5 25.16 2.29
4 -1 6 48.92 3.33
4 -1 7 105.14 5.04
4 -1 8 61.74 4.05
4 -1 9 183.7 7.21
4 -1 10 44.18 3.64
4 -1 11 84.04 5.33
4 -1 12 22.7 3.07
4 -1 13 36.33 3.83
4 -1 14 18.6 2.88
4 -1 15 7.62 2.08
4 -1 16 4.25 2.15
4 -1 17 6.12 2.15
4 -1 18 30.21 4.22
4 -1 19 6.32 2.36
4 -1 20 10.96 3.12
4 -1 21 17.93 3.86
4 -1 22 5.68 2.53
-4 0 23 4.12 2.56
-4 0 22 -0.03 1.27
4 0 -19 47.39 3.96
4 0 -18 118.8 6.03
4 0 -17 31.07 3.01
4 0 -16 4.56 1.37
-4 0 15 169.33 5.36
4 0 -15 159.85 6.31
4 0 -14 2.17 0.99
-4 0 14 2 0.77
4 0 -13 3.04 1.16
-4 0 13 1.1 0.72
-4 0 12 40.61 2.63
4 0 -12 43.83 3.22
-4 0 11 13.6 1.56
4 0 -11 12.38 1.74
-4 0 10 20.13 1.84
4 0 -10 17.26 2.01
-4 0 9 156.23 4.91
4 0 -9 140.09 5.3
-4 0 8 11.6 1.38
4 0 -8 11.72 1.56
-4 0 7 197.9 5.25
4 0 -7 196.93 6.08
-4 0 6 160.05 4.68
4 0 -6 155.79 5.28
4 0 -5 2.01 0.78
-4 0 5 1.33 0.56
4 0 -4 165.87 5.36
-4 0 4 171.35 4.73
4 0 -3 1.88 0.79
4 0 -2 533.67 9.41
4 0 -1 50.69 2.96
4 0 -1 53.39 2.18
4 0 0 66.22 3.22
4 0 0 64.28 3.41
4 0 0 68.61 2.43
4 0 1 51.09 2.86
4 0 1 56.21 2.25
4 0 2 116.82 4.41
4 0 3 1118.16 13.75
4 0 4 7.25 1.39
4 0 5 728.52 12.02
4 0 6 597.61 11.37
4 0 7 29.39 2.76
4 0 8 115.05 5.46
4 0 9 4.99 1.43
4 0 10 162.47 6.99
4 0 11 -1.15 0.66
4 0 12 64.95 4.82
4 0 13 2.97 1.58
4 0 14 49.95 4.64
4 0 15 12.01 2.57
4 0 16 5.44 2.68
4 0 17 3.21 2.21
4 0 18 2.04 2.08
4 0 19 5.26 2.17
4 0 20 4.91 2.27
4 0 21 24.19 4.08
4 0 22 4.4 2.51
-4 1 23 2.16 2
-4 1 22 17.5 3.64
4 1 -17 25.29 2.68
4 1 -16 3.73 1.23
4 1 -15 65.7 3.8
4 1 -14 17.47 2
-4 1 13 20.82 1.75
4 1 -13 22.01 2.18
-4 1 12 34.06 2.16
4 1 -12 33.81 2.71
-4 1 11 29.1 2.01
4 1 -11 29.77 2.48
-4 1 10 145 4.4
4 1 -10 142.2 5.2
-4 1 9 62.33 2.81
4 1 -9 66.36 3.51
-4 1 8 171.75 4.7
4 1 -8 170.37 5.51
4 1 -7 5.13 1.09
-4 1 7 5.34 0.97
4 1 -6 2.22 0.73
-4 1 6 3.97 0.85
4 1 -5 366.82 7.66
4 1 -4 492.14 9.05
4 1 -3 23.39 2.07
4 1 -2 120.59 4.6
4 1 0 474.11 8.43
4 1 0 456.72 4.78
4 1 1 84.6 3.69
4 1 1 83.93 2.09
4 1 2 319.46 7.21
4 1 3 15.99 1.69
4 1 4 281.3 7.14
4 1 5 25.97 2.41
4 1 6 50.08 3.3
4 1 7 99.71 4.8
4 1 8 59.58 3.88
4 1 9 174.24 6.89
4 1 10 43.3 3.61
4 1 11 89.89 5.34
4 1 12 25.87 2.98
4 1 13 34.24 3.55
4 1 14 14.91 2.55
4 1 15 8.43 2.13
4 1 16 6.31 2.11
4 1 17 2.3 1.74
4 1 18 30.69 4.03
4 1 19 6.55 2.3
4 1 20 15.95 3.46
4 1 21 19.27 3.66
4 1 22 5.15 2.73
-4 2 23 5.8 2.82
-4 2 22 3.87 2.35
-4 2 21 12.61 3.03
4 2 -15 30.77 2.45
4 2 -14 191.64 5.78
4 2 -13 9.65 1.47
-4 2 12 23.09 1.54
4 2 -12 26.77 2.2
-4 2 11 197.37 4.63
4 2 -11 197.83 5.75
-4 2 10 32.52 1.92
4 2 -10 32.37 2.38
-4 2 9 317.4 6.06
4 2 -9 310.71 7.08
-4 2 8 58.48 2.71
4 2 -8 55.04 2.98
4 2 -7 411.79 8.1
4 2 -6 96.5 3.91
4 2 -5 31.84 2.4
4 2 -4 140.23 4.94
4 2 1 210.47 5.67
4 2 2 196.27 5.69
4 2 3 52.58 3.06
4 2 4 129.28 4.87
4 2 5 78.32 3.92
4 2 6 102.79 4.67
4 2 7 118.6 5.18
4 2 8 110.39 5.14
4 2 9 48.31 3.64
4 2 10 364.19 10.13
4 2 11 160.89 7.1
4 2 12 7.11 1.83
4 2 13 8.89 2.14
4 2 14 66.05 5.04
4 2 15 29.55 3.62
4 2 16 12.69 2.66
4 2 17 70.3 5.9
4 2 18 12.19 2.63
4 2 19 1.72 1.68
4 2 20 1.93 1.82
4 2 21 1.35 1.76
4 2 22 12.32 3.18
-4 3 23 2.62 2.4
-4 3 22 2.14 2.06
-4 3 21 4.96 2.31
-4 3 20 8.34 2.57
4 3 -12 13.33 1.44
4 3 -11 1.57 0.68
-4 3 11 1.51 0.5
-4 3 10 1.14 0.52
4 3 -10 1.35 0.77
-4 3 9 26.02 1.79
4 3 -9 24.78 1.98
4 3 -8 150.76 4.8
4 3 -7 70.36 3.38
4 3 -6 182.18 5.52
4 3 -5 396.5 8.42
4 3 2 250.44 6.32
4 3 3 135.68 4.76
4 3 4 62.74 3.35
4 3 5 28.88 2.4
4 3 5 24.06 1.06
4 3 6 46.33 3.1
4 3 7 108.84 4.96
4 3 8 59.29 3.8
4 3 9 2.21 1.17
4 3 10 41.66 3.39
4 3 11 4.54 1.42
4 3 12 14.38 2.38
4 3 13 13.55 2.41
4 3 14 17.61 2.66
4 3 15 31.74 3.58
4 3 16 41.87 4.27
4 3 17 4.49 1.94
4 3 18 5.47 1.94
4 3 19 12.14 2.79
4 3 20 12.14 3.08
4 3 21 13.39 3.26
4 3 22 3.57 2.46
-4 4 20 16.47 3.31
-4 4 19 2.97 2.03
-4 4 10 10.61 1.1
4 4 -10 13.67 1.31
4 4 -9 27.04 1.94
4 4 -8 14.69 1.57
4 4 -7 76.66 3.53
4 4 -6 87.01 4.01
4 4 -5 51.79 3.29
4 4 4 9.87 1.46
4 4 5 15.24 1.78
4 4 6 2.88 0.96
4 4 7 63.25 3.71
4 4 8 6.41 1.45
4 4 9 8.61 1.67
4 4 10 14.51 2.09
4 4 11 16.31 2.34
4 4 12 43.02 3.67
4 4 13 23.21 2.93
4 4 14 10.3 2.22
4 4 15 25.74 3.29
4 4 16 2.35 1.64
4 4 17 9.06 2.47
4 4 18 18.43 3.27
4 4 19 31.28 4.12
4 4 20 23.74 3.85
4 5 -7 34.15 2.43
4 5 -6 61.59 3.46
4 5 6 11.59 1.55
4 5 7 70.87 3.75
4 5 8 81.15 4.17
4 5 9 79.57 4.26
4 5 10 7.3 1.53
4 5 11 21.83 2.45
4 5 12 8.46 1.87
4 5 13 48.17 3.97
4 5 14 6.83 1.95
4 5 15 4.63 1.82
-5 -10 5 8.15 2.66
-5 -10 4 9.98 2.77
-5 -10 3 14.02 3.12
-5 -10 2 7.2 2.54
-5 -10 1 4.82 2.2
5 -10 -1 7.71 2.52
-5 -10 0 10.17 2.85
5 -10 0 11.33 2.94
-5 -10 -1 3.12 2.02
5 -10 1 4.38 2.18
5 -10 2 6.01 2.27
5 -10 3 5.85 2.4
5 -10 4 8.26 2.73
5 -10 5 5.16 2.33
-5 -9 11 5.85 2.57
5 -9 -11 6.12 2.59
-5 -9 10 5.71 2.21
5 -9 -10 9.3 2.77
-5 -9 9 3.33 2.06
5 -9 -9 6.22 2.26
5 -9 -8 14.61 2.95
-5 -9 8 11.11 2.86
5 -9 -7 8.7 2.48
-5 -9 7 5.33 2.2
5 -9 -6 9.86 2.41
-5 -9 6 12.53 2.93
5 -9 -5 22.08 3.29
-5 -9 5 22.05 3.56
5 -9 -4 8.74 2.18
-5 -9 4 4.58 1.98
-5 -9 3 4.94 1.87
5 -9 -2 1.87 1.37
-5 -9 2 5.41 2
5 -9 -1 14.56 2.86
-5 -9 1 10.8 2.66
5 -9 0 19.26 3.21
-5 -9 0 24.55 3.5
5 -9 1 26.38 3.64
-5 -9 -1 25.07 3.67
5 -9 2 14.08 2.88
-5 -9 -2 11.82 2.64
5 -9 3 27.81 3.92
-5 -9 -3 21.51 3.23
5 -9 4 8.73 2.5
5 -9 5 4.03 2
5 -9 6 9.18 2.56
5 -9 7 7.98 2.41
5 -9 8 10.02 2.72
5 -9 9 4.61 2.03
5 -9 10 8.68 2.64
-5 -8 14 5.83 2.39
5 -8 -14 5.63 2.5
-5 -8 13 8.58 2.61
5 -8 -13 11.57 3.07
5 -8 -12 9.02 2.65
-5 -8 12 6.6 2.23
5 -8 -11 7.82 2.67
-5 -8 11 4.37 1.98
5 -8 -10 3.38 1.82
-5 -8 10 3.04 1.87
5 -8 -9 17.5 3.23
-5 -8 9 16.58 3.23
5 -8 -8 5.47 2.03
-5 -8 8 9.44 2.51
5 -8 -7 4.35 1.97
-5 -8 7 0.49 1.14
5 -8 -6 7.24 2.05
-5 -8 6 11 2.56
5 -8 -5 5.67 1.87
-5 -8 5 3.68 1.85
5 -8 -4 2.29 1.54
-5 -8 4 5.44 1.91
5 -8 -3 28.22 3.72
5 -8 -3 22.81 3.02
-5 -8 3 24.25 3.5
5 -8 -2 17.71 3
5 -8 -2 10.59 2.25
-5 -8 2 15.09 2.94
5 -8 -1 1.76 1.41
-5 -8 1 3.07 1.53
5 -8 -1 2.34 1.66
5 -8 0 4.3 1.59
5 -8 0 5.38 1.95
-5 -8 0 5.08 1.75
-5 -8 -1 3.33 1.55
5 -8 1 4.63 1.88
-5 -8 -2 12.27 2.57
5 -8 2 16.77 2.93
5 -8 3 8.68 2.08
-5 -8 -3 6.94 2.07
-5 -8 -4 32.8 3.7
5 -8 4 35.39 4.17
5 -8 5 36.87 4.19
-5 -8 -5 24.95 3.15
5 -8 6 13.18 2.72
5 -8 7 11.56 2.48
5 -8 8 23.78 3.55
5 -8 9 20.34 3.39
-5 -7 17 18 3.5
-5 -7 16 4.1 1.92
5 -7 -16 8.36 2.94
-5 -7 15 6.08 2.41
5 -7 -15 7.63 2.47
5 -7 -14 21.12 3.85
-5 -7 14 16.04 3.19
5 -7 -13 5.38 2.15
-5 -7 13 4.66 2.09
5 -7 -12 13.29 3.02
-5 -7 12 13.93 2.83
-5 -7 11 36.36 4.34
5 -7 -11 38.58 4.41
5 -7 -10 7.87 2.29
-5 -7 10 2.83 1.77
5 -7 -9 12.92 2.66
-5 -7 9 14.03 2.84
-5 -7 8 37.09 4.22
5 -7 -8 38.73 4.26
-5 -7 7 46.84 4.68
5 -7 -7 48.89 4.56
5 -7 -6 3.12 1.5
-5 -7 6 5.97 2.03
-5 -7 5 6.47 1.95
5 -7 -5 8.13 2.1
-5 -7 4 28.12 3.43
5 -7 -4 29.36 3.35
5 -7 -4 34.1 3.82
5 -7 -3 4.2 1.6
5 -7 -3 7.36 1.91
-5 -7 3 5.27 1.67
-5 -7 2 5.61 1.74
5 -7 -2 4.62 1.47
5 -7 -2 6.62 1.9
5 -7 -1 18.93 2.5
-5 -7 1 23.44 3.12
5 -7 -1 22.2 3.02
5 -7 0 3.28 1.61
5 -7 0 2.13 1.25
-5 -7 0 4.55 1.64
5 -7 1 18.72 2.41
-5 -7 -1 15 2.47
5 -7 1 20.24 2.93
5 -7 2 16.5 2.6
5 -7 2 15.84 2.17
-5 -7 -2 18.91 2.77
-5 -7 -3 15.9 2.52
5 -7 3 17.55 2.87
-5 -7 -4 39.24 3.66
5 -7 4 50.12 4.58
5 -7 5 10.26 2.46
-5 -7 -5 5.99 1.68
-5 -7 -6 57.73 4.29
5 -7 6 63.98 5.23
-5 -6 19 8.09 2.83
-5 -6 19 8.74 2.89
-5 -6 18 5.69 2.43
5 -6 -18 4.57 2.67
5 -6 -17 15.01 3.33
-5 -6 17 11.89 2.85
-5 -6 16 5.51 1.97
5 -6 -16 10.95 3
-5 -6 15 5.43 2.18
5 -6 -15 8.44 2.54
5 -6 -14 6.92 2.45
-5 -6 14 8.73 2.4
5 -6 -13 5.9 2.34
-5 -6 13 4.33 1.74
5 -6 -12 5.03 2.02
-5 -6 12 4.45 2
5 -6 -11 8.24 2.36
-5 -6 11 4.57 1.66
5 -6 -10 11.66 2.38
-5 -6 10 15.2 2.69
5 -6 -9 9.31 2.42
-5 -6 9 10.21 2.28
-5 -6 8 112.4 6.67
5 -6 -8 112.08 6.6
-5 -6 7 44.49 4.2
5 -6 -7 47.62 4.22
5 -6 -6 15.99 2.61
-5 -6 6 13.1 2.34
5 -6 -5 9.33 2
-5 -6 5 10.63 2.18
5 -6 -5 10.3 2.13
5 -6 -4 19.44 2.7
-5 -6 4 20.15 2.88
5 -6 -4 21.3 2.96
-5 -6 3 38.95 3.67
5 -6 -3 41.16 3.75
5 -6 -3 37.21 3.73
-5 -6 2 33.18 3.42
5 -6 -2 37.89 3.49
5 -6 -2 32.61 3.44
5 -6 -1 5.65 1.75
5 -6 -1 4.76 1.57
-5 -6 1 7.69 1.78
5 -6 0 14.64 2.27
-5 -6 0 12.82 2.15
5 -6 0 11.56 2.09
5 -6 1 3.2 1.3
-5 -6 -1 3.21 1.14
5 -6 1 4.66 1.47
5 -6 2 3.49 1.25
5 -6 2 2.73 1.34
-5 -6 -2 1.94 1.18
-5 -6 -3 69.9 4.72
5 -6 3 63.96 3.86
5 -6 3 70.29 4.98
5 -6 4 31.94 2.72
-5 -6 -4 39.54 3.52
5 -6 4 36.26 2.8
5 -6 4 40.59 3.85
5 -6 5 1.94 0.98
5 -6 5 1.41 0.9
-5 -6 -5 3.61 1.29
5 -6 6 25.4 2.7
-5 -6 -6 27.53 2.88
5 -6 7 20.13 2.51
-5 -6 -7 17.26 2.3
5 -6 8 1.83 1.16
-5 -6 -8 1.42 0.99
5 -6 9 14.71 2.32
5 -6 10 20.48 2.84
5 -6 11 14.69 2.66
5 -6 12 4.59 1.7
5 -6 13 19.99 3.14
5 -6 14 10.63 2.7
5 -6 15 6.02 2.05
5 -6 16 4.56 2.18
5 -6 17 15.92 3.13
5 -6 18 8.12 2.67
5 -5 -20 1.12 2.54
-5 -5 19 5.6 2.3
5 -5 -19 5.27 2.78
-5 -5 18 3.19 1.72
5 -5 -18 6.68 2.41
5 -5 -17 34.32 4.49
-5 -5 17 20.39 3.23
-5 -5 16 -0.25 0.96
5 -5 -16 3.02 1.91
-5 -5 15 31.28 3.81
5 -5 -15 34.56 4.25
5 -5 -14 8.78 2.44
-5 -5 14 11.17 2.35
-5 -5 13 39.92 4.09
5 -5 -13 34.2 3.92
-5 -5 12 5.46 1.7
5 -5 -12 6.73 2.05
-5 -5 11 52.01 4.58
5 -5 -11 52.98 4.77
-5 -5 10 51.09 4.38
5 -5 -10 50.05 4.48
5 -5 -9 6.85 1.94
-5 -5 9 7.32 1.8
5 -5 -8 2.04 1.26
-5 -5 8 1.56 1.32
-5 -5 7 7.36 2.01
5 -5 -7 7.21 1.99
-5 -5 6 90.21 5.48
5 -5 -6 95.35 5.79
-5 -5 5 35.19 3.48
5 -5 -5 33.99 3.5
5 -5 -5 28.57 3.03
5 -5 -4 27.99 3.02
-5 -5 4 28.12 3
5 -5 -4 25.06 2.9
5 -5 -3 86.9 4.99
-5 -5 3 91.23 5.25
5 -5 -3 85.84 5.05
-5 -5 2 23.5 2.78
5 -5 -2 17.8 2.22
5 -5 -2 17.88 2.37
-5 -5 1 38.84 3.28
5 -5 -1 35.76 3.16
5 -5 -1 31.52 3.15
-5 -5 0 66.08 4.33
5 -5 0 63.41 4.04
5 -5 0 57.99 4.07
5 -5 1 1.36 0.94
5 -5 1 3.61 1.18
-5 -5 -1 2.19 1.09
5 -5 2 3.63 1
5 -5 2 4.75 1.36
5 -5 2 5.6 1.35
-5 -5 -2 3.9 1.17
5 -5 3 10.78 1.62
5 -5 3 12.71 1.81
-5 -5 -3 11.67 1.92
5 -5 3 11.98 2.04
5 -5 4 43.77 3.18
-5 -5 -4 42.27 3.26
5 -5 4 45.58 3.11
5 -5 5 26.34 2.6
-5 -5 -5 27.06 2.64
5 -5 5 27.13 2.34
5 -5 6 37.96 3.22
5 -5 6 43.13 2.84
-5 -5 -6 40.92 3.13
5 -5 7 37.88 3.31
5 -5 7 37.6 2.57
-5 -5 -7 38.55 3.07
5 -5 8 49.27 3.96
-5 -5 -8 42.6 3.2
5 -5 9 10.87 2.09
-5 -5 -9 7.32 1.34
5 -5 10 16.88 2.62
5 -5 11 85.19 5.71
5 -5 12 8.86 2.14
5 -5 13 7.98 2.05
5 -5 14 1.01 1.35
5 -5 15 2.15 1.78
5 -5 16 32.33 4.15
5 -5 17 4.56 2.11
5 -5 18 22.38 3.69
5 -5 19 10.91 2.9
5 -4 -21 0.7 2.44
5 -4 -20 1.37 2.53
5 -4 -19 8.87 3.02
-5 -4 19 8.74 2.47
5 -4 -18 23.59 4
-5 -4 18 22.52 3.19
5 -4 -17 11.88 2.85
-5 -4 17 7.52 2.08
5 -4 -16 5.86 2.07
-5 -4 16 9.3 2.09
-5 -4 15 36.08 3.77
5 -4 -15 29.82 3.74
-5 -4 14 40.34 3.89
5 -4 -14 41.91 4.21
5 -4 -13 10.37 2.43
-5 -4 13 3.14 1.72
-5 -4 12 57.8 4.52
5 -4 -12 54.44 4.75
-5 -4 11 11.95 2.2
5 -4 -11 10.15 2.24
5 -4 -10 5.68 1.76
-5 -4 10 2.1 0.89
-5 -4 9 34.17 3.32
5 -4 -9 29.8 3.48
-5 -4 8 33.82 3.25
5 -4 -8 36.45 3.63
5 -4 -7 13.18 2.37
-5 -4 7 11.72 1.97
-5 -4 6 43.9 3.59
5 -4 -6 43.44 3.79
-5 -4 5 40.7 3.48
5 -4 -5 38.62 3.55
5 -4 -5 38.43 3.32
-5 -4 4 84.84 4.78
5 -4 -4 92.51 5.14
5 -4 -4 89.72 4.92
-5 -4 3 53.9 3.75
5 -4 -3 47.74 3.72
5 -4 -3 52.17 3.75
-5 -4 2 71.81 4.28
5 -4 -2 69.91 4.29
5 -4 -2 65.57 4.09
5 -4 -1 12.76 1.84
-5 -4 1 7.82 1.46
5 -4 -1 6.95 1.34
5 -4 0 57.29 3.85
-5 -4 0 59.54 3.77
5 -4 0 52.32 3.57
5 -4 1 28 2.45
5 -4 1 33.6 2.84
-5 -4 -1 34.31 2.85
5 -4 1 28.55 2.76
5 -4 2 146.21 5.56
5 -4 2 152.24 5.77
-5 -4 -2 162.98 6.09
5 -4 2 163.91 6.46
5 -4 3 122.03 5.15
5 -4 3 125.82 5.13
-5 -4 -3 121.93 5.23
5 -4 4 6.23 1.37
5 -4 4 5.39 1.23
-5 -4 -4 6.99 1.32
5 -4 5 7.97 1.51
5 -4 5 6.03 1.21
-5 -4 -5 8.86 1.47
5 -4 6 11.53 1.92
5 -4 6 10.93 1.59
-5 -4 -6 10.96 1.65
5 -4 7 49.38 3.9
5 -4 7 42.45 2.87
-5 -4 -7 47.91 3.19
5 -4 8 5.59 1.2
-5 -4 -8 4.54 1.13
5 -4 8 5.52 1.54
5 -4 9 7.78 1.86
5 -4 9 2.71 0.82
-5 -4 -9 4.64 1.16
-5 -4 -10 52.74 3.27
5 -4 10 49.88 4.24
5 -4 11 8.96 2.1
5 -4 12 49.69 4.53
5 -4 13 14.13 2.64
5 -4 14 6.68 1.84
5 -4 15 29.84 3.97
5 -4 16 4.94 2
5 -4 17 8.83 2.54
5 -4 18 11.5 2.73
5 -4 19 8.01 2.56
5 -4 20 8.33 2.75
5 -3 -22 2.59 2.39
5 -3 -21 1.72 1.98
5 -3 -20 1.69 2.33
5 -3 -19 4.98 2.44
5 -3 -18 5.79 2.61
-5 -3 18 5.67 1.93
5 -3 -17 4.73 1.85
-5 -3 17 2.25 1.03
5 -3 -16 5.97 1.98
-5 -3 16 3.56 1.49
5 -3 -15 9.34 2.38
-5 -3 15 5.51 1.64
-5 -3 14 30.2 3.21
5 -3 -14 30.86 3.56
-5 -3 13 47.27 3.85
5 -3 -13 50.96 4.44
-5 -3 12 24.66 2.83
5 -3 -12 29.34 3.3
5 -3 -11 8.53 2.2
-5 -3 11 5.92 1.37
-5 -3 10 26.21 2.84
5 -3 -10 28.2 3.28
-5 -3 9 1.38 0.88
5 -3 -9 4.19 1.71
-5 -3 8 40.17 3.26
5 -3 -8 42.48 3.7
-5 -3 7 95.14 4.95
5 -3 -7 100.08 5.51
-5 -3 6 177.99 6.64
5 -3 -6 184.13 7.29
-5 -3 5 144.92 5.91
5 -3 -5 138.33 6.13
5 -3 -4 15.51 2.26
-5 -3 4 11.56 1.83
5 -3 -4 11.5 1.78
-5 -3 3 112.08 5.01
5 -3 -3 115.75 5.33
5 -3 -3 107.4 4.81
5 -3 -2 192.8 6.76
-5 -3 2 189.4 6.37
5 -3 -2 193.12 6.49
5 -3 -1 77.19 4.22
-5 -3 1 73.84 3.98
5 -3 -1 75.95 4.01
5 -3 0 46.01 3.25
-5 -3 0 51.8 3.24
5 -3 0 50.5 3.32
5 -3 1 173.33 5.94
5 -3 1 174.31 6.14
-5 -3 -1 186.82 6
5 -3 1 173.99 6.06
5 -3 2 81.14 4.17
5 -3 2 79.04 4.08
-5 -3 -2 75.3 3.83
5 -3 3 70.56 3.94
5 -3 3 68.65 3.76
-5 -3 -3 73.65 3.74
5 -3 4 53.27 3.56
5 -3 4 49.55 3.28
-5 -3 -4 52.45 3.2
5 -3 5 27.87 2.42
-5 -3 -5 27.21 2.28
5 -3 5 26.46 2.6
5 -3 6 34.49 3.1
5 -3 6 32.53 2.65
-5 -3 -6 34 2.54
5 -3 7 24.92 2.73
5 -3 7 21.39 2.18
-5 -3 -7 22.87 2.06
5 -3 8 39.02 3.53
5 -3 8 32.26 2.7
-5 -3 -8 37.55 2.63
5 -3 9 30.02 2.67
-5 -3 -9 47.8 3
5 -3 9 42.94 3.71
5 -3 10 3.4 1.1
5 -3 10 7.6 1.8
-5 -3 -10 6.69 1.2
5 -3 11 25.25 2.51
-5 -3 -11 33.1 2.47
5 -3 11 34.48 3.61
5 -3 12 3.68 1.18
5 -3 12 5.62 1.5
-5 -3 -12 1.32 0.73
5 -3 13 45.95 4.47
5 -3 14 35.37 3.99
5 -3 15 41.07 4.46
5 -3 16 51.54 5.17
5 -3 17 4.13 2.26
5 -3 18 20.97 3.57
5 -3 19 6.23 2.4
5 -3 20 15.17 3.15
5 -3 21 6.19 2.7
5 -2 -22 1.54 2.35
5 -2 -21 1.95 2.38
5 -2 -20 2.62 2.3
5 -2 -19 12.73 2.61
5 -2 -18 10.63 2.46
5 -2 -17 6.32 1.91
-5 -2 17 2.91 1.44
-5 -2 16 4.1 1.3
5 -2 -16 7.05 2
-5 -2 15 40.51 3.53
5 -2 -15 37.27 3.78
-5 -2 14 101.85 5.38
5 -2 -14 97.22 5.85
5 -2 -13 10.42 2.06
-5 -2 13 15.27 2.16
-5 -2 12 35.47 3.1
5 -2 -12 36.79 3.71
-5 -2 11 31.75 2.97
5 -2 -11 39.03 3.68
5 -2 -10 7.55 1.76
-5 -2 10 8.07 1.51
-5 -2 9 20.73 2.29
5 -2 -9 19.42 2.43
-5 -2 8 21.47 2.32
5 -2 -8 25.36 2.8
-5 -2 7 441.7 10.01
5 -2 -7 462.43 11.06
-5 -2 6 193.34 6.46
5 -2 -6 195.12 7.15
-5 -2 5 318.98 8.2
5 -2 -5 304.41 8.64
5 -2 -4 134.36 5.7
-5 -2 4 126.62 4.97
5 -2 -4 127.13 4.86
5 -2 -3 188.1 6.46
-5 -2 3 184.22 5.93
5 -2 -3 183.61 5.82
5 -2 -2 238.21 7.28
-5 -2 2 226.8 6.55
5 -2 -2 239.99 6.47
-5 -2 1 21.29 2.01
5 -2 -1 20.17 2.09
5 -2 -1 19.93 1.92
5 -2 0 56.68 3.52
-5 -2 0 62.22 3.36
5 -2 0 60.63 3.26
5 -2 0 58.49 3.42
5 -2 1 130.42 5.09
5 -2 1 131.18 5.22
-5 -2 -1 135 4.9
5 -2 1 136.81 4.94
5 -2 2 1.82 0.78
5 -2 2 1.59 0.89
-5 -2 -2 3.51 1
5 -2 3 157 5.87
5 -2 3 146.62 5.49
-5 -2 -3 156.6 5.2
5 -2 4 65.21 3.83
5 -2 4 62.67 3.68
-5 -2 -4 68.55 3.45
5 -2 5 42.01 3.28
5 -2 5 37.91 2.92
-5 -2 -5 46.83 2.91
5 -2 6 118.49 5.61
5 -2 6 109.08 4.98
-5 -2 -6 118.18 4.52
5 -2 7 12 1.92
-5 -2 -7 11.64 1.6
5 -2 7 10.77 1.7
5 -2 8 66.29 4.01
-5 -2 -8 72.06 3.57
5 -2 8 67.33 4.51
-5 -2 -9 78.5 3.72
5 -2 9 76.89 4.96
-5 -2 -10 97.84 4.17
5 -2 10 93.84 5.75
-5 -2 -11 56.68 3.23
5 -2 11 58.84 4.72
-5 -2 -12 62.15 3.38
5 -2 12 73.04 5.37
5 -2 13 26.68 3.38
-5 -2 -13 14.34 1.67
5 -2 14 33.1 4.02
5 -2 15 43.81 4.61
5 -2 16 16.51 3.29
5 -2 17 110.6 7.69
5 -2 18 11.77 3.01
5 -2 19 7.8 2.61
5 -2 20 5.74 2.36
5 -2 21 4.72 2.36
5 -1 -20 10.12 2.37
5 -1 -19 30.82 3.64
5 -1 -18 14.44 2.57
5 -1 -17 33.24 3.52
-5 -1 16 67.84 4.15
5 -1 -16 63.51 4.65
5 -1 -15 9.14 2.06
-5 -1 15 6.77 1.58
5 -1 -14 3.17 1.44
-5 -1 14 3.11 1.17
-5 -1 13 49.91 3.46
5 -1 -13 55.16 4.27
5 -1 -12 8.92 1.89
-5 -1 12 9.81 1.66
-5 -1 11 17.77 2.05
5 -1 -11 21.87 2.71
-5 -1 10 5.29 1.17
5 -1 -10 6.73 1.59
-5 -1 9 180.9 6.24
5 -1 -9 170.44 6.7
-5 -1 8 128.36 5.16
5 -1 -8 140.15 6.02
-5 -1 7 113.61 4.74
5 -1 -7 114.56 5.28
-5 -1 6 328.22 7.8
5 -1 -6 335.81 8.83
5 -1 -5 91.79 4.53
-5 -1 5 92.33 4.08
5 -1 -4 51.48 3.4
-5 -1 4 50.37 3.05
5 -1 -3 21.61 2.19
-5 -1 3 21.37 2.07
5 -1 -3 21.84 1.88
5 -1 -2 41.73 2.94
-5 -1 2 37.6 2.62
5 -1 -2 44.67 2.57
5 -1 -1 24.76 2.37
-5 -1 1 25.5 2.11
5 -1 -1 23.99 1.94
5 -1 0 68.92 3.58
5 -1 0 63.17 3.68
5 -1 0 67.69 3.16
5 -1 1 213.78 6.47
5 -1 1 219.76 6.88
5 -1 1 211.67 5.49
5 -1 2 297.72 7.75
5 -1 2 274.08 7.67
5 -1 3 106.73 4.85
5 -1 3 113.76 5.09
5 -1 4 292.79 8.11
5 -1 5 201.6 7.04
5 -1 6 195.41 7.22
5 -1 7 17.99 2.4
5 -1 8 85.54 4.97
5 -1 9 53.72 4.13
5 -1 10 7.29 1.9
5 -1 11 46.89 4.19
5 -1 12 33.48 3.72
5 -1 13 12.8 2.41
5 -1 14 70.65 5.55
5 -1 15 13.74 2.78
5 -1 16 1.48 1.51
5 -1 17 13.33 2.98
5 -1 18 29.29 4.12
5 -1 19 4.22 2.3
5 -1 20 28.6 4.38
5 -1 21 10.88 3.02
5 0 -19 8.66 1.99
5 0 -18 61.66 4.6
5 0 -17 53.73 4.06
5 0 -16 93.53 5.28
-5 0 15 26.88 2.37
5 0 -15 31.26 3.18
-5 0 14 32.79 2.66
5 0 -14 36.11 3.33
5 0 -13 7.5 1.71
-5 0 13 7.18 1.39
-5 0 12 1.95 0.91
5 0 -12 3.07 1.16
-5 0 11 20.86 2.12
5 0 -11 23.32 2.63
-5 0 10 89.82 4.2
5 0 -10 86.74 4.63
-5 0 9 146.25 5.33
5 0 -9 152.42 6.04
-5 0 8 56.93 3.21
5 0 -8 52.79 3.59
-5 0 7 185.27 5.73
5 0 -7 181.9 6.39
5 0 -6 24.12 2.4
-5 0 6 24.02 2.09
5 0 -5 1.92 0.85
-5 0 5 2 0.76
5 0 -4 355.59 8.6
-5 0 4 365.68 7.75
5 0 -3 11.49 1.69
5 0 -2 29.89 2.55
5 0 -1 29.13 2.6
5 0 -1 29.07 1.82
5 0 0 498.87 9.7
5 0 0 494.92 10.42
5 0 0 522.01 7.54
5 0 1 15.61 1.9
5 0 1 15.31 1.31
5 0 2 44.28 3.05
5 0 2 45.67 2.28
5 0 3 176.12 6.19
5 0 4 46.85 3.34
5 0 5 1936.23 21.27
5 0 6 204.94 7.3
5 0 7 44.72 3.53
5 0 8 229.86 8.15
5 0 9 8.71 1.66
5 0 10 77.7 5.12
5 0 11 24.27 3.02
5 0 12 2.13 1.29
5 0 13 2.09 1.18
5 0 14 7.11 2.31
5 0 15 14.28 2.75
5 0 16 12.1 2.78
5 0 17 19.39 3.4
5 0 18 4.9 2.29
5 0 19 5.07 2.18
5 0 20 16.84 3.49
5 0 21 7 2.57
5 0 22 4.5 2.25
-5 1 23 6.23 2.72
5 1 -17 32.3 3.04
5 1 -16 55.63 3.87
5 1 -15 4.23 1.37
5 1 -14 4.38 1.31
-5 1 14 1.72 0.86
-5 1 13 47.32 2.86
5 1 -13 53.83 3.7
5 1 -12 11.78 1.78
-5 1 12 9.24 1.39
-5 1 11 19.5 1.98
5 1 -11 17.22 2.18
5 1 -10 7.35 1.59
-5 1 10 5.06 1.07
-5 1 9 172.89 5.43
5 1 -9 176.91 6.31
-5 1 8 129.63 4.66
5 1 -8 123.4 5.19
5 1 -7 110.9 4.88
-5 1 7 115.96 4.44
5 1 -6 324.01 8.25
-5 1 6 344.77 7.46
5 1 -5 89.13 4.36
5 1 -4 49.1 3.26
5 1 -3 19.44 2.13
5 1 -2 42.58 3.12
5 1 1 203.34 6.31
5 1 1 204.66 3.75
5 1 2 300.31 7.79
5 1 2 304.13 4.8
5 1 3 114.25 4.93
5 1 4 297.74 8.08
5 1 5 193.06 6.7
5 1 6 190.49 6.91
5 1 7 22.34 2.58
5 1 8 85.66 5.01
5 1 9 51.5 4.02
5 1 10 8.41 1.86
5 1 11 41.53 3.87
5 1 12 41.95 4.04
5 1 13 13.02 2.58
5 1 14 75.18 5.67
5 1 15 14.8 2.94
5 1 16 2.94 1.75
5 1 17 13.93 2.84
5 1 18 23.37 3.61
5 1 19 5.73 2.45
5 1 20 30.7 4.48
5 1 21 9.6 3.13
5 1 22 10.11 3.05
5 2 -15 34.54 2.83
5 2 -14 96.92 4.71
5 2 -13 11.24 1.7
-5 2 12 32.41 2.26
5 2 -12 34.28 2.71
-5 2 11 32.33 2.3
5 2 -11 31.26 2.65
5 2 -10 6.96 1.37
-5 2 10 7.23 1.21
-5 2 9 19.3 1.82
5 2 -9 19.65 2.14
-5 2 8 21.25 1.99
5 2 -8 23.92 2.31
5 2 -7 427.1 9.33
5 2 -6 188.52 6.28
5 2 -5 303.34 7.93
5 2 -4 129.24 5.34
5 2 -3 177.87 6.36
5 2 2 2.55 0.98
5 2 3 159.17 5.82
5 2 3 118.68 1.94
5 2 4 62.43 3.76
5 2 5 41.77 3.23
5 2 6 104.83 5.04
5 2 7 10.3 1.92
5 2 8 66.59 4.45
5 2 9 78.22 4.92
5 2 10 97.13 5.54
5 2 11 60.2 4.59
5 2 12 68.69 5.01
5 2 13 27.4 3.36
5 2 14 32.12 3.63
5 2 15 40.58 4.29
5 2 16 13.86 2.89
5 2 17 113.66 7.51
5 2 18 8.53 2.64
5 2 19 9.56 2.63
5 2 20 2.1 1.83
5 2 21 2.94 2.12
-5 3 22 1.84 1.95
5 3 -13 45.43 2.91
5 3 -12 24.6 2.24
-5 3 11 5.5 1.02
5 3 -11 6.1 1.25
-5 3 10 26.06 1.99
5 3 -10 24.62 2.25
5 3 -9 1.76 1.07
-5 3 9 2.01 0.75
5 3 -8 44.12 3.01
5 3 -7 92.74 4.38
5 3 -6 167.37 5.95
5 3 -5 138.27 5.63
5 3 -4 13.14 1.94
5 3 3 74.21 3.9
5 3 4 51.73 3.43
5 3 5 27.81 2.6
5 3 6 37.34 3.09
5 3 7 18.66 2.3
5 3 8 39.3 3.32
5 3 9 46.84 3.71
5 3 10 6.83 1.64
5 3 11 37.51 3.62
5 3 12 7.16 1.86
5 3 13 46.7 4.35
5 3 14 32.75 3.68
5 3 15 37.23 4.12
5 3 16 55.04 5.06
5 3 17 6.96 2.35
5 3 18 23.85 3.74
5 3 19 4.08 2.02
5 3 20 11.62 2.95
5 3 21 6.58 2.77
5 4 -10 5.28 1.13
-5 4 10 3.99 1.02
5 4 -9 31.46 2.43
5 4 -8 29.88 2.47
5 4 -7 9.21 1.61
5 4 -6 44.06 3.31
5 4 -5 37.36 3.25
5 4 4 7.89 1.44
5 4 5 6.37 1.41
5 4 6 10.3 1.64
5 4 7 43.32 3.36
5 4 8 5.06 1.43
5 4 9 5.08 1.36
5 4 10 58.32 4.25
5 4 11 3.97 1.5
5 4 12 45.77 4.07
5 4 13 15.85 2.75
5 4 14 6.15 1.89
5 4 15 30.35 3.73
5 4 16 7.61 2.46
5 4 17 10.75 2.71
5 4 18 9 2.77
5 4 19 9.57 2.69
5 4 20 5.43 2.52
5 5 -8 2.68 0.95
5 5 -7 5.32 1.38
5 5 -6 90.15 4.78
5 5 -5 26.11 2.86
5 5 6 39.83 3.1
5 5 7 40.91 3.18
5 5 8 41.84 3.25
5 5 9 15.44 2.19
5 5 10 18.39 2.43
5 5 11 79.73 4.98
5 5 12 5.92 1.78
5 5 13 6.25 1.75
5 5 14 5.67 1.94
5 5 15 2.93 1.49
5 6 -6 9.46 1.91
5 6 -5 9.03 1.98
-6 -10 1 9.18 2.8
6 -9 -9 7.22 2.62
-6 -9 9 10.04 2.79
6 -9 -8 7.65 2.5
-6 -9 8 12 3.03
6 -9 -7 7.15 2.6
-6 -9 7 6.93 2.34
6 -9 -6 7.11 2.28
-6 -9 6 4.9 2.05
6 -9 -5 5.33 2.21
-6 -9 5 3.46 1.97
-6 -9 4 8.17 2.46
6 -9 -4 9 2.19
-6 -9 3 3.63 1.86
6 -9 -2 10.04 2.77
-6 -9 2 11.89 2.88
6 -9 -1 7.92 2.44
-6 -9 1 5.08 2.02
6 -9 0 7.79 2.31
-6 -9 0 6.62 2.31
6 -9 1 19.46 3.39
-6 -9 -1 22.23 3.51
6 -9 2 2.02 1.77
-6 -9 -2 2.18 1.64
6 -9 3 11.36 2.91
6 -9 4 16.95 3.37
6 -9 5 6.7 2.24
6 -9 6 3.01 2
6 -9 7 6.89 2.34
6 -9 8 3.21 1.93
-6 -8 13 6.24 2.62
6 -8 -13 4.28 2.42
6 -8 -12 13.22 3.44
-6 -8 12 7.36 2.58
6 -8 -11 3.66 2.03
-6 -8 11 3.22 2.09
6 -8 -10 6.9 2.46
-6 -8 10 7.64 2.41
6 -8 -9 9.22 2.63
-6 -8 9 6.62 2.26
6 -8 -8 7.75 2.26
-6 -8 8 8.75 2.42
6 -8 -7 22.43 3.59
-6 -8 7 20.4 3.42
6 -8 -6 12.56 2.7
-6 -8 6 8.93 2.35
-6 -8 5 33.65 4.37
6 -8 -5 25.25 3.4
6 -8 -4 8.4 2.08
-6 -8 4 11.49 2.61
-6 -8 3 7.78 2.08
6 -8 -3 7.5 2.02
6 -8 -3 11.15 2.56
6 -8 -2 21 3.34
6 -8 -2 13.52 2.49
-6 -8 2 17.08 3.15
6 -8 -1 10.64 2.19
-6 -8 1 11.29 2.6
6 -8 -1 13.48 2.71
-6 -8 0 5.82 1.94
6 -8 0 6.21 2.03
6 -8 1 13.23 2.81
-6 -8 -1 11.15 2.48
-6 -8 -2 7.92 2.19
6 -8 2 12.49 2.76
-6 -8 -3 7.12 1.99
6 -8 3 4.37 1.86
-6 -8 -4 19.02 3.01
6 -8 4 21.62 3.4
6 -8 5 4.4 1.93
6 -8 6 3.07 1.98
6 -8 7 9.5 2.42
6 -8 8 5.95 2.23
6 -8 9 5.31 2.34
6 -8 10 7.2 2.51
6 -8 11 6.39 2.4
6 -7 -15 7.09 2.88
-6 -7 15 5.21 2.33
6 -7 -14 4.13 2.14
-6 -7 14 4.21 2.01
6 -7 -13 16.68 3.47
-6 -7 13 18.28 3.42
6 -7 -12 9.7 2.78
-6 -7 12 9.04 2.54
6 -7 -11 4.47 2.04
-6 -7 11 4.74 1.96
6 -7 -10 3.94 1.93
-6 -7 10 1.57 1.68
6 -7 -9 23.85 3.65
-6 -7 9 19.07 3.24
6 -7 -8 23.19 3.44
-6 -7 8 24.71 3.64
-6 -7 7 31.63 3.97
6 -7 -7 34 4.02
6 -7 -6 28.97 3.65
-6 -7 6 22.27 3.23
-6 -7 5 26.18 3.61
6 -7 -5 33.67 3.82
6 -7 -4 18.4 2.86
-6 -7 4 12.76 2.5
6 -7 -4 18.93 2.99
6 -7 -3 5.55 1.94
-6 -7 3 6.89 2.05
6 -7 -3 4.88 1.56
6 -7 -2 15.78 2.56
-6 -7 2 14.66 2.56
6 -7 -2 15.41 2.85
6 -7 -1 4.51 1.79
-6 -7 1 6.52 1.74
6 -7 -1 8.28 2
-6 -7 0 6.5 1.86
6 -7 0 8.88 2.02
6 -7 0 3.34 1.58
6 -7 1 6.54 1.94
6 -7 1 8.75 1.85
-6 -7 -1 8.35 2.1
6 -7 2 10.5 2.01
6 -7 2 11.98 2.58
-6 -7 -2 11.65 2.22
6 -7 3 18.4 3.03
-6 -7 -3 10.71 2.04
-6 -7 -4 4.15 1.56
6 -7 4 5.67 1.78
-6 -7 -5 26.55 3.3
6 -7 5 27.26 3.59
-6 -7 -6 5.57 1.67
6 -7 6 6.21 2.13
6 -7 7 7.78 2.17
6 -7 8 3.96 1.78
-6 -6 18 5.84 2.51
6 -6 -17 18.92 3.98
-6 -6 17 11.83 2.9
6 -6 -16 16.82 3.39
-6 -6 16 14.6 3.05
6 -6 -15 5.47 2.48
-6 -6 15 21.05 4.06
6 -6 -14 11.17 2.93
-6 -6 14 9.23 2.5
6 -6 -13 7.07 2.45
-6 -6 13 3.26 1.7
6 -6 -12 5.7 2.11
-6 -6 12 3.79 1.83
6 -6 -11 6.05 2.21
-6 -6 11 7.23 2.21
6 -6 -10 6.71 2.44
-6 -6 10 6.9 2.05
6 -6 -9 16.89 2.89
-6 -6 9 18.81 3.09
6 -6 -8 2.08 1.51
-6 -6 8 3.47 1.71
6 -6 -7 22.35 3.34
-6 -6 7 23.21 3.29
6 -6 -6 29.84 3.64
-6 -6 6 23.36 3.23
-6 -6 5 4.46 1.83
6 -6 -5 8.35 2.23
-6 -6 4 13.26 2.42
6 -6 -4 9.33 2.1
6 -6 -4 14.62 2.57
6 -6 -3 12.18 2.37
-6 -6 3 15.2 2.7
6 -6 -3 13.81 2.52
6 -6 -2 14.73 2.35
6 -6 -2 13.52 2.34
-6 -6 2 11.09 2.39
-6 -6 1 45.59 4.2
6 -6 -1 43.82 3.94
6 -6 -1 42.82 4.08
6 -6 0 58.73 4.62
-6 -6 0 58.05 4.54
6 -6 0 60.73 4.4
6 -6 1 1.53 0.88
-6 -6 -1 3.92 1.51
6 -6 1 4.76 1.68
-6 -6 -2 96.96 5.78
6 -6 2 91.96 5.06
6 -6 2 109.91 6.38
-6 -6 -3 69.12 4.88
6 -6 3 64.15 4.18
6 -6 3 64.72 5.11
-6 -6 -4 18.65 2.59
6 -6 4 17.22 2.64
6 -6 4 15.51 2.13
6 -6 5 11.01 1.93
-6 -6 -5 9.32 1.88
6 -6 5 9.82 1.61
6 -6 5 16.3 2.72
6 -6 6 16.07 2.4
-6 -6 -6 20.56 2.63
6 -6 6 16.35 2.8
6 -6 7 12.72 2.2
-6 -6 -7 12.68 2.14
6 -6 8 5.35 1.61
-6 -6 -8 5.15 1.48
6 -6 9 2.88 1.38
6 -6 10 2.38 1.38
6 -6 11 1.31 1.52
6 -6 12 4.65 2.04
6 -6 13 1.82 1.65
6 -6 14 5.56 2.08
6 -6 15 4.96 2.19
6 -6 16 2.35 1.94
-6 -5 19 5.01 2.37
6 -5 -19 1.05 2.45
-6 -5 18 4.9 2.05
6 -5 -18 4.29 2.72
6 -5 -17 16.22 3.37
-6 -5 17 12.87 2.83
-6 -5 16 30.52 4.19
6 -5 -16 31.69 4.27
6 -5 -15 5.85 2.13
-6 -5 15 3.25 1.73
6 -5 -14 3.59 1.8
-6 -5 14 4.42 1.83
-6 -5 13 49.1 4.71
6 -5 -13 53.84 5.22
6 -5 -12 32.64 4.02
-6 -5 12 30.93 3.81
-6 -5 11 24.88 3.37
6 -5 -11 20.63 3.19
-6 -5 10 10.37 2.23
6 -5 -10 10.29 2.48
6 -5 -9 7.41 2.16
-6 -5 9 8.86 2.22
6 -5 -8 13.26 2.67
-6 -5 8 14.66 2.46
-6 -5 7 74.07 5.41
6 -5 -7 76.85 5.64
6 -5 -6 11.89 2.38
-6 -5 6 8.32 1.72
-6 -5 5 5.22 1.38
6 -5 -5 8.17 1.92
6 -5 -4 5.96 1.86
-6 -5 4 5.71 1.6
6 -5 -4 5.41 1.78
-6 -5 3 8.74 1.77
6 -5 -3 10.54 2.08
6 -5 -3 10.06 1.97
-6 -5 2 18.94 2.6
6 -5 -2 24.1 2.87
6 -5 -2 19.97 2.7
-6 -5 1 58.61 4.35
6 -5 -1 55.92 4.2
6 -5 -1 57.15 4.37
6 -5 0 1.35 0.8
6 -5 0 7.36 1.72
-6 -5 0 6.41 1.58
-6 -5 -1 19.2 2.46
6 -5 1 22.94 2.68
6 -5 1 16.11 2.46
-6 -5 -2 24.68 2.83
6 -5 2 25.06 2.72
6 -5 2 23.38 2.94
6 -5 3 4.95 1.33
6 -5 3 5.07 1.35
-6 -5 -3 7.21 1.69
6 -5 3 5.53 1.68
6 -5 4 5.29 1.62
6 -5 4 2.87 1.07
6 -5 4 4.76 1.4
-6 -5 -4 6.87 1.64
6 -5 5 10.57 1.94
6 -5 5 10.75 1.72
-6 -5 -5 9.14 1.77
6 -5 6 12.06 2.16
6 -5 6 11.84 1.8
-6 -5 -6 10.51 1.88
6 -5 7 29.82 3.26
6 -5 7 22.75 2.32
-6 -5 -7 27.36 2.83
6 -5 8 45.11 4.1
-6 -5 -8 43.09 3.49
6 -5 9 21.93 3.05
-6 -5 -9 23.79 2.63
6 -5 10 5.28 1.73
6 -5 11 20.7 3.04
6 -5 12 15.98 2.87
6 -5 13 14.61 2.91
6 -5 14 12.28 2.75
6 -5 15 4.08 1.93
6 -5 16 3.99 2.05
6 -5 17 6.47 2.48
6 -5 18 7.15 2.62
6 -4 -20 1.97 2.33
6 -4 -19 1.1 2.39
6 -4 -18 5.15 2.58
-6 -4 18 5.97 1.93
6 -4 -17 8.94 2.49
-6 -4 17 6.46 2.08
6 -4 -16 6.36 2.25
-6 -4 16 5.98 1.88
6 -4 -15 7.4 2.36
-6 -4 15 4.79 1.73
6 -4 -14 12.01 2.54
-6 -4 14 14.87 2.72
6 -4 -13 26.09 3.61
-6 -4 13 29.85 3.47
-6 -4 12 63.32 4.94
6 -4 -12 68.31 5.52
6 -4 -11 6.92 2.07
-6 -4 11 2.84 1.66
-6 -4 10 100.06 6.09
6 -4 -10 98.02 6.44
-6 -4 9 85.13 5.45
6 -4 -9 89.51 6.06
-6 -4 8 40.62 3.73
6 -4 -8 40.9 4.12
6 -4 -7 5.99 1.8
-6 -4 7 7.64 1.78
-6 -4 6 0.9 0.86
6 -4 -6 2.41 1.46
-6 -4 5 20.75 2.5
6 -4 -5 22.29 2.88
-6 -4 4 24.57 2.88
6 -4 -4 25.38 2.95
6 -4 -4 23.77 2.8
-6 -4 3 29.23 3.06
6 -4 -3 31.88 3.22
6 -4 -3 34.96 3.19
-6 -4 2 90.54 5.16
6 -4 -2 86.08 5.15
6 -4 -2 91.45 5.08
6 -4 -1 15.65 2.29
-6 -4 1 15.08 2.09
6 -4 -1 11.55 1.72
6 -4 0 11.23 1.93
-6 -4 0 9.53 1.85
6 -4 0 9.46 1.7
6 -4 1 19.19 2.4
-6 -4 -1 21.39 2.48
6 -4 1 20.06 2.69
6 -4 2 32.37 2.99
6 -4 2 38.25 3.18
-6 -4 -2 39.4 3.32
6 -4 2 35.65 3.19
6 -4 3 33.11 3.04
6 -4 3 32.24 2.83
-6 -4 -3 31.41 2.9
6 -4 3 33.76 3.2
6 -4 4 66.67 4.38
6 -4 4 64.24 3.99
-6 -4 -4 71.68 4.34
6 -4 5 8.7 1.61
6 -4 5 5.84 1.35
-6 -4 -5 6.17 1.4
6 -4 6 1.84 1.04
6 -4 6 2.08 1.08
-6 -4 -6 3.87 1.25
6 -4 7 16.31 2.52
6 -4 7 15.18 2.03
-6 -4 -7 18.7 2.24
6 -4 8 1.35 1.27
6 -4 8 1.81 1.05
-6 -4 -8 3.96 1.13
6 -4 9 28.65 2.55
-6 -4 -9 31.97 2.84
6 -4 9 38.42 3.8
6 -4 10 3.02 1.66
-6 -4 -10 1.85 0.92
6 -4 11 39.78 4.17
6 -4 12 151.95 8.22
6 -4 13 3.15 1.93
6 -4 14 27.97 3.82
6 -4 15 10.7 2.81
6 -4 16 7.89 2.61
6 -4 17 5.7 2.47
6 -4 18 3.3 2.14
6 -4 19 6.24 2.64
6 -3 -21 5.63 2.78
6 -3 -20 4.66 2.73
6 -3 -19 2.56 2.31
6 -3 -18 6.43 2.54
-6 -3 18 1.61 1.41
6 -3 -17 6.46 2.5
-6 -3 17 4.87 1.97
6 -3 -16 9.1 2.29
-6 -3 16 3.94 1.64
-6 -3 15 18.93 2.8
6 -3 -15 20.83 3.21
6 -3 -14 19.35 3.09
-6 -3 14 13.48 2.39
-6 -3 13 50.75 4.3
6 -3 -13 52.09 4.8
-6 -3 12 30.4 3.33
6 -3 -12 32.6 3.82
-6 -3 11 93.7 5.64
6 -3 -11 90.51 6.11
-6 -3 10 14.07 2.33
6 -3 -10 21.49 3.12
-6 -3 9 35.89 3.3
6 -3 -9 35.63 3.69
-6 -3 8 30.7 3.08
6 -3 -8 29.84 3.34
-6 -3 7 21.14 2.56
6 -3 -7 22.53 2.94
6 -3 -6 7.92 1.74
-6 -3 6 7.04 1.57
-6 -3 5 94.41 5.14
6 -3 -5 92.74 5.38
-6 -3 4 57.38 3.98
6 -3 -4 45.82 3.8
6 -3 -4 58.06 3.86
6 -3 -3 28.32 2.98
-6 -3 3 30.2 2.87
6 -3 -3 29 2.81
6 -3 -2 10.3 1.91
-6 -3 2 12.32 1.98
6 -3 -2 11.62 1.69
6 -3 -1 70.24 4.45
-6 -3 1 73.03 4.24
6 -3 -1 69.51 4.12
6 -3 0 60.18 3.97
-6 -3 0 62.15 3.94
6 -3 0 56.58 3.75
6 -3 1 63.74 3.96
6 -3 1 59.85 3.97
-6 -3 -1 61.56 3.85
6 -3 1 60.17 3.89
6 -3 2 14.68 2.07
6 -3 2 12.8 1.92
-6 -3 -2 17.85 2.18
6 -3 2 13.88 1.8
6 -3 3 67.6 4.24
6 -3 3 67.87 4.16
-6 -3 -3 65.41 3.92
6 -3 3 66.69 4.16
6 -3 4 46.41 3.68
6 -3 4 43.62 3.38
-6 -3 -4 44.45 3.2
6 -3 5 5.12 1.48
6 -3 5 6.53 1.6
-6 -3 -5 7.08 1.42
6 -3 6 19.54 2.53
-6 -3 -6 14.92 1.87
6 -3 6 16.07 2.06
6 -3 7 20.74 2.71
6 -3 7 19.18 2.31
-6 -3 -7 19.27 2.13
6 -3 8 27.31 3.29
6 -3 8 22.56 2.42
-6 -3 -8 27.64 2.59
6 -3 9 7.55 1.54
6 -3 9 8.79 2.15
-6 -3 -9 11.12 1.72
6 -3 10 33.45 3.8
6 -3 10 26.95 2.68
-6 -3 -10 32.21 2.73
6 -3 11 16.18 2.11
6 -3 11 18.51 2.96
-6 -3 -11 16.13 2.03
6 -3 12 18.29 2.21
6 -3 12 22.29 3.26
-6 -3 -12 11.92 1.64
6 -3 13 149.4 8.27
6 -3 14 3.84 2.05
6 -3 15 22.38 3.75
6 -3 16 15.97 3.03
6 -3 17 2.31 1.77
6 -3 18 9.31 2.53
6 -3 19 2.17 2.15
6 -3 20 7.91 2.83
6 -2 -21 1.77 2.52
6 -2 -20 1.85 2.2
6 -2 -19 1.48 2.21
6 -2 -18 2.3 2.26
6 -2 -17 6.09 2.05
-6 -2 17 3.18 1.5
-6 -2 16 20.26 2.82
6 -2 -16 25.29 3.43
6 -2 -15 15.63 2.84
-6 -2 15 15 2.49
-6 -2 14 35.85 3.5
6 -2 -14 37.15 3.97
6 -2 -13 24.69 3.23
-6 -2 13 19.94 2.74
-6 -2 12 36.27 3.43
6 -2 -12 43.81 4.16
-6 -2 11 4.83 1.5
6 -2 -11 4.45 1.51
-6 -2 10 58.06 4.17
6 -2 -10 55.31 4.31
-6 -2 9 11.11 1.92
6 -2 -9 6.22 1.69
-6 -2 8 26.34 2.79
6 -2 -8 29.47 3.26
-6 -2 7 22.29 2.52
6 -2 -7 20.42 2.81
6 -2 -6 12.48 2.12
-6 -2 6 7.46 1.56
-6 -2 5 50.25 3.52
6 -2 -5 50.36 3.85
6 -2 -4 15.41 2.15
-6 -2 4 13.42 1.75
6 -2 -3 23.59 2.66
-6 -2 3 21.24 2.29
6 -2 -3 25.12 2.37
6 -2 -2 88.79 4.84
-6 -2 2 83.84 4.35
6 -2 -2 82.32 4.08
6 -2 -1 102.46 5.18
-6 -2 1 102.53 4.79
6 -2 -1 112.27 4.75
6 -2 0 87.9 4.84
-6 -2 0 86.4 4.38
6 -2 0 83.83 4.12
6 -2 1 89.53 4.74
6 -2 1 90.48 4.77
-6 -2 -1 85.24 4.35
6 -2 1 83.65 4.16
6 -2 2 82.23 4.57
6 -2 2 90.77 4.86
-6 -2 -2 92.84 4.55
6 -2 2 83.38 4.14
6 -2 3 3.26 1.11
6 -2 3 1.25 1.09
-6 -2 -3 3.52 1.04
6 -2 4 55.79 4.06
6 -2 4 53.12 3.69
-6 -2 -4 53.34 3.45
6 -2 5 136.42 6.23
6 -2 5 124.34 5.75
-6 -2 -5 142.43 5.56
6 -2 6 11.42 2.08
-6 -2 -6 11.83 1.73
6 -2 6 12.66 1.94
6 -2 7 31.21 3.33
6 -2 7 28.49 2.88
-6 -2 -7 34.21 2.74
6 -2 8 18.9 2.71
6 -2 8 18.17 2.39
-6 -2 -8 19.35 2.13
6 -2 9 27.22 3.35
6 -2 9 27.89 2.94
-6 -2 -9 33.11 2.76
6 -2 10 42.28 4.08
6 -2 10 40.37 3.54
-6 -2 -10 45.55 3.24
6 -2 11 25.29 3.36
6 -2 11 26.51 2.9
-6 -2 -11 30.19 2.67
6 -2 12 19.78 2.98
-6 -2 -12 19.1 2.21
6 -2 12 16.73 2.4
6 -2 13 5.83 2.13
-6 -2 -13 2.7 1.08
6 -2 13 3.06 1.28
6 -2 14 3.62 1.86
6 -2 14 3.03 1.46
6 -2 15 21.21 3.48
6 -2 16 28.6 4.07
6 -2 17 9.81 2.59
6 -2 18 4.33 2.13
6 -2 19 12.87 3.26
6 -2 20 5.19 2.53
6 -1 -20 1.19 2.13
6 -1 -19 6.65 2.79
6 -1 -18 2.75 1.63
6 -1 -17 16.37 2.77
6 -1 -16 8 2.01
-6 -1 16 10.04 2
-6 -1 15 33.15 3.21
6 -1 -15 38.09 3.9
6 -1 -14 9.48 2.15
-6 -1 14 10.5 2.01
6 -1 -13 6.15 1.71
-6 -1 13 8.06 1.74
6 -1 -12 14.86 2.43
-6 -1 12 10.55 1.8
-6 -1 11 12.26 1.95
6 -1 -11 14.2 2.29
6 -1 -10 4.9 1.67
-6 -1 10 3.29 1.01
-6 -1 9 37.96 3.2
6 -1 -9 32.89 3.25
-6 -1 8 21.2 2.39
6 -1 -8 22.59 2.75
-6 -1 7 13.4 1.84
6 -1 -7 15.93 2.32
6 -1 -6 97.74 5.22
-6 -1 6 90.27 4.51
6 -1 -5 2.35 1.39
-6 -1 5 2.79 0.96
6 -1 -4 281.97 8.57
-6 -1 4 287.96 7.95
6 -1 -3 19.68 2.38
-6 -1 3 24.77 2.41
6 -1 -2 49.9 3.6
-6 -1 2 52.18 3.39
6 -1 -2 51.46 3.03
6 -1 -1 41.01 3.38
-6 -1 1 40.17 2.99
6 -1 -1 38.26 2.55
6 -1 0 83.62 4.58
-6 -1 0 88.99 4.3
6 -1 0 93.11 3.91
6 -1 1 345.83 9.19
6 -1 1 352.11 9.56
6 -1 1 361.67 7.71
6 -1 2 41.61 3.26
6 -1 2 43.76 3.41
6 -1 2 48.22 2.88
6 -1 3 65.94 4.16
6 -1 3 61.59 4.09
6 -1 4 70.14 4.4
6 -1 4 77.19 4.67
6 -1 5 135.65 6.23
6 -1 5 136.62 6.2
6 -1 6 223.81 8.16
6 -1 7 7.38 1.77
6 -1 8 95.47 5.81
6 -1 9 12.5 2.46
6 -1 10 9.87 2.2
6 -1 11 19.79 3.03
6 -1 12 8.89 2.01
6 -1 13 20.78 3.27
6 -1 14 15.19 2.9
6 -1 15 3.76 1.79
6 -1 16 7.88 2.38
6 -1 17 28.09 4.05
6 -1 18 14.66 3.17
6 -1 19 3.15 1.92
6 -1 20 28.61 4.52
6 -1 21 7.48 3.02
6 0 -19 8.9 2.35
6 0 -18 5.03 1.79
6 0 -17 3.74 1.82
6 0 -16 20.09 2.7
6 0 -15 4.46 1.59
-6 0 15 2.07 1.08
6 0 -14 14.53 2.44
-6 0 14 10.93 1.82
-6 0 13 3.42 1.24
6 0 -13 3.33 1.22
-6 0 12 103.21 5
6 0 -12 95.24 5.45
-6 0 11 29.38 2.83
6 0 -11 29.66 3.01
-6 0 10 34.46 2.88
6 0 -10 35.75 3.34
6 0 -9 2.4 1.04
-6 0 9 2.76 1.12
-6 0 8 30.79 2.65
6 0 -8 28.12 2.91
-6 0 7 80.65 4.26
6 0 -7 77.11 4.58
6 0 -6 180.06 6.92
-6 0 6 181.79 6.26
6 0 -5 267.38 8.24
-6 0 5 274.14 7.63
6 0 -4 27.07 2.7
-6 0 4 28.57 2.66
6 0 -3 3.69 1.16
6 0 -2 29.49 2.78
6 0 -1 30.97 2.9
6 0 -1 33.36 2.22
6 0 0 0.95 0.51
6 0 0 2.43 1.35
6 0 1 2.25 1.15
6 0 1 1.26 0.47
6 0 1 1.37 0.9
6 0 2 23.83 2.52
6 0 2 23.12 2.56
6 0 2 22.47 1.77
6 0 3 -1.16 0.89
6 0 3 1.17 0.62
6 0 4 5.09 1.48
6 0 5 169.58 6.92
6 0 6 8.25 1.87
6 0 7 58.9 4.27
6 0 8 2.4 1.3
6 0 9 2.08 1.3
6 0 10 56.36 4.58
6 0 11 9.19 2.16
6 0 12 11.69 2.62
6 0 13 -0.72 0.9
6 0 14 4.2 1.97
6 0 15 46.46 4.85
6 0 16 2.01 1.58
6 0 17 5.58 2.12
6 0 18 11.23 2.92
6 0 19 7.11 2.68
6 0 20 5.5 2.66
6 0 21 21.48 3.94
6 1 -17 13.17 2.23
6 1 -16 10.71 2.06
6 1 -15 35.3 3.49
6 1 -14 11.09 2.07
-6 1 14 6.27 1.34
6 1 -13 7.64 1.71
-6 1 13 9.67 1.62
-6 1 12 10.41 1.67
6 1 -12 11 1.9
6 1 -11 14.98 2.11
-6 1 11 11.34 1.64
6 1 -10 4.57 1.44
-6 1 10 3.63 1.12
-6 1 9 32.72 2.69
6 1 -9 31.98 3.08
-6 1 8 25.6 2.43
6 1 -8 22.08 2.51
-6 1 7 12.58 1.72
6 1 -7 14.46 2.05
6 1 -6 91.94 4.89
-6 1 6 100.8 4.61
6 1 -5 2.45 1.13
6 1 -4 288.01 8.61
6 1 -3 27.8 2.92
6 1 -2 50.41 3.7
6 1 -1 45.22 3.63
6 1 1 359.7 9.26
6 1 1 351.92 5.58
6 1 2 44.41 3.35
6 1 2 42.32 1.97
6 1 3 64.77 4.16
6 1 3 63.51 2.52
6 1 4 68.29 4.25
6 1 5 132.29 6.13
6 1 6 210.33 7.78
6 1 7 4.51 1.28
6 1 8 92.42 5.48
6 1 9 13.67 2.42
6 1 10 9.49 1.94
6 1 11 17.73 2.85
6 1 12 7.8 2.02
6 1 13 20.17 3.11
6 1 14 14.82 2.79
6 1 15 3.46 1.41
6 1 16 6.55 2.32
6 1 17 31.94 4.28
6 1 18 8.79 2.51
6 1 19 2.21 1.75
6 1 20 28.97 4.46
6 1 21 7.51 2.96
6 2 -15 18.3 2.49
6 2 -14 30.88 2.99
6 2 -13 17.49 2.26
-6 2 12 39.32 2.85
6 2 -12 44.49 3.47
6 2 -11 2.87 1.22
-6 2 11 3.71 0.97
-6 2 10 49.24 3.21
6 2 -10 53.74 3.82
6 2 -9 8.72 1.68
-6 2 9 8.16 1.5
-6 2 8 25.61 2.4
6 2 -8 22.76 2.47
6 2 -7 23.68 2.54
6 2 -6 8.18 1.62
6 2 -5 49.82 3.66
6 2 -4 13.67 2.05
6 2 -3 22.82 2.46
6 2 -2 83.96 4.99
6 2 2 87.39 4.7
6 2 3 2.75 1.22
6 2 4 54.26 3.91
6 2 4 47.08 1.52
6 2 5 138.7 6.19
6 2 5 134.64 3.06
6 2 6 13.11 2.22
6 2 7 26.9 2.84
6 2 8 15.51 2.36
6 2 9 27.14 3.2
6 2 10 36.73 3.82
6 2 11 25.89 3.33
6 2 12 19.6 2.99
6 2 13 1.47 1.33
6 2 14 2.63 1.49
6 2 15 28.03 3.83
6 2 16 27.03 3.82
6 2 17 13.62 3.15
6 2 18 4.76 2.5
6 2 19 9.68 2.82
6 2 20 4.98 2.46
6 3 -13 47.11 3.39
6 3 -12 29.36 2.75
-6 3 11 85.3 4.03
6 3 -11 81.85 4.52
-6 3 10 16.84 2.02
6 3 -10 15.66 2.22
-6 3 9 37.96 2.86
6 3 -9 35.15 3.05
6 3 -8 29.96 2.78
6 3 -7 22.8 2.5
6 3 -6 9.33 1.81
6 3 -5 88.25 5.06
6 3 -4 50.19 3.91
6 3 -3 29.45 3.06
6 3 3 62.79 4.03
6 3 4 44.85 3.47
6 3 5 4.56 1.4
6 3 6 14.78 2.23
6 3 7 17.78 2.51
6 3 8 25.06 2.91
6 3 9 9.54 2.06
6 3 10 34.84 3.63
6 3 11 16.77 2.62
6 3 12 18.75 2.96
6 3 13 157.72 8.08
6 3 14 6.9 2.19
6 3 15 19.3 3.25
6 3 16 13.47 2.78
6 3 17 4.88 2.15
6 3 18 8.72 2.53
6 3 19 2.99 2.14
6 3 20 6.23 2.69
-6 4 10 90.84 4.3
6 4 -10 90.38 4.69
6 4 -9 84.3 4.49
6 4 -8 39.13 3.14
6 4 -7 8.92 1.81
6 4 -6 1.73 1.21
6 4 -5 22.31 2.72
6 4 -4 25.2 3.04
6 4 5 6.19 1.51
6 4 6 1.28 1.27
6 4 7 19.17 2.48
6 4 8 1.11 1.14
6 4 9 29.63 3.2
6 4 10 4.54 1.73
6 4 11 36.21 3.72
6 4 12 148.15 7.45
6 4 13 5.96 2.15
6 4 14 27.14 3.65
6 4 15 8.12 2.24
6 4 16 11.81 2.93
6 4 17 3.72 2.05
6 4 18 2.06 1.85
6 4 19 7.65 2.79
6 5 -8 8.17 1.67
6 5 -7 59.76 4.19
6 5 -6 9.69 1.95
6 5 -5 3.59 1.41
6 5 -4 3.74 1.62
6 5 7 29.03 2.96
6 5 8 44.21 3.78
6 5 9 23.98 2.86
6 5 10 4.69 1.72
6 5 11 14.35 2.44
6 5 12 16.46 2.75
6 5 13 18.97 2.96
6 5 14 10.95 2.38
6 6 -6 16.07 2.6
6 6 -5 6.49 1.96
6 6 -4 7.37 2.16
7 -9 -7 8.85 2.85
7 -9 -6 2.98 2.04
-7 -9 6 5.42 2.32
7 -9 -5 9.41 2.7
-7 -9 5 9.39 2.66
-7 -9 4 3.11 1.91
-7 -9 3 5.3 2.13
-7 -9 2 5.59 2.25
7 -9 -1 6.18 2.38
-7 -9 1 4.55 2.17
7 -9 0 7.33 2.64
-7 -9 0 5.9 2.34
7 -9 1 7.77 2.41
-7 -9 -1 8.17 2.53
7 -9 2 7.15 2.5
-7 -9 -2 2.93 1.91
7 -9 3 4.57 2.06
7 -9 4 6.39 2.38
7 -8 -11 6.71 2.68
-7 -8 11 7.81 2.73
7 -8 -10 10.43 3.09
-7 -8 10 7.48 2.62
7 -8 -9 7.8 2.58
-7 -8 9 4.83 2.06
7 -8 -8 6.42 2.47
-7 -8 8 3.34 1.85
7 -8 -7 3.58 1.9
-7 -8 7 5.91 2.32
7 -8 -6 24.13 3.62
-7 -8 6 27.09 3.9
7 -8 -5 17.97 3.09
-7 -8 5 22.29 3.47
7 -8 -4 25.19 3.46
-7 -8 4 26.25 3.95
-7 -8 3 45.79 4.89
7 -8 -3 44.28 4.44
7 -8 -3 46.02 4.85
7 -8 -2 14.41 2.66
-7 -8 2 19.39 3.2
7 -8 -2 14.14 2.82
7 -8 -1 8.26 2.14
-7 -8 1 11.48 2.6
7 -8 -1 12.48 2.72
-7 -8 0 9.39 2.47
7 -8 0 7.12 2.27
-7 -8 -1 13.77 2.87
7 -8 1 15.9 3.05
-7 -8 -2 10.75 2.39
7 -8 2 15.62 3.11
7 -8 3 15.12 3.13
-7 -8 -3 9.89 2.38
7 -8 4 6.31 2.34
-7 -8 -4 4.71 1.83
7 -8 5 9.86 2.62
7 -8 6 5.66 2.36
7 -8 7 5.3 2.05
7 -8 8 3.44 1.9
7 -8 9 4.67 2.24
7 -8 10 10.91 3.05
7 -7 -14 9.59 2.89
-7 -7 14 5.81 2.49
7 -7 -13 11.63 3.02
-7 -7 13 11.64 3.03
7 -7 -12 7.78 2.59
-7 -7 12 4.66 2.13
7 -7 -11 12.31 2.98
-7 -7 11 9.93 2.53
7 -7 -10 8.28 2.52
-7 -7 10 0.76 1.57
7 -7 -9 4.99 2.16
-7 -7 9 3.85 2.01
7 -7 -8 7.49 2.4
-7 -7 8 3.7 1.73
7 -7 -7 5.54 2.22
-7 -7 7 11.67 2.74
-7 -7 6 41.75 4.59
7 -7 -6 47.57 4.85
7 -7 -5 9.64 2.34
-7 -7 5 12.01 2.61
7 -7 -4 31.33 3.87
-7 -7 4 40.93 4.66
7 -7 -3 4.61 2.02
-7 -7 3 6.17 2.18
7 -7 -3 4.01 1.81
7 -7 -2 13.76 2.62
-7 -7 2 13.33 2.58
7 -7 -2 12.74 2.72
7 -7 -1 11.94 2.4
7 -7 -1 16.36 2.94
-7 -7 1 14.84 2.75
7 -7 0 6.34 1.99
7 -7 0 6.49 2.04
-7 -7 0 2.92 1.71
7 -7 1 6.7 1.96
-7 -7 -1 5.6 1.92
7 -7 1 7.82 2.27
7 -7 2 6.92 1.81
-7 -7 -2 9.49 2.26
7 -7 2 10.57 2.39
7 -7 3 4.01 1.56
-7 -7 -3 4.28 1.63
-7 -7 -4 5.29 1.78
7 -7 4 9.67 2.37
7 -7 5 24.03 3.54
-7 -7 -5 21.48 3.09
-7 -7 -6 3.13 1.53
7 -7 6 3.68 1.87
7 -7 7 11.04 2.76
7 -7 8 5.93 2.16
7 -7 9 9.41 2.79
7 -7 10 6.16 2.31
7 -6 -16 15.82 3.61
-7 -6 16 9.5 2.59
7 -6 -15 27.29 4.38
-7 -6 15 17.61 3.3
7 -6 -14 25.82 4.12
-7 -6 14 24.38 3.85
7 -6 -13 18.39 3.47
-7 -6 13 11.32 2.76
7 -6 -12 8.59 2.58
-7 -6 12 6.97 2.25
7 -6 -11 12.3 2.88
-7 -6 11 10.28 2.51
7 -6 -10 11.02 2.65
-7 -6 10 10.44 2.52
7 -6 -9 8.23 2.36
-7 -6 9 5.73 1.9
-7 -6 8 15.74 3.12
7 -6 -8 17.91 3.13
-7 -6 7 57.44 5.29
7 -6 -7 68.25 5.78
7 -6 -6 9.25 2.33
-7 -6 6 4.47 1.61
7 -6 -5 18.46 3.05
-7 -6 5 11.42 2.65
7 -6 -4 10.1 2.34
-7 -6 4 9.48 2.39
7 -6 -4 12.01 2.51
7 -6 -3 4.67 1.83
-7 -6 3 4.29 1.83
7 -6 -3 1.46 1.24
-7 -6 2 11 2.41
7 -6 -2 8.9 2.07
7 -6 -2 8.53 2.21
7 -6 -1 30.7 3.85
-7 -6 1 32.4 3.85
7 -6 -1 30.77 3.47
-7 -6 0 7.02 2
7 -6 0 0.79 1.37
7 -6 0 5.03 1.58
-7 -6 -1 20.72 2.99
7 -6 1 19.76 2.73
7 -6 1 20.6 3.06
-7 -6 -2 38.41 3.94
7 -6 2 37.85 3.53
7 -6 2 41.34 4.21
-7 -6 -3 17.24 2.75
7 -6 3 14.77 2.29
7 -6 3 16.92 2.95
-7 -6 -4 15.66 2.57
7 -6 4 17.71 2.43
7 -6 4 23.07 3.3
7 -6 5 3.96 1.95
-7 -6 -5 3.35 1.56
7 -6 6 35.24 3.56
-7 -6 -6 40.47 3.85
7 -6 6 45.13 4.61
7 -6 7 25.7 3.15
7 -6 7 33.89 4.13
-7 -6 -7 24.42 3.17
7 -6 8 19.52 2.97
7 -6 8 16.43 2.93
7 -6 9 6 2
7 -6 10 6.48 2
7 -6 11 6.87 2.07
7 -6 12 1.64 1.73
7 -6 13 11.18 2.71
7 -6 14 5.4 2.34
7 -5 -18 1.47 2.32
-7 -5 18 4.05 2.27
7 -5 -17 1.16 2.06
-7 -5 17 5.01 2.23
7 -5 -16 16.33 3.41
-7 -5 16 15.83 3.26
7 -5 -15 5.22 2.23
-7 -5 15 8.61 2.54
7 -5 -14 16.65 3.35
-7 -5 14 17.45 3.12
7 -5 -13 10.36 2.71
-7 -5 13 6.69 2
7 -5 -12 22.75 3.75
-7 -5 12 23.81 3.45
7 -5 -11 16.59 3.21
-7 -5 11 15.55 2.92
7 -5 -10 18.39 3.3
-7 -5 10 17.08 2.99
7 -5 -9 17.96 3.15
-7 -5 9 10.23 2.4
7 -5 -8 5.9 2.03
-7 -5 8 4.44 1.82
7 -5 -7 20.28 3.21
-7 -5 7 13.72 2.59
-7 -5 6 26.47 3.47
7 -5 -6 24.25 3.43
-7 -5 5 31.9 3.66
7 -5 -5 31.9 3.74
-7 -5 4 3.43 1.61
7 -5 -4 2.76 1.63
7 -5 -4 2.35 1.05
-7 -5 3 17.33 2.62
7 -5 -3 18.73 2.76
7 -5 -3 17.86 2.55
-7 -5 2 51.02 4.34
7 -5 -2 45.16 4.12
7 -5 -2 41.96 3.97
-7 -5 1 65.08 4.75
7 -5 -1 71.55 5.1
7 -5 -1 69.49 5.05
7 -5 0 20.7 2.86
-7 -5 0 18.47 2.69
7 -5 0 19.77 2.82
-7 -5 -1 85.05 5.46
7 -5 1 88.59 5.38
7 -5 1 85.66 5.57
-7 -5 -2 30 3.27
7 -5 2 25.15 2.85
7 -5 2 26.59 3.18
7 -5 3 34.11 3.6
-7 -5 -3 39.07 3.7
7 -5 3 35.35 3.45
7 -5 4 11.69 2.21
7 -5 4 9.17 1.94
7 -5 4 10.97 1.97
-7 -5 -4 8.68 1.98
7 -5 5 23.2 2.96
7 -5 5 27.81 2.86
-7 -5 -5 30.26 3.19
7 -5 5 31.15 3.69
7 -5 6 29.97 3.37
7 -5 6 28.34 2.83
-7 -5 -6 32.21 3.3
7 -5 6 36.92 3.98
7 -5 7 27.97 3.33
7 -5 7 24.47 2.67
-7 -5 -7 26.12 3.07
7 -5 8 76.04 5.54
-7 -5 -8 58.33 4.36
7 -5 9 7.43 2.04
-7 -5 -9 5.96 1.73
7 -5 10 10.53 2.49
7 -5 11 16.99 2.9
7 -5 12 18.45 3.33
7 -5 13 5.74 2.11
7 -5 14 3.96 2.2
7 -5 15 8.3 2.65
7 -5 16 3.39 2.09
7 -5 17 3.41 2.18
7 -4 -19 1.39 2.54
7 -4 -18 1.47 2.68
-7 -4 18 7.28 2.42
7 -4 -17 4.65 3.17
-7 -4 17 10.22 2.61
7 -4 -16 11.52 2.8
-7 -4 16 9.93 2.48
7 -4 -15 9.04 2.51
-7 -4 15 6.89 2.14
7 -4 -14 19.53 3.26
-7 -4 14 25.16 3.48
7 -4 -13 5.6 2.26
-7 -4 13 3.82 1.8
7 -4 -12 18.02 3.36
-7 -4 12 12.23 2.45
7 -4 -11 21.83 3.45
-7 -4 11 19.47 3.04
-7 -4 10 29.01 3.44
7 -4 -10 35.43 4.28
-7 -4 9 12.96 2.44
7 -4 -9 9.01 2.31
-7 -4 8 13.88 2.56
7 -4 -8 17.23 3.02
-7 -4 7 5.87 1.75
7 -4 -7 9.72 2.55
-7 -4 6 11.58 2.22
7 -4 -6 14.83 2.6
-7 -4 5 26.84 3.25
7 -4 -5 21.32 3
-7 -4 4 79.99 5.33
7 -4 -4 87.34 5.75
7 -4 -4 74.41 4.92
-7 -4 3 23.09 2.98
7 -4 -3 23.98 3.12
7 -4 -3 17.93 2.57
-7 -4 2 48.36 4.13
7 -4 -2 50.73 4.35
7 -4 -2 45.55 3.87
7 -4 -1 8.61 1.84
-7 -4 1 10.44 1.98
7 -4 -1 8.86 1.9
7 -4 0 49.05 3.97
-7 -4 0 51.05 4.1
7 -4 0 46.36 3.77
7 -4 1 7.8 1.8
-7 -4 -1 6.9 1.63
7 -4 1 5.41 1.57
7 -4 2 4.06 1.31
-7 -4 -2 4.32 1.56
7 -4 2 0.67 0.96
7 -4 3 78.13 5
7 -4 3 76.64 4.72
-7 -4 -3 78.73 4.98
7 -4 3 88.63 5.34
7 -4 4 15.12 2.32
7 -4 4 13.17 2.05
-7 -4 -4 13.99 2.26
7 -4 4 14 2.35
7 -4 5 32.75 3.5
7 -4 5 34.54 3.21
-7 -4 -5 37.17 3.4
7 -4 5 41.21 3.81
7 -4 6 6.29 1.76
7 -4 6 4.42 1.29
-7 -4 -6 4.74 1.37
7 -4 7 3.72 1.63
7 -4 7 0.44 0.77
-7 -4 -7 2.48 1.21
7 -4 8 34.2 3.71
7 -4 8 28.12 2.78
-7 -4 -8 32.63 3.13
7 -4 9 9.6 2.28
7 -4 9 7.15 1.61
-7 -4 -9 7.59 1.7
7 -4 10 3.61 1.86
-7 -4 -10 1.78 1.09
7 -4 11 40.16 4.42
7 -4 12 8.09 2.19
7 -4 13 13.52 3.03
7 -4 14 49.71 5.21
7 -4 15 3.83 1.89
7 -4 16 1.71 1.77
7 -4 17 8.68 2.97
7 -4 18 5.22 2.35
7 -3 -20 1.59 2.09
7 -3 -19 3.35 2.58
7 -3 -18 1.46 2.21
7 -3 -17 9.4 3.38
-7 -3 17 12.71 2.54
7 -3 -16 10.15 2.45
-7 -3 16 8.52 2.22
-7 -3 15 8.71 2.19
7 -3 -15 7.01 2.09
7 -3 -14 11.03 2.66
-7 -3 14 13.02 2.65
-7 -3 13 43.21 4.24
7 -3 -13 40.07 4.59
7 -3 -12 21.8 3.51
-7 -3 12 23.3 3.07
-7 -3 11 113.45 6.69
7 -3 -11 107.66 7.02
-7 -3 10 30.14 3.37
7 -3 -10 26.09 3.49
-7 -3 9 46.64 4.15
7 -3 -9 57.49 4.84
-7 -3 8 25.72 3.08
7 -3 -8 21.08 3.09
7 -3 -7 0.27 0.98
-7 -3 7 1.18 0.77
7 -3 -6 19.02 2.85
-7 -3 6 15.14 2.47
7 -3 -5 6 1.76
-7 -3 5 1.51 1.02
-7 -3 4 32.32 3.27
7 -3 -4 31.37 3.36
7 -3 -3 82.93 5.32
-7 -3 3 79.31 5.06
7 -3 -3 74.53 4.65
7 -3 -2 5.69 1.53
-7 -3 2 6.92 1.68
7 -3 -2 10.77 1.93
7 -3 -1 92.35 5.33
-7 -3 1 99.22 5.28
7 -3 -1 97.23 5.16
7 -3 0 42.35 3.63
-7 -3 0 35.99 3.27
7 -3 0 38.51 3.26
7 -3 1 0.39 0.75
7 -3 1 0.28 0.65
7 -3 2 32.04 3.16
7 -3 2 31.32 3.11
-7 -3 -2 34.8 3.16
7 -3 2 33.32 3.08
7 -3 3 15.79 2.27
7 -3 3 16.29 2.36
-7 -3 -3 14.93 2.11
7 -3 3 16.9 2.25
7 -3 4 25.93 3.09
7 -3 4 25.04 2.83
-7 -3 -4 27.09 2.84
7 -3 4 24.15 2.65
7 -3 5 8.44 1.87
7 -3 5 10.72 2.18
-7 -3 -5 8.99 1.69
7 -3 6 7.75 1.67
7 -3 6 12.17 2.38
-7 -3 -6 9.27 1.71
7 -3 7 20.88 2.54
7 -3 7 20.26 2.92
-7 -3 -7 19.47 2.42
7 -3 8 85.95 5.91
7 -3 8 81.73 4.89
-7 -3 -8 87.36 4.92
7 -3 9 5.05 1.46
7 -3 9 4.95 1.93
-7 -3 -9 7.36 1.7
7 -3 10 60.53 5.16
7 -3 10 54.21 4.06
-7 -3 -10 60.73 4.15
7 -3 11 65.73 5.62
7 -3 11 56.83 4.14
-7 -3 -11 62.07 4.2
7 -3 12 44.8 4.77
7 -3 12 35.12 3.24
-7 -3 -12 39.77 3.35
7 -3 13 60.09 5.58
7 -3 14 9.06 2.68
7 -3 15 17.6 3.39
7 -3 16 7.88 2.73
7 -3 17 2.83 2.33
7 -3 18 11.14 3.13
7 -2 -20 2.04 2.43
7 -2 -19 1.78 2.1
7 -2 -18 1.57 2.17
7 -2 -17 2.78 2.5
7 -2 -16 6.3 2.01
-7 -2 16 1.6 1.32
7 -2 -15 22.92 3.35
-7 -2 15 19.03 2.86
-7 -2 14 66 4.99
7 -2 -14 70.48 5.71
7 -2 -13 8.68 2.34
-7 -2 13 5.15 1.78
-7 -2 12 67.25 4.94
7 -2 -12 63.41 5.17
-7 -2 11 9.89 2.06
7 -2 -11 9.7 2.21
-7 -2 10 5.95 1.69
7 -2 -10 8.87 1.99
7 -2 -9 12.01 2.39
-7 -2 9 6.95 1.66
-7 -2 8 35.23 3.37
7 -2 -8 36.38 3.67
7 -2 -7 2.86 1.66
-7 -2 7 1.77 0.99
7 -2 -6 14.1 2.33
-7 -2 6 17.97 2.41
7 -2 -5 57.22 4.5
-7 -2 5 54.32 3.92
7 -2 -4 25.92 3.04
-7 -2 4 19.07 2.45
7 -2 -3 23.83 2.87
-7 -2 3 25.94 2.76
7 -2 -3 23.97 2.49
7 -2 -2 109.74 5.94
-7 -2 2 105.76 5.35
7 -2 -2 111.45 5.15
7 -2 -1 5.96 1.52
7 -2 -1 8.87 1.54
-7 -2 1 5.32 1.45
7 -2 0 41.11 3.65
-7 -2 0 41.63 3.37
7 -2 0 37.12 3.02
7 -2 1 31.59 3.11
-7 -2 -1 32.35 3.03
7 -2 1 38.09 3
7 -2 2 28.71 3.09
7 -2 2 25.51 2.9
-7 -2 -2 28.78 2.79
7 -2 2 28.46 2.66
7 -2 3 7.02 1.7
7 -2 3 6.93 1.74
-7 -2 -3 7.68 1.62
7 -2 3 6.9 1.34
7 -2 4 42.35 3.26
7 -2 4 42.2 3.85
7 -2 4 46.58 3.76
-7 -2 -4 43.69 3.44
7 -2 5 13.79 2.27
7 -2 5 13.17 2.24
-7 -2 -5 16.8 2.21
7 -2 6 2.95 1.34
7 -2 6 3.27 1.51
-7 -2 -6 3 1.26
7 -2 7 149.08 7.43
7 -2 7 141.81 6.77
-7 -2 -7 168.57 6.73
7 -2 8 5.54 1.91
-7 -2 -8 4.78 1.52
7 -2 8 4.18 1.43
7 -2 9 107.56 6.57
7 -2 9 106.69 5.85
-7 -2 -9 107.97 5.46
7 -2 10 74.11 5.66
7 -2 10 65.49 4.59
-7 -2 -10 80.61 4.78
7 -2 11 14.01 2.72
-7 -2 -11 14.71 2.17
7 -2 11 13.9 2.39
7 -2 12 13.59 3
-7 -2 -12 14.28 2.21
7 -2 12 12.93 2.35
7 -2 13 16.26 3.13
-7 -2 -13 11.37 2.06
7 -2 13 9.83 2.04
7 -2 14 14.09 2.9
7 -2 14 10.22 2.15
7 -2 15 18.12 3.64
7 -2 16 11.9 3
7 -2 17 5.43 2.31
7 -2 18 6.98 2.63
7 -2 19 6.78 2.63
7 -1 -20 1.63 2.29
7 -1 -19 5.49 2.78
7 -1 -18 3.12 2.48
7 -1 -17 18.48 3.11
7 -1 -16 11.71 2.69
-7 -1 16 1.81 1.1
7 -1 -15 30.98 3.86
-7 -1 15 31.48 3.29
7 -1 -14 21.39 3.28
-7 -1 14 18.59 2.71
-7 -1 13 17.98 2.56
7 -1 -13 21.5 3.15
-7 -1 12 1.98 1.2
7 -1 -12 3.56 1.69
-7 -1 11 19.06 2.56
7 -1 -11 19.73 2.95
-7 -1 10 22.15 2.68
7 -1 -10 18.21 2.61
7 -1 -9 3.85 1.51
-7 -1 9 5.09 1.42
7 -1 -8 13.39 2.27
-7 -1 8 10.71 1.95
-7 -1 7 99.11 5.23
7 -1 -7 97.11 5.73
7 -1 -6 44.01 3.85
-7 -1 6 47.03 3.68
7 -1 -5 94.34 5.51
-7 -1 5 89.04 4.94
7 -1 -4 142.53 6.68
-7 -1 4 143.9 6.17
7 -1 -3 18.44 2.51
-7 -1 3 21.49 2.62
7 -1 -2 25.58 2.88
-7 -1 2 25.17 2.69
7 -1 -2 24.71 2.22
7 -1 -1 74.38 4.9
-7 -1 1 73.53 4.39
7 -1 -1 74.08 3.8
7 -1 0 209.47 8.05
-7 -1 0 220.15 7.48
7 -1 0 204.6 6.21
7 -1 1 56.62 4.15
7 -1 1 57.31 3.3
7 -1 2 11.56 2.15
7 -1 2 6.89 1.75
7 -1 2 6.81 1.21
7 -1 3 74.57 4.86
7 -1 3 69.6 4.8
7 -1 3 69.39 3.78
7 -1 4 76.68 5.01
7 -1 4 78.16 4.96
7 -1 4 84.52 4.17
7 -1 5 4.68 1.65
7 -1 5 6.13 1.75
7 -1 6 102.43 6.03
7 -1 6 102.06 5.93
7 -1 7 31.68 3.45
7 -1 7 34.34 3.54
7 -1 8 31.48 3.63
7 -1 9 6.31 1.58
7 -1 10 16.93 2.93
7 -1 11 3.12 1.86
7 -1 12 10.78 2.41
7 -1 13 9.49 2.57
7 -1 14 7.25 2.38
7 -1 15 6.8 2.67
7 -1 16 6.46 2.46
7 -1 17 12.91 3.02
7 -1 18 12 3.28
7 -1 19 10.21 3.17
7 0 -18 11.68 2.79
7 0 -17 3.97 1.86
7 0 -16 7.04 2.14
7 0 -15 17.39 2.86
-7 0 15 10.43 2.02
-7 0 14 14.77 2.33
7 0 -14 17.81 2.84
-7 0 13 5.27 1.58
7 0 -13 3.24 1.25
-7 0 12 11.81 2.15
7 0 -12 11.94 2.32
-7 0 11 31.69 3.14
7 0 -11 33.72 3.54
-7 0 10 26.02 2.95
7 0 -10 24.3 2.97
-7 0 9 39.17 3.27
7 0 -9 43.34 3.85
-7 0 8 29.42 2.92
7 0 -8 33.28 3.45
7 0 -7 26.56 3
-7 0 7 33.38 3.04
7 0 -6 0.05 0.86
-7 0 6 1.15 0.86
7 0 -5 46.47 3.93
-7 0 5 47.89 3.59
7 0 -4 9.68 1.98
-7 0 4 5.27 1.29
7 0 -3 326.65 10.1
-7 0 3 340.61 9.18
7 0 -2 79.27 5.03
7 0 -1 1.26 1.08
7 0 0 140.21 6.76
7 0 0 145.01 4.66
7 0 1 2.06 0.75
7 0 1 1.47 1.16
7 0 2 21.03 2.7
7 0 2 27.34 3.25
7 0 2 22.18 1.86
7 0 3 24.36 2.88
7 0 3 18.54 1.75
7 0 3 20.55 2.73
7 0 4 1.03 1.04
7 0 4 0.92 0.78
7 0 5 1.63 1.22
7 0 6 2.02 1.24
7 0 7 11.79 2.33
7 0 8 26.84 3.47
7 0 9 32.44 3.64
7 0 10 45.49 4.43
7 0 11 20.24 3.07
7 0 12 10.25 2.42
7 0 13 1.73 1.71
7 0 14 2.07 1.73
7 0 15 4.42 2.18
7 0 16 6.73 2.43
7 0 17 18.23 3.49
7 0 18 20.72 3.86
7 0 19 28.04 4.44
7 1 -17 18.63 2.81
7 1 -16 7.74 2.24
7 1 -15 26.44 3.31
7 1 -14 18.6 2.74
-7 1 13 16.96 2.37
7 1 -13 12.57 2.29
7 1 -12 3.95 1.41
-7 1 12 1.74 1.15
-7 1 11 24.23 2.64
7 1 -11 20.68 2.8
7 1 -10 29.7 3.32
-7 1 10 14.29 2.12
7 1 -9 9.33 2.03
-7 1 9 2.81 0.95
7 1 -8 10.53 2
-7 1 8 8.9 1.73
7 1 -7 95.3 5.46
-7 1 7 97.15 5.09
7 1 -6 44.3 3.66
-7 1 6 48.93 3.67
7 1 -5 81.81 5.02
7 1 -4 139.96 6.59
7 1 -3 20.13 2.64
7 1 -2 28.56 3.11
7 1 -1 78.8 5.04
7 1 0 220.89 8.6
7 1 1 70.06 4.95
7 1 2 10.19 1.99
7 1 2 9.94 1.15
7 1 3 71.5 4.77
7 1 3 71.59 2.85
7 1 4 75.09 5.04
7 1 4 72.84 2.98
7 1 5 3 0.83
7 1 5 3.59 1.22
7 1 6 96.08 5.81
7 1 7 31.15 3.51
7 1 8 31.35 3.59
7 1 9 9.46 2.14
7 1 10 13.26 2.55
7 1 11 1.6 1.28
7 1 12 10.78 2.46
7 1 13 7.9 2.34
7 1 14 4.52 2.16
7 1 15 3.72 1.69
7 1 16 7.22 2.58
7 1 17 7.53 2.66
7 1 18 16.93 3.61
7 1 19 8.7 2.99
7 2 -15 14.71 2.53
7 2 -14 56.96 4.29
7 2 -13 5.68 1.77
-7 2 12 59 3.91
7 2 -12 61.01 4.51
7 2 -11 13.32 2.31
-7 2 11 10.6 1.83
7 2 -10 8.84 1.88
-7 2 10 9.03 1.64
7 2 -9 8.46 1.84
-7 2 9 5.44 1.41
7 2 -8 35.96 3.42
-7 2 8 40.51 3.37
7 2 -7 2.46 1.43
-7 2 7 1.8 1.09
7 2 -6 14.17 2.21
7 2 -5 57.61 4.33
7 2 -4 21.8 2.82
7 2 -3 29.13 3.28
7 2 -2 113.75 6.31
7 2 -1 9.6 2.15
7 2 3 6.23 1.73
7 2 4 42.7 3.76
7 2 5 16.24 2.49
7 2 6 4.45 1.69
7 2 7 146.88 7.21
7 2 8 2.12 1.18
7 2 9 105.27 6.39
7 2 10 70.42 5.36
7 2 11 15.11 2.83
7 2 12 15.71 2.98
7 2 13 12.67 2.55
7 2 14 16.53 3.02
7 2 15 16.55 3.11
7 2 16 11.98 2.92
7 2 17 4.39 2.15
7 2 18 5.69 2.36
7 2 19 6.09 2.59
7 3 -13 29.54 3.11
7 3 -12 21.79 2.82
-7 3 11 102.91 5.01
7 3 -11 99.67 5.49
-7 3 10 21.9 2.56
7 3 -10 23.16 2.87
-7 3 9 52.65 3.83
7 3 -9 48.22 4.03
7 3 -8 22.14 2.74
7 3 -7 2.68 1.32
7 3 -6 16.34 2.45
7 3 -5 2.94 1.41
7 3 -4 37.82 3.66
7 3 -3 67.82 5.09
7 3 -2 6.34 1.92
7 3 4 24.32 2.88
7 3 5 9.7 2.14
7 3 6 6.03 1.68
7 3 7 18.03 2.81
7 3 8 91.63 5.84
7 3 9 5.18 1.9
7 3 10 60.69 5.12
7 3 11 70.7 5.61
7 3 12 43.82 4.64
7 3 13 63.47 5.52
7 3 14 7.38 2.49
7 3 15 17.46 3.27
7 3 16 3.99 2.15
7 3 17 3.41 2.05
7 3 18 7.37 2.55
7 3 19 5.79 2.55
-7 4 10 24.68 2.49
7 4 -10 26.12 3.01
7 4 -9 11.05 2.16
7 4 -8 15.59 2.42
7 4 -7 10.45 2.07
7 4 -6 10.43 2.01
7 4 -5 20.33 2.92
7 4 -4 77.15 5.37
7 4 -3 22.81 2.98
7 4 6 8.77 2.08
7 4 7 4.73 1.62
7 4 8 31.19 3.44
7 4 9 7.43 2.17
7 4 10 1.93 1.37
7 4 11 40.12 4.23
7 4 12 7.1 2.06
7 4 13 15.05 2.87
7 4 14 48.54 4.92
7 4 15 2.27 2.11
7 4 16 2.82 2.03
7 4 17 4.68 2.35
7 4 18 3.56 2.36
7 5 -8 5.31 1.69
7 5 -7 13.72 2.52
7 5 -6 20.44 2.91
7 5 -5 31.78 3.66
7 5 -4 3.26 1.73
7 5 -3 15.22 2.86
7 5 9 5.53 1.8
7 5 10 11.07 2.35
7 5 11 13.91 2.6
7 5 12 13.54 2.65
7 5 13 4.8 1.87
7 6 -5 10.65 2.51
7 6 -4 6.21 2.3
7 6 -3 5.16 2.22
7 7 -3 3.65 1.91
8 -8 -9 5.46 2.36
8 -8 -8 6.74 2.46
-8 -8 8 2.87 1.97
8 -8 -7 5.67 2.36
-8 -8 7 5.04 2.18
8 -8 -6 6.96 2.33
-8 -8 6 3.36 1.77
8 -8 -5 4.44 1.97
-8 -8 5 5.42 2.21
8 -8 -4 10.89 2.69
-8 -8 4 9.44 2.61
8 -8 -3 12.79 2.77
-8 -8 3 12.6 2.84
8 -8 -2 7.19 2.27
-8 -8 2 9.35 2.45
8 -8 -2 12.35 2.94
-8 -8 1 2.59 1.58
8 -8 -1 4.11 1.94
-8 -8 0 3.99 2.03
8 -8 0 3.11 1.72
-8 -8 -1 9.02 2.55
8 -8 1 9.29 2.66
-8 -8 -2 7.35 2.42
8 -8 2 6.44 2.51
-8 -8 -3 2.77 1.81
8 -8 3 4.11 2.33
8 -8 4 7.76 2.73
8 -8 5 9.3 2.73
8 -8 6 8.8 2.75
8 -8 7 7.38 2.55
8 -7 -12 9.41 2.92
-8 -7 12 10.51 2.99
8 -7 -11 6.79 2.71
-8 -7 11 4.7 2.21
8 -7 -10 3.85 2.18
-8 -7 10 3.72 1.98
8 -7 -9 7.88 2.41
-8 -7 9 3.3 1.83
8 -7 -8 12.77 3
-8 -7 8 11.3 2.75
-8 -7 7 15.94 3.29
8 -7 -7 9.6 2.5
8 -7 -6 18.49 3.55
-8 -7 6 17.92 3.26
8 -7 -5 10.66 2.67
-8 -7 5 15.02 3.09
8 -7 -4 21.75 3.44
-8 -7 4 19.2 3.35
8 -7 -3 12.72 2.84
-8 -7 3 12.57 2.87
8 -7 -3 8.51 2.35
-8 -7 2 34.71 4.27
8 -7 -2 39.76 4.4
8 -7 -2 36.26 4.52
8 -7 -1 4.27 1.88
-8 -7 1 3.4 1.73
8 -7 -1 1.64 1.4
8 -7 0 5.3 1.95
-8 -7 0 4.84 1.86
8 -7 0 7.31 2.39
8 -7 1 2.38 1.71
-8 -7 -1 2.47 1.58
8 -7 1 5.46 2.02
-8 -7 -2 0.75 1.16
8 -7 2 5.01 2.09
-8 -7 -3 9.45 2.49
8 -7 3 9.13 2.73
-8 -7 -4 10.9 2.54
8 -7 4 12.33 3.03
-8 -7 -5 3.45 1.85
8 -7 5 -0.01 1.1
8 -7 6 4.39 2.05
8 -7 7 12.75 2.95
8 -7 8 4.4 2.14
8 -7 9 9.87 2.6
8 -7 10 6.2 2.48
8 -6 -14 7.53 2.68
-8 -6 14 3.92 2.14
8 -6 -13 21.27 3.88
-8 -6 13 20.89 3.63
8 -6 -12 3.41 2.27
-8 -6 12 5.23 2.28
8 -6 -11 2.87 1.74
-8 -6 11 6.53 2.23
8 -6 -10 15.42 3.2
-8 -6 10 13.16 2.95
8 -6 -9 7.12 2.48
-8 -6 9 7.38 2.3
8 -6 -8 18.91 3.51
-8 -6 8 20.52 3.46
8 -6 -7 6.84 2.48
-8 -6 7 1.25 1.43
8 -6 -6 12.5 2.88
-8 -6 6 8.73 2.44
-8 -6 5 36.34 4.38
8 -6 -5 38.21 4.41
8 -6 -4 7.59 2.34
-8 -6 4 7.88 2.28
-8 -6 3 18.5 3.15
8 -6 -3 17.89 3.06
8 -6 -3 19.25 3.16
-8 -6 2 17.71 2.97
8 -6 -2 14.72 2.83
8 -6 -2 13.76 2.63
-8 -6 1 4.54 1.74
8 -6 -1 8.21 2.28
8 -6 -1 8.7 2.42
-8 -6 0 2.76 1.7
8 -6 0 1.07 1.18
8 -6 0 2.1 1.53
-8 -6 -1 6.72 2.09
8 -6 1 6.62 1.91
8 -6 1 11.18 2.47
-8 -6 -2 2.35 1.44
8 -6 2 4.73 1.76
8 -6 2 3.67 1.71
8 -6 3 10.44 2.17
-8 -6 -3 10.06 2.17
8 -6 3 12.82 2.84
8 -6 4 10.87 2.18
-8 -6 -4 12.23 2.48
8 -6 4 11.5 2.64
-8 -6 -5 5.4 1.91
8 -6 5 5.01 2.06
-8 -6 -6 11.83 2.37
8 -6 6 14.85 2.94
8 -6 7 10.91 2.32
-8 -6 -7 9.11 2.2
8 -6 7 15.38 2.96
8 -6 8 22.16 3.26
8 -6 8 27.98 3.87
8 -6 9 10.5 2.49
8 -6 9 10.98 2.78
8 -6 10 8.78 2.55
8 -6 10 6.39 2.42
8 -6 11 5.5 2.16
8 -6 11 5.3 2.34
-8 -5 17 4.45 2.22
8 -5 -16 0.96 2.07
-8 -5 16 4.54 2.28
8 -5 -15 11.73 3.22
-8 -5 15 9.89 2.77
8 -5 -14 6.69 2.61
-8 -5 14 4.12 1.86
8 -5 -13 2.62 1.9
-8 -5 13 4.81 2.21
8 -5 -12 8.08 2.75
-8 -5 12 10.47 2.75
8 -5 -11 16.55 3.4
-8 -5 11 10.5 2.42
8 -5 -10 3.01 2.01
-8 -5 10 6.98 1.89
8 -5 -9 17.16 3.26
-8 -5 9 19.85 3.46
8 -5 -8 2.71 1.88
-8 -5 8 5.84 2.17
-8 -5 7 9.29 2.41
8 -5 -7 13.91 2.92
-8 -5 6 16.31 2.96
8 -5 -6 13.39 2.77
-8 -5 5 4.07 1.71
8 -5 -5 3.1 1.75
-8 -5 4 37.33 4.09
8 -5 -4 38.89 4.03
8 -5 -3 14.57 2.72
-8 -5 3 13.5 2.59
8 -5 -3 16.6 2.84
8 -5 -2 7 2.26
-8 -5 2 2.61 1.53
8 -5 -2 2.64 1.66
8 -5 -1 4.97 1.84
-8 -5 1 8.81 2.37
8 -5 -1 5.88 1.71
8 -5 0 10.57 2.1
-8 -5 0 11.76 2.35
8 -5 0 9.68 2.14
8 -5 1 5.83 2
-8 -5 -1 6.37 1.84
8 -5 1 5.45 1.81
-8 -5 -2 38.68 3.96
8 -5 2 40.12 3.89
8 -5 2 32.7 3.77
8 -5 3 12.68 2.27
-8 -5 -3 12.2 2.34
8 -5 3 12.01 2.5
8 -5 4 7.94 1.92
-8 -5 -4 9.92 2.19
8 -5 4 6.42 1.81
8 -5 5 14.88 2.71
8 -5 5 15.37 2.41
-8 -5 -5 16.01 2.61
8 -5 5 17.48 2.87
8 -5 6 12.68 2.52
8 -5 6 8.79 1.89
-8 -5 -6 10.44 2.24
8 -5 6 11.47 2.67
8 -5 7 19.55 3.07
8 -5 7 15.07 2.4
-8 -5 -7 14.75 2.55
8 -5 7 16.23 2.94
8 -5 8 20.37 3.3
-8 -5 -8 12.97 2.37
8 -5 8 13.19 2.54
8 -5 9 3.61 2.07
-8 -5 -9 3.15 1.42
8 -5 10 5.64 2.19
8 -5 11 3.51 1.69
8 -5 12 8.53 2.47
8 -5 13 7.95 2.61
8 -5 14 2.98 2.19
8 -5 15 4.11 2.19
8 -4 -18 3.13 2.96
8 -4 -17 1.87 2.68
-8 -4 17 7.24 2.49
8 -4 -16 12.83 3.89
-8 -4 16 17.41 3.17
8 -4 -15 7.06 2.53
-8 -4 15 2.54 1.56
8 -4 -14 5.55 2.26
-8 -4 14 2.5 1.48
8 -4 -13 10.28 2.86
-8 -4 13 8.62 2.39
8 -4 -12 3.91 2.15
-8 -4 12 5.48 2.14
8 -4 -11 2.77 1.77
-8 -4 11 3.16 1.72
8 -4 -10 13.08 2.82
-8 -4 10 8.77 2.34
-8 -4 9 7.84 2.03
8 -4 -9 8.19 2.7
-8 -4 8 7.21 1.97
8 -4 -8 10.13 2.58
-8 -4 7 4.53 1.89
8 -4 -7 2.85 1.8
8 -4 -6 13.09 2.68
-8 -4 6 10.4 2.39
8 -4 -5 5.16 1.77
-8 -4 5 4.73 1.58
8 -4 -4 5.66 1.96
-8 -4 4 8.21 2.05
8 -4 -3 8.28 2.08
-8 -4 3 2.98 1.46
8 -4 -3 6.94 1.68
-8 -4 2 26.51 3.33
8 -4 -2 32.29 3.63
8 -4 -2 27.23 3.23
8 -4 -1 11.4 2.3
-8 -4 1 12.19 2.4
8 -4 -1 13.48 2.32
8 -4 0 6.13 1.88
-8 -4 0 4.84 1.8
8 -4 0 7.94 1.71
8 -4 1 61.26 4.79
-8 -4 -1 65.03 4.85
8 -4 1 61.78 4.84
8 -4 2 29.58 3.38
-8 -4 -2 22.4 3.02
8 -4 2 26.17 3.18
8 -4 3 66.36 4.78
-8 -4 -3 80 5.52
8 -4 3 71.34 5.13
8 -4 4 42.77 4.18
8 -4 4 51.93 4.22
-8 -4 -4 52.14 4.42
8 -4 4 48.15 4.25
8 -4 5 28.41 3.49
8 -4 5 27.56 3.1
-8 -4 -5 28.87 3.25
8 -4 5 26.58 3.25
8 -4 6 7.86 1.98
8 -4 6 8.59 2.03
-8 -4 -6 5.6 1.75
8 -4 6 4.77 1.71
8 -4 7 22.28 3.32
8 -4 7 20.74 2.73
-8 -4 -7 18.41 2.65
8 -4 7 19.95 2.96
8 -4 8 24.23 3.46
8 -4 8 18.81 2.57
-8 -4 -8 21.46 2.8
8 -4 9 6.09 2.05
8 -4 9 5.29 1.61
-8 -4 -9 6.67 1.84
8 -4 10 7.39 2.53
-8 -4 -10 5.34 1.65
8 -4 11 11.7 2.77
8 -4 12 3.69 1.9
8 -4 13 4.46 1.96
8 -4 14 4.19 2.43
8 -4 15 6.5 2.77
8 -4 16 3.11 2.13
8 -3 -19 1.08 2.31
8 -3 -18 0.37 2
8 -3 -17 4.04 2.29
-8 -3 17 4.28 1.85
8 -3 -16 3.9 2.38
-8 -3 16 3.11 1.85
8 -3 -15 10.47 2.73
-8 -3 15 8.84 2.37
8 -3 -14 10.96 2.88
-8 -3 14 11.79 2.68
8 -3 -13 13.38 3.03
-8 -3 13 10.9 2.48
8 -3 -12 7.1 2.37
-8 -3 12 3.3 1.66
-8 -3 11 13.24 2.56
8 -3 -11 18.76 3.21
-8 -3 10 22.2 3.05
8 -3 -10 20.27 3.25
-8 -3 9 9.96 2.39
8 -3 -9 7.63 2.29
8 -3 -8 5.25 2.08
-8 -3 8 3.89 1.73
8 -3 -7 7.76 2.22
-8 -3 7 10.74 2.28
8 -3 -6 8.89 2.32
-8 -3 6 9.22 2.02
8 -3 -5 14.4 2.66
-8 -3 5 16.68 2.65
8 -3 -4 16.22 2.71
-8 -3 4 12.93 2.31
-8 -3 3 20.42 2.92
8 -3 -3 23.02 3.04
8 -3 -3 19 2.63
8 -3 -2 6.43 1.74
-8 -3 2 4.57 1.35
8 -3 -1 3.53 1.54
-8 -3 1 2.63 1.4
8 -3 -1 4.98 1.42
8 -3 0 32.96 3.46
-8 -3 0 34.47 3.45
8 -3 0 32 3.11
8 -3 1 28.55 3.3
-8 -3 -1 24.05 2.9
8 -3 1 26.58 2.96
8 -3 2 21.82 2.92
-8 -3 -2 21.73 2.78
8 -3 2 22.18 2.72
8 -3 3 16.84 2.58
8 -3 3 15.29 2.56
8 -3 3 15.84 2.39
-8 -3 -3 17.12 2.43
8 -3 4 6.28 1.82
8 -3 4 5.52 1.81
-8 -3 -4 4.9 1.46
8 -3 4 4.55 1.59
8 -3 5 8.29 1.89
8 -3 5 5.81 1.64
-8 -3 -5 8.3 1.67
8 -3 5 7.02 1.79
8 -3 6 45.25 4.44
8 -3 6 42.53 3.88
-8 -3 -6 43.28 3.83
8 -3 6 46.62 3.9
8 -3 7 1.26 1.16
8 -3 7 4.28 1.59
-8 -3 -7 3.07 1.23
8 -3 8 4.96 1.68
8 -3 8 4.37 1.82
-8 -3 -8 4.04 1.33
8 -3 9 2.45 1.47
8 -3 9 3.95 1.73
-8 -3 -9 7.21 1.71
8 -3 10 7.66 1.8
8 -3 10 7.76 2.43
-8 -3 -10 8.95 1.93
8 -3 11 3.38 1.49
8 -3 11 8.53 2.46
-8 -3 -11 7.82 1.88
8 -3 12 23.65 3.86
8 -3 13 13.39 2.97
8 -3 14 7.49 2.57
8 -3 15 8.72 2.71
8 -3 16 1.92 1.66
8 -3 17 5.87 2.69
8 -2 -19 2.66 2.53
8 -2 -18 1.03 2.25
8 -2 -17 2.91 2.29
8 -2 -16 15.57 3.79
-8 -2 16 19.93 3.13
8 -2 -15 5.8 2.63
-8 -2 15 4.71 1.94
8 -2 -14 1.71 1.47
-8 -2 14 0.77 1.37
-8 -2 13 5.76 1.8
8 -2 -13 7.31 2.27
-8 -2 12 14.23 2.62
8 -2 -12 15.35 2.74
-8 -2 11 33.24 3.71
8 -2 -11 37.03 4.18
8 -2 -10 7.48 2.26
-8 -2 10 8.83 2.22
-8 -2 9 36.92 3.86
8 -2 -9 36.51 4.12
-8 -2 8 56.04 4.65
8 -2 -8 56.1 5
8 -2 -7 14.41 2.86
-8 -2 7 8.12 1.94
-8 -2 6 58.18 4.64
8 -2 -6 60.24 5.02
8 -2 -5 28.86 3.51
-8 -2 5 23.88 2.98
8 -2 -4 29.01 3.46
-8 -2 4 31.13 3.25
8 -2 -3 3.46 1.62
-8 -2 3 4.16 1.31
8 -2 -2 3.98 1.41
-8 -2 2 2.93 1.26
8 -2 -2 3.57 1.17
8 -2 -1 19.89 2.76
-8 -2 1 18.48 2.76
8 -2 -1 20.69 2.47
8 -2 0 16.95 2.62
-8 -2 0 13.96 2.24
8 -2 0 17.01 2.2
8 -2 1 15.78 2.43
-8 -2 -1 17.02 2.44
8 -2 1 19.87 2.41
8 -2 2 17.81 2.7
-8 -2 -2 19.1 2.59
8 -2 2 17.93 2.3
8 -2 3 13.14 2.52
8 -2 3 7.21 1.76
-8 -2 -3 7.29 1.83
8 -2 3 9.47 1.65
8 -2 4 7.54 2.12
8 -2 4 4.61 1.66
-8 -2 -4 9.24 1.87
8 -2 4 6.05 1.53
8 -2 5 34.69 3.69
8 -2 5 26.43 3.08
-8 -2 -5 32.33 3.38
8 -2 5 22.72 2.61
8 -2 6 3.47 1.47
8 -2 6 4.94 1.87
-8 -2 -6 6.29 1.68
8 -2 6 2.62 1.34
8 -2 7 5.23 1.76
8 -2 7 3.04 1.51
-8 -2 -7 6.43 1.73
8 -2 8 12.41 2.44
8 -2 8 9.84 2.48
-8 -2 -8 12.85 2.22
8 -2 9 42.49 4.68
8 -2 9 37.85 3.91
-8 -2 -9 46 4.01
8 -2 10 2.82 1.63
-8 -2 -10 4.31 1.47
8 -2 10 3.61 1.58
8 -2 11 1.46 1.56
-8 -2 -11 7.02 1.9
8 -2 11 4.94 1.8
8 -2 12 19.67 3.56
-8 -2 -12 21.92 2.97
8 -2 12 22.62 3.17
8 -2 13 12.98 3.11
8 -2 13 10.91 2.48
8 -2 14 4.29 2
8 -2 15 29.64 4.32
8 -2 16 16.05 3.37
8 -2 17 6.85 2.59
8 -2 18 1.96 2.05
8 -1 -19 3.79 2.76
8 -1 -18 1.12 2.22
8 -1 -17 15.55 3.56
8 -1 -16 6.17 3.49
8 -1 -15 18.72 3.36
-8 -1 15 12.63 2.45
-8 -1 14 17.05 2.88
8 -1 -14 15.86 2.89
-8 -1 13 3.28 1.62
8 -1 -13 6.54 2.24
-8 -1 12 24 3.18
8 -1 -12 32.33 3.94
8 -1 -11 13.23 2.7
-8 -1 11 11.73 2.46
8 -1 -10 7.67 2.23
-8 -1 10 4.39 1.38
8 -1 -9 12.33 2.38
-8 -1 9 14.33 2.45
8 -1 -8 22.52 3.16
-8 -1 8 18.19 2.58
-8 -1 7 88.39 5.47
8 -1 -7 92.7 6.09
8 -1 -6 12.97 2.47
-8 -1 6 12.03 2.24
8 -1 -5 63.7 4.91
-8 -1 5 69.16 4.7
8 -1 -4 42.55 4.03
-8 -1 4 43.32 3.84
8 -1 -3 15.82 2.39
-8 -1 3 16.04 2.52
8 -1 -2 44.46 4.06
-8 -1 2 43.93 3.76
8 -1 -1 8.46 2
-8 -1 1 9.08 1.82
8 -1 -1 7.55 1.43
8 -1 0 9.89 2.08
-8 -1 0 13.7 2.38
8 -1 0 8.4 1.57
8 -1 1 13.91 2.48
-8 -1 -1 13.84 2.23
8 -1 1 9.63 1.5
8 -1 2 7.91 1.94
-8 -1 -2 7.87 2.01
8 -1 2 5.94 1.32
8 -1 3 22.42 3.11
8 -1 3 28.92 3.34
8 -1 3 23.47 2.41
8 -1 4 29.51 3.37
8 -1 4 30.75 3.51
8 -1 4 28.4 2.55
8 -1 5 28.53 3.44
8 -1 5 31.03 3.52
8 -1 5 27.97 2.62
8 -1 6 69.16 5.42
8 -1 6 75.54 5.36
8 -1 6 66.01 4.08
8 -1 7 7.93 2.08
8 -1 7 9.3 2.17
8 -1 8 21.65 3.29
8 -1 8 20.51 2.9
8 -1 9 18.01 3.09
8 -1 9 23.98 3.19
8 -1 10 10.29 2.41
8 -1 10 7.54 2.11
8 -1 11 2.58 1.73
8 -1 11 3.99 1.79
8 -1 12 3.69 2.19
8 -1 12 3.14 1.68
8 -1 13 4.38 2.1
8 -1 13 2.03 1.47
8 -1 14 11.27 2.71
-8 -1 -14 11.18 2.31
8 -1 14 12.55 2.59
8 -1 15 11.47 3.02
8 -1 15 12.8 2.76
8 -1 16 7.48 2.67
8 -1 17 4.62 2.18
8 -1 18 9.35 2.83
8 0 -18 4.74 3.08
8 0 -17 1.8 2.61
8 0 -16 14.8 3.39
8 0 -15 14.84 2.95
-8 0 14 7.88 2
8 0 -14 7.7 2.29
-8 0 13 2.89 1.28
8 0 -13 8.81 2.31
-8 0 12 9.24 2.1
8 0 -12 10.25 2.32
8 0 -11 11.57 2.52
-8 0 11 9.9 2.11
8 0 -10 14.35 2.62
-8 0 10 17.64 2.71
8 0 -9 19.64 3.05
-8 0 9 12.75 2.23
8 0 -8 1.05 1.17
-8 0 8 0.77 0.69
8 0 -7 30.96 3.48
-8 0 7 32.78 3.22
8 0 -6 30.96 3.48
-8 0 6 23.99 2.85
8 0 -5 114.64 6.4
-8 0 5 108.05 5.85
8 0 -4 50.11 4.4
-8 0 4 48.74 4.01
8 0 -3 30.68 3.42
-8 0 3 29.61 3.14
8 0 -2 2.34 1.54
-8 0 2 3.4 1.33
8 0 -1 47.28 4.17
8 0 0 28.53 3.35
8 0 1 57.83 4.67
8 0 1 51.36 3
8 0 2 1.4 0.8
8 0 2 3.44 1.56
8 0 3 4.56 1.67
8 0 3 0.61 0.62
8 0 3 2.98 1.43
8 0 4 25.08 3.22
8 0 4 19.34 1.98
8 0 4 25.88 3.37
8 0 5 38.77 3.97
8 0 5 47.97 4.6
8 0 5 38.74 2.82
8 0 6 0.06 0.96
8 0 6 3.99 1.84
8 0 6 2.24 1
8 0 7 6.5 1.86
8 0 8 13.47 2.58
8 0 9 7.24 2.24
8 0 10 10.53 2.35
8 0 11 11.47 2.65
8 0 12 3.61 1.83
8 0 13 2.82 1.55
8 0 14 4.29 1.96
8 0 15 1.24 1.46
8 0 16 5.41 2.42
8 0 17 4.75 2.52
8 0 18 8.86 3
8 1 -16 25.06 3.59
8 1 -15 12.71 2.66
8 1 -14 18.86 3.03
-8 1 13 4.83 1.59
8 1 -13 3.43 1.7
-8 1 12 23.44 3
8 1 -12 26.32 3.44
8 1 -11 15.37 2.7
-8 1 11 13.89 2.35
8 1 -10 6.2 1.92
-8 1 10 5.67 1.55
8 1 -9 11.83 2.49
-8 1 9 9.78 1.93
-8 1 8 19.18 2.66
8 1 -8 17.12 2.77
8 1 -7 91.44 5.86
-8 1 7 89.95 5.43
8 1 -6 9.87 2.11
-8 1 6 10.81 2.06
8 1 -5 68.71 5.1
-8 1 5 70.13 4.69
8 1 -4 46.15 4.16
8 1 -3 15.8 2.46
8 1 -2 41.44 4.04
8 1 -1 7.32 2.06
8 1 0 12.99 2.53
8 1 1 14.01 2.58
8 1 2 10.51 2.5
8 1 3 28.79 3.71
8 1 3 21.15 2.8
8 1 3 21.5 1.65
8 1 4 28.28 3.53
8 1 4 27.25 1.83
8 1 5 27.39 3.37
8 1 6 66.78 5.23
8 1 7 9.66 2.28
8 1 8 21.33 3.27
8 1 9 22.05 3.39
8 1 10 7.96 2.34
8 1 11 1.33 1.97
8 1 12 2.74 1.74
8 1 13 3.61 2.04
8 1 14 9.55 2.74
8 1 15 12.52 3
8 1 16 5.26 2.55
8 1 17 6.3 2.18
8 1 18 10.91 3.13
8 2 -14 3.44 1.6
8 2 -13 4.2 1.71
8 2 -12 15.38 2.73
-8 2 12 11.57 2.08
-8 2 11 34.64 3.41
8 2 -11 35.84 3.8
8 2 -10 5.94 2
-8 2 10 5.95 1.64
-8 2 9 33.14 3.39
8 2 -9 31.74 3.55
8 2 -8 54.11 4.58
-8 2 8 53.9 4.34
8 2 -7 9.38 2.13
-8 2 7 7.92 1.72
8 2 -6 57.81 4.61
8 2 -5 28.97 3.39
8 2 -4 26.64 3.28
8 2 -3 5.72 1.78
8 2 -2 6.55 2.01
8 2 -1 23.85 3.19
8 2 0 20.87 3.07
8 2 1 17.6 2.93
8 2 4 5.2 1.63
8 2 5 27.29 3.4
8 2 6 3.91 1.69
8 2 7 2.77 1.51
8 2 8 9.95 2.38
8 2 9 37.8 4.21
8 2 10 1.27 1.26
8 2 11 7.94 2.72
8 2 12 23.03 3.59
8 2 13 13.16 2.85
8 2 14 9.83 2.85
8 2 15 23.5 3.81
8 2 16 13.47 3.23
8 2 17 4.95 2.55
8 2 18 5.69 2.81
8 3 -12 6.29 1.97
8 3 -11 14.77 2.55
-8 3 11 12.03 2.11
-8 3 10 20.45 2.73
8 3 -10 18.49 2.79
8 3 -9 12.89 2.42
-8 3 9 10.13 2.12
8 3 -8 4.31 1.69
-8 3 8 2.07 1.02
8 3 -7 10.02 2.35
8 3 -6 11.45 2.5
8 3 -5 15.37 2.72
8 3 -4 13.88 2.6
8 3 -3 21.5 3.03
8 3 -2 11.3 2.54
8 3 -1 4.92 1.47
8 3 6 46.91 4.32
8 3 7 5.75 1.98
8 3 8 4.41 1.71
8 3 9 4.44 1.82
8 3 10 6.05 2.13
8 3 11 9.23 2.57
8 3 12 20.29 3.33
8 3 13 8.67 2.68
8 3 14 4.06 2.14
8 3 15 5.52 2.43
8 3 16 5.96 2.75
8 3 17 2.78 2.08
8 4 -10 11.16 2.3
8 4 -9 3.63 1.6
-8 4 9 2.79 1.39
8 4 -8 8.15 2.18
8 4 -7 6.95 1.98
8 4 -6 8.41 2.28
8 4 -5 8.03 2.15
8 4 -4 8.64 2.27
8 4 -3 4.14 1.85
8 4 -2 28.24 3.75
8 4 8 24.15 3.37
8 4 9 6.63 2.31
8 4 10 9.55 2.35
8 4 11 11.89 2.75
8 4 12 2.4 1.4
8 4 13 6.85 2.33
8 4 14 1.67 1.68
8 4 15 5.03 2.27
8 4 16 5.11 2.6
8 5 -8 5.59 1.95
8 5 -7 7.72 2.11
8 5 -6 9.21 2.28
8 5 -5 4.38 1.93
8 5 -4 27.08 3.84
8 5 -3 8.58 2.42
8 5 -2 5.72 2.21
8 5 11 1.63 1.73
8 5 12 8.66 2.52
8 6 -5 26.95 3.99
8 6 -4 4.86 2.13
8 6 -3 18.62 3.51
8 6 -2 12.75 2.98
8 7 -2 22.28 4.18
9 -8 -5 2.7 2
9 -8 -4 3.63 2.16
-9 -8 3 4.01 2.21
-9 -8 2 2.77 1.88
-9 -8 1 2.89 1.98
-9 -8 0 3.74 2.08
-9 -8 -1 4.37 2.28
-9 -8 -2 4.61 2.26
9 -7 -9 12.23 3.23
-9 -7 9 12.41 3.12
9 -7 -8 2.72 2.18
-9 -7 8 4.96 2.31
9 -7 -7 9.97 2.94
-9 -7 7 4.08 2.04
9 -7 -6 3.56 1.98
-9 -7 6 3.9 2.19
9 -7 -5 9.2 2.77
-9 -7 5 6.04 2.38
9 -7 -4 6.63 2.45
-9 -7 4 8.17 2.61
9 -7 -3 20.74 3.62
-9 -7 3 14.01 3.09
9 -7 -2 5.8 2.2
-9 -7 2 1.76 1.72
9 -7 -2 7.33 2.44
9 -7 -1 4.93 2.07
-9 -7 1 7.61 2.44
9 -7 -1 6.46 2.54
9 -7 0 2.75 1.7
-9 -7 0 3.02 1.92
9 -7 0 4.56 2.04
-9 -7 -1 7.18 2.43
9 -7 1 10.95 2.86
-9 -7 -2 11.98 3.03
9 -7 2 6.37 2.26
-9 -7 -3 7.34 2.42
9 -7 3 5.3 2.14
-9 -7 -4 5.16 2.12
9 -7 4 3.54 1.98
-9 -7 -5 5.73 2.23
9 -7 5 3.53 2.06
9 -7 6 4.22 2.07
9 -7 7 6.64 2.59
9 -6 -12 9.61 3
-9 -6 12 7.81 2.58
9 -6 -11 1.62 1.62
-9 -6 11 5 2.38
9 -6 -10 6.21 2.67
-9 -6 10 0.97 1.87
9 -6 -9 3.51 2.07
-9 -6 9 1.93 1.6
9 -6 -8 15.6 3.39
-9 -6 8 9.07 2.52
9 -6 -7 16.81 3.35
-9 -6 7 13.51 3.05
9 -6 -6 11 2.82
-9 -6 6 7.81 2.46
9 -6 -5 12.33 2.89
-9 -6 5 8.43 2.34
-9 -6 4 18.05 3.22
9 -6 -4 12.16 2.73
-9 -6 3 6.22 2.08
9 -6 -3 3.89 1.88
-9 -6 2 20.23 3.35
9 -6 -2 12.7 2.73
9 -6 -2 17.84 3.27
-9 -6 1 23.5 3.59
9 -6 -1 16.48 2.9
9 -6 -1 19.46 3.37
-9 -6 0 11.83 2.51
9 -6 0 10.19 2.5
9 -6 0 11.44 2.85
-9 -6 -1 4.57 2.01
9 -6 1 3.54 1.76
9 -6 1 1.27 1.24
-9 -6 -2 3.63 1.7
9 -6 2 7.76 2.16
9 -6 2 4.97 2.03
9 -6 3 5.72 2.04
-9 -6 -3 5.87 2.14
9 -6 3 7.37 2.41
-9 -6 -4 10.47 2.5
9 -6 4 13.4 2.93
-9 -6 -5 8.8 2.34
9 -6 5 9.38 2.59
-9 -6 -6 4.86 1.96
9 -6 6 7.67 2.38
-9 -6 -7 2.73 1.58
9 -6 7 8.09 2.59
9 -6 8 10.07 2.93
9 -6 9 9.14 2.85
9 -6 10 5.49 2.44
9 -6 11 11.86 3.15
9 -5 -14 12.45 3.39
-9 -5 14 2.62 2.03
9 -5 -13 6.81 2.66
-9 -5 13 5.87 2.28
9 -5 -12 7.6 2.61
-9 -5 12 7.58 2.2
9 -5 -11 8.27 2.47
-9 -5 11 7.58 2.55
9 -5 -10 8.34 2.78
-9 -5 10 10.53 2.85
9 -5 -9 41.59 5.09
-9 -5 9 29.96 4.16
9 -5 -8 23.8 3.88
-9 -5 8 21.06 3.31
-9 -5 7 15.01 3.11
9 -5 -7 21.16 3.48
-9 -5 6 4.73 2.09
9 -5 -6 10.64 2.8
-9 -5 5 2.17 1.46
9 -5 -5 2.76 1.86
-9 -5 4 13.86 2.78
9 -5 -4 13.19 2.78
9 -5 -3 4.06 1.84
-9 -5 3 4.49 1.87
9 -5 -2 13.68 2.7
-9 -5 2 14.31 2.79
9 -5 -2 12.2 2.41
9 -5 -1 18.69 3.11
-9 -5 1 22.09 3.35
9 -5 -1 24.25 3.33
9 -5 0 20.54 3.16
-9 -5 0 26.74 3.62
9 -5 0 19.02 3.03
9 -5 1 16.76 2.96
-9 -5 -1 16.46 3.01
9 -5 1 12.13 2.83
9 -5 2 26.08 3.42
-9 -5 -2 23.53 3.35
9 -5 2 25.82 3.62
9 -5 3 12.48 2.52
-9 -5 -3 12.29 2.57
9 -5 3 15.57 2.73
9 -5 4 9.1 2.23
-9 -5 -4 7.43 2.31
9 -5 4 10.53 2.48
9 -5 5 5.18 1.74
-9 -5 -5 3.04 1.66
9 -5 5 2.96 1.83
9 -5 6 8.86 2.14
-9 -5 -6 7.35 2.1
9 -5 6 9.16 2.54
9 -5 7 2.55 1.65
-9 -5 -7 4.29 1.66
9 -5 7 2.47 1.81
9 -5 8 5.37 2.03
-9 -5 -8 6.41 1.9
9 -5 8 3.89 1.7
9 -5 9 7.45 2.38
9 -5 9 6.35 2.28
9 -5 10 4.24 1.98
9 -5 10 6.78 2.53
9 -5 11 2.33 1.83
9 -5 11 8.38 2.66
9 -5 12 10.18 2.85
9 -5 12 7.71 2.49
9 -5 13 16.51 3.57
9 -5 13 14.24 3.31
9 -4 -16 4.74 2.67
-9 -4 16 6.59 2.46
9 -4 -15 3.16 2.73
-9 -4 15 7.52 2.43
9 -4 -14 8.43 3.02
-9 -4 14 5.45 2.35
9 -4 -13 4.67 2.36
-9 -4 13 5.41 2.25
9 -4 -12 31.21 4.72
-9 -4 12 26.28 4
9 -4 -11 17.72 3.45
-9 -4 11 15.58 3.13
-9 -4 10 5.61 2.06
9 -4 -10 1.81 1.54
-9 -4 9 8.35 2.31
9 -4 -9 8.71 2.59
-9 -4 8 7.55 2.11
9 -4 -8 7 2.28
-9 -4 7 4.56 1.94
9 -4 -7 5.88 2.18
9 -4 -6 16.73 3.19
-9 -4 6 12.36 2.7
9 -4 -5 4.21 1.86
-9 -4 5 4.06 1.73
9 -4 -4 14.49 2.76
-9 -4 4 19.41 3.09
9 -4 -3 32.52 4.07
-9 -4 3 25.63 3.47
9 -4 -2 11.34 2.49
-9 -4 2 6.6 2.13
9 -4 -2 5.04 1.78
9 -4 -1 8.05 2.12
-9 -4 1 12.65 2.52
9 -4 -1 8.11 1.88
9 -4 0 5.52 1.85
-9 -4 0 10.65 2.39
9 -4 0 7.18 1.95
-9 -4 -1 28.11 3.45
9 -4 1 22.17 3.12
9 -4 1 21.56 3.07
9 -4 2 9.25 2.23
-9 -4 -2 11.66 2.42
9 -4 2 7.4 2
9 -4 3 72.98 5.45
-9 -4 -3 87.42 6.04
9 -4 3 80.32 5.69
-9 -4 -4 27.6 3.59
9 -4 4 22.95 3.08
9 -4 4 28.16 3.51
9 -4 5 13.76 2.56
-9 -4 -5 11.36 2.41
9 -4 5 12.44 2.5
9 -4 6 9.39 2.24
9 -4 6 15.36 2.59
-9 -4 -6 11.61 2.41
9 -4 6 11.46 2.48
9 -4 7 8.41 2.35
9 -4 7 7.43 2
-9 -4 -7 8.12 2.07
9 -4 7 11.38 2.45
9 -4 8 16.09 3.18
9 -4 8 11.66 2.38
-9 -4 -8 8.37 2.31
9 -4 8 12.01 2.55
9 -4 9 4.76 2.01
-9 -4 -9 5.2 1.86
9 -4 9 5.8 1.91
9 -4 10 4.96 2.13
-9 -4 -10 1.36 1.32
9 -4 10 3.21 1.71
9 -4 11 4.48 2.12
9 -4 12 4.89 2.57
9 -4 13 7.29 2.59
9 -4 14 8.3 2.72
9 -3 -17 1.91 2.68
9 -3 -16 4.84 2.63
-9 -3 16 7.72 2.57
9 -3 -15 5.32 3.52
-9 -3 15 21.24 3.61
9 -3 -14 5.96 2.47
-9 -3 14 3.18 1.76
9 -3 -13 9.63 2.82
-9 -3 13 11.57 2.72
-9 -3 12 12.06 2.67
9 -3 -12 17.61 3.41
-9 -3 11 5.4 2.1
9 -3 -11 8.18 2.47
-9 -3 10 14.91 2.77
9 -3 -10 16.8 3.25
-9 -3 9 41.51 4.43
9 -3 -9 44.59 4.88
9 -3 -8 7.86 2.16
-9 -3 8 7.14 2.02
9 -3 -7 2.97 1.78
-9 -3 7 2.92 1.63
9 -3 -6 1.1 1.32
-9 -3 6 4.53 1.8
9 -3 -5 21.05 3.29
-9 -3 5 19.15 3
9 -3 -4 5.44 1.92
-9 -3 4 2.69 1.28
9 -3 -3 13.63 2.75
-9 -3 3 9.39 2.31
9 -3 -2 12.85 2.61
-9 -3 2 12.78 2.37
9 -3 -2 13.2 2.27
9 -3 -1 10 2.49
-9 -3 1 7.05 1.8
9 -3 -1 10.1 2.11
9 -3 0 46.54 4.51
-9 -3 0 44.42 4.25
9 -3 0 45.5 4.03
9 -3 1 32.52 3.78
-9 -3 -1 31.07 3.6
9 -3 1 24.27 2.99
9 -3 2 40.64 4.15
-9 -3 -2 36.86 3.85
9 -3 2 34.64 3.56
9 -3 3 33.94 3.81
-9 -3 -3 40.16 4.04
9 -3 3 34.31 3.64
9 -3 4 39.79 3.91
-9 -3 -4 41.77 4.06
9 -3 4 43.67 3.87
9 -3 5 11.78 2.42
9 -3 5 10.62 2.54
-9 -3 -5 10.97 2.15
9 -3 5 12.65 2.21
9 -3 6 15.04 2.55
9 -3 6 15.67 2.86
-9 -3 -6 11.78 2.29
9 -3 6 15.01 2.41
9 -3 7 7.02 1.95
9 -3 7 9.85 2.54
-9 -3 -7 7.07 2.08
9 -3 7 10.97 2.52
9 -3 8 13.76 2.65
9 -3 8 13.49 2.99
-9 -3 -8 11.64 2.38
9 -3 8 10.72 2.37
9 -3 9 3.46 1.61
9 -3 9 1.93 1.75
-9 -3 -9 4.25 1.65
9 -3 9 4.96 1.84
9 -3 10 3.64 1.65
9 -3 10 7.88 2.61
-9 -3 -10 4.28 1.72
9 -3 11 3.15 1.76
-9 -3 -11 3.68 1.71
9 -3 12 22.38 3.81
9 -3 13 0.58 1.52
9 -3 14 3.43 2.34
9 -3 15 4.41 2.37
9 -2 -18 1.65 2.58
9 -2 -17 1.46 2.65
9 -2 -16 4.29 2.76
9 -2 -15 3.99 2.56
-9 -2 15 6.6 2.15
9 -2 -14 18.28 4.03
-9 -2 14 29.92 3.92
-9 -2 13 7.48 2.3
9 -2 -13 9.87 2.7
-9 -2 12 8.11 2.29
9 -2 -12 5.41 2.23
-9 -2 11 5.07 1.78
9 -2 -11 9.55 2.76
9 -2 -10 12.03 2.87
-9 -2 10 10.94 2.42
-9 -2 9 41 4.37
9 -2 -9 40.41 4.6
-9 -2 8 29.15 3.67
9 -2 -8 29.18 3.85
9 -2 -7 4.16 1.82
-9 -2 7 3.97 1.72
-9 -2 6 35.53 3.93
9 -2 -6 39.34 4.39
9 -2 -5 3.25 1.65
-9 -2 5 4.08 1.59
9 -2 -4 64.62 5.36
-9 -2 4 65.08 5.11
9 -2 -3 6.79 2.06
-9 -2 3 2.83 1.56
9 -2 -2 7.72 2.1
-9 -2 2 7.5 1.98
9 -2 -1 37.21 4.01
-9 -2 1 36.72 3.8
9 -2 -1 36.01 3.31
9 -2 0 19.6 2.93
-9 -2 0 14.95 2.49
9 -2 0 12.79 2.1
9 -2 1 28.54 3.45
-9 -2 -1 26.45 3.35
9 -2 1 24.73 2.86
9 -2 2 39.84 4.15
-9 -2 -2 39.06 3.91
9 -2 2 40.28 3.52
9 -2 3 9.64 2.06
-9 -2 -3 11.32 2.19
9 -2 3 9.23 1.89
9 -2 4 17.84 2.92
9 -2 4 16.12 2.93
-9 -2 -4 16.15 2.68
9 -2 4 15.05 2.19
9 -2 5 4.18 1.69
9 -2 5 4.07 1.89
-9 -2 -5 4.56 1.47
9 -2 5 2.76 1.41
9 -2 6 14.53 2.64
9 -2 6 12.99 2.66
-9 -2 -6 15.94 2.65
9 -2 6 12.35 2.21
9 -2 7 33.05 4.06
9 -2 7 31.06 3.64
-9 -2 -7 33.27 3.62
9 -2 7 36.19 3.5
9 -2 8 9.84 2.22
9 -2 8 9.56 2.49
-9 -2 -8 10.94 2.26
9 -2 8 9.44 2.12
9 -2 9 6.37 1.85
9 -2 9 5.36 2.18
-9 -2 -9 7.05 2
9 -2 9 8.69 2.22
9 -2 10 7.37 2.09
9 -2 10 3.86 2.17
-9 -2 -10 2.91 1.38
9 -2 11 8.45 2.16
9 -2 11 8.77 2.78
-9 -2 -11 6.42 1.92
9 -2 12 5.79 1.99
9 -2 12 3.76 2.01
-9 -2 -12 5.94 1.91
9 -2 13 32.05 4.6
9 -2 14 3.53 2.31
9 -2 15 16.94 3.6
9 -2 16 13.65 3.35
9 -1 -18 1.62 2.19
9 -1 -17 3.62 2.8
9 -1 -16 4.26 2.59
9 -1 -15 1.73 2.78
-9 -1 15 12.91 2.75
-9 -1 14 6.93 2.08
9 -1 -14 1.57 2.22
-9 -1 13 19.4 3.12
9 -1 -13 18.61 4
-9 -1 12 9.45 2.27
9 -1 -12 8.53 2.7
9 -1 -11 16.5 3.1
-9 -1 11 19.85 3.05
9 -1 -10 11.91 2.61
-9 -1 10 10.67 2.49
9 -1 -9 15 3.04
-9 -1 9 7.91 1.96
9 -1 -8 14.68 2.89
-9 -1 8 10.39 2.37
9 -1 -7 24.63 3.41
-9 -1 7 21.61 3.01
9 -1 -6 20.83 3.27
-9 -1 6 20.61 2.89
9 -1 -5 46.17 4.42
-9 -1 5 44.62 4.23
9 -1 -4 9.16 2.38
-9 -1 4 7.67 1.91
9 -1 -3 32.08 3.81
-9 -1 3 34.96 3.66
9 -1 -2 3.69 1.79
-9 -1 2 3.25 1.62
9 -1 -1 14.61 2.78
-9 -1 1 11.21 2.25
9 -1 0 10.56 2.4
-9 -1 0 9.76 2.25
9 -1 0 10.48 1.82
9 -1 1 10.17 2.17
-9 -1 -1 8.56 2.14
9 -1 1 9.31 1.81
9 -1 2 7.72 2.18
-9 -1 -2 8.67 2.22
9 -1 2 5.4 1.39
9 -1 3 7.56 2.12
-9 -1 -3 6.86 1.9
9 -1 3 5.29 1.49
9 -1 4 14.47 2.57
9 -1 4 8.5 2.31
-9 -1 -4 15.76 2.72
9 -1 4 11.1 1.92
9 -1 5 56.45 5.11
9 -1 5 61.45 5.19
-9 -1 -5 62.3 4.86
9 -1 5 56.44 3.89
9 -1 6 10.14 2.39
9 -1 6 7.37 2.38
-9 -1 -6 11.41 2.35
9 -1 6 8.79 1.86
9 -1 7 7.49 2.28
9 -1 7 5.91 1.71
9 -1 7 4.43 2.09
9 -1 8 5.41 2.31
9 -1 8 2.86 1.38
9 -1 8 6.64 2.3
9 -1 9 11.3 2.75
9 -1 9 16.79 2.49
9 -1 9 15.33 2.99
9 -1 10 8.81 2.86
-9 -1 -10 15.38 2.68
9 -1 10 12.37 2.67
9 -1 11 14.67 2.97
-9 -1 -11 10.53 2.23
9 -1 11 8.18 2.24
9 -1 12 16.75 3.45
-9 -1 -12 19.7 3.06
9 -1 12 19.76 3.26
9 -1 13 5.69 2.47
-9 -1 -13 6.05 1.91
9 -1 13 7.71 2.28
9 -1 14 8.99 2.64
9 -1 14 11.44 2.79
9 -1 15 16.08 3.8
9 -1 16 13.25 3.59
9 0 -17 3.03 2.81
9 0 -16 7.96 3.47
9 0 -15 0.64 2.11
-9 0 14 17.76 2.89
9 0 -14 5.31 3.23
-9 0 13 26.81 3.51
9 0 -13 26.53 3.75
9 0 -12 7.03 2.36
-9 0 12 3.86 1.85
9 0 -11 4.27 1.8
-9 0 11 1.52 1.23
-9 0 10 83.5 5.84
9 0 -10 89.45 6.46
9 0 -9 3.32 1.8
-9 0 9 2.67 1.53
9 0 -8 9.51 2.36
-9 0 8 2.38 1.36
9 0 -7 19.46 3.17
-9 0 7 23.08 3.07
9 0 -6 30.3 3.78
-9 0 6 22.78 2.92
9 0 -5 2.59 1.34
-9 0 5 2.37 1.25
9 0 -4 84.02 5.91
-9 0 4 84.86 5.75
9 0 -3 19.44 3.19
-9 0 3 15.97 2.77
9 0 -2 31.97 3.72
-9 0 2 38.39 3.87
9 0 -1 18.48 3.11
-9 0 1 15.36 2.49
9 0 0 1.28 1.62
9 0 1 18.93 3.17
9 0 2 67.31 5.53
9 0 2 53.73 3.31
9 0 3 80.53 6.08
9 0 3 69.62 3.67
9 0 4 1.13 1.27
9 0 4 2.22 1
9 0 4 4.53 1.74
9 0 5 11.02 2.52
9 0 5 9.41 2.56
9 0 6 10.93 2.65
9 0 6 13.34 2.67
9 0 7 9.02 2.52
9 0 7 11.47 2.75
9 0 8 26.3 3.87
9 0 8 30.12 3.85
9 0 9 17.75 3.17
9 0 9 24.43 3.77
9 0 10 30.17 4.23
9 0 10 31.77 4.32
9 0 11 40.84 4.94
9 0 11 36.64 4.55
9 0 12 8.12 2.62
9 0 12 8.6 2.53
9 0 13 5.17 2.26
9 0 13 8.08 2.63
9 0 14 22.38 4.02
9 0 14 25.28 4.11
9 0 15 2.58 2.22
9 0 15 4.94 2.31
9 0 16 4.33 2.29
9 0 16 3.08 2.19
9 1 -16 2.12 2.27
9 1 -15 2.78 2.69
9 1 -14 6.94 2.25
-9 1 13 18.9 2.9
9 1 -13 21.76 3.52
9 1 -12 5.85 2.15
-9 1 12 2.71 1.48
9 1 -11 17.9 3.13
-9 1 11 12.9 2.36
9 1 -10 13.65 2.76
-9 1 10 11.81 2.43
9 1 -9 8.05 2.04
-9 1 9 9.32 2.14
9 1 -8 13.76 2.58
-9 1 8 10.81 2.28
9 1 -7 18.54 3.06
-9 1 7 18.24 2.82
9 1 -6 17.76 2.98
-9 1 6 16.52 2.68
9 1 -5 49.86 4.75
-9 1 5 48.37 4.35
9 1 -4 7.14 2.14
-9 1 4 6.28 1.81
9 1 -3 36.27 4.11
9 1 -2 2.34 1.83
9 1 -1 15.47 2.77
9 1 0 10.6 2.36
9 1 1 11.01 2.58
9 1 2 8.9 2.26
9 1 3 10.85 2.79
9 1 4 10.96 2.5
9 1 5 63.11 5.37
9 1 5 70.59 6.03
9 1 6 10.52 2.51
9 1 7 3.72 1.67
9 1 8 5.86 2.12
9 1 9 17.41 3.06
9 1 10 11.31 2.8
9 1 11 7.62 2.36
9 1 12 22.27 3.9
9 1 13 9.06 2.7
9 1 14 7.78 2.57
9 1 15 9.36 2.98
9 1 16 14.04 3.45
9 2 -14 22.86 3.49
9 2 -13 6.35 2.14
9 2 -12 6.33 2.16
-9 2 12 4.67 1.68
9 2 -11 7.24 2.19
-9 2 11 5.89 1.78
9 2 -10 16.12 3.04
-9 2 10 12.95 2.35
-9 2 9 39.88 3.98
9 2 -9 41.89 4.41
-9 2 8 23.6 3.31
9 2 -8 25.46 3.57
9 2 -7 4.26 1.79
-9 2 7 5.31 1.83
9 2 -6 44.5 4.65
-9 2 6 39.64 4.11
9 2 -5 6.1 1.97
9 2 -4 64.39 5.45
9 2 -3 8.85 2.41
9 2 -2 4.33 1.56
9 2 -1 42.05 4.51
9 2 0 15.89 3.01
9 2 1 29.89 3.84
9 2 2 44.06 4.86
9 2 3 17.88 3.56
9 2 6 17.12 3.05
9 2 7 25.45 3.73
9 2 8 6.37 2.12
9 2 9 10.89 2.63
9 2 10 6.68 2.43
9 2 11 4.62 2.22
9 2 12 6.9 2.42
9 2 13 29.85 4.45
9 2 14 6.01 2.57
9 2 15 17.37 3.49
9 2 16 17.38 3.78
9 3 -12 11.77 2.6
9 3 -11 3.19 1.81
9 3 -10 16.31 2.89
-9 3 10 15.02 2.62
-9 3 9 34.06 3.79
9 3 -9 34.69 4.1
9 3 -8 4.44 1.95
-9 3 8 4.7 1.84
9 3 -7 4.38 1.89
-9 3 7 6.47 1.82
9 3 -6 -0.26 1.03
9 3 -5 27.63 3.8
9 3 -4 4.17 1.79
9 3 -3 9.38 2.59
9 3 -2 17.75 3.21
9 3 -1 11.16 2.61
9 3 0 49.6 5.06
9 3 1 33.95 4.44
9 3 8 15.95 2.99
9 3 9 3.26 1.9
9 3 10 5.48 2.16
9 3 11 4.06 2.11
9 3 12 21.45 3.7
9 3 13 4.71 2.46
9 3 14 4.93 2.43
9 3 15 3.08 2.21
9 4 -10 4.84 1.89
9 4 -9 8.99 2.54
-9 4 9 7.31 1.89
9 4 -8 7.39 2.36
-9 4 8 6.64 1.92
9 4 -7 2.53 1.62
9 4 -6 15.86 2.88
9 4 -5 4.66 2.31
9 4 -4 20.35 3.43
9 4 -3 30.77 4.15
9 4 -2 5.04 2
9 4 -1 14.79 2.99
9 4 0 11.08 2.96
9 4 10 2.82 1.66
9 4 11 4.61 2.15
9 4 12 1.44 1.84
9 4 13 6.39 2.46
9 4 14 4.92 2.4
9 5 -7 17.27 3.38
9 5 -6 2.33 1.73
9 5 -5 5.3 1.95
9 5 -4 9.4 2.66
9 5 -3 2.22 1.78
9 5 -2 17.27 3.45
9 5 -1 29.4 4.51
9 5 0 28.11 4.39
9 6 -5 9.63 2.85
9 6 -4 13.75 3.42
9 6 -3 1.83 2.39
9 6 -2 7.8 3.42
9 6 -1 6.64 3.34
9 6 0 2.8 3.63
9 7 -2 3.04 2.11
9 7 -1 1.87 2.9
9 7 0 2.31 2.86
10 -7 -5 4.77 2.38
10 -7 -4 6.12 2.57
10 -7 -3 14.39 3.36
-10 -7 3 10.98 3.09
10 -7 -2 9.96 3.01
-10 -7 2 8.7 2.66
10 -7 -1 2.35 2.02
-10 -7 1 4.65 2.3
-10 -7 0 4.45 2.21
10 -7 0 6.23 2.73
-10 -7 -1 7.74 2.65
10 -7 1 11.78 3.03
-10 -7 -2 2.93 1.98
10 -7 2 5.18 2.43
-10 -7 -3 2.03 1.92
10 -6 -9 9.04 3.09
-10 -6 9 1.58 1.89
10 -6 -8 8.37 3.03
-10 -6 8 4.27 2.22
10 -6 -7 7.59 2.76
-10 -6 7 2.98 1.9
10 -6 -6 8.34 2.75
-10 -6 6 5.14 2.39
10 -6 -5 5.62 2.46
-10 -6 5 4 1.99
-10 -6 4 4.44 2.09
10 -6 -4 7.76 2.54
-10 -6 3 8.46 2.61
10 -6 -3 16.84 3.29
-10 -6 2 7.21 2.35
10 -6 -2 8.06 2.47
-10 -6 1 4.8 2.16
10 -6 -1 5.58 2.27
10 -6 -1 4.15 2.09
-10 -6 0 7.29 2.4
10 -6 0 10.86 2.67
10 -6 0 12.28 3
-10 -6 -1 4.56 2
10 -6 1 6.82 2.46
10 -6 1 6.32 2.3
-10 -6 -2 8.44 2.56
10 -6 2 7.36 2.35
10 -6 2 7.36 2.48
-10 -6 -3 3.03 1.77
10 -6 3 7.21 2.5
-10 -6 -4 2.19 1.82
10 -6 4 1.19 1.77
-10 -6 -5 10.74 2.74
10 -6 5 8.6 2.73
-10 -6 -6 5.08 2.17
10 -6 6 2.82 1.89
10 -6 7 4.85 2.4
10 -5 -12 5.2 2.8
-10 -5 12 3.74 2.4
10 -5 -11 4.76 2.37
-10 -5 11 5.43 2.43
10 -5 -10 7.92 2.65
-10 -5 10 8.25 2.63
10 -5 -9 3.21 2.33
-10 -5 9 5.69 2.36
-10 -5 8 6.21 2.44
10 -5 -8 7.51 2.86
-10 -5 7 3.92 2.09
10 -5 -7 7.52 2.5
-10 -5 6 15.69 3.2
10 -5 -6 15.44 3.31
-10 -5 5 15.91 3.16
10 -5 -5 7.13 2.41
-10 -5 4 6.82 2.29
10 -5 -4 5.17 2.26
10 -5 -3 3.63 1.76
-10 -5 3 6.71 2.34
10 -5 -2 7.46 2.3
-10 -5 2 3.94 1.95
10 -5 -1 6.89 2.25
-10 -5 1 4.74 1.98
10 -5 -1 5.57 2.12
10 -5 0 8.51 2.49
-10 -5 0 6.47 2.19
10 -5 0 6.73 2.21
10 -5 1 7.11 2.16
-10 -5 -1 4.93 2.02
10 -5 1 7.63 2.46
10 -5 2 6.45 2.19
-10 -5 -2 6.58 2.1
10 -5 2 8.47 2.51
10 -5 3 10.11 2.53
-10 -5 -3 10.09 2.47
10 -5 3 11.32 2.73
10 -5 4 11.1 2.6
-10 -5 -4 7.8 2.33
10 -5 4 10.24 2.58
10 -5 5 7.07 2.31
-10 -5 -5 1.16 1.47
10 -5 5 6.41 2.34
-10 -5 -6 4.08 2.02
10 -5 6 3.97 1.86
-10 -5 -7 7.73 2.38
10 -5 7 2.96 1.79
10 -5 8 8.41 2.78
10 -5 9 4.18 2.14
10 -5 10 3.23 2.2
10 -5 10 4.71 2.4
-10 -4 14 4.12 2.23
10 -4 -13 11 3.54
-10 -4 13 6.19 2.52
10 -4 -12 3.24 2.34
-10 -4 12 7.17 2.52
10 -4 -11 11.88 3.07
-10 -4 11 10.16 2.75
-10 -4 10 23.28 3.75
10 -4 -10 20.4 3.91
-10 -4 9 19.75 3.46
10 -4 -9 17.73 3.54
-10 -4 8 7.04 2.39
10 -4 -8 7 2.53
-10 -4 7 15.26 3.03
10 -4 -7 13.53 2.93
10 -4 -6 13.85 3.03
-10 -4 6 17.53 3.2
10 -4 -5 8.36 2.29
-10 -4 5 13.63 2.68
10 -4 -4 1.72 1.12
-10 -4 4 2.4 1.58
10 -4 -3 17.99 3.43
-10 -4 3 8.97 2.55
10 -4 -2 10.26 2.63
-10 -4 2 7.71 2.34
10 -4 -1 14.24 2.98
-10 -4 1 13.45 3
10 -4 -1 13.38 2.67
10 -4 0 8.59 2.36
-10 -4 0 5.79 1.79
10 -4 0 7.35 2.12
10 -4 1 5.02 1.93
-10 -4 -1 3.17 1.75
10 -4 1 4.87 1.95
10 -4 2 4.42 1.98
-10 -4 -2 6.31 2.07
10 -4 2 2.98 1.61
10 -4 3 9.23 2.53
-10 -4 -3 7.62 2.07
10 -4 3 9.87 2.41
10 -4 4 3.61 1.88
-10 -4 -4 2.24 1.4
10 -4 4 4.15 1.9
10 -4 5 11.48 2.6
-10 -4 -5 10.5 2.35
10 -4 5 11.91 2.61
10 -4 6 4.37 1.94
-10 -4 -6 4.14 1.93
10 -4 6 4.66 2.01
10 -4 7 4.73 2
-10 -4 -7 2.6 1.6
10 -4 7 5.81 2.15
10 -4 8 4.72 2.29
-10 -4 -8 7.2 2.19
10 -4 8 7.79 2.24
10 -4 9 5.08 2.46
-10 -4 -9 6.67 2.11
10 -4 9 1.9 1.81
10 -4 10 2.43 2.34
10 -4 10 4.62 1.92
10 -4 11 5.34 2.42
10 -4 11 2.17 1.85
10 -4 12 4.97 2.48
10 -4 12 6.36 2.58
10 -3 -15 4.33 2.81
-10 -3 15 1.94 1.98
10 -3 -14 3.03 3.38
-10 -3 14 7.46 2.79
10 -3 -13 6.07 3.8
-10 -3 13 11.27 2.84
-10 -3 12 6.57 2.2
10 -3 -12 10.38 3.06
-10 -3 11 7.41 2.45
10 -3 -11 6.13 2.24
-10 -3 10 8.1 2.47
10 -3 -10 11.56 3.12
-10 -3 9 6.24 2.1
10 -3 -9 7.16 2.34
10 -3 -8 7.99 2.41
-10 -3 8 6.7 2.18
10 -3 -7 13.92 3.21
-10 -3 7 14.86 3.04
10 -3 -6 12.61 2.83
-10 -3 6 14.03 2.89
10 -3 -5 4.8 2.15
-10 -3 5 7.65 2.43
10 -3 -4 6.57 2.27
-10 -3 4 3.79 1.84
10 -3 -3 16.13 3.07
-10 -3 3 14.55 2.73
-10 -3 2 29.83 4.01
10 -3 -2 31.93 4.11
10 -3 -1 8.55 2.24
-10 -3 1 9.53 2.21
10 -3 0 9.98 2.46
-10 -3 0 8.66 2.4
10 -3 0 9.14 2.27
10 -3 1 9.46 2.41
-10 -3 -1 8.6 2.19
10 -3 1 5.03 1.79
10 -3 2 5.48 2.09
-10 -3 -2 6.08 2.15
10 -3 2 5.28 1.76
10 -3 3 8.37 2.25
-10 -3 -3 4.45 1.66
10 -3 3 6.26 1.94
10 -3 4 24.98 3.51
-10 -3 -4 27.76 3.58
10 -3 4 23.17 3.12
10 -3 5 3.8 1.72
-10 -3 -5 4.43 1.89
10 -3 5 4.61 1.73
10 -3 6 18.18 3.06
-10 -3 -6 17.59 2.98
10 -3 6 19.96 2.96
10 -3 7 7.39 2.18
10 -3 7 6.68 2.31
-10 -3 -7 2.4 1.48
10 -3 7 6.75 2.01
10 -3 8 3.3 1.77
10 -3 8 4.44 2.35
-10 -3 -8 3.95 1.72
10 -3 8 2.86 1.71
10 -3 9 2.48 1.75
10 -3 9 1.57 1.63
-10 -3 -9 3.26 1.77
10 -3 9 6.15 2.17
10 -3 10 5.47 2.1
10 -3 10 5.79 2.5
-10 -3 -10 3.61 1.76
10 -3 10 3.94 1.83
10 -3 11 4.32 2.37
10 -3 11 3.07 1.83
10 -3 12 9.93 2.96
10 -3 12 6.35 2.3
10 -3 13 6.95 2.81
10 -2 -16 3.07 2.57
10 -2 -15 1.4 3.07
-10 -2 15 5.14 2.3
10 -2 -14 5.79 3.62
-10 -2 14 12.83 3.01
-10 -2 13 11.19 2.89
10 -2 -13 6.91 3.61
-10 -2 12 9.9 2.84
10 -2 -12 13.77 3.3
-10 -2 11 5.86 2.09
10 -2 -11 1.89 1.87
10 -2 -10 16.36 3.41
-10 -2 10 4.54 1.92
10 -2 -9 10.43 2.95
-10 -2 9 6.02 2.14
10 -2 -8 10.34 2.53
-10 -2 8 5.89 2.13
10 -2 -7 6.19 2.25
-10 -2 7 5.73 1.88
10 -2 -6 3.7 1.9
-10 -2 6 7.31 2.2
10 -2 -5 8.03 2.36
-10 -2 5 11.31 2.41
10 -2 -4 10.75 2.57
-10 -2 4 6.29 1.93
10 -2 -3 5.13 1.97
-10 -2 3 4.92 1.91
10 -2 -2 30.51 4.11
-10 -2 2 24.08 3.34
10 -2 -1 6.13 2.04
-10 -2 1 7.83 2.37
10 -2 0 17.57 3.12
-10 -2 0 24.23 3.47
10 -2 1 21.22 3.32
-10 -2 -1 21.98 3.18
10 -2 1 20.81 2.72
10 -2 2 10.81 2.61
-10 -2 -2 13.38 2.75
10 -2 2 11.44 2.1
10 -2 3 26.27 3.7
-10 -2 -3 26.25 3.49
10 -2 3 21.88 2.75
10 -2 4 8.27 2.43
-10 -2 -4 6.32 2.11
10 -2 4 5.94 1.67
10 -2 5 21.04 3.25
-10 -2 -5 20.91 3.08
10 -2 5 17.75 2.48
10 -2 6 4.18 1.93
10 -2 6 7.18 2.4
-10 -2 -6 4.45 1.71
10 -2 6 3.13 1.56
10 -2 7 3.58 1.7
10 -2 7 5.61 2.16
-10 -2 -7 5.84 1.97
10 -2 7 5.2 1.75
10 -2 8 12.66 2.81
10 -2 8 13.66 3.18
-10 -2 -8 11.14 2.5
10 -2 8 11.04 2.28
10 -2 9 11.27 2.66
10 -2 9 6.51 2.48
-10 -2 -9 8.21 2.1
10 -2 9 7.45 2.05
10 -2 10 6.62 2.35
10 -2 10 4.2 2.1
-10 -2 -10 4.82 1.98
10 -2 11 9.68 2.72
10 -2 11 8.64 2.86
-10 -2 -11 5.6 1.95
10 -2 12 4.31 2.11
10 -2 12 5.49 2.51
10 -2 13 14.7 3.5
10 -2 14 6.24 3.08
10 -1 -16 0.55 2.33
10 -1 -15 4.73 2.83
-10 -1 14 13.94 2.94
10 -1 -14 8.78 3.57
-10 -1 13 12.24 2.9
10 -1 -13 17.98 4.04
-10 -1 12 5.01 2.17
10 -1 -12 1.98 2.02
10 -1 -11 21.45 3.65
-10 -1 11 15.71 3.07
10 -1 -10 4.46 1.99
-10 -1 10 4.29 2.09
10 -1 -9 7.64 2.47
-10 -1 9 7.35 2.23
10 -1 -8 12.51 2.97
-10 -1 8 5.65 2.05
10 -1 -7 2.39 1.84
-10 -1 7 1.4 1.25
10 -1 -6 16.53 3.12
-10 -1 6 7.66 2.34
10 -1 -5 3.21 1.72
-10 -1 5 1.99 1.43
10 -1 -4 6.4 2.05
-10 -1 4 5.34 1.6
10 -1 -3 32.96 4.1
-10 -1 3 37.63 4.26
10 -1 -2 15.18 3.02
-10 -1 2 12.09 2.46
10 -1 -1 44.42 4.8
-10 -1 1 45.72 4.59
10 -1 0 5 1.85
-10 -1 0 2.15 1.59
10 -1 1 12.73 2.69
-10 -1 -1 6.83 2.16
10 -1 2 8.4 2.41
-10 -1 -2 6.29 2.06
10 -1 2 4.38 1.48
10 -1 3 3.99 1.82
-10 -1 -3 8.08 2.17
10 -1 3 6.05 1.5
10 -1 4 13.36 2.84
-10 -1 -4 13.92 2.64
10 -1 5 8.86 2.56
-10 -1 -5 5.65 2.02
10 -1 6 16.78 3.16
10 -1 6 18.53 3.58
-10 -1 -6 22.6 3.34
10 -1 7 12.99 2.83
10 -1 7 8.84 2.59
-10 -1 -7 11.73 2.61
10 -1 8 18.6 3.34
10 -1 8 20.49 3.67
-10 -1 -8 21.93 3.3
10 -1 9 17.22 3.14
10 -1 9 13.97 3.46
-10 -1 -9 15.63 3.01
10 -1 10 18.81 3.44
10 -1 10 14.36 3.14
-10 -1 -10 11.6 2.72
10 -1 11 20.16 3.55
10 -1 11 27.41 4.26
-10 -1 -11 31.45 4.07
10 -1 12 6.7 2.51
10 -1 12 4.87 2.58
-10 -1 -12 6.25 2.1
10 -1 13 4.83 2.17
10 -1 13 6.67 2.83
10 -1 14 8.91 3.06
10 0 -16 1.06 2.82
10 0 -15 2.84 2.76
10 0 -14 1.4 2.03
-10 0 13 4.37 1.87
10 0 -13 7.46 3.02
10 0 -12 7.61 3.06
-10 0 12 25.12 3.57
10 0 -11 2.72 2.61
-10 0 11 6.18 2.03
10 0 -10 14.96 3.01
-10 0 10 11.41 2.72
10 0 -9 11.53 2.71
-10 0 9 7.81 2.2
10 0 -8 2.91 1.94
-10 0 8 3.09 1.9
10 0 -7 6.07 2.18
-10 0 7 5.91 1.98
10 0 -6 2.68 1.86
-10 0 6 3.17 1.58
10 0 -5 6.01 2.2
-10 0 5 3.99 1.66
10 0 -4 42.76 4.62
-10 0 4 50.28 4.9
10 0 -3 7.96 2.58
-10 0 3 10.63 2.51
10 0 -2 52.15 5.09
-10 0 2 64.46 5.41
10 0 -1 1.47 1.49
-10 0 1 3.93 1.57
10 0 0 4.73 2.27
-10 0 0 2.05 1.4
10 0 1 14.86 3.15
-10 0 -1 16 3.04
10 0 2 16.68 3.02
-10 0 -2 15.37 2.91
10 0 3 9.55 2.59
10 0 4 14.56 2.84
10 0 5 23.29 3.7
10 0 6 18.25 3.5
10 0 6 19.14 3.4
10 0 7 8.14 2.65
10 0 7 8.45 2.52
10 0 8 13.4 3.01
10 0 8 12.46 2.89
10 0 9 5.68 2.3
10 0 9 7.2 2.56
10 0 10 40.9 5.05
10 0 10 30.12 4.08
10 0 11 15.93 3.65
10 0 11 17.73 3.55
10 0 12 6.45 2.68
10 0 12 11.17 3.02
10 0 13 5.14 2.29
10 0 13 9.3 2.92
10 0 14 6.79 2.9
10 0 14 4.84 2.41
10 0 15 8.29 2.93
10 1 -15 2.01 3.03
10 1 -14 2.86 3.04
10 1 -13 5.43 3.39
10 1 -12 2.18 2.46
-10 1 12 5.27 2.12
10 1 -11 4.42 3.01
-10 1 11 14.88 2.92
10 1 -10 2.81 2.4
-10 1 10 3.48 1.73
10 1 -9 9.07 2.47
-10 1 9 4.65 2.12
10 1 -8 6.33 2.29
-10 1 8 6.79 2.14
10 1 -7 4.29 2.06
-10 1 7 3.58 1.64
10 1 -6 17.18 3.19
-10 1 6 9.38 2.31
10 1 -5 3.66 2.1
-10 1 5 3.03 1.59
10 1 -4 8.84 2.65
-10 1 4 7.63 2.22
10 1 -3 40.02 4.45
-10 1 3 34.11 4.14
10 1 -2 13.15 2.76
-10 1 2 13.54 2.78
10 1 -1 53.88 5.33
10 1 0 3.2 1.67
10 1 1 6.7 2.25
10 1 2 3.7 2.2
10 1 3 8.21 2.36
10 1 4 18.05 3.39
10 1 5 8.71 2.7
10 1 6 13.44 3.11
10 1 7 8.05 2.37
10 1 7 12.51 2.94
10 1 8 18.73 3.51
10 1 8 15.73 3.27
10 1 9 11.02 2.84
10 1 9 21.47 3.74
10 1 10 16.28 3.47
10 1 10 18.69 3.82
10 1 11 24.92 4.29
10 1 11 25.39 4.39
10 1 12 5.33 2.45
10 1 12 10.07 3.19
10 1 13 5.14 2.22
10 1 13 5.43 2.7
10 1 14 6.24 2.7
10 1 14 3.42 2.33
10 1 15 11.48 3.5
10 2 -13 5.56 3.08
10 2 -12 3.74 2.44
10 2 -11 3.15 2.48
-10 2 11 5.91 1.91
10 2 -10 1.1 2.07
-10 2 10 5.23 1.95
10 2 -9 10.61 2.73
-10 2 9 6.19 1.99
10 2 -8 6.32 2.24
-10 2 8 5.93 1.95
10 2 -7 5.1 2.06
-10 2 7 1.7 1.46
10 2 -6 3.28 1.85
-10 2 6 7.21 2.12
10 2 -5 12.9 2.92
-10 2 5 8.77 2.37
10 2 -4 16.04 3.2
10 2 -3 3.54 1.79
10 2 -2 28.73 3.9
10 2 -1 10.18 2.73
10 2 0 21.07 3.55
10 2 1 22.41 3.71
10 2 2 12.6 2.98
10 2 3 30.17 4.36
10 2 4 7.14 2.73
10 2 5 19.92 3.68
10 2 6 10.22 2.97
10 2 8 13.49 3.31
10 2 9 11.84 3.15
10 2 10 6.54 2.8
10 2 11 7.52 2.78
10 2 12 5.21 2.45
10 2 13 15.01 3.44
10 2 14 9.29 3.1
10 3 -11 2.74 2.42
10 3 -10 1.45 2.38
-10 3 10 5.62 2.08
10 3 -9 2.63 2.18
-10 3 9 2.53 1.66
10 3 -8 10.54 2.78
-10 3 8 7.74 2.15
10 3 -7 9.31 2.65
-10 3 7 10.57 2.56
10 3 -6 10.59 2.64
-10 3 6 10.09 2.39
10 3 -5 3.41 1.9
10 3 -4 11.02 3.12
10 3 -3 15.28 3.11
10 3 -2 30.39 4.28
10 3 -1 14.45 3.16
10 3 0 8.46 2.53
10 3 1 11.77 2.87
10 3 2 11.09 2.95
10 3 3 10.93 2.97
10 3 4 30.03 4.73
10 3 10 5.93 2.42
10 3 11 5.38 2.32
10 3 12 6.85 2.55
10 3 13 6.81 2.7
10 4 -9 17.67 3.34
10 4 -8 2.58 2.59
-10 4 8 6.23 2.19
10 4 -7 7.01 3.13
-10 4 7 12.76 2.69
10 4 -6 17.85 3.47
10 4 -5 17.19 3.37
10 4 -4 7.83 2.58
10 4 -3 15.15 3.31
10 4 -2 7.17 2.56
10 4 -1 14.93 3.35
10 4 0 9.01 2.79
10 4 1 3.82 2.33
10 4 2 6.24 2.71
10 4 3 17.06 3.8
10 5 -7 4.74 2.27
10 5 -6 2.22 2.55
10 5 -5 4.98 3.02
10 5 -4 1.38 2.58
10 5 -3 1.41 2.36
10 5 -2 3.15 2.56
10 5 -1 2.02 2.14
10 5 0 7.72 3
10 5 1 4.65 2.85
10 5 2 4.62 3.16
10 6 -4 0.63 2.58
10 6 -3 1.34 2.93
10 6 -2 2.13 2.92
10 6 -1 1.77 2.24
10 6 0 7.93 3.88
10 6 1 208.02 13.21
10 6 2 2.01 2.53
10 7 -1 0.68 3.24
10 7 0 1.5 3.23
10 7 1 2.52 3.46
10 7 2 2.47 3.23
11 -6 -3 5.07 2.45
11 -6 -2 6 2.54
11 -6 -1 7.13 2.62
11 -6 0 2.94 2.12
11 -6 1 6.23 2.47
11 -5 -8 10.46 3.22
-11 -5 7 18.96 3.72
11 -5 -7 15.51 3.62
-11 -5 6 4.9 2.22
11 -5 -6 11.13 3.28
-11 -5 5 10.27 2.86
11 -5 -5 9.84 3.03
-11 -5 4 3.96 2.31
11 -5 -4 5.17 2.41
-11 -5 3 5.62 2.34
11 -5 -3 5.83 2.34
11 -5 -2 11.24 3.11
-11 -5 2 11.17 2.96
11 -5 -1 1.98 2.03
-11 -5 1 8.34 2.58
11 -5 0 7 2.51
-11 -5 0 7.18 2.51
11 -5 1 2.4 1.92
-11 -5 -1 4.25 2.2
11 -5 1 2.4 1.82
11 -5 2 4.96 2.22
-11 -5 -2 6.37 2.46
11 -5 2 5.3 2.45
11 -5 3 3.99 2.15
-11 -5 -3 5.92 2.47
11 -5 3 6.27 2.64
11 -5 4 9.78 2.73
-11 -5 -4 13.86 3.06
11 -5 4 11.87 3.07
-11 -5 -5 4.9 2.31
11 -5 5 4.62 2.47
-11 -5 -6 6.83 2.48
11 -5 6 7.32 2.78
-11 -4 10 8.39 2.8
11 -4 -10 7.36 2.81
-11 -4 9 11.27 3.04
11 -4 -9 11.76 3.33
-11 -4 8 8.8 2.6
11 -4 -8 6.47 2.59
-11 -4 7 9.29 2.62
11 -4 -7 6.59 2.54
11 -4 -6 7.25 2.58
-11 -4 6 2.86 1.91
11 -4 -5 20.56 3.93
-11 -4 5 15.81 3.3
11 -4 -4 22.99 3.93
-11 -4 4 22.59 3.81
11 -4 -3 10.54 2.97
-11 -4 3 8.11 2.61
11 -4 -2 8.16 2.64
-11 -4 2 4.2 2.27
11 -4 -1 3.95 1.93
-11 -4 1 10.05 2.59
11 -4 0 4.69 2.09
-11 -4 0 3.91 1.99
11 -4 1 7.54 2.59
-11 -4 -1 4.97 2.17
11 -4 1 6.56 2.22
11 -4 2 5.57 2.29
-11 -4 -2 2.28 1.8
11 -4 2 4.06 2.02
11 -4 3 8.11 2.53
-11 -4 -3 2.7 1.85
11 -4 3 4.02 1.91
11 -4 4 5.17 2.18
-11 -4 -4 6 2.19
11 -4 4 3.81 1.9
11 -4 5 6.87 2.33
-11 -4 -5 3.7 2.04
11 -4 5 4.13 2.19
11 -4 6 4.78 2.19
-11 -4 -6 3.52 1.9
11 -4 6 4.48 2.33
-11 -4 -7 3.81 1.99
11 -4 7 2.92 1.99
-11 -4 -8 3.89 2.07
11 -4 8 2.09 1.83
-11 -3 12 4.03 2.22
11 -3 -12 7.76 3.29
-11 -3 11 10.61 2.93
11 -3 -11 5.71 3.01
-11 -3 10 5.86 2.3
11 -3 -10 8.77 2.74
-11 -3 9 3.62 2.09
11 -3 -9 1.96 1.82
11 -3 -8 17.1 3.74
-11 -3 8 13.66 3.2
11 -3 -7 7.38 2.58
-11 -3 7 13.66 3.17
11 -3 -6 14.32 3.25
-11 -3 6 13.08 3.12
11 -3 -5 16.09 3.47
-11 -3 5 12.93 3.01
11 -3 -4 19.25 3.5
-11 -3 4 17.09 3.46
11 -3 -3 2.58 1.9
-11 -3 3 4.03 2.11
11 -3 -2 5.11 2.07
-11 -3 2 3.77 2
11 -3 -1 2.59 1.89
-11 -3 1 6.9 2.35
11 -3 0 5.92 2.16
-11 -3 0 3.2 1.9
11 -3 1 2.83 1.81
-11 -3 -1 2.81 1.7
11 -3 1 2.76 1.69
11 -3 2 7.6 2.53
-11 -3 -2 5.91 2.23
11 -3 2 8.97 2.32
11 -3 3 11.57 2.87
-11 -3 -3 7.78 2.32
11 -3 3 5.81 1.96
11 -3 4 9.78 2.67
-11 -3 -4 11.16 2.53
11 -3 4 9.9 2.38
11 -3 5 13.61 2.98
-11 -3 -5 15.78 3.11
11 -3 5 13.19 2.7
11 -3 6 8.23 2.64
-11 -3 -6 7.17 2.43
11 -3 7 6.23 2.36
-11 -3 -7 4.58 2.04
11 -3 8 1.52 1.75
-11 -3 -8 2.99 1.8
11 -3 9 5.24 2.26
-11 -3 -9 3.88 1.83
11 -3 10 7.43 2.92
-11 -2 13 4.58 2.17
11 -2 -13 1.48 2.63
-11 -2 12 7.44 2.46
11 -2 -12 2.37 2.72
-11 -2 11 6.72 2.48
11 -2 -11 6.75 3.64
11 -2 -10 10.6 3.04
-11 -2 10 9.05 2.7
11 -2 -9 9.02 2.81
-11 -2 9 5.73 2.18
11 -2 -8 6.64 2.56
-11 -2 8 5.36 2.16
11 -2 -7 9.46 2.88
-11 -2 7 15.36 3.15
11 -2 -6 8.05 2.74
-11 -2 6 6.3 2.31
11 -2 -5 5.19 2.38
-11 -2 5 2.59 1.46
11 -2 -4 11.4 3.22
-11 -2 4 5.56 1.96
11 -2 -3 7.65 2.35
-11 -2 3 6.62 2.23
11 -2 -2 12.3 3.26
-11 -2 2 7.37 2.19
11 -2 -1 11.12 2.81
-11 -2 1 7.9 2.25
11 -2 0 12.52 3.01
-11 -2 0 5.15 2.03
11 -2 1 7.9 2.51
-11 -2 -1 6.06 2.03
11 -2 2 7.25 2.63
-11 -2 -2 3.02 1.91
11 -2 3 7.42 2.35
-11 -2 -3 10.26 2.44
11 -2 4 8.01 2.44
-11 -2 -4 13.03 2.78
11 -2 5 24.73 3.82
-11 -2 -5 18.71 3.3
11 -2 6 6.37 2.27
-11 -2 -6 7.26 2.12
11 -2 7 12.87 3.07
-11 -2 -7 15.55 3.13
11 -2 8 4.82 2.22
-11 -2 -8 5.6 2.24
11 -2 9 4.98 2.19
11 -2 9 2.29 1.86
-11 -2 -9 1.06 1.66
11 -2 10 6.17 2.36
11 -2 10 5.58 2.42
-11 -2 -10 8.03 2.46
11 -2 11 1.07 1.81
11 -2 11 2.15 2.09
-11 -2 -11 4.21 2.1
11 -1 -14 2.25 2.45
-11 -1 13 3.94 2.26
11 -1 -13 3.4 2.65
-11 -1 12 6.46 2.42
11 -1 -12 5.41 2.74
11 -1 -11 6.41 2.77
-11 -1 11 8.95 2.85
11 -1 -10 5.14 3
-11 -1 10 4.73 2.17
11 -1 -9 4.28 2.2
-11 -1 9 3.68 2.08
11 -1 -8 5.81 2.32
-11 -1 8 3.31 1.85
11 -1 -7 6.45 2.58
-11 -1 7 12.42 2.89
11 -1 -6 9.42 2.74
-11 -1 6 5.62 2.08
11 -1 -5 9.91 2.68
-11 -1 5 6.8 2.25
11 -1 -4 4.77 2.19
-11 -1 4 6.71 2.25
11 -1 -3 9.39 2.62
-11 -1 3 6.67 2.14
11 -1 -2 1.64 1.77
-11 -1 2 2.93 1.78
11 -1 -1 32.63 4.4
-11 -1 1 33.59 4.15
11 -1 0 5.13 2.23
-11 -1 0 1.23 1.08
11 -1 1 18.89 3.54
-11 -1 -1 13.48 2.84
11 -1 2 13.39 3.02
-11 -1 -2 12.41 2.77
11 -1 3 6.38 2.16
-11 -1 -3 6.18 2.21
11 -1 4 11.41 2.91
-11 -1 -4 10.32 2.57
11 -1 5 2.92 2.05
-11 -1 -5 4.07 2.05
11 -1 6 34.71 4.58
-11 -1 -6 28.09 4.09
11 -1 7 5.07 2.35
-11 -1 -7 6.34 2.21
11 -1 8 13.75 3.18
-11 -1 -8 13.04 2.95
11 -1 9 12.09 3.07
11 -1 9 6.66 2.67
-11 -1 -9 9.89 2.68
11 -1 10 7.71 2.49
11 -1 10 12.45 3.27
-11 -1 -10 12.17 3.01
11 -1 11 7.59 2.71
11 -1 11 9.25 3.11
-11 -1 -11 10.53 2.86
11 -1 12 3.99 2.33
-11 -1 -12 5.57 2.5
11 0 -14 2.25 2.62
11 0 -13 2.34 2.25
-11 0 12 5.36 2.27
11 0 -12 6.28 3.03
11 0 -11 1.39 2.05
-11 0 11 2.84 1.76
11 0 -10 4.87 2.75
-11 0 10 5.85 1.94
11 0 -9 2.63 2.47
-11 0 9 6.38 2.3
11 0 -8 7.08 2.69
-11 0 8 3.91 1.97
11 0 -7 6.43 2.41
-11 0 7 8.56 2.3
11 0 -6 15.76 3.29
-11 0 6 21.58 3.51
11 0 -5 0.86 1.72
-11 0 5 0.64 0.91
11 0 -4 11.16 3.03
-11 0 4 9.33 2.56
11 0 -3 4.35 2.11
-11 0 3 4.35 1.77
11 0 -2 17.97 3.4
-11 0 2 17.1 3.22
11 0 -1 15.76 3.45
-11 0 1 12.83 2.83
11 0 0 26.77 4.11
-11 0 0 24.2 3.55
11 0 1 4.43 2.17
-11 0 -1 3.93 2.05
11 0 2 4.13 2.21
-11 0 -2 1.17 1.46
11 0 3 24.26 4.04
-11 0 -3 25.42 3.85
11 0 4 8.91 2.89
-11 0 -4 5.97 2.27
11 0 5 4.15 2.32
-11 0 -5 6.37 2.29
11 0 6 6.09 2.47
-11 0 -6 14.04 2.96
11 0 7 6.5 2.48
-11 0 -7 8.59 2.41
11 0 8 10.78 3.03
-11 0 -8 9.28 2.72
11 0 9 7.03 2.75
11 0 9 5.47 2.32
-11 0 -9 3.87 1.9
11 0 10 7.57 2.63
11 0 10 6.33 2.53
-11 0 -10 8.45 2.74
11 0 11 6.91 2.79
-11 0 -11 7.65 2.64
11 0 11 8.82 2.98
11 0 12 7.33 3.09
-11 0 -12 4.02 2.17
11 0 12 5.71 2.74
11 1 -14 0.56 2.44
11 1 -13 2.09 2.53
11 1 -12 3.47 2.5
11 1 -11 3.73 2.8
-11 1 11 7.38 2.29
11 1 -10 3.52 3.03
-11 1 10 6.05 2.27
11 1 -9 1.35 2.17
-11 1 9 1.01 1.57
11 1 -8 2.86 2.25
-11 1 8 1.89 1.39
11 1 -7 9.54 2.71
-11 1 7 10.96 2.69
11 1 -6 4.08 1.97
-11 1 6 1.6 1.57
11 1 -5 10 2.71
-11 1 5 4.8 1.95
11 1 -4 10.99 2.92
-11 1 4 5.56 2.03
11 1 -3 5.32 2.28
-11 1 3 5.4 1.91
11 1 -2 6.48 2.33
-11 1 2 0.86 1.29
11 1 -1 33.8 4.55
-11 1 1 30.59 4.13
11 1 0 4.19 2.21
-11 1 0 4.34 2.05
11 1 1 14.46 3.32
11 1 2 19.26 3.67
11 1 3 7.41 2.75
11 1 4 12.41 3.01
11 1 5 4.5 2.43
11 1 6 39.14 5.03
11 1 7 9.85 3.26
11 1 8 9.1 2.77
11 1 9 10.42 3.03
11 1 10 11.05 3.22
11 1 10 9.93 3.01
11 1 11 9.17 3.16
11 1 11 12.01 3.18
11 1 12 7.11 2.97
11 2 -12 2.14 3.15
11 2 -11 4.73 3.15
11 2 -10 3.12 2.58
-11 2 10 5.56 2.07
11 2 -9 0.46 1.81
-11 2 9 2.67 1.72
11 2 -8 2.42 2.69
-11 2 8 3.04 1.45
11 2 -7 8.37 3.53
-11 2 7 9.4 2.56
11 2 -6 1.58 2.28
-11 2 6 2.9 1.82
11 2 -5 -1.05 1.23
-11 2 5 2 1.69
11 2 -4 5.65 2.43
-11 2 4 5.46 2.21
11 2 -3 9.84 2.81
-11 2 3 6.26 2.17
11 2 -2 11.17 3.13
11 2 -1 11.14 3.08
11 2 0 12.3 3.13
11 2 1 6.48 2.44
11 2 2 5.33 2.5
11 2 3 10.61 3.28
11 2 4 12.08 3.28
11 2 5 23.68 4.17
11 2 6 8.24 2.87
11 2 7 14.28 3.56
11 2 8 9.98 3.36
11 2 9 2.7 2.13
11 2 10 7.81 3.06
11 2 11 5.66 2.82
11 3 -10 1.14 2.57
11 3 -9 1.08 2.5
-11 3 9 5.67 2.33
11 3 -8 7.11 3.23
-11 3 8 11.48 2.84
11 3 -7 5.63 3.17
-11 3 7 11.3 2.85
11 3 -6 6.74 3.09
-11 3 6 12.33 3.08
11 3 -5 6.74 3.29
-11 3 5 11.51 2.93
11 3 -4 11.96 3.77
11 3 -3 3.11 2.3
11 3 -2 9.7 2.83
11 3 -1 4.81 2.37
11 3 0 0.21 1.63
11 3 1 5.72 2.71
11 3 2 10.65 3.21
11 3 3 13.08 3.33
11 3 4 13.04 3.72
11 3 5 18.79 4.12
11 3 6 7.16 3.09
11 3 7 6.78 2.92
11 3 8 7.32 3.05
11 3 9 3.6 2.42
11 3 10 5.89 3
11 4 -8 1.21 2.94
-11 4 8 6.47 2.32
11 4 -7 3.45 2.75
-11 4 7 6.04 2.27
11 4 -6 2.01 2.6
-11 4 6 3.16 1.9
11 4 -5 9.01 3.64
11 4 -4 14.19 4.46
11 4 -3 3.03 2.88
11 4 -2 0.99 2.06
11 4 -1 2.59 2.49
11 4 0 3.39 2.33
11 4 1 8.83 3.73
11 4 2 2.87 2.7
11 4 3 5.25 2.34
11 4 4 2.5 2.02
11 4 5 5.63 2.78
11 4 6 0.79 1.67
11 4 7 8.36 3.25
11 5 -6 1.29 2.61
11 5 -5 1.82 2.8
11 5 -4 1.38 2.82
11 5 -3 2.41 2.84
11 5 -2 6.87 3.28
11 5 -1 5.92 3.3
11 5 0 5.35 3.31
11 5 1 3.14 2.83
11 5 2 3.25 2.85
11 5 3 2.98 2.91
11 5 4 9.57 3.84
11 5 5 1.5 2.97
11 5 6 3.56 3.55
11 6 -2 1.4 2.64
11 6 -1 1.69 2.92
11 6 0 3.35 3.19
11 6 1 0.8 2.61
12 -4 -5 2.96 2.26
12 -4 -4 2.49 2.09
-12 -4 4 12.22 3.2
12 -4 -3 8.02 2.93
-12 -4 3 7.27 2.73
12 -4 -2 9.03 2.97
-12 -4 2 6.48 2.74
12 -4 -1 9.25 3.09
-12 -4 1 6.31 2.56
12 -4 0 9.66 3.08
-12 -4 0 8.15 2.77
12 -4 1 5.01 2.34
-12 -4 -1 7.48 2.58
12 -4 2 4.97 2.34
-12 -4 -2 6.49 2.38
12 -4 3 4.81 2.49
-12 -4 -3 6.56 2.56
12 -4 4 7.83 2.81
12 -3 -8 7.65 3.07
12 -3 -7 6.95 2.87
-12 -3 7 9.25 2.84
12 -3 -6 10.22 3.1
-12 -3 6 9.42 3
12 -3 -5 8.06 2.8
-12 -3 5 5.65 2.54
12 -3 -4 7.94 2.92
-12 -3 4 5.17 2.31
12 -3 -3 8.52 2.79
-12 -3 3 16.34 3.59
12 -3 -2 5.23 2.54
-12 -3 2 4.79 2.29
12 -3 -1 5.01 2.5
-12 -3 1 4.28 2.2
12 -3 0 3.81 2.06
-12 -3 0 1.97 1.79
12 -3 1 6.06 2.52
-12 -3 -1 1.34 1.78
12 -3 2 5.85 2.57
-12 -3 -2 5 1.97
12 -3 3 9.54 2.97
-12 -3 -3 6.96 2.2
12 -3 4 4.85 2.42
-12 -3 -4 3.59 1.99
12 -3 5 10.79 2.96
-12 -3 -5 8.48 2.59
12 -3 6 3.7 2.24
-12 -3 -6 2.98 1.9
12 -3 7 7.03 2.6
12 -2 -9 1.39 2.98
-12 -2 9 8.92 3.01
12 -2 -8 10.67 3.26
-12 -2 8 5.1 2.34
12 -2 -7 8.9 2.98
-12 -2 7 10.39 2.95
12 -2 -6 10.81 3.14
-12 -2 6 12.31 3.12
12 -2 -5 4.62 2.2
-12 -2 5 6.47 2.43
12 -2 -4 7.79 2.81
-12 -2 4 0.94 1.65
12 -2 -3 6.94 2.59
-12 -2 3 3.89 2.01
12 -2 -2 4.59 2.41
-12 -2 2 5.37 2.37
12 -2 -1 5.35 2.37
-12 -2 1 2.48 1.54
12 -2 0 6.82 2.75
-12 -2 0 6.72 2.41
12 -2 1 6.53 2.59
-12 -2 -1 7.57 2.52
12 -2 2 5.79 2.55
-12 -2 -2 7.28 2.65
12 -2 3 4.56 2.35
-12 -2 -3 4.03 1.94
12 -2 4 5.59 2.49
-12 -2 -4 0.87 1.42
12 -2 5 7.23 2.74
-12 -2 -5 3.64 2.09
12 -2 6 12.46 3.11
-12 -2 -6 9.83 2.76
12 -2 7 6.69 2.65
-12 -2 -7 6.56 2.5
12 -2 8 3.65 2.25
12 -1 -10 3.23 3.26
-12 -1 10 4.99 2.44
12 -1 -9 4.83 2.96
-12 -1 9 7.79 2.76
12 -1 -8 0.93 2.4
-12 -1 8 7.33 2.55
12 -1 -7 4.46 2.37
-12 -1 7 8.03 2.62
12 -1 -6 6.62 2.66
-12 -1 6 5.25 2.35
12 -1 -5 5.7 2.34
-12 -1 5 7.28 2.5
12 -1 -4 4.58 2.3
-12 -1 4 2.86 1.71
12 -1 -3 8.03 2.76
-12 -1 3 5.52 2.18
12 -1 -2 5.9 2.32
-12 -1 2 3.6 1.8
12 -1 -1 6.28 2.4
-12 -1 1 5.42 2.28
12 -1 0 7.9 2.7
-12 -1 0 8.08 2.54
12 -1 1 8.82 2.67
-12 -1 -1 12.81 3.08
12 -1 2 8.25 2.93
-12 -1 -2 5.93 2.36
12 -1 3 4.68 2.4
-12 -1 -3 7.78 2.57
12 -1 4 12.08 3.24
-12 -1 -4 8.68 2.73
12 -1 5 5.02 2.25
-12 -1 -5 3.44 1.98
12 -1 6 11.39 3.16
-12 -1 -6 6.38 2.48
12 -1 7 3.29 2.22
-12 -1 -7 6.67 2.52
12 -1 8 7.18 2.89
-12 -1 -8 10.83 2.96
12 0 -11 2.37 2.85
-12 0 11 2.81 2.24
12 0 -10 1.94 2.82
-12 0 10 7.47 2.72
12 0 -9 1.53 2.67
-12 0 9 6.38 2.47
12 0 -8 6.44 3.29
-12 0 8 6.17 2.48
12 0 -7 1.12 1.98
-12 0 7 0.89 1.54
12 0 -6 11.44 3.25
-12 0 6 10.09 2.86
12 0 -5 6.49 2.57
-12 0 5 3.1 2.11
12 0 -4 6.93 2.55
-12 0 4 3.42 2.13
12 0 -3 3.67 2.15
-12 0 3 5.39 2.23
12 0 -2 5.92 2.56
-12 0 2 10.03 2.76
12 0 -1 6.89 2.67
-12 0 1 2.41 1.57
12 0 0 5.63 2.5
-12 0 0 4.67 2.06
12 0 1 7.07 2.84
-12 0 -1 4.01 2.02
12 0 2 13.45 3.22
-12 0 -2 12.46 3.03
12 0 3 16.4 3.72
-12 0 -3 13.36 3.09
12 0 4 7.13 2.71
-12 0 -4 2.75 1.88
12 0 5 16.7 3.57
-12 0 -5 18.6 3.54
12 0 6 6.77 2.65
-12 0 -6 7.3 2.41
12 0 7 9.48 3.18
-12 0 -7 2.34 1.82
12 0 8 7.87 3.02
-12 0 -8 3.55 2.13
12 1 -11 4.46 3.3
12 1 -10 0.96 2.71
-12 1 10 5.72 2.47
12 1 -9 6.07 3.32
-12 1 9 9.05 2.75
12 1 -8 1.68 2.61
-12 1 8 1.32 1.68
12 1 -7 1.72 2.74
-12 1 7 8.18 2.58
12 1 -6 2.62 2.44
-12 1 6 3.07 2.1
12 1 -5 2.86 2.76
-12 1 5 9.15 2.83
12 1 -4 6.46 2.75
-12 1 4 4.07 1.96
12 1 -3 6.64 2.6
-12 1 3 3.98 2.2
12 1 -2 5.03 2.56
-12 1 2 7.09 2.35
12 1 -1 4.79 2.74
-12 1 1 7.46 2.71
12 1 0 5.89 2.58
-12 1 0 8.84 2.74
12 1 1 14.44 3.44
-12 1 -1 13.55 3.2
12 1 2 7.87 2.8
-12 1 -2 6.63 2.49
12 1 3 3.64 2.27
-12 1 -3 7.6 2.45
12 1 4 7.97 2.91
-12 1 -4 12.19 3.07
12 1 5 4.05 2.54
-12 1 -5 3.58 1.95
12 1 6 12.12 3.54
-12 1 -6 3.49 2.05
12 1 7 8.94 3.18
12 1 8 7.8 3.19
12 2 -10 1.82 3
12 2 -9 3.11 2.88
-12 2 9 4.91 2.25
12 2 -8 4.63 2.94
-12 2 8 7.74 2.41
12 2 -7 2.67 2.74
-12 2 7 6.47 2.57
12 2 -6 6.32 3.08
-12 2 6 12.9 3.05
12 2 -5 3.83 3.16
-12 2 5 6.95 2.51
12 2 -4 1.16 2.1
-12 2 4 2.54 1.76
12 2 -3 0.86 2.58
-12 2 3 3.62 1.97
12 2 -2 3.65 2.31
-12 2 2 5.07 2.22
12 2 -1 2.68 1.91
-12 2 1 1.5 1.68
12 2 0 12.81 3.41
-12 2 0 13.76 3.36
12 2 1 8.46 3.04
12 2 2 5.46 2.74
12 2 3 5.11 2.52
12 2 4 10.44 3.23
12 2 5 10.12 3.45
12 2 6 11.96 3.83
12 2 7 11.05 3.57
12 3 -9 4.19 3.52
12 3 -8 0.85 2.27
-12 3 8 6.48 2.66
12 3 -7 1.34 2.57
-12 3 7 5.14 2.46
12 3 -6 4.64 3.19
-12 3 6 6.61 2.68
12 3 -5 2.1 2.62
-12 3 5 5.97 2.52
12 3 -4 2.38 2.6
-12 3 4 3.3 2.13
12 3 -3 7.49 3.27
-12 3 3 12.5 3.13
12 3 -2 1.92 3.03
-12 3 2 4.95 2.22
12 3 -1 2.46 3.24
12 3 0 6.89 3.13
12 3 1 2.14 2.12
12 3 2 3.78 3.41
12 3 3 7.86 3.11
12 3 4 8.65 3.35
12 3 5 15.33 4.14
12 4 -6 2.16 2.83
-12 4 6 4.35 2.5
12 4 -5 2.01 2.73
-12 4 5 6.19 2.51
12 4 -4 3.66 3.14
-12 4 4 8.11 2.72
12 4 -3 1.23 2.9
12 4 -2 2.25 3.06
12 4 -1 1.73 2.89
12 4 0 1.96 2.96
12 4 1 2.64 3.35
12 4 2 4.81 3.3
13 -1 -1 8.69 3.22
13 0 -3 5.18 3.3
13 0 -2 7.11 3.08
-13 0 2 4.76 2.43
13 0 -1 12.72 3.58
-13 0 1 3.18 2.11
13 0 0 7.03 3
