#------------------------------------------------------------------------------
#$Date: 2019-11-04 18:08:49 +0200 (Mon, 04 Nov 2019) $
#$Revision: 223211 $
#$URL: file:///home/coder/svn-repositories/cod/cif/4/12/72/4127264.cif $
#------------------------------------------------------------------------------
#
# This file is available in the Crystallography Open Database (COD),
# http://www.crystallography.net/
#
# All data on this site have been placed in the public domain by the
# contributors.
#
data_4127264
loop_
_publ_author_name
'Shanahan, James P.'
'Szymczak, Nathaniel K.'
_publ_section_title
;
 Hydrogen Bonding to a Dinitrogen Complex at Room Temperature: Impacts on
 N<sub>2</sub> Activation.
;
_journal_issue                   21
_journal_name_full               'Journal of the American Chemical Society'
_journal_page_first              8550
_journal_page_last               8556
_journal_paper_doi               10.1021/jacs.9b02288
_journal_volume                  141
_journal_year                    2019
_chemical_formula_moiety         'C20 H48 N2 P4 Re, Br'
_chemical_formula_sum            'C20 H48 Br N2 P4 Re'
_chemical_formula_weight         706.59
_space_group_crystal_system      triclinic
_space_group_IT_number           2
_space_group_name_Hall           '-P 1'
_space_group_name_H-M_alt        'P -1'
_symmetry_space_group_name_Hall  '-P 1'
_symmetry_space_group_name_H-M   'P -1'
_atom_sites_solution_hydrogens   geom
_atom_sites_solution_primary     dual
_audit_creation_date             2019-02-12
_audit_creation_method
;
Olex2 1.2
(compiled 2018.05.29 svn.r3508 for OlexSys, GUI svn.r5506)
;
_cell_angle_alpha                94.734(3)
_cell_angle_beta                 99.553(3)
_cell_angle_gamma                102.843(3)
_cell_formula_units_Z            1
_cell_length_a                   7.9408(3)
_cell_length_b                   8.7181(3)
_cell_length_c                   10.1314(3)
_cell_measurement_reflns_used    7521
_cell_measurement_temperature    85(2)
_cell_measurement_theta_max      68.6690
_cell_measurement_theta_min      4.4490
_cell_volume                     669.13(4)
_computing_cell_refinement       'CrysAlisPro 1.171.38.41 (Rigaku OD, 2015)'
_computing_data_collection       'CrysAlisPro 1.171.38.41 (Rigaku OD, 2015)'
_computing_data_reduction        'CrysAlisPro 1.171.38.41 (Rigaku OD, 2015)'
_computing_molecular_graphics    'Olex2 (Dolomanov et al., 2009)'
_computing_publication_material  'Olex2 (Dolomanov et al., 2009)'
_computing_structure_refinement  'ShelXL (Sheldrick, 2015)'
_computing_structure_solution    'ShelXT (Sheldrick, 2015)'
_diffrn_ambient_temperature      85(2)
_diffrn_detector                 'CCD plate'
_diffrn_measured_fraction_theta_full 0.978
_diffrn_measured_fraction_theta_max 0.968
_diffrn_measurement_details
;
List of Runs (angles in degrees, time in seconds):

  # Type    Start    End  Width  t~exp~   \w     \q     \k     \f   Frames
--------------------------------------------------------------------------
  1  \w   -110.00  70.00   1.00    1.00    --  -20.00   0.00-180.00  180
  2  \w    -45.00   0.00   1.00    1.00    --  -20.00  72.00   0.00   45
  3  \w    -45.00   0.00   1.00    1.00    --  -20.00  72.00   0.00   45
  4  \w    -25.00  43.00   1.00    1.00    --  -20.00  36.00 120.00   68
  5  \w    -45.00   0.00   1.00    1.00    --  -20.00  72.00-180.00   45
  6  \w   -173.00-128.00   1.00    3.00    --  -92.00 -36.00 120.00   45
  7  \w   -133.00 -88.00   1.00    3.00    --  -92.00 -36.00 -60.00   45
  8  \w   -104.00 -59.00   1.00    3.00    --  -92.00  36.00  60.00   45
  9  \w   -122.00 -77.00   1.00    3.00    --  -92.00 -72.00  60.00   45
 10  \w   -174.00 -78.00   1.00    3.00    --  -92.00 -72.00-120.00   96
 11  \w    -93.00 -35.00   1.00    3.00    --  -92.00  36.00-120.00   58
 12  \w   -176.00 -77.00   1.00    3.00    --  -92.00 -72.00 -60.00   99
 13  \w   -147.00 -75.00   1.00    3.00    --  -92.00 -72.00-180.00   72
 14  \w   -176.00 -77.00   1.00    3.00    --  -92.00 -72.00 120.00   99
 15  \w   -177.00-116.00   1.00    3.00    --  -92.00 -36.00  60.00   61
 16  \w    -87.00  -9.00   1.00    3.00    --  -92.00  36.00 -60.00   78
 17  \w   -102.00 -14.00   1.00    3.00    --  -92.00  36.00   0.00   88
 18  \w   -102.00 -21.00   1.00    3.00    --  -92.00  72.00 120.00   81
 19  \w   -175.00-104.00   1.00    3.00    --  -92.00 -36.00   0.00   71
 20  \w   -104.00 -52.00   1.00    3.00    --  -92.00  72.00  60.00   52
 21  \w   -109.00 -14.00   1.00    3.00    --  -92.00  72.00-120.00   95
 22  \w   -105.00 -24.00   1.00    3.00    --  -92.00  36.00-120.00   81
 23  \w   -105.00  -2.00   1.00    3.00    --  -92.00  36.00-180.00  103
 24  \w   -106.00  -2.00   1.00    3.00    --  -92.00  72.00 -60.00  104
 25  \w   -106.00  -2.00   1.00    3.00    --  -92.00  72.00 -60.00  104
 26  \w   -107.00 -29.00   1.00    3.00    --  -92.00  72.00   0.00   78
 27  \w   -117.00 -72.00   1.00    3.00    --  -92.00  72.00 180.00   45
;
_diffrn_measurement_device       'abstract diffractometer'
_diffrn_measurement_device_type
'dtrek-CrysAlisPro-abstract goniometer imported rigaku-d*trek images'
_diffrn_measurement_method       '\w scans'
_diffrn_orient_matrix_type
'CrysAlisPro convention (1999,Acta A55,543-557)'
_diffrn_orient_matrix_UB_11      -0.0444389000
_diffrn_orient_matrix_UB_12      0.0179098000
_diffrn_orient_matrix_UB_13      0.1419590000
_diffrn_orient_matrix_UB_21      0.1499204000
_diffrn_orient_matrix_UB_22      -0.0770035000
_diffrn_orient_matrix_UB_23      0.0547680000
_diffrn_orient_matrix_UB_31      0.1289251000
_diffrn_orient_matrix_UB_32      0.1646616000
_diffrn_orient_matrix_UB_33      0.0315823000
_diffrn_radiation_monochromator  graphite
_diffrn_radiation_probe          x-ray
_diffrn_radiation_type           CuK\a
_diffrn_radiation_wavelength     1.54184
_diffrn_reflns_av_R_equivalents  0.0598
_diffrn_reflns_av_unetI/netI     0.0358
_diffrn_reflns_Laue_measured_fraction_full 0.978
_diffrn_reflns_Laue_measured_fraction_max 0.968
_diffrn_reflns_limit_h_max       9
_diffrn_reflns_limit_h_min       -9
_diffrn_reflns_limit_k_max       10
_diffrn_reflns_limit_k_min       -10
_diffrn_reflns_limit_l_max       12
_diffrn_reflns_limit_l_min       -12
_diffrn_reflns_number            9468
_diffrn_reflns_point_group_measured_fraction_full 0.978
_diffrn_reflns_point_group_measured_fraction_max 0.968
_diffrn_reflns_theta_full        67.684
_diffrn_reflns_theta_max         69.142
_diffrn_reflns_theta_min         4.460
_diffrn_source                   'fine-focus sealed X-ray tube'
_diffrn_source_type              'Enhance (Cu) X-ray Source'
_exptl_absorpt_coefficient_mu    12.956
_exptl_absorpt_correction_T_max  1.00000
_exptl_absorpt_correction_T_min  0.45195
_exptl_absorpt_correction_type   multi-scan
_exptl_absorpt_process_details
;
CrysAlisPro 1.171.38.41 (Rigaku Oxford Diffraction, 2015)
Empirical absorption correction using spherical harmonics,
 implemented in SCALE3 ABSPACK scaling algorithm.
;
_exptl_crystal_colour            'pale yellow'
_exptl_crystal_density_diffrn    1.754
_exptl_crystal_description       block
_exptl_crystal_F_000             352
_exptl_crystal_size_max          0.14
_exptl_crystal_size_mid          0.04
_exptl_crystal_size_min          0.04
_refine_diff_density_max         2.314
_refine_diff_density_min         -1.664
_refine_diff_density_rms         0.229
_refine_ls_extinction_coef       0.0109(7)
_refine_ls_extinction_expression Fc^*^=kFc[1+0.001xFc^2^\l^3^/sin(2\q)]^-1/4^
_refine_ls_extinction_method     'SHELXL-2016/6 (Sheldrick 2016)'
_refine_ls_goodness_of_fit_ref   1.124
_refine_ls_hydrogen_treatment    constr
_refine_ls_matrix_type           full
_refine_ls_number_parameters     135
_refine_ls_number_reflns         2426
_refine_ls_number_restraints     0
_refine_ls_restrained_S_all      1.124
_refine_ls_R_factor_all          0.0389
_refine_ls_R_factor_gt           0.0389
_refine_ls_shift/su_max          0.000
_refine_ls_shift/su_mean         0.000
_refine_ls_structure_factor_coef Fsqd
_refine_ls_weighting_details
'w=1/[\s^2^(Fo^2^)+(0.0733P)^2^+2.3296P] where P=(Fo^2^+2Fc^2^)/3'
_refine_ls_weighting_scheme      calc
_refine_ls_wR_factor_gt          0.1087
_refine_ls_wR_factor_ref         0.1087
_reflns_Friedel_coverage         0.000
_reflns_number_gt                2424
_reflns_number_total             2426
_reflns_threshold_expression     'I > 2\s(I)'
_cod_data_source_file            ja9b02288_si_001.cif
_cod_data_source_block           jps3296b
_cod_depositor_comments          'Adding full bibliography for 4127264.cif.'
_cod_database_code               4127264
_shelx_shelxl_version_number     2016/6
_chemical_oxdiff_formula         C20H48N2P4BrRe
_shelx_space_group_comment
;
The symmetry employed for this shelxl refinement is uniquely defined
by the following loop, which should always be used as a source of
symmetry information in preference to the above space-group names.
They are only intended as comments.
;
_shelx_estimated_absorpt_t_max   0.625
_shelx_estimated_absorpt_t_min   0.264
_reflns_odcompleteness_completeness 96.85
_reflns_odcompleteness_iscentric 1
_reflns_odcompleteness_theta     69.02
_olex2_refinement_description
;
1. Fixed Uiso
 At 1.2 times of:
  All C(H,H) groups
 At 1.5 times of:
  All C(H,H,H) groups
2. Uiso/Uaniso restraints and constraints
Uanis(Br1) = Uanis(N1) = Uanis(N2)
3. Others
 Fixed Sof: Br1(0.5) N1(0.5) N2(0.5)
4.a Secondary CH2 refined with riding coordinates:
 C3(H3A,H3B), C2(H2A,H2B), C7(H7A,H7B), C6(H6A,H6B), C5(H5A,H5B), C9(H9A,H9B)
4.b Idealised Me refined as rotating group:
 C8(H8A,H8B,H8C), C10(H10A,H10B,H10C), C1(H1A,H1B,H1C), C4(H4A,H4B,H4C)
;
_shelx_res_file
;
TITL
    jps3296b.res
    created by SHELXL-2016/6 at 10:51:04 on 12-Feb-2019
CELL 1.54184 7.9408 8.7181 10.1314 94.734 99.553 102.843
ZERR 1 0.0003 0.0003 0.0003 0.003 0.003 0.003
LATT 1
SFAC C H N P Br Re
UNIT 20 48 2 4 1 1
EADP Br1 N1 N2

L.S. 4 0 0
PLAN  20
SIZE 0.04 0.04 0.14
BOND $H
list 4
fmap 2 53
acta
REM <olex2.extras>
REM <HklSrc "%.\\jps3296b.hkl">
REM </olex2.extras>

WGHT    0.073300    2.329600
EXTI    0.010867
FVAR       0.82976
PART 1
RE1   6    0.500000    0.500000    0.500000    10.50000    0.01685    0.00668 =
         0.01227    0.00122   -0.00020    0.00401
P1    4    0.350688    0.342158    0.646821    11.00000    0.02063    0.01071 =
         0.01410    0.00178    0.00051    0.00342
P2    4    0.315788    0.292145    0.335182    11.00000    0.01894    0.00896 =
         0.01353    0.00043   -0.00055    0.00241
C3    1    0.471067    0.234261    0.763076    11.00000    0.02778    0.01830 =
         0.01692   -0.00144   -0.00164    0.00899
AFIX  23
H3A   2    0.387333    0.163867    0.803841    11.00000   -1.20000
H3B   2    0.528004    0.169224    0.711637    11.00000   -1.20000
AFIX   0
C8    1    0.299403    0.059430    0.110710    11.00000    0.03117    0.01444 =
         0.02071   -0.00384    0.00489    0.00706
AFIX 137
H8A   2    0.366902    0.023108    0.049784    11.00000   -1.50000
H8B   2    0.195863    0.081314    0.060057    11.00000   -1.50000
H8C   2    0.265755   -0.021019    0.166983    11.00000   -1.50000
AFIX   0
C2    1    0.220531    0.430130    0.751323    11.00000    0.03057    0.01760 =
         0.01841    0.00016    0.00690    0.01047
AFIX  23
H2A   2    0.301053    0.512852    0.816467    11.00000   -1.20000
H2B   2    0.145344    0.481022    0.693518    11.00000   -1.20000
AFIX   0
C7    1    0.410070    0.210116    0.198539    11.00000    0.02837    0.01613 =
         0.02016   -0.00339    0.00468    0.00141
AFIX  23
H7A   2    0.436249    0.291403    0.140077    11.00000   -1.20000
H7B   2    0.521051    0.189166    0.238794    11.00000   -1.20000
AFIX   0
C10   1   -0.056494    0.190981    0.212660    11.00000    0.02539    0.02107 =
         0.03737   -0.00477   -0.00419    0.00450
AFIX 137
H10A  2   -0.147401    0.224600    0.155920    11.00000   -1.50000
H10B  2   -0.094983    0.163047    0.294337    11.00000   -1.50000
H10C  2   -0.031470    0.100540    0.166267    11.00000   -1.50000
AFIX   0
C6    1    0.246793    0.117410    0.421940    11.00000    0.02146    0.01283 =
         0.01782    0.00443   -0.00009    0.00405
AFIX  23
H6A   2    0.152737    0.039067    0.362749    11.00000   -1.20000
H6B   2    0.344900    0.069616    0.446936    11.00000   -1.20000
AFIX   0
C1    1    0.104981    0.321116    0.828250    11.00000    0.03237    0.02600 =
         0.02473    0.00627    0.00985    0.00790
AFIX 137
H1A   2    0.020347    0.240757    0.765543    11.00000   -1.50000
H1B   2    0.044820    0.381913    0.878906    11.00000   -1.50000
H1C   2    0.177019    0.272038    0.888739    11.00000   -1.50000
AFIX   0
C5    1    0.183888    0.171837    0.546649    11.00000    0.02198    0.01404 =
         0.02159    0.00635    0.00138   -0.00220
AFIX  23
H5A   2    0.162745    0.085416    0.600916    11.00000   -1.20000
H5B   2    0.074057    0.202497    0.520504    11.00000   -1.20000
AFIX   0
C9    1    0.106688    0.323496    0.246207    11.00000    0.02595    0.01907 =
         0.04096    0.00656   -0.01018    0.00263
AFIX  23
H9A   2    0.079274    0.408873    0.299811    11.00000   -1.20000
H9B   2    0.128395    0.362112    0.162022    11.00000   -1.20000
AFIX   0
C4    1    0.609540    0.341801    0.874714    11.00000    0.03140    0.01669 =
         0.02222    0.00438   -0.00180    0.00718
AFIX 137
H4A   2    0.696214    0.408626    0.835505    11.00000   -1.50000
H4B   2    0.665235    0.278174    0.932395    11.00000   -1.50000
H4C   2    0.554423    0.406365    0.926585    11.00000   -1.50000
AFIX   0
PART 0
PART -1
BR1   5    0.731061    0.322517    0.517324    10.50000    0.01946    0.01330 =
         0.01799    0.00172    0.00135    0.00897
PART 0
PART 1
N1    3    0.670954    0.375667    0.511452    10.50000    0.01946    0.01330 =
         0.01799    0.00172    0.00135    0.00897
N2    3    0.773872    0.303011    0.518856    10.50000    0.01946    0.01330 =
         0.01799    0.00172    0.00135    0.00897
HKLF 4




REM
REM R1 =  0.0389 for    2424 Fo > 4sig(Fo)  and  0.0389 for all    2426 data
REM    135 parameters refined using      0 restraints

END

WGHT      0.0732      2.3394

REM Highest difference peak  2.314,  deepest hole -1.664,  1-sigma level  0.229
Q1    1   0.6470  0.4818  0.4995  11.00000  0.05    2.31
Q2    1   0.5724  0.3542  0.5437  11.00000  0.05    1.59
Q3    1   0.4792  0.5757  0.3942  11.00000  0.05    1.27
Q4    1   0.5073  0.4965  0.5829  11.00000  0.05    1.08
Q5    1   0.5599  0.1237  0.3521  11.00000  0.05    0.93
Q6    1   0.1819  0.1424  0.4605  11.00000  0.05    0.84
Q7    1   0.8985  0.4914  0.5091  11.00000  0.05    0.68
Q8    1   0.5363  0.5843  0.6144  11.00000  0.05    0.64
Q9    1   0.5829  0.1772  0.6587  11.00000  0.05    0.64
Q10   1   0.4224  0.1410  0.7249  11.00000  0.05    0.63
Q11   1   0.2930  0.0846  0.4295  11.00000  0.05    0.61
Q12   1  -0.0153  0.3079  0.7200  11.00000  0.05    0.61
Q13   1   0.7717  0.1774  0.5624  11.00000  0.05    0.60
Q14   1   0.3089 -0.0058  0.8146  11.00000  0.05    0.59
Q15   1   0.1376  0.0786  0.1362  11.00000  0.05    0.58
Q16   1   0.3238 -0.0368  0.4756  11.00000  0.05    0.56
Q17   1  -0.0599  0.2039  0.1434  11.00000  0.05    0.56
Q18   1   0.2471  0.0615  0.4206  11.00000  0.05    0.56
Q19   1   0.7980  0.5479  0.4795  11.00000  0.05    0.56
Q20   1  -0.0257  0.1014  0.7524  11.00000  0.05    0.55
;
_shelx_res_checksum              45548
_shelx_hkl_file
;
  -9  -1   2  145.14    6.37
  -9  -1   3  153.33    6.59
  -9   0   0  218.90    7.49
  -9   0   1   90.04    5.32
  -9   0   2  465.48   11.33
  -9   0   3  778.36   14.30
  -9   0   4  318.54   10.81
  -9   0   5  488.33   10.48
  -9   1   0  102.23    5.90
  -9   1   1  194.02    8.01
  -9   1   2  346.94   10.29
  -9   1   3  330.34   10.09
  -9   1   4  217.57    8.26
  -9   1   5  190.65    7.90
  -9   2  -1   61.87    4.81
  -9   2   0  338.27   10.22
  -9   2   1  563.52   13.08
  -9   2   2  242.55    8.98
  -9   2   3   14.87    3.48
  -9   2   4    2.67    2.96
  -9   2   5   54.34    4.92
  -9   3  -1  374.41   10.78
  -9   3   0  904.72   16.59
  -9   3   1  769.44   15.31
  -9   3   1  887.21   13.98
  -9   3   2  259.05    9.21
  -9   3   3   98.64    6.05
  -9   3   4   26.07    3.95
  -9   4  -1  759.32   15.55
  -9   4   0  673.00   14.76
  -9   4   0  732.49   12.59
  -9   4   1  252.50    9.33
  -9   4   1  319.43    8.72
  -9   4   2  369.71   11.20
  -9   4   3  356.37   11.66
  -9   5  -1  538.40   12.91
  -9   5   0  184.14    8.44
  -9   5   0  226.18    7.19
  -9   5   1  427.84    9.83
  -9   5   1  334.06   10.83
  -9   5   2  655.24   14.60
  -9   5   2  964.11   14.47
  -9   5   3 1183.92   15.72
  -8  -2   0   44.35    4.01
  -8  -1  -1  696.60   12.67
  -8  -1   0  118.19    6.35
  -8   0  -1 1355.03   19.56
  -8   0   0  654.49   14.65
  -8   1  -2  537.28   12.20
  -8   1  -1  839.49   16.35
  -8   1   0 2531.21   29.88
  -8   1   1 1924.51   26.73
  -8   1   6  497.02   11.96
  -8   1   7  974.58   12.19
  -8   2  -4  207.46    6.89
  -8   2  -3   33.06    4.51
  -8   2  -2   57.82    5.02
  -8   2  -1  656.75   15.10
  -8   2   0 2465.40   30.48
  -8   2   1 2324.73   29.89
  -8   2   2  939.73   19.48
  -8   2   3  537.69   14.73
  -8   2   4  428.71   12.56
  -8   2   5  373.13   10.79
  -8   2   6  830.90   12.35
  -8   2   6  632.28   13.15
  -8   2   7 1361.40   14.64
  -8   3  -3    4.65    3.44
  -8   3  -2  307.41   10.64
  -8   3  -1  429.65   12.64
  -8   3  -1  414.80   10.54
  -8   3   0  289.57   10.88
  -8   3   1  498.77   14.21
  -8   3   2  291.11   11.19
  -8   3   3  346.68   11.65
  -8   3   4  262.84    9.66
  -8   3   5  153.39    7.39
  -8   3   6  313.55    8.05
  -8   3   7  196.78    6.08
  -8   4  -4  423.37   10.93
  -8   4  -3  720.05   16.02
  -8   4  -2  548.81   14.99
  -8   4  -2  591.91   12.29
  -8   4  -1  236.55    9.96
  -8   4  -1  250.60    8.40
  -8   4   0   24.61    4.29
  -8   4   1   34.07    4.82
  -8   4   2  337.91   11.49
  -8   4   3  425.19   12.60
  -8   4   4  644.59   14.14
  -8   4   5  292.44    8.07
  -8   4   6    9.48    2.71
  -8   4   7    4.73    2.40
  -8   5  -3 1934.52   20.12
  -8   5  -3 1708.49   23.51
  -8   5  -2  788.74   17.99
  -8   5  -2  911.77   15.14
  -8   5  -1  432.87   13.70
  -8   5  -1  433.48   11.01
  -8   5  -1  398.27   12.14
  -8   5   0  270.03   10.98
  -8   5   0  314.87    9.66
  -8   5   1  524.46   14.69
  -8   5   2  665.17   16.12
  -8   5   3  719.02   17.06
  -8   5   3  752.40   17.47
  -8   5   4  881.92   18.74
  -8   5   4  837.23   18.34
  -8   5   5  252.36   10.01
  -8   5   5  226.39    9.57
  -8   5   6   19.21    3.75
  -8   5   6   18.48    3.72
  -8   6  -3 1312.44   18.16
  -8   6  -3 1556.00   17.33
  -8   6  -2  833.13   13.91
  -8   6  -2  791.13   16.07
  -8   6  -1  824.41   14.52
  -8   6  -1  796.05   16.55
  -8   6   0 1278.12   22.80
  -8   6   0 1427.52   19.25
  -8   6   1  760.06   17.70
  -8   6   1  914.49   15.50
  -8   6   2  652.03   15.72
  -8   6   2  908.99   15.29
  -8   6   3  377.56   12.21
  -8   6   3  377.10   12.19
  -8   6   4  267.78   10.57
  -8   6   4  291.97   10.53
  -8   6   5  633.16   14.29
  -8   6   5  618.43   14.11
  -8   7  -2  558.86   11.15
  -8   7  -2  599.65   10.83
  -8   7  -1 1241.97   17.81
  -8   7  -1 1299.45   19.53
  -8   7   0 1780.00   20.06
  -8   7   0 1671.52   22.95
  -8   7   1 1250.42   16.79
  -8   7   1  964.55   16.09
  -8   7   2  454.82   10.00
  -8   7   3  228.71    6.91
  -7  -3   7  298.63    6.57
  -7  -2  -1  636.60   12.86
  -7  -2   6  430.81    9.10
  -7  -2   7  159.97    5.49
  -7  -2   8  335.94    6.99
  -7  -1   5  278.19    8.09
  -7  -1   6  170.41    6.46
  -7  -1   7  346.84    8.21
  -7  -1   8  195.59    5.83
  -7  -1   9  332.45    6.50
  -7   0  -6  489.11    8.95
  -7   0  -2  226.89    8.65
  -7   0  -1  947.99   17.49
  -7   0   5   19.54    3.21
  -7   0   6  247.16    7.70
  -7   0   7  805.55   12.78
  -7   0   8  422.37    8.67
  -7   0   9  105.24    4.02
  -7   1  -6 1797.40   17.86
  -7   1  -3  278.33    9.24
  -7   1  -2  436.88   11.99
  -7   1  -1 1075.08   19.31
  -7   1   4  206.66    6.78
  -7   1   5  718.56   12.51
  -7   1   6  639.33   11.83
  -7   1   7 1157.39   15.30
  -7   1   8 1000.66   13.20
  -7   1   9   78.24    3.62
  -7   2  -6 1669.51   17.41
  -7   2  -5  921.24   14.79
  -7   2  -4  550.23   13.34
  -7   2  -3  975.85   17.88
  -7   2  -2 1269.67   20.87
  -7   2  -1 1261.79   22.10
  -7   2   0 2103.57   28.35
  -7   2   1 3362.86   35.74
  -7   2   4 1352.25   16.50
  -7   2   5 1435.02   17.66
  -7   2   6  551.90   13.09
  -7   2   6  800.59   13.26
  -7   2   7  553.26   10.73
  -7   2   8  884.04   12.54
  -7   2   9  894.93   11.16
  -7   3  -6  205.73    6.38
  -7   3  -5  500.83   10.68
  -7   3  -4 1134.09   20.62
  -7   3  -3 1898.74   22.38
  -7   3  -3 1996.06   26.83
  -7   3  -2 1630.45   21.17
  -7   3  -2 1710.11   25.30
  -7   3  -1  751.88   17.36
  -7   3   0  545.67   15.15
  -7   3   1  483.42   14.00
  -7   3   2 1398.14   22.81
  -7   3   3 2474.16   29.99
  -7   3   4 1493.76   22.73
  -7   3   4 1466.69   17.77
  -7   3   5 1378.11   17.49
  -7   3   5 1118.24   18.59
  -7   3   6  618.06   11.83
  -7   3   7   46.54    4.46
  -7   3   7  121.39    5.34
  -7   3   8  294.36    8.59
  -7   3   8  704.62   10.98
  -7   3   9 1612.09   14.74
  -7   4  -5   68.13    5.03
  -7   4  -4  898.82   14.92
  -7   4  -4  797.22   17.82
  -7   4  -3 1079.13   21.05
  -7   4  -3 1025.27   17.14
  -7   4  -2  607.05   13.47
  -7   4  -2  632.28   16.77
  -7   4  -1  274.01   11.08
  -7   4   0   28.99    4.45
  -7   4   1  250.36   10.39
  -7   4   2 1229.30   21.53
  -7   4   3 1646.37   24.00
  -7   4   3 1731.18   19.41
  -7   4   4 1711.91   19.89
  -7   4   4 1840.26   24.12
  -7   4   5  621.78   14.21
  -7   4   5  690.84   12.71
  -7   4   6  261.02    7.92
  -7   4   6  197.22    8.35
  -7   4   7  165.04    6.00
  -7   4   7   88.29    5.56
  -7   4   8  184.34    6.63
  -7   4   8  324.55    7.32
  -7   5  -6  114.63    4.65
  -7   5  -5  207.94    6.62
  -7   5  -5  172.54    6.82
  -7   5  -4  376.05    9.79
  -7   5  -4  338.59   11.47
  -7   5  -3  523.70   15.70
  -7   5  -3  566.68   14.89
  -7   5  -3  559.37   12.81
  -7   5  -2  481.20   14.93
  -7   5  -2  462.15   12.08
  -7   5  -1  126.14    8.23
  -7   5  -1  127.71    6.61
  -7   5   0  302.02   12.02
  -7   5   1  469.64   14.63
  -7   5   1  470.40   14.54
  -7   5   2   81.14    6.48
  -7   5   2   92.63    7.28
  -7   5   2  102.62    6.14
  -7   5   2   87.91    7.09
  -7   5   3  110.63    5.69
  -7   5   3  116.98    6.63
  -7   5   3   97.45    6.68
  -7   5   4  283.04    8.71
  -7   5   4  277.12    9.73
  -7   5   5  216.53    7.46
  -7   5   5  219.07    8.56
  -7   5   6  347.13    8.82
  -7   5   6  292.53    9.42
  -7   5   7  325.57    9.19
  -7   5   7  458.27    9.41
  -7   5   8  144.31    6.78
  -7   5   8  160.97    6.83
  -7   6  -5  753.85   11.80
  -7   6  -5  614.55   10.87
  -7   6  -4  266.97    9.39
  -7   6  -4  250.90    8.80
  -7   6  -4  263.15    8.00
  -7   6  -3  365.31   10.09
  -7   6  -3  368.02   11.86
  -7   6  -3  332.61   11.99
  -7   6  -2  509.85   12.51
  -7   6  -2  488.86   14.19
  -7   6  -1 1332.36   25.48
  -7   6  -1 1334.31   20.37
  -7   6  -1 1358.07   21.14
  -7   6   0 1362.79   20.65
  -7   6   0 1385.97   21.16
  -7   6   0 1361.04   25.35
  -7   6   1  746.26   15.24
  -7   6   1  625.84   16.91
  -7   6   1  651.72   17.37
  -7   6   1  754.66   15.76
  -7   6   1  605.25   16.60
  -7   6   2  240.01   10.86
  -7   6   2  247.35   10.79
  -7   6   2  238.19   10.82
  -7   6   3   48.41    4.48
  -7   6   3   51.20    5.99
  -7   6   3   33.80    5.15
  -7   6   3   35.19    5.17
  -7   6   4   78.36    6.78
  -7   6   4   72.19    6.49
  -7   6   5  439.89   10.74
  -7   6   5  479.60   10.21
  -7   6   5  402.88   12.98
  -7   6   5  395.84   12.88
  -7   6   5  489.52   11.83
  -7   6   6  808.07   14.05
  -7   6   6  783.16   13.05
  -7   6   6  748.86   15.85
  -7   6   6  718.81   15.61
  -7   6   7  542.18   12.34
  -7   6   7  539.20   12.22
  -7   7  -4  313.95    8.04
  -7   7  -4  308.62    8.03
  -7   7  -4  301.88    9.22
  -7   7  -3  250.80    8.42
  -7   7  -3  252.88    7.87
  -7   7  -3  248.56    9.19
  -7   7  -2 1493.72   23.20
  -7   7  -2 1522.98   19.89
  -7   7  -2 1486.12   21.04
  -7   7  -1 2620.17   30.92
  -7   7  -1 2658.81   27.24
  -7   7   0 1685.23   21.72
  -7   7   0 1802.45   23.31
  -7   7   1 1121.99   20.45
  -7   7   1 1318.55   19.01
  -7   7   1 1329.73   19.93
  -7   7   1 1157.29   21.81
  -7   7   1 1089.86   21.23
  -7   7   2  936.21   17.19
  -7   7   2 1041.37   20.78
  -7   7   2 1069.51   21.03
  -7   7   2 1211.14   17.54
  -7   7   2 1260.31   19.21
  -7   7   3  481.99   14.26
  -7   7   3  507.81   14.60
  -7   7   4  265.07    7.55
  -7   7   4  275.15   10.44
  -7   7   4  279.06   10.49
  -7   7   5  729.34   15.69
  -7   7   5  740.99   15.79
  -7   7   6  841.84   15.26
  -7   7   6  838.08   15.17
  -7   8  -3 1084.03   13.98
  -7   8  -3  970.72   13.12
  -7   8  -2 1091.25   14.99
  -7   8  -2 1076.84   17.75
  -7   8  -2 1120.02   15.30
  -7   8  -1  710.30   12.66
  -7   8  -1  715.19   15.13
  -7   8  -1  751.47   12.99
  -7   8   0  719.28   12.81
  -7   8   0  653.72   12.11
  -7   8   0  743.68   13.88
  -7   8   0  641.05   14.59
  -7   8   1  670.78   15.28
  -7   8   1  653.40   14.99
  -7   8   2 1274.85   20.71
  -7   8   2 1321.63   16.39
  -7   8   3  951.09   17.63
  -7   8   3  937.06   17.54
  -7   8   4  620.43   13.66
  -7   8   4  621.85   13.57
  -6  -5   6  162.95    5.03
  -6  -5   7  323.50    6.27
  -6  -4   5  256.07    7.16
  -6  -4   6  114.16    4.92
  -6  -4   7   13.59    2.37
  -6  -4   8   29.86    2.54
  -6  -3   5  926.32   14.39
  -6  -3   6  400.14    9.35
  -6  -3   7  105.09    4.82
  -6  -3   8  149.80    5.21
  -6  -3   9  341.46    6.65
  -6  -2  -6  244.25    6.63
  -6  -2   4 2011.63   21.00
  -6  -2   5 1456.24   18.12
  -6  -2   6 1165.78   16.24
  -6  -2   7  917.40   14.02
  -6  -2   8  773.28   12.17
  -6  -2   9  790.53   10.89
  -6  -2  10  821.67    9.39
  -6  -1  -7  296.56    6.77
  -6  -1   4  327.77    8.62
  -6  -1   5  566.00   11.48
  -6  -1   6 1574.99   19.32
  -6  -1   7 2015.40   21.40
  -6  -1   8 1175.19   15.47
  -6  -1   9 1231.37   14.37
  -6  -1  10  483.57    7.61
  -6   0  -7  465.74    9.11
  -6   0  -3   10.20    2.99
  -6   0  -2   58.44    4.69
  -6   0   4   26.77    3.19
  -6   0   5  667.11   12.25
  -6   0   6 1194.89   16.65
  -6   0   7 1485.06   18.62
  -6   0   8 1607.02   18.58
  -6   0   9  420.08    8.67
  -6   0  10   64.07    3.15
  -6   1  -8  264.73    6.11
  -6   1  -7  635.37   10.48
  -6   1  -7  860.00   12.76
  -6   1  -3  451.88   11.53
  -6   1  -2   59.40    4.73
  -6   1   3  146.82    5.48
  -6   1   4  309.44    8.14
  -6   1   5  570.43   11.30
  -6   1   6  173.25    6.80
  -6   1   7  303.36    8.72
  -6   1   8  350.31    8.80
  -6   1   9  215.09    6.28
  -6   1  10  301.09    6.28
  -6   2  -8  868.21   11.10
  -6   2  -7  916.16   13.50
  -6   2  -6  867.09   14.98
  -6   2  -4 1818.95   24.08
  -6   2  -3 2837.14   29.46
  -6   2  -3 2872.96   25.99
  -6   2  -2 2370.83   27.44
  -6   2  -1 1121.90   18.68
  -6   2   3 1966.15   18.61
  -6   2   4 1063.90   14.43
  -6   2   5  510.59   10.68
  -6   2   6  274.90    8.16
  -6   2   7   42.36    3.76
  -6   2   8  101.96    4.96
  -6   2   9  831.49   11.75
  -6   2  10  916.61   10.68
  -6   3  -8  959.92   11.08
  -6   3  -7  195.66    6.37
  -6   3  -6  359.74    9.40
  -6   3  -5 1435.76   23.08
  -6   3  -5 1584.74   20.74
  -6   3  -4 1794.13   22.11
  -6   3  -4 1873.41   26.24
  -6   3  -3 3372.99   33.97
  -6   3  -3 3391.12   29.80
  -6   3  -2 3401.87   33.61
  -6   3  -1 1587.48   23.05
  -6   3   0  504.15   13.06
  -6   3   1  787.43   16.12
  -6   3   2 3249.20   28.41
  -6   3   2 3287.80   32.05
  -6   3   3 4491.57   37.40
  -6   3   3 4628.86   33.87
  -6   3   4 2441.09   22.24
  -6   3   4 2391.79   27.29
  -6   3   5 1213.17   18.74
  -6   3   5 1674.14   23.68
  -6   3   5 1575.92   18.57
  -6   3   5 1363.42   19.27
  -6   3   6  711.57   12.86
  -6   3   6  501.94   12.00
  -6   3   7  331.69    8.73
  -6   3   8  438.55    9.50
  -6   3   9  860.80   11.65
  -6   3  10 1009.63   11.03
  -6   3  10  377.12    9.18
  -6   4  -8  305.65    6.18
  -6   4  -7  232.95    6.63
  -6   4  -6  287.07    8.15
  -6   4  -5  828.50   17.89
  -6   4  -5  906.13   15.57
  -6   4  -4 1201.25   22.83
  -6   4  -4 1249.08   17.85
  -6   4  -4 1210.37   21.44
  -6   4  -3  962.54   19.17
  -6   4  -3  946.12   20.23
  -6   4  -3  961.22   16.83
  -6   4  -2 1981.09   27.50
  -6   4  -2 1995.65   23.71
  -6   4  -1 1655.34   24.17
  -6   4   0 1203.71   20.76
  -6   4   0 1158.09   20.44
  -6   4   0 1229.92   18.37
  -6   4   0 1177.31   20.52
  -6   4   1 2232.08   24.76
  -6   4   1 2198.36   27.24
  -6   4   2 1614.60   21.48
  -6   4   2 1621.33   23.05
  -6   4   2 1623.84   17.71
  -6   4   3 1645.03   18.59
  -6   4   3 1800.30   22.64
  -6   4   3 1719.71   23.01
  -6   4   3 1841.10   23.61
  -6   4   4 1802.84   20.03
  -6   4   4 1845.04   23.06
  -6   4   5  909.76   14.55
  -6   4   5  888.01   16.47
  -6   4   6 1653.06   23.97
  -6   4   6 1547.30   19.00
  -6   4   7 1595.54   22.89
  -6   4   7 1894.69   20.26
  -6   4   8  793.80   13.43
  -6   4   8  797.06   15.04
  -6   4   9  385.12    9.44
  -6   4   9  544.34    8.92
  -6   5  -7  727.67   11.26
  -6   5  -6  658.13   12.03
  -6   5  -5  530.16   13.57
  -6   5  -5  539.86   12.16
  -6   5  -4  187.12    9.08
  -6   5  -4  166.02    7.48
  -6   5  -4  168.85    9.32
  -6   5  -3   95.16    6.91
  -6   5  -3   92.52    7.76
  -6   5  -3   90.09    5.79
  -6   5  -3   91.71    6.31
  -6   5  -2  568.54   16.38
  -6   5  -2  577.12   13.57
  -6   5  -2  597.91   14.22
  -6   5  -1 1463.43   21.42
  -6   5  -1 1449.16   25.17
  -6   5   0 1732.21   26.56
  -6   5   0 1686.72   26.20
  -6   5   0 1836.45   23.73
  -6   5   0 1788.92   26.71
  -6   5   1 1036.70   21.10
  -6   5   1 1072.26   19.71
  -6   5   1 1038.79   21.20
  -6   5   2  357.12   10.76
  -6   5   2  337.62   10.46
  -6   5   2  341.67    9.18
  -6   5   3   83.38    5.47
  -6   5   3   78.94    4.98
  -6   5   3   91.85    5.91
  -6   5   3   76.88    5.95
  -6   5   4  240.03    8.86
  -6   5   4  239.41    7.87
  -6   5   4  259.80    9.72
  -6   5   5 1119.24   19.94
  -6   5   5 1108.40   16.44
  -6   5   6 1956.94   21.25
  -6   5   6 1985.10   25.68
  -6   5   7 1749.94   22.99
  -6   5   7 1853.33   19.28
  -6   5   8  560.04   10.59
  -6   5   8  545.22   11.62
  -6   5   9   97.34    4.48
  -6   5   9  129.41    4.46
  -6   6  -6  697.25   11.44
  -6   6  -6  795.49   12.35
  -6   6  -5  106.59    6.62
  -6   6  -5   88.88    5.53
  -6   6  -5  104.42    5.47
  -6   6  -4   24.52    4.29
  -6   6  -4   19.29    4.01
  -6   6  -4   21.37    4.00
  -6   6  -4   19.53    3.23
  -6   6  -3   12.48    3.45
  -6   6  -3   15.37    3.91
  -6   6  -3   16.16    3.12
  -6   6  -3   14.10    4.64
  -6   6  -2  234.22    9.30
  -6   6  -2  236.80   11.60
  -6   6  -2  234.16    9.06
  -6   6  -1 1445.83   21.86
  -6   6  -1 1426.36   21.49
  -6   6  -1 1428.53   24.48
  -6   6  -1 1414.10   24.50
  -6   6   0  739.20   18.63
  -6   6   0  774.79   16.20
  -6   6   0  708.64   14.98
  -6   6   0  716.09   18.34
  -6   6   0  727.90   18.51
  -6   6   1  615.73   17.28
  -6   6   1  621.44   16.82
  -6   6   1  619.31   17.38
  -6   6   2  392.92   13.25
  -6   6   2  426.32   14.53
  -6   6   2  434.59   12.34
  -6   6   2  424.88   14.52
  -6   6   2  441.97   12.31
  -6   6   3   27.22    3.56
  -6   6   3   23.38    4.71
  -6   6   3   28.96    3.82
  -6   6   3   23.56    4.74
  -6   6   3   20.83    3.42
  -6   6   4  179.22    8.10
  -6   6   4  174.50    7.65
  -6   6   4  164.06    9.49
  -6   6   4  171.57    7.07
  -6   6   4  164.54    9.44
  -6   6   5  707.19   14.42
  -6   6   5  617.96   16.93
  -6   6   5  619.50   16.89
  -6   6   5  717.13   15.43
  -6   6   5  688.36   13.32
  -6   6   6  895.39   16.29
  -6   6   6  754.95   17.61
  -6   6   6  815.29   14.55
  -6   6   6  919.36   14.39
  -6   6   6  780.24   17.94
  -6   6   7  383.56    9.13
  -6   6   7  303.97   10.37
  -6   6   7  293.24   10.35
  -6   6   7  388.26    8.49
  -6   6   7  407.80   10.15
  -6   6   8   67.19    4.87
  -6   6   8   67.70    4.90
  -6   6   8  100.41    4.77
  -6   6   8  120.99    4.53
  -6   7  -6  459.34    8.44
  -6   7  -5  605.51   13.58
  -6   7  -5  621.67   11.69
  -6   7  -4  568.89   12.36
  -6   7  -4  550.98   13.91
  -6   7  -4  568.44   12.95
  -6   7  -4  574.97   14.48
  -6   7  -3  621.65   14.67
  -6   7  -3  613.89   15.17
  -6   7  -3  616.36   13.62
  -6   7  -3  601.76   15.73
  -6   7  -2  445.31   13.97
  -6   7  -2  465.96   14.30
  -6   7  -2  471.99   12.29
  -6   7  -2  492.46   13.19
  -6   7  -1  497.09   14.83
  -6   7  -1  516.34   13.35
  -6   7  -1  517.38   12.85
  -6   7  -1  508.76   15.07
  -6   7  -1  504.78   15.16
  -6   7   0  467.52   15.22
  -6   7   0  462.99   14.27
  -6   7   0  507.33   13.31
  -6   7   0  465.62   15.16
  -6   7   0  483.90   12.31
  -6   7   1  226.13   10.88
  -6   7   1  242.63   11.20
  -6   7   1  236.08    9.21
  -6   7   1  241.68    8.58
  -6   7   1  230.86   10.12
  -6   7   2  505.40   11.85
  -6   7   2  448.72   12.79
  -6   7   2  491.14   15.60
  -6   7   2  513.90   13.21
  -6   7   2  470.02   15.35
  -6   7   3  588.88   12.04
  -6   7   3  686.95   15.06
  -6   7   3  579.37   16.81
  -6   7   3  731.46   14.96
  -6   7   3  584.99   16.76
  -6   7   4  222.18   10.19
  -6   7   4  247.19    8.90
  -6   7   4  222.82   10.23
  -6   7   5  128.45    7.44
  -6   7   5  157.84    6.80
  -6   7   5  174.13    6.76
  -6   7   5  133.53    7.60
  -6   7   6   47.64    3.49
  -6   7   6   28.26    4.15
  -6   7   6   28.64    4.17
  -6   7   6   42.86    3.62
  -6   7   7  110.04    4.43
  -6   7   7   66.13    4.86
  -6   7   7   66.54    4.89
  -6   7   7   96.75    4.62
  -6   8  -5  787.55   15.21
  -6   8  -5 1276.03   14.16
  -6   8  -4 2362.47   21.54
  -6   8  -4 2438.68   22.25
  -6   8  -4 2411.84   26.49
  -6   8  -3 2032.15   21.69
  -6   8  -3 2019.75   25.69
  -6   8  -3 2001.51   21.80
  -6   8  -3 2068.28   24.91
  -6   8  -2  416.33   10.72
  -6   8  -2  404.12   12.35
  -6   8  -2  428.73   10.66
  -6   8  -2  429.70   11.49
  -6   8  -1  325.86   11.55
  -6   8  -1  340.58   10.38
  -6   8  -1  355.32    9.89
  -6   8  -1  314.70   11.24
  -6   8  -1  321.09   11.45
  -6   8  -1  326.36    9.86
  -6   8   0  608.03   15.45
  -6   8   0  637.48   16.18
  -6   8   0  622.31   16.06
  -6   8   0  659.63   14.25
  -6   8   0  646.82   13.21
  -6   8   0  631.88   13.06
  -6   8   1  551.06   12.96
  -6   8   1  547.53   15.36
  -6   8   1  524.13   15.00
  -6   8   1  567.12   12.12
  -6   8   2 1137.59   21.92
  -6   8   2 1161.31   16.40
  -6   8   2 1123.38   21.94
  -6   8   3 1758.81   26.32
  -6   8   3 1758.52   26.38
  -6   8   4  850.14   17.33
  -6   8   4  859.14   17.37
  -6   8   5   83.20    5.54
  -6   8   5   83.16    5.58
  -6   9  -3 1228.66   17.35
  -6   9  -2  989.37   15.81
  -6   9  -2  892.05   12.54
  -6   9  -2  992.68   13.52
  -6   9  -2  911.71   15.94
  -6   9  -1  497.66   12.08
  -6   9  -1  566.83   11.85
  -6   9  -1  501.93   12.18
  -6   9  -1  507.88   12.29
  -6   9  -1  464.48    9.21
  -6   9  -1  558.89   10.42
  -6   9   0 1007.64   17.24
  -6   9   0  997.66   17.71
  -6   9   0 1030.28   17.99
  -6   9   1 1318.12   20.53
  -6   9   1 1334.09   20.64
  -6   9   2 1159.98   18.94
  -6   9   2 1172.64   18.94
  -6   9   3 1470.58   20.26
  -6   9   3 1413.28   19.91
  -5  -5   8  261.71    6.11
  -5  -5   9  436.33    6.77
  -5  -4   8   13.33    2.30
  -5  -4   9  196.53    5.25
  -5  -4  10  774.13    8.55
  -5  -3  -6  127.06    5.18
  -5  -3   8  167.22    6.13
  -5  -3   9  151.39    5.15
  -5  -3  10  199.80    4.94
  -5  -2  -7 1234.43   14.66
  -5  -2   7  652.73   12.47
  -5  -2   8  695.59   12.35
  -5  -2   9  262.12    7.05
  -5  -2  10   46.65    2.88
  -5  -1  -8  185.02    5.52
  -5  -1  -7 1662.52   19.01
  -5  -1   6 3399.24   27.54
  -5  -1   7 2802.87   25.44
  -5  -1   8 1656.10   19.18
  -5  -1   9 1031.10   13.97
  -5  -1  10  129.10    4.56
  -5  -1  11  117.58    3.62
  -5   0  -8  400.24    8.65
  -5   0  -7  725.42   13.54
  -5   0  -7  696.11   11.86
  -5   0  -3  214.56    7.24
  -5   0   3 2494.52   19.64
  -5   0   4 1583.70   16.61
  -5   0   5 1670.40   18.19
  -5   0   6 2397.59   22.76
  -5   0   7 2417.77   23.49
  -5   0   8 1297.19   16.76
  -5   0   9 1071.31   14.46
  -5   0  10 1171.39   13.19
  -5   0  11  821.43    9.11
  -5   1  -9  493.72    8.10
  -5   1  -8  210.94    6.04
  -5   1  -8  214.74    6.69
  -5   1  -7   65.12    4.59
  -5   1  -4  645.26   13.02
  -5   1  -3 1464.36   18.91
  -5   1  -2 1477.44   18.57
  -5   1   2  828.92   10.35
  -5   1   3 1634.02   15.51
  -5   1   4 2819.28   21.51
  -5   1   5  644.05   11.23
  -5   1   6  156.18    6.04
  -5   1   7  490.56   10.65
  -5   1   8  414.03    9.69
  -5   1   9 1252.12   15.36
  -5   1  10 2020.81   16.97
  -5   1  11 1172.55   10.98
  -5   2  -9 1072.35   12.12
  -5   2  -8  450.76    9.39
  -5   2  -8  497.57   10.18
  -5   2  -7   74.76    4.90
  -5   2  -6   71.64    5.22
  -5   2  -4  824.35   15.49
  -5   2  -4  788.80   13.73
  -5   2  -3 2264.93   21.69
  -5   2  -3 2212.07   24.37
  -5   2  -2 1548.40   20.00
  -5   2  -1  146.68    6.24
  -5   2   2  785.59   11.48
  -5   2   2  695.73    9.46
  -5   2   3 2435.57   21.01
  -5   2   3 2368.89   18.67
  -5   2   4 1414.97   15.49
  -5   2   4 1417.51   16.55
  -5   2   5  543.54   11.30
  -5   2   5  574.68   10.64
  -5   2   6   73.05    4.46
  -5   2   6   52.79    4.16
  -5   2   7   22.97    3.45
  -5   2   7   68.19    4.40
  -5   2   8  262.51    7.63
  -5   2   8  165.43    7.06
  -5   2   9  415.06    8.75
  -5   2  10  963.76   11.60
  -5   3  -9 1480.50   14.29
  -5   3  -9 1302.41   12.91
  -5   3  -8 1340.72   16.19
  -5   3  -8 1153.93   15.12
  -5   3  -7  337.88    9.35
  -5   3  -6  384.45   10.51
  -5   3  -5 1159.89   21.54
  -5   3  -5 1210.43   18.10
  -5   3  -4 1475.82   22.19
  -5   3  -4 1396.30   19.18
  -5   3  -3 1043.98   15.71
  -5   3  -3 1089.21   17.92
  -5   3  -2 1283.01   18.82
  -5   3  -1 1828.00   22.16
  -5   3  -1 1632.05   18.25
  -5   3   0  549.38   11.86
  -5   3   0  500.89   10.02
  -5   3   1  507.49   10.02
  -5   3   1  529.26   10.31
  -5   3   2 1940.45   19.40
  -5   3   2 2016.43   20.56
  -5   3   3 1194.88   17.03
  -5   3   3 1096.27   15.48
  -5   3   4  391.94    9.60
  -5   3   4  361.26    8.09
  -5   3   5  624.32   11.11
  -5   3   5  642.35   13.17
  -5   3   6  435.12   11.41
  -5   3   6  546.55   10.82
  -5   3   7  285.67    9.53
  -5   3   7  477.93   10.31
  -5   3   8  192.98    7.63
  -5   3   8  275.69    7.72
  -5   3   9  105.90    4.62
  -5   3   9   91.12    4.95
  -5   3  10  116.44    4.22
  -5   4  -9  522.06    8.11
  -5   4  -8 1397.31   15.39
  -5   4  -8 1177.45   14.61
  -5   4  -7 2305.17   22.45
  -5   4  -6 1966.08   22.09
  -5   4  -6 1879.24   22.51
  -5   4  -5 2363.16   31.08
  -5   4  -5 2152.18   30.47
  -5   4  -5 2556.50   25.40
  -5   4  -5 2386.90   30.19
  -5   4  -5 2327.15   26.08
  -5   4  -4 1379.53   22.48
  -5   4  -4 1411.69   20.37
  -5   4  -4 1449.30   19.03
  -5   4  -4 1421.46   23.04
  -5   4  -3  995.32   19.09
  -5   4  -3  954.16   17.23
  -5   4  -3  967.96   16.12
  -5   4  -2 2389.69   25.09
  -5   4  -2 2555.80   28.53
  -5   4  -1 3341.76   28.29
  -5   4  -1 3354.88   31.45
  -5   4   0 4972.57   37.31
  -5   4   0 4616.89   32.84
  -5   4   1 3110.87   26.98
  -5   4   1 3142.76   26.84
  -5   4   2  720.11   14.38
  -5   4   2  717.44   12.86
  -5   4   2  725.79   13.61
  -5   4   3  517.37   12.17
  -5   4   3  525.98   11.63
  -5   4   3  443.63    9.12
  -5   4   3  440.69   11.59
  -5   4   4  468.84   11.21
  -5   4   4  427.33    9.36
  -5   4   5 1198.08   18.82
  -5   4   5 1124.83   15.62
  -5   4   6 2168.16   22.12
  -5   4   6 2078.34   25.62
  -5   4   7 1377.81   17.39
  -5   4   7 1109.94   18.64
  -5   4   8  879.10   15.65
  -5   4   8  956.59   13.74
  -5   4   9   84.25    4.53
  -5   4   9   99.58    4.37
  -5   4  10   36.67    2.78
  -5   4  10   11.07    2.21
  -5   5  -8  448.92   10.99
  -5   5  -8  758.29   10.94
  -5   5  -7 2302.29   22.96
  -5   5  -7 2834.72   22.85
  -5   5  -6 2043.71   23.99
  -5   5  -6 2044.46   23.76
  -5   5  -6 2079.09   27.46
  -5   5  -5  609.30   16.27
  -5   5  -5  644.40   16.47
  -5   5  -5  646.87   14.34
  -5   5  -4  520.43   14.04
  -5   5  -4  484.90   12.64
  -5   5  -4  515.17   14.80
  -5   5  -4  487.67   15.68
  -5   5  -3  834.45   20.15
  -5   5  -3  869.73   17.14
  -5   5  -3  830.73   16.05
  -5   5  -2  904.72   16.64
  -5   5  -2  923.06   19.86
  -5   5  -2  919.79   16.22
  -5   5  -1 2816.16   31.85
  -5   5  -1 2867.00   32.17
  -5   5  -1 2828.78   31.89
  -5   5   0 5723.99   45.64
  -5   5   0 5507.61   43.03
  -5   5   0 5843.62   45.95
  -5   5   0 5339.05   38.10
  -5   5   1 3284.28   25.63
  -5   5   1 3343.66   30.31
  -5   5   1 3324.60   29.71
  -5   5   1 3238.41   32.26
  -5   5   2  929.09   15.83
  -5   5   2  858.18   13.40
  -5   5   2  861.59   16.33
  -5   5   2  941.50   16.55
  -5   5   3 1050.60   18.29
  -5   5   3 1081.67   17.85
  -5   5   4 2309.82   27.95
  -5   5   4 2307.24   26.23
  -5   5   5 2235.62   26.21
  -5   5   5 2368.13   28.93
  -5   5   6 2123.92   25.97
  -5   5   6 2134.66   22.59
  -5   5   7 1973.74   20.66
  -5   5   7 2059.22   26.11
  -5   5   8  865.24   15.74
  -5   5   8  848.87   14.20
  -5   5   9  353.53    8.80
  -5   5   9  407.43    8.39
  -5   6  -8  245.15    5.83
  -5   6  -7  541.21   12.33
  -5   6  -7  506.80    9.51
  -5   6  -6  281.03    8.73
  -5   6  -6  273.88    8.18
  -5   6  -6  316.40   10.93
  -5   6  -6  302.79    9.19
  -5   6  -5  271.65   10.99
  -5   6  -5  269.19    9.95
  -5   6  -5  266.20    9.32
  -5   6  -5  278.41   11.03
  -5   6  -4  724.69   17.99
  -5   6  -4  680.44   17.65
  -5   6  -4  712.95   16.68
  -5   6  -3  380.99   14.05
  -5   6  -3  415.47   12.17
  -5   6  -3  401.45   13.76
  -5   6  -3  377.21   11.57
  -5   6  -2  626.56   16.30
  -5   6  -2  586.35   13.80
  -5   6  -2  611.71   14.42
  -5   6  -2  617.59   16.12
  -5   6  -1 1118.15   21.83
  -5   6  -1 1073.64   22.74
  -5   6  -1 1041.76   18.38
  -5   6  -1 1059.64   21.23
  -5   6  -1 1004.38   17.49
  -5   6   0 1124.08   18.86
  -5   6   0 1139.61   22.18
  -5   6   0 1187.15   22.73
  -5   6   0 1127.19   22.35
  -5   6   0 1105.47   17.82
  -5   6   1 1223.85   23.39
  -5   6   1 1200.09   19.66
  -5   6   1 1223.41   23.49
  -5   6   1 1164.68   22.15
  -5   6   1 1202.46   19.05
  -5   6   2 1049.10   17.76
  -5   6   2  965.20   19.95
  -5   6   2  990.60   15.72
  -5   6   2 1032.01   21.92
  -5   6   2 1001.69   18.14
  -5   6   2 1026.22   21.78
  -5   6   3 1771.93   24.47
  -5   6   3 1838.28   29.77
  -5   6   3 1852.22   29.81
  -5   6   3 1856.24   24.04
  -5   6   4 1640.09   23.07
  -5   6   4 1571.35   20.54
  -5   6   4 1712.97   24.54
  -5   6   4 1502.55   27.08
  -5   6   4 1525.67   27.28
  -5   6   5  577.17   14.29
  -5   6   5  541.78   13.73
  -5   6   5  541.66   16.18
  -5   6   5  544.16   13.06
  -5   6   5  544.81   16.25
  -5   6   5  541.12   12.07
  -5   6   6  846.03   16.61
  -5   6   6  687.67   15.06
  -5   6   6  816.00   14.12
  -5   6   6  718.80   17.66
  -5   6   6  768.59   14.93
  -5   6   6  716.14   17.58
  -5   6   7  668.88   12.84
  -5   6   7  520.91   14.00
  -5   6   7  530.82   14.09
  -5   6   7  695.00   11.97
  -5   6   7  663.64   13.81
  -5   6   8  772.92   12.94
  -5   6   8  506.03   11.93
  -5   6   8  868.92   11.67
  -5   6   8  535.42   12.22
  -5   6   8  897.78   13.31
  -5   7  -7    5.75    2.61
  -5   7  -7    9.45    2.10
  -5   7  -7   11.37    3.01
  -5   7  -6  129.16    6.76
  -5   7  -6  113.03    5.16
  -5   7  -5  883.91   15.55
  -5   7  -5  864.76   18.31
  -5   7  -5  871.69   15.64
  -5   7  -5  908.82   18.67
  -5   7  -4 1170.94   21.21
  -5   7  -4 1141.91   19.66
  -5   7  -3  760.74   17.75
  -5   7  -3  705.26   15.35
  -5   7  -3  761.24   16.88
  -5   7  -3  719.10   18.31
  -5   7  -2  219.80    8.87
  -5   7  -2  259.02   10.97
  -5   7  -2  228.52   10.59
  -5   7  -2  243.73    9.60
  -5   7  -2  250.75   10.82
  -5   7  -2  234.01   10.51
  -5   7  -1   39.88    4.34
  -5   7  -1   42.61    5.37
  -5   7  -1   38.60    5.31
  -5   7  -1   36.33    3.96
  -5   7  -1   43.79    5.45
  -5   7   0    6.38    2.39
  -5   7   0   12.57    3.03
  -5   7   0   10.99    3.87
  -5   7   0    9.57    3.76
  -5   7   0   10.63    3.85
  -5   7   1  158.57    9.40
  -5   7   1  133.83    7.93
  -5   7   1  160.59    7.35
  -5   7   1  136.10    6.46
  -5   7   1  160.39    7.69
  -5   7   1  155.70    9.33
  -5   7   2 1405.32   21.68
  -5   7   2 1305.76   25.74
  -5   7   2 1347.22   21.44
  -5   7   2 1391.35   20.71
  -5   7   2 1231.03   18.42
  -5   7   2 1277.70   25.38
  -5   7   3 1222.16   20.37
  -5   7   3 1118.95   23.49
  -5   7   3 1132.61   23.70
  -5   7   3 1212.51   19.10
  -5   7   3 1189.30   19.96
  -5   7   4  478.93   15.09
  -5   7   4  449.48   12.17
  -5   7   4  466.80   11.69
  -5   7   5  100.48    5.49
  -5   7   5  102.84    7.18
  -5   7   5  107.65    6.26
  -5   7   5  102.27    7.05
  -5   7   5  105.06    5.91
  -5   7   6   10.71    3.48
  -5   7   6    8.99    2.15
  -5   7   6   10.48    3.41
  -5   7   6   11.62    2.52
  -5   7   7  199.03    8.13
  -5   7   7  265.63    7.52
  -5   7   7  298.26    7.53
  -5   7   7  194.56    7.99
  -5   8  -6  276.04    8.56
  -5   8  -6  259.71    6.66
  -5   8  -5  526.30   13.33
  -5   8  -5  512.78   12.75
  -5   8  -5  515.65   10.39
  -5   8  -4 1091.54   16.82
  -5   8  -4 1069.88   19.12
  -5   8  -4 1037.33   19.61
  -5   8  -4 1045.89   16.13
  -5   8  -3  852.75   18.50
  -5   8  -3  951.34   18.71
  -5   8  -3  937.09   18.62
  -5   8  -3  900.38   16.06
  -5   8  -3  911.31   16.08
  -5   8  -3  856.82   17.28
  -5   8  -2  223.27    8.90
  -5   8  -2  241.43    8.76
  -5   8  -2  226.73   10.05
  -5   8  -2  238.55    8.59
  -5   8  -2  219.27   10.05
  -5   8  -2  237.09   10.25
  -5   8  -1   64.56    4.78
  -5   8  -1   60.80    5.98
  -5   8  -1   67.51    5.21
  -5   8  -1   62.78    6.05
  -5   8  -1   60.81    5.88
  -5   8  -1   66.76    5.06
  -5   8   0  128.37    6.84
  -5   8   0  120.24    8.16
  -5   8   0  125.04    8.29
  -5   8   0  127.77    6.49
  -5   8   0  133.71    6.54
  -5   8   1  673.93   18.06
  -5   8   1  649.27   17.81
  -5   8   1  687.05   13.66
  -5   8   1  690.76   15.08
  -5   8   2  777.18   19.41
  -5   8   2  829.71   16.20
  -5   8   2  763.60   19.17
  -5   8   2  800.60   15.72
  -5   8   3  539.92   12.58
  -5   8   3  509.22   15.24
  -5   8   3  543.98   12.92
  -5   8   3  485.24   14.95
  -5   8   3  566.92   12.09
  -5   8   4  582.57   12.73
  -5   8   4  516.49   14.61
  -5   8   4  602.56   11.83
  -5   8   4  567.28   12.34
  -5   8   4  511.77   14.58
  -5   8   5  119.69    5.07
  -5   8   5   96.03    6.32
  -5   8   5  111.65    5.27
  -5   8   5   99.02    6.42
  -5   8   6   14.65    3.34
  -5   8   6   20.31    2.50
  -5   8   6   13.84    3.32
  -5   8   6   21.56    2.29
  -5   9  -4  644.09   10.71
  -5   9  -4  646.45   13.42
  -5   9  -4  634.99   13.09
  -5   9  -3 1161.35   17.91
  -5   9  -3 1196.45   15.28
  -5   9  -3 1135.95   18.65
  -5   9  -2  910.03   15.75
  -5   9  -2  895.16   17.38
  -5   9  -2  874.26   16.90
  -5   9  -2  886.74   17.31
  -5   9  -2  933.14   14.24
  -5   9  -2  886.49   13.58
  -5   9  -1  793.92   13.22
  -5   9  -1  765.21   16.04
  -5   9  -1  755.81   16.56
  -5   9  -1  805.31   12.90
  -5   9  -1  771.78   16.75
  -5   9  -1  770.74   14.54
  -5   9   0 1166.24   21.05
  -5   9   0 1162.73   21.00
  -5   9   0 1104.18   19.09
  -5   9   0 1182.61   17.59
  -5   9   1  555.97   14.63
  -5   9   1  526.08   12.94
  -5   9   1  568.72   11.99
  -5   9   1  567.53   14.76
  -5   9   2  292.77   10.39
  -5   9   2  297.58   10.53
  -5   9   2  313.10    8.74
  -5   9   3  203.57    8.45
  -5   9   3  229.24    7.17
  -5   9   3  203.07    8.47
  -5   9   4  242.05    8.52
  -5   9   4  249.95    8.64
  -4  -6   9  144.81    3.85
  -4  -5   9  503.04    8.12
  -4  -5  10 1172.12   10.32
  -4  -4   9 1182.26   13.76
  -4  -4  10 1005.59   10.84
  -4  -3  -7  253.10    6.99
  -4  -3   9  248.15    6.87
  -4  -3  10  112.81    4.26
  -4  -3  11  274.17    5.21
  -4  -2  -8  143.37    5.24
  -4  -2  -7  495.17   10.90
  -4  -2   9  190.14    6.20
  -4  -2  10   13.66    2.11
  -4  -2  11    6.15    1.61
  -4  -1  -9  526.41    8.72
  -4  -1  -8  886.20   13.74
  -4  -1  -7 1468.47   19.85
  -4  -1   8  463.83    9.98
  -4  -1   9  307.30    7.90
  -4  -1  10  171.46    5.38
  -4  -1  11  164.65    4.46
  -4   0  -9 1268.85   14.72
  -4   0  -8 1434.21   16.20
  -4   0  -8 1490.97   18.85
  -4   0  -7 1072.28   17.67
  -4   0  -3 3720.66   25.32
  -4   0   6  192.68    6.21
  -4   0   7  628.80   11.41
  -4   0   8  626.60   11.43
  -4   0   9  791.65   12.30
  -4   0  10 1515.53   15.37
  -4   0  11 1040.21   10.63
  -4   1 -10  877.38   10.39
  -4   1  -9 1120.42   14.66
  -4   1  -9 1128.52   13.42
  -4   1  -8  603.81   12.44
  -4   1  -8  665.29   12.31
  -4   1  -7  688.13   14.43
  -4   1  -4 4327.50   30.11
  -4   1  -3 5962.36   33.78
  -4   1   3 5463.64   25.12
  -4   1   4 6580.41   29.82
  -4   1   5 2541.50   20.15
  -4   1   6  952.96   13.26
  -4   1   7  922.03   13.59
  -4   1   8 1507.33   17.46
  -4   1   9 2056.47   19.43
  -4   1  10 1730.84   15.82
  -4   1  11 1104.94   10.95
  -4   2 -10  745.02    9.87
  -4   2  -9  718.62   11.79
  -4   2  -9  685.97   10.94
  -4   2  -8  489.91   11.08
  -4   2  -8  521.38   11.71
  -4   2  -7  109.39    6.15
  -4   2  -6   90.48    5.61
  -4   2  -5  164.93    6.50
  -4   2  -5  173.28    8.08
  -4   2  -4 1039.87   15.99
  -4   2  -4  886.32   13.77
  -4   2  -3 1953.09   20.04
  -4   2  -3 1839.48   17.66
  -4   2  -2  611.76   11.06
  -4   2   3 2316.59   27.12
  -4   2   3 2354.52   27.49
  -4   2   4 1490.54   14.58
  -4   2   4 1519.08   16.99
  -4   2   4 1347.66   24.65
  -4   2   4 1315.14   24.44
  -4   2   5 2987.61   22.11
  -4   2   6 1577.09   17.20
  -4   2   7 1038.56   14.39
  -4   2   8 1494.80   17.14
  -4   2   9 1124.33   14.09
  -4   2  10  685.04    9.99
  -4   2  10  558.63   11.30
  -4   3 -10  100.98    3.98
  -4   3 -10   85.38    3.36
  -4   3  -9  300.43    7.42
  -4   3  -9  321.14    7.82
  -4   3  -8  474.65   10.90
  -4   3  -8  463.29   10.92
  -4   3  -7  561.49   12.54
  -4   3  -6  944.13   16.06
  -4   3  -6  960.39   16.45
  -4   3  -6  931.22   17.11
  -4   3  -5  481.86   13.13
  -4   3  -5  482.73   11.35
  -4   3  -5  497.35   13.81
  -4   3  -5  453.61   11.01
  -4   3  -4  292.10    8.40
  -4   3  -4  287.34    9.78
  -4   3  -4  310.90    9.94
  -4   3  -4  276.41    9.36
  -4   3  -3  238.93    7.98
  -4   3  -3  225.14    7.48
  -4   3  -3  233.90    7.05
  -4   3  -2  294.90    7.55
  -4   3  -2  305.65    8.53
  -4   3  -1 1499.74   17.92
  -4   3  -1 1403.05   15.17
  -4   3   0 2554.56   19.96
  -4   3   0 2483.91   19.51
  -4   3   1 1458.20   15.35
  -4   3   1 1423.09   16.71
  -4   3   1 1420.17   14.66
  -4   3   2   72.63    3.11
  -4   3   2   88.17    3.84
  -4   3   3   31.08    2.33
  -4   3   3   37.57    5.02
  -4   3   3   36.17    4.99
  -4   3   4   51.60    3.66
  -4   3   4   48.89    6.68
  -4   3   4   41.90    2.84
  -4   3   4   51.21    6.84
  -4   3   5  551.20    9.75
  -4   3   6 1157.95   14.78
  -4   3   7 1110.43   14.72
  -4   3   8  598.83   10.77
  -4   3   9  129.42    4.98
  -4   3   9  120.07    6.22
  -4   3  10   16.18    2.45
  -4   3  10   19.89    2.45
  -4   4  -9  165.92    5.43
  -4   4  -9  183.53    5.86
  -4   4  -8 1508.29   17.93
  -4   4  -8 1420.31   18.44
  -4   4  -7 2358.04   28.82
  -4   4  -7 2468.15   24.83
  -4   4  -6 1968.91   24.67
  -4   4  -6 1963.45   27.70
  -4   4  -6 1973.98   24.29
  -4   4  -5 1082.54   17.79
  -4   4  -5 1091.59   20.50
  -4   4  -5 1087.70   16.36
  -4   4  -5 1061.59   20.52
  -4   4  -5 1104.82   21.67
  -4   4  -4  208.59    8.82
  -4   4  -4  226.14    8.03
  -4   4  -4  229.34    9.92
  -4   4  -4  210.54    8.40
  -4   4  -4  238.48    7.61
  -4   4  -3  499.70   10.87
  -4   4  -3  494.43   10.25
  -4   4  -3  476.96   11.26
  -4   4  -3  494.51   13.04
  -4   4  -2  431.71    9.88
  -4   4  -2  483.50   11.80
  -4   4  -1 1344.09   19.04
  -4   4  -1 1321.46   18.68
  -4   4  -1 1325.84   16.26
  -4   4  -1 1376.12   18.84
  -4   4   0 4937.21   30.75
  -4   4   0 4921.56   26.19
  -4   4   0 4869.28   29.77
  -4   4   1 1509.49   17.49
  -4   4   1 1465.81   16.32
  -4   4   1 1458.91   18.39
  -4   4   2   42.94    3.04
  -4   4   2   44.62    2.90
  -4   4   2   44.88    3.87
  -4   4   2   46.19    3.45
  -4   4   3  261.59    8.39
  -4   4   3  255.43    6.47
  -4   4   3  307.18    8.31
  -4   4   3  280.02   13.86
  -4   4   3  291.14   14.38
  -4   4   4  461.75   18.87
  -4   4   4  464.03   18.89
  -4   4   4  506.99   11.42
  -4   4   4  501.29   13.06
  -4   4   5  649.66   15.45
  -4   4   5  614.77   13.44
  -4   4   6  934.59   13.91
  -4   4   6  911.49   13.94
  -4   4   7  942.72   13.98
  -4   4   7  922.11   17.77
  -4   4   8  332.27   10.48
  -4   4   8  331.42    8.14
  -4   4   9    4.63    2.88
  -4   4   9   10.62    2.43
  -4   4   9   11.08    2.35
  -4   4  10   36.87    3.17
  -4   4  10   36.42    2.86
  -4   5  -9  590.46    9.55
  -4   5  -8 1115.62   20.13
  -4   5  -8 1340.76   16.56
  -4   5  -7 1916.65   21.52
  -4   5  -7 1996.84   27.22
  -4   5  -7 1955.70   22.95
  -4   5  -6 1474.57   26.18
  -4   5  -6 1455.55   21.46
  -4   5  -6 1532.22   25.31
  -4   5  -6 1558.44   21.99
  -4   5  -5 1204.39   19.82
  -4   5  -5 1358.25   17.35
  -4   5  -5 1281.23   22.30
  -4   5  -5 1211.80   22.63
  -4   5  -5 1306.23   23.00
  -4   5  -4 1067.25   19.11
  -4   5  -4 1067.10   18.37
  -4   5  -4 1067.08   20.84
  -4   5  -4 1069.45   21.88
  -4   5  -3 1362.06   20.02
  -4   5  -3 1341.45   19.54
  -4   5  -2 1865.16   22.11
  -4   5  -2 2095.17   26.51
  -4   5  -2 2105.53   28.58
  -4   5  -2 1995.62   22.36
  -4   5  -2 1908.19   23.79
  -4   5  -2 2146.04   26.90
  -4   5  -1 1873.41   24.93
  -4   5  -1 1844.03   21.10
  -4   5  -1 1929.67   25.46
  -4   5  -1 1964.50   21.80
  -4   5  -1 1789.49   24.45
  -4   5   0 1860.42   25.19
  -4   5   0 1936.32   20.50
  -4   5   0 1826.53   24.37
  -4   5   0 1937.52   21.37
  -4   5   0 1919.53   25.61
  -4   5   0 1944.95   21.52
  -4   5   1 2353.98   22.65
  -4   5   1 2338.09   26.70
  -4   5   1 2335.86   23.65
  -4   5   2 1558.98   16.84
  -4   5   2 1756.70   21.37
  -4   5   2 1544.86   21.56
  -4   5   2 1723.80   21.11
  -4   5   2 1731.16   19.87
  -4   5   3 1756.22   22.17
  -4   5   3 1772.23   21.19
  -4   5   4 1863.73   23.88
  -4   5   4 1815.07   24.12
  -4   5   4 1856.87   22.97
  -4   5   5  728.24   15.11
  -4   5   5  715.28   16.68
  -4   5   6  586.33   11.73
  -4   5   6  592.32   16.01
  -4   5   6  612.60   14.37
  -4   5   7  433.43    9.74
  -4   5   7  440.17   12.01
  -4   5   8  391.82   10.50
  -4   5   8  289.19   10.54
  -4   5   8  397.64    8.91
  -4   5   8  220.59    9.44
  -4   5   8  221.03    9.42
  -4   5   9 1021.68   12.49
  -4   5   9  948.48   13.85
  -4   5  10  419.02    7.41
  -4   5  10  271.60    6.49
  -4   6  -8  427.13   10.95
  -4   6  -8  428.56    8.64
  -4   6  -7  598.73   11.34
  -4   6  -7  564.83   11.57
  -4   6  -6  811.32   14.41
  -4   6  -6  855.53   19.98
  -4   6  -6  824.78   18.80
  -4   6  -6  855.35   16.54
  -4   6  -6  829.59   15.57
  -4   6  -5 2422.27   33.19
  -4   6  -5 2393.92   28.55
  -4   6  -5 2354.40   29.08
  -4   6  -4 3052.84   32.11
  -4   6  -4 2987.91   32.98
  -4   6  -3 2997.12   34.37
  -4   6  -3 2836.38   35.63
  -4   6  -3 3047.63   34.75
  -4   6  -3 2911.00   35.20
  -4   6  -3 2815.14   30.44
  -4   6  -3 2827.06   30.85
  -4   6  -2 3425.64   39.43
  -4   6  -2 3465.01   32.61
  -4   6  -2 3508.66   37.77
  -4   6  -2 3530.83   37.75
  -4   6  -2 3389.47   31.71
  -4   6  -2 3516.15   35.33
  -4   6  -1  763.60   14.52
  -4   6  -1  747.90   18.47
  -4   6  -1  779.55   15.05
  -4   6  -1  778.19   18.00
  -4   6  -1  795.49   18.24
  -4   6  -1  825.64   15.66
  -4   6   0  306.05   11.45
  -4   6   0  325.14    9.87
  -4   6   0  318.65    9.17
  -4   6   0  301.95    8.95
  -4   6   0  311.75   11.49
  -4   6   0  314.21    9.57
  -4   6   1 2504.66   25.13
  -4   6   1 2352.91   30.22
  -4   6   1 2486.87   26.57
  -4   6   1 2760.80   28.73
  -4   6   1 2687.05   33.59
  -4   6   1 2555.44   32.70
  -4   6   2 4480.95   43.97
  -4   6   2 4370.49   43.29
  -4   6   2 4388.00   34.35
  -4   6   2 4375.77   35.96
  -4   6   2 4369.39   36.49
  -4   6   3 2808.00   26.17
  -4   6   3 3046.17   37.20
  -4   6   3 2858.66   28.11
  -4   6   3 2977.91   30.37
  -4   6   3 2997.59   31.53
  -4   6   3 2914.94   36.37
  -4   6   4 1545.94   26.50
  -4   6   4 1525.04   21.12
  -4   6   4 1573.84   22.68
  -4   6   4 1483.79   19.61
  -4   6   4 1542.17   26.49
  -4   6   5  996.62   19.42
  -4   6   5 1015.00   16.24
  -4   6   5 1005.45   21.24
  -4   6   5 1040.51   17.98
  -4   6   5 1035.48   18.75
  -4   6   5 1030.78   21.45
  -4   6   6  425.49   11.47
  -4   6   6  391.54   13.16
  -4   6   6  408.37   12.45
  -4   6   6  448.12   10.54
  -4   6   6  385.52   13.08
  -4   6   6  435.16   12.07
  -4   6   7  325.88    8.46
  -4   6   7  305.32    9.15
  -4   6   7  262.90    9.60
  -4   6   7  289.63    9.40
  -4   6   7  229.15    9.54
  -4   6   7  231.62    9.51
  -4   6   8 1314.36   17.22
  -4   6   8 1177.31   17.70
  -4   6   9 1325.94   14.87
  -4   6   9 1877.89   16.36
  -4   7  -8   50.70    4.14
  -4   7  -8   41.23    3.81
  -4   7  -7   62.42    4.93
  -4   7  -7   61.82    3.58
  -4   7  -7   56.13    3.82
  -4   7  -7   59.65    5.28
  -4   7  -6  364.87   12.12
  -4   7  -6  360.12   12.76
  -4   7  -6  357.89    9.84
  -4   7  -6  346.79    8.32
  -4   7  -5  712.33   12.31
  -4   7  -5  729.03   15.39
  -4   7  -5  740.90   15.32
  -4   7  -5  728.92   18.14
  -4   7  -4 1967.14   27.56
  -4   7  -4 1866.13   29.58
  -4   7  -4 1888.50   25.35
  -4   7  -4 2047.58   28.67
  -4   7  -4 1908.86   26.20
  -4   7  -4 2066.83   28.74
  -4   7  -3 1705.32   25.91
  -4   7  -3 1760.41   27.73
  -4   7  -3 1737.70   25.17
  -4   7  -3 1692.19   28.28
  -4   7  -3 1779.07   25.75
  -4   7  -3 1689.98   23.97
  -4   7  -3 1716.21   27.43
  -4   7  -2  645.77   17.24
  -4   7  -2  695.35   15.64
  -4   7  -2  678.43   17.87
  -4   7  -2  773.45   17.44
  -4   7  -2  745.85   17.52
  -4   7  -2  646.63   14.73
  -4   7  -2  675.10   17.78
  -4   7  -1  392.73   13.94
  -4   7  -1  374.65   10.98
  -4   7  -1  401.08   12.74
  -4   7  -1  436.35   12.32
  -4   7  -1  403.82   11.73
  -4   7  -1  410.12   14.32
  -4   7   0  376.09   13.87
  -4   7   0  389.12   11.64
  -4   7   0  330.06    9.96
  -4   7   0  369.54   13.78
  -4   7   0  367.34   10.20
  -4   7   0  344.82   10.73
  -4   7   0  355.57   11.66
  -4   7   1 1807.41   22.21
  -4   7   1 1662.58   22.91
  -4   7   1 1774.67   29.59
  -4   7   1 1717.60   21.60
  -4   7   1 1768.20   29.48
  -4   7   1 1723.34   23.75
  -4   7   1 1799.11   24.68
  -4   7   2 3353.63   34.37
  -4   7   2 3252.53   29.88
  -4   7   2 3288.54   40.30
  -4   7   2 3328.73   40.48
  -4   7   3 1952.64   30.87
  -4   7   3 2004.25   26.50
  -4   7   3 2002.20   23.96
  -4   7   3 1958.73   25.18
  -4   7   3 2000.79   31.05
  -4   7   4 1720.54   28.50
  -4   7   4 1716.79   28.52
  -4   7   4 1800.17   23.90
  -4   7   4 1933.86   23.84
  -4   7   4 1938.79   26.44
  -4   7   5 1039.69   16.74
  -4   7   5 1039.09   17.65
  -4   7   5  960.51   20.42
  -4   7   5  977.96   20.66
  -4   7   5 1018.59   18.80
  -4   7   6  552.95   11.54
  -4   7   6  492.50   13.86
  -4   7   6  496.65   13.93
  -4   7   6  565.36   12.27
  -4   7   6  538.81   12.98
  -4   7   7  969.73   14.35
  -4   7   7  938.14   15.39
  -4   7   7 1011.43   13.96
  -4   7   7  748.89   15.07
  -4   7   7  750.89   14.99
  -4   7   8  857.56   11.35
  -4   7   8  681.58   10.47
  -4   8  -7  214.14    5.89
  -4   8  -7  232.36    7.75
  -4   8  -6  148.57    7.16
  -4   8  -6  159.13    7.78
  -4   8  -6  134.67    7.14
  -4   8  -6  141.87    5.69
  -4   8  -5   46.60    3.90
  -4   8  -5   47.42    5.32
  -4   8  -5   53.20    5.19
  -4   8  -5   45.55    4.98
  -4   8  -4  328.55    9.93
  -4   8  -4  331.79   12.11
  -4   8  -4  377.24   12.67
  -4   8  -4  330.08    9.94
  -4   8  -4  374.23   12.70
  -4   8  -4  363.91   11.81
  -4   8  -3  371.87   10.88
  -4   8  -3  389.39   13.18
  -4   8  -3  369.04   10.88
  -4   8  -3  378.13   13.01
  -4   8  -3  370.83   11.73
  -4   8  -3  360.83   12.90
  -4   8  -2  229.37    8.60
  -4   8  -2  261.70   10.53
  -4   8  -2  248.89   11.21
  -4   8  -2  227.53    8.74
  -4   8  -2  238.22    9.30
  -4   8  -2  239.95   10.80
  -4   8  -2  246.66   11.21
  -4   8  -1  584.75   17.08
  -4   8  -1  557.95   13.01
  -4   8  -1  594.33   17.15
  -4   8  -1  572.39   13.89
  -4   8  -1  555.63   15.58
  -4   8  -1  574.67   13.20
  -4   8   0  790.45   14.82
  -4   8   0  882.06   17.48
  -4   8   0  806.88   15.16
  -4   8   0  802.18   16.31
  -4   8   0  740.66   17.67
  -4   8   0  817.28   20.67
  -4   8   0  834.11   20.80
  -4   8   1  444.27   15.27
  -4   8   1  437.28   15.21
  -4   8   1  463.50   12.78
  -4   8   2  205.71    7.45
  -4   8   2  202.04    8.09
  -4   8   2  214.94   10.78
  -4   8   2  218.21    8.85
  -4   8   2  224.10   10.91
  -4   8   3  328.88    9.19
  -4   8   3  319.92   12.55
  -4   8   3  323.59   12.68
  -4   8   3  345.91   10.98
  -4   8   3  329.52    9.99
  -4   8   4  452.05   14.08
  -4   8   4  482.44   10.65
  -4   8   4  497.42   12.61
  -4   8   4  471.15   11.32
  -4   8   4  448.51   14.13
  -4   8   5  703.27   15.99
  -4   8   5  791.38   12.75
  -4   8   5  787.19   13.43
  -4   8   5  782.88   14.66
  -4   8   5  716.20   16.05
  -4   8   6  807.08   15.08
  -4   8   6  807.17   14.98
  -4   8   6 1045.22   13.32
  -4   8   6 1017.42   13.91
  -4   8   6  996.77   15.05
  -4   9  -5  114.16    5.95
  -4   9  -5  111.35    6.20
  -4   9  -5  104.96    5.91
  -4   9  -5  126.36    5.01
  -4   9  -4   28.80    3.02
  -4   9  -4   27.61    3.86
  -4   9  -4   25.97    4.17
  -4   9  -4   26.95    4.14
  -4   9  -4   22.41    3.38
  -4   9  -4   28.02    3.79
  -4   9  -3  353.09    9.03
  -4   9  -3  320.48   11.13
  -4   9  -3  320.69   10.84
  -4   9  -3  328.83   11.18
  -4   9  -3  327.56   10.05
  -4   9  -3  304.17   10.50
  -4   9  -2  545.42   14.84
  -4   9  -2  534.22   14.14
  -4   9  -2  535.96   13.10
  -4   9  -2  539.57   14.74
  -4   9  -2  560.15   13.07
  -4   9  -2  551.23   11.35
  -4   9  -1  931.18   19.88
  -4   9  -1  926.72   19.83
  -4   9  -1  947.38   14.42
  -4   9  -1  980.33   17.95
  -4   9  -1  910.08   18.03
  -4   9  -1  912.72   16.40
  -4   9   0  673.67   14.51
  -4   9   0  625.08   16.55
  -4   9   0  617.45   14.95
  -4   9   0  642.76   13.54
  -4   9   0  627.88   16.63
  -4   9   1   30.41    3.39
  -4   9   1   28.63    4.46
  -4   9   1   29.45    4.50
  -4   9   1   28.01    3.57
  -4   9   2    8.65    3.32
  -4   9   2    8.76    3.35
  -4   9   2    9.94    2.56
  -4   9   2   10.83    2.44
  -4   9   3    9.46    2.28
  -4   9   3    8.34    3.20
  -4   9   3    7.90    3.18
  -4   9   3   11.12    2.58
  -4   9   4  133.37    6.91
  -4   9   4  148.92    6.07
  -4   9   4  133.65    6.87
  -4   9   4  152.58    5.65
  -4  10  -3  395.00    9.85
  -4  10  -2 1273.50   19.21
  -4  10  -2 1297.04   19.55
  -4  10  -2 1286.07   17.19
  -4  10  -1 1030.50   17.54
  -4  10  -1 1032.12   17.60
  -4  10  -1 1072.45   15.22
  -4  10   0  635.06   13.91
  -4  10   0  633.01   13.89
  -4  10   0  670.20   11.90
  -4  10   0  629.41   12.07
  -4  10   1  428.24    9.77
  -4  10   1  436.15    9.26
  -4  10   1  418.21   11.11
  -4  10   1  403.75   10.93
  -4  10   2  260.60    8.58
  -4  10   2  255.16    8.45
  -3  -5  10  353.22    6.24
  -3  -4  10  199.63    5.19
  -3  -3  -7  300.71    8.48
  -3  -3  10  453.21    8.13
  -3  -3  11  259.68    5.26
  -3  -2  -9   12.86    2.37
  -3  -2  -8   26.20    3.20
  -3  -2  -7  593.78   12.59
  -3  -2   9 1222.21   14.92
  -3  -2  10  733.26   10.46
  -3  -2  11  584.17    8.10
  -3  -1  -9  225.00    6.79
  -3  -1  -8  680.04   13.13
  -3  -1  -7  655.43   13.77
  -3  -1  -1  149.43    7.02
  -3  -1   0   91.69    5.59
  -3  -1   2  295.89    6.46
  -3  -1   2  293.38    6.37
  -3  -1   8  160.10    5.70
  -3  -1   9  532.11    9.74
  -3  -1  10  837.35   11.25
  -3  -1  11  706.90    8.90
  -3   0 -10 1107.84   12.96
  -3   0  -9 1840.43   20.10
  -3   0  -8 1446.80   18.05
  -3   0  -8 1424.64   19.78
  -3   0  -7  672.46   14.17
  -3   0   7   55.84    3.87
  -3   0   7   56.01    3.48
  -3   0   8  146.16    5.38
  -3   0   8  137.54    5.71
  -3   0   9  886.56   12.39
  -3   0   9  856.12   13.27
  -3   0  10  483.47    9.50
  -3   0  10  497.91    8.73
  -3   1 -10 2296.18   18.00
  -3   1 -10 2270.38   19.51
  -3   1  -9 2572.10   24.66
  -3   1  -9 2592.09   23.03
  -3   1  -8 1651.67   20.69
  -3   1  -8 1629.63   21.62
  -3   1  -7 1791.30   22.94
  -3   1   2 1551.82   15.09
  -3   1   2 1617.43   15.48
  -3   1   4 3945.19   20.74
  -3   1   5 2201.04   17.06
  -3   1   6 1578.78   15.51
  -3   1   6 1526.00   15.51
  -3   1   7  907.24   12.37
  -3   1   7  860.95   12.72
  -3   1   8 1043.90   13.69
  -3   1   8 1017.31   14.40
  -3   1   9  777.21   11.50
  -3   1   9  804.16   12.97
  -3   1  10  252.94    6.88
  -3   1  10  243.47    6.10
  -3   2 -10  495.41    8.96
  -3   2 -10  484.71    9.18
  -3   2  -9  798.25   13.32
  -3   2  -9  711.96   13.06
  -3   2  -8 1001.73   17.13
  -3   2  -8 1017.39   17.02
  -3   2  -7 1661.46   21.73
  -3   2  -6 3109.91   28.89
  -3   2  -6 3124.47   27.91
  -3   2  -5 1760.61   19.65
  -3   2  -5 1873.11   23.43
  -3   2  -4 1760.80   21.21
  -3   2  -4 1786.75   18.27
  -3   2  -3 2498.74   20.42
  -3   2   0 6794.11   39.34
  -3   2   2 3907.10   30.27
  -3   2   2 3952.44   30.48
  -3   2   3  549.95   13.36
  -3   2   3  550.10   13.37
  -3   2   4 1433.77   25.74
  -3   2   4 1448.81   26.01
  -3   2   5 2901.58   42.41
  -3   2   5 2747.90   19.24
  -3   2   5 2667.29   19.41
  -3   2   5 2848.60   41.64
  -3   2   6 3089.85   22.71
  -3   2   6 3020.56   49.13
  -3   2   6 2969.08   48.64
  -3   2   7 3758.16   26.67
  -3   2   7 3617.75   24.84
  -3   2   8 1045.99   13.50
  -3   2   8 1013.65   14.55
  -3   2   9  587.69    9.87
  -3   2   9  618.80   11.27
  -3   2  10  460.52    9.09
  -3   2  10  458.45    8.17
  -3   3 -10   28.95    2.71
  -3   3 -10   28.39    2.53
  -3   3  -9   54.11    4.05
  -3   3  -9   53.42    3.77
  -3   3  -8  603.87   12.98
  -3   3  -8  596.80   13.24
  -3   3  -7 1295.42   21.68
  -3   3  -7 1327.99   19.36
  -3   3  -6 2199.54   24.64
  -3   3  -6 2238.63   28.37
  -3   3  -6 2206.53   23.87
  -3   3  -6 2161.16   24.20
  -3   3  -5 1703.77   20.11
  -3   3  -5 1716.64   23.48
  -3   3  -5 1660.99   20.19
  -3   3  -5 1691.00   24.50
  -3   3  -5 1714.09   23.89
  -3   3  -4  140.02    6.77
  -3   3  -4  126.71    5.42
  -3   3  -4  125.81    5.87
  -3   3  -4  120.19    6.29
  -3   3  -3   45.27    3.70
  -3   3  -3   39.89    3.10
  -3   3  -3   36.08    2.87
  -3   3  -2 2322.47   20.80
  -3   3   2 1970.43   26.14
  -3   3   2 2035.75   26.38
  -3   3   3  513.83   14.59
  -3   3   3  527.98   14.76
  -3   3   4  877.84   10.65
  -3   3   4  851.95   21.22
  -3   3   4  876.35   21.60
  -3   3   5 2965.97   20.89
  -3   3   5 2980.71   44.36
  -3   3   5 3027.62   44.91
  -3   3   6 3993.64   26.36
  -3   3   6 3867.97   25.23
  -3   3   7 2742.30   21.77
  -3   3   7 2751.72   23.22
  -3   3   8 1246.19   14.92
  -3   3   8 1218.47   15.91
  -3   3   9  456.12    9.78
  -3   3   9  484.98    9.02
  -3   3  10  693.85   10.64
  -3   3  11  171.10    7.70
  -3   3  11  528.05    8.92
  -3   4 -10  127.68    4.55
  -3   4  -9  109.89    5.12
  -3   4  -9  108.19    5.02
  -3   4  -8  576.28   14.54
  -3   4  -8  547.58   12.14
  -3   4  -8  576.37   11.94
  -3   4  -7  679.77   13.36
  -3   4  -7  653.19   16.33
  -3   4  -7  655.37   13.07
  -3   4  -6  908.21   19.24
  -3   4  -6  887.69   16.46
  -3   4  -6  935.93   16.80
  -3   4  -6  915.09   20.60
  -3   4  -5  308.75   10.59
  -3   4  -5  287.09   10.70
  -3   4  -5  285.45   10.33
  -3   4  -5  285.13    9.18
  -3   4  -5  290.62    8.33
  -3   4  -4   13.73    2.51
  -3   4  -4    8.36    3.46
  -3   4  -4   14.30    2.67
  -3   4  -4   11.20    3.14
  -3   4  -4    8.24    2.41
  -3   4  -3  300.54    8.32
  -3   4  -3  306.60   10.24
  -3   4  -3  293.27    9.19
  -3   4  -3  295.13    9.26
  -3   4  -3  297.66    8.14
  -3   4  -2  470.14   10.93
  -3   4  -2  478.16    9.78
  -3   4  -2  501.99   11.26
  -3   4  -2  478.08   11.38
  -3   4  -2  452.70    9.27
  -3   4  -2  447.31    9.16
  -3   4  -1  447.94   10.33
  -3   4  -1  448.66   10.21
  -3   4  -1  422.58    8.22
  -3   4  -1  467.94   10.51
  -3   4  -1  444.23    8.72
  -3   4   0  607.21    8.80
  -3   4   0  641.26   11.66
  -3   4   0  607.36    9.43
  -3   4   0  612.45   10.04
  -3   4   1  778.58   10.65
  -3   4   1  800.80   11.66
  -3   4   2 1525.95   16.02
  -3   4   2 1490.14   16.83
  -3   4   2 1476.83   26.70
  -3   4   2 1550.82   27.78
  -3   4   2 1379.50   13.46
  -3   4   2 1613.69   17.94
  -3   4   3  930.64   23.11
  -3   4   3 1014.03   14.25
  -3   4   3  860.36   22.07
  -3   4   3  865.18   13.50
  -3   4   3  810.80   10.65
  -3   4   3 1000.76   15.85
  -3   4   4  752.37   10.90
  -3   4   4  772.75   11.13
  -3   4   4  795.07   23.66
  -3   4   4  792.05   23.56
  -3   4   5 1250.06   14.71
  -3   4   5 1318.31   15.54
  -3   4   5 1264.47   32.09
  -3   4   5 1288.13   32.28
  -3   4   6  404.40    9.23
  -3   4   6  404.30    8.82
  -3   4   7  653.55   13.53
  -3   4   7  659.22   11.28
  -3   4   8  888.44   12.92
  -3   4   8  866.87   13.79
  -3   4   9  685.68   10.65
  -3   4   9  652.73   11.25
  -3   4  10  506.04   12.01
  -3   4  10  909.46   13.22
  -3   5 -10 1331.18   13.30
  -3   5  -9  535.94   10.14
  -3   5  -9  529.81   12.20
  -3   5  -8  259.70    7.96
  -3   5  -8  265.90   10.06
  -3   5  -8  252.45   11.00
  -3   5  -7  656.83   13.28
  -3   5  -7  618.81   16.40
  -3   5  -7  625.45   13.39
  -3   5  -7  650.60   12.43
  -3   5  -6  490.81   12.64
  -3   5  -6  517.29   15.63
  -3   5  -6  496.99   12.94
  -3   5  -6  468.57   14.70
  -3   5  -6  526.77   11.01
  -3   5  -5  777.55   16.03
  -3   5  -5  787.75   16.94
  -3   5  -5  787.88   18.35
  -3   5  -5  773.00   17.48
  -3   5  -4 2079.57   26.47
  -3   5  -4 2068.66   28.43
  -3   5  -4 2109.14   26.58
  -3   5  -4 1996.52   28.14
  -3   5  -4 2062.89   25.23
  -3   5  -4 2053.42   24.60
  -3   5  -3 2381.14   28.12
  -3   5  -3 2360.72   25.04
  -3   5  -3 2361.43   26.82
  -3   5  -3 2421.44   31.09
  -3   5  -3 2299.12   24.41
  -3   5  -3 2388.05   28.09
  -3   5  -2 1179.19   19.57
  -3   5  -2 1237.24   16.94
  -3   5  -2 1239.72   21.58
  -3   5  -2 1197.76   16.82
  -3   5  -2 1150.18   16.24
  -3   5  -2 1218.84   19.83
  -3   5  -1   59.31    3.92
  -3   5  -1   70.87    5.12
  -3   5  -1   76.81    5.79
  -3   5  -1   59.97    3.58
  -3   5  -1   58.12    3.77
  -3   5  -1   74.57    4.16
  -3   5  -1   67.32    5.05
  -3   5   0   67.44    5.35
  -3   5   0   60.96    4.81
  -3   5   0   65.02    3.55
  -3   5   0   59.00    3.74
  -3   5   0   61.57    4.85
  -3   5   0   66.73    4.09
  -3   5   1  732.65   11.49
  -3   5   1  739.88   15.60
  -3   5   1  728.96   12.89
  -3   5   1  781.93   15.86
  -3   5   1  721.75   12.38
  -3   5   1  773.52   15.76
  -3   5   1  696.56   10.98
  -3   5   2 1220.35   15.68
  -3   5   2 1270.21   17.02
  -3   5   2 1192.64   17.27
  -3   5   2 1254.43   17.13
  -3   5   3 1459.75   33.13
  -3   5   3 1525.52   18.83
  -3   5   3 1468.51   19.49
  -3   5   3 1352.13   15.67
  -3   5   3 1608.28   21.36
  -3   5   3 1573.46   19.72
  -3   5   3 1496.63   34.15
  -3   5   4  403.07   10.77
  -3   5   4  403.96    8.94
  -3   5   5   31.26    4.24
  -3   5   5   28.05    3.56
  -3   5   5   31.79    3.18
  -3   5   5   29.63    3.53
  -3   5   6   11.64    2.72
  -3   5   6   15.15    3.09
  -3   5   6   13.39    3.59
  -3   5   6   16.01    2.62
  -3   5   7   14.53    2.82
  -3   5   7   16.70    3.89
  -3   5   7    9.64    2.73
  -3   5   7   13.89    2.58
  -3   5   7    8.16    3.40
  -3   5   7    8.30    3.38
  -3   5   8  624.59   11.09
  -3   5   8  628.26   12.11
  -3   5   9 1210.81   15.95
  -3   5   9  892.71   16.46
  -3   5  10  263.44    7.32
  -3   5  10  186.60    5.54
  -3   6  -9 1088.37   16.34
  -3   6  -9 1179.68   13.42
  -3   6  -8  575.25   14.14
  -3   6  -8  526.48   14.36
  -3   6  -8  533.79   10.62
  -3   6  -8  592.49   11.02
  -3   6  -7  383.31   12.90
  -3   6  -7  391.71   10.42
  -3   6  -7  385.38    9.51
  -3   6  -6  748.33   16.26
  -3   6  -6  685.76   18.04
  -3   6  -6  694.98   18.49
  -3   6  -6  774.53   14.02
  -3   6  -6  746.38   15.33
  -3   6  -5 3058.11   32.35
  -3   6  -5 2959.82   28.06
  -3   6  -5 2749.87   31.49
  -3   6  -5 2790.42   33.87
  -3   6  -5 2777.28   36.01
  -3   6  -4 3395.54   39.00
  -3   6  -4 3356.20   33.58
  -3   6  -4 3494.63   35.45
  -3   6  -4 3448.11   37.13
  -3   6  -4 3396.04   36.72
  -3   6  -3 2687.38   32.74
  -3   6  -3 2629.90   28.46
  -3   6  -3 2667.39   30.93
  -3   6  -3 2714.16   29.13
  -3   6  -3 2752.66   33.18
  -3   6  -3 2743.68   33.47
  -3   6  -3 2814.36   32.95
  -3   6  -2 1576.37   25.05
  -3   6  -2 1458.31   24.21
  -3   6  -2 1468.63   24.43
  -3   6  -2 1403.93   19.87
  -3   6  -2 1499.28   20.72
  -3   6  -2 1561.90   21.21
  -3   6  -1  544.40   14.46
  -3   6  -1  524.13   14.74
  -3   6  -1  499.73   10.61
  -3   6  -1  516.64   14.69
  -3   6  -1  502.73   11.85
  -3   6  -1  534.48   11.78
  -3   6  -1  490.83   11.37
  -3   6   0  576.87   14.45
  -3   6   0  532.82   12.23
  -3   6   0  533.11   10.78
  -3   6   0  504.59   11.41
  -3   6   0  527.01   14.67
  -3   6   0  555.18   15.07
  -3   6   0  571.14   11.78
  -3   6   1 1224.97   18.53
  -3   6   1 1243.83   16.47
  -3   6   1 1227.04   17.76
  -3   6   1 1236.51   22.56
  -3   6   1 1274.67   16.80
  -3   6   1 1216.56   22.30
  -3   6   1 1292.49   20.44
  -3   6   2 2929.56   34.70
  -3   6   2 2864.27   29.43
  -3   6   2 2730.39   24.72
  -3   6   2 2851.25   27.56
  -3   6   2 2965.82   28.86
  -3   6   2 2897.40   34.47
  -3   6   2 2719.87   24.36
  -3   6   3 2759.16   34.02
  -3   6   3 2641.39   25.83
  -3   6   3 2751.06   28.56
  -3   6   3 2695.32   29.84
  -3   6   3 2680.69   27.63
  -3   6   3 2719.06   33.65
  -3   6   4  705.13   14.11
  -3   6   4  685.90   14.72
  -3   6   4  722.80   17.75
  -3   6   4  716.51   16.12
  -3   6   4  684.62   12.99
  -3   6   4  721.68   14.71
  -3   6   4  704.08   17.49
  -3   6   5  474.82   13.86
  -3   6   5  480.16   12.03
  -3   6   5  476.28   14.24
  -3   6   5  467.98   14.08
  -3   6   5  472.85   12.19
  -3   6   5  441.30   11.98
  -3   6   5  468.67   10.86
  -3   6   6  409.00    9.89
  -3   6   6  386.09   11.14
  -3   6   6  377.35   12.56
  -3   6   6  404.34   11.09
  -3   6   6  387.64   12.68
  -3   6   6  385.20   11.13
  -3   6   6  377.02   12.58
  -3   6   7  189.33    7.46
  -3   6   7  180.71    7.26
  -3   6   7  188.26    8.50
  -3   6   8  338.63    8.68
  -3   6   8  378.74   10.60
  -3   6   9  274.81    6.79
  -3   6   9  343.56    8.68
  -3   7  -8  626.27   13.61
  -3   7  -8  598.83   13.51
  -3   7  -7  564.92   10.40
  -3   7  -7  539.49   11.45
  -3   7  -7  538.68   15.13
  -3   7  -7  541.62   14.29
  -3   7  -6 1231.47   24.92
  -3   7  -6 1107.39   18.09
  -3   7  -6 1164.99   15.45
  -3   7  -6 1186.82   23.42
  -3   7  -6 1120.59   22.23
  -3   7  -5 1506.80   22.43
  -3   7  -5 1521.85   23.14
  -3   7  -5 1473.07   26.64
  -3   7  -5 1559.46   25.85
  -3   7  -4 1656.16   23.92
  -3   7  -4 1652.08   27.09
  -3   7  -4 1589.80   23.60
  -3   7  -4 1646.34   27.01
  -3   7  -4 1601.71   27.69
  -3   7  -4 1617.68   25.26
  -3   7  -3 1165.92   19.86
  -3   7  -3 1158.26   20.39
  -3   7  -3 1154.09   21.57
  -3   7  -3 1129.94   23.15
  -3   7  -3 1122.82   22.82
  -3   7  -3 1168.77   23.24
  -3   7  -2 1895.14   29.90
  -3   7  -2 1986.34   26.15
  -3   7  -2 1991.11   26.26
  -3   7  -2 1927.92   24.91
  -3   7  -2 1807.90   24.20
  -3   7  -2 1903.74   28.96
  -3   7  -2 1910.58   30.10
  -3   7  -1 2802.34   30.12
  -3   7  -1 2617.14   28.38
  -3   7  -1 2705.02   28.59
  -3   7  -1 2618.56   35.41
  -3   7  -1 2822.21   30.45
  -3   7  -1 2639.62   35.75
  -3   7   0 2079.49   32.01
  -3   7   0 2140.52   32.53
  -3   7   0 2162.15   22.65
  -3   7   0 2049.51   24.44
  -3   7   0 2004.66   24.39
  -3   7   0 2087.06   24.29
  -3   7   0 2050.33   25.98
  -3   7   1 2133.55   32.28
  -3   7   1 2084.82   22.13
  -3   7   1 2138.02   32.35
  -3   7   1 2079.18   26.75
  -3   7   2 1399.15   18.62
  -3   7   2 1443.12   26.65
  -3   7   2 1383.17   20.16
  -3   7   2 1410.69   22.10
  -3   7   2 1425.96   26.44
  -3   7   3 1451.86   26.45
  -3   7   3 1434.11   20.59
  -3   7   3 1530.28   22.30
  -3   7   3 1448.50   23.05
  -3   7   3 1475.81   19.97
  -3   7   3 1451.07   26.46
  -3   7   4 1738.71   28.13
  -3   7   4 1726.49   20.90
  -3   7   4 1697.07   22.29
  -3   7   4 1770.00   28.32
  -3   7   4 1755.87   25.49
  -3   7   5 1158.19   22.12
  -3   7   5 1163.91   17.09
  -3   7   5 1136.56   18.62
  -3   7   5 1154.51   22.19
  -3   7   5 1146.19   20.28
  -3   7   5 1114.98   17.72
  -3   7   6 1691.51   24.90
  -3   7   6 1648.63   24.63
  -3   7   6 1659.88   23.50
  -3   7   6 1726.61   20.73
  -3   7   6 1720.15   19.78
  -3   7   7 1170.57   17.81
  -3   7   7 1114.79   15.06
  -3   7   8  208.51    6.64
  -3   7   8  250.41    6.13
  -3   8  -8  713.50   12.46
  -3   8  -8  832.51   13.32
  -3   8  -7 1206.01   18.56
  -3   8  -7 1169.04   18.63
  -3   8  -7 1214.80   15.04
  -3   8  -6  983.16   19.47
  -3   8  -6  945.63   18.35
  -3   8  -6 1002.24   19.57
  -3   8  -6  979.34   15.36
  -3   8  -5  530.73   14.68
  -3   8  -5  527.99   15.49
  -3   8  -5  486.07   14.42
  -3   8  -5  539.56   14.84
  -3   8  -5  509.35   14.29
  -3   8  -4  335.45   13.18
  -3   8  -4  324.55   10.19
  -3   8  -4  353.19   12.79
  -3   8  -4  336.04   11.45
  -3   8  -4  323.19   12.42
  -3   8  -4  332.70   10.35
  -3   8  -4  343.72   12.70
  -3   8  -3  760.08   17.48
  -3   8  -3  751.80   19.35
  -3   8  -3  712.59   18.58
  -3   8  -3  742.05   15.31
  -3   8  -3  698.76   18.04
  -3   8  -3  719.00   16.24
  -3   8  -3  729.04   18.77
  -3   8  -3  703.76   14.81
  -3   8  -2 1973.88   30.20
  -3   8  -2 1844.91   30.44
  -3   8  -2 1846.00   30.50
  -3   8  -2 1901.64   24.02
  -3   8  -2 1861.08   28.85
  -3   8  -2 1922.36   24.38
  -3   8  -2 1793.27   24.95
  -3   8  -2 1990.53   27.45
  -3   8  -1 3045.05   29.22
  -3   8  -1 2685.97   37.06
  -3   8  -1 3097.38   29.69
  -3   8  -1 2641.25   36.79
  -3   8  -1 2824.89   30.22
  -3   8  -1 2946.79   33.94
  -3   8  -1 3015.89   35.78
  -3   8  -1 2754.48   31.37
  -3   8   0 2531.30   25.39
  -3   8   0 2416.77   35.65
  -3   8   0 2610.24   32.34
  -3   8   0 2453.48   29.70
  -3   8   0 2506.79   28.02
  -3   8   0 2372.09   35.50
  -3   8   1  780.47   13.67
  -3   8   1  714.60   14.74
  -3   8   1  741.21   19.78
  -3   8   1  746.85   16.38
  -3   8   1  760.64   20.12
  -3   8   1  720.35   16.72
  -3   8   2  136.87    5.84
  -3   8   2  138.13    7.34
  -3   8   2  132.84    6.44
  -3   8   2  133.43    8.76
  -3   8   2  134.61    8.83
  -3   8   3  571.17   14.18
  -3   8   3  567.31   11.43
  -3   8   3  552.54   16.23
  -3   8   3  557.37   12.51
  -3   8   3  566.77   16.48
  -3   8   4 1522.76   22.49
  -3   8   4 1555.94   18.25
  -3   8   4 1512.29   25.13
  -3   8   4 1497.20   25.12
  -3   8   4 1501.62   19.52
  -3   8   5 1749.11   18.56
  -3   8   5 1641.96   23.91
  -3   8   5 1684.46   22.02
  -3   8   5 1717.02   19.52
  -3   8   5 1625.54   23.88
  -3   8   6 1622.46   17.04
  -3   8   6 1628.06   19.61
  -3   8   7 1234.84   15.20
  -3   9  -6  354.13    9.74
  -3   9  -6  361.04    8.02
  -3   9  -6  339.02    9.62
  -3   9  -5   49.63    4.50
  -3   9  -5   44.10    4.75
  -3   9  -5   45.56    4.75
  -3   9  -5   47.03    3.50
  -3   9  -5   49.34    4.76
  -3   9  -5   43.36    4.29
  -3   9  -4   34.09    3.38
  -3   9  -4   28.28    3.99
  -3   9  -4   35.98    4.52
  -3   9  -4   35.64    4.64
  -3   9  -4   36.37    4.71
  -3   9  -4   31.61    4.04
  -3   9  -3  175.09    8.99
  -3   9  -3  152.64    7.81
  -3   9  -3  173.24    9.02
  -3   9  -3  176.89    8.05
  -3   9  -3  164.19    8.31
  -3   9  -3  180.39    7.85
  -3   9  -3  172.17    6.81
  -3   9  -2  678.75   12.94
  -3   9  -2  676.96   16.10
  -3   9  -2  649.77   17.16
  -3   9  -2  671.03   14.59
  -3   9  -2  641.89   17.08
  -3   9  -1 1549.67   26.54
  -3   9  -1 1584.30   24.08
  -3   9  -1 1557.51   21.31
  -3   9  -1 1573.43   22.89
  -3   9  -1 1620.30   19.45
  -3   9  -1 1561.29   26.54
  -3   9   0  611.05   16.87
  -3   9   0  611.68   16.86
  -3   9   0  640.79   14.35
  -3   9   0  598.16   12.90
  -3   9   1  289.83    8.80
  -3   9   1  295.59   11.75
  -3   9   1  286.61   11.65
  -3   9   1  297.65    9.77
  -3   9   2  496.40   14.50
  -3   9   2  491.79   14.42
  -3   9   2  531.32   12.68
  -3   9   2  528.99   11.38
  -3   9   3  403.61   10.61
  -3   9   3  422.84    9.67
  -3   9   3  378.03   12.04
  -3   9   3  396.83   12.33
  -3   9   4  837.75   11.58
  -3   9   4  808.91   15.79
  -3   9   4  845.39   12.50
  -3   9   4  811.31   15.81
  -3   9   4  790.56   13.78
  -3   9   5  910.45   13.39
  -3  10  -3  144.02    6.96
  -3  10  -3  141.16    6.38
  -3  10  -3  144.42    6.92
  -3  10  -2  274.36    9.96
  -3  10  -2  262.72    9.62
  -3  10  -2  242.87    8.09
  -3  10  -1  118.15    5.86
  -3  10  -1  113.07    6.52
  -3  10  -1  105.95    5.44
  -3  10  -1  108.32    6.41
  -3  10   0   95.73    5.96
  -3  10   0  100.99    5.30
  -3  10   0   97.13    6.00
  -3  10   0   93.69    4.95
  -3  10   1  349.85   10.49
  -3  10   1  370.16    9.25
  -3  10   1  355.27   10.61
  -3  10   2  768.76   14.55
  -3  10   2  742.83   14.34
  -3  10   2  769.62   12.45
  -2  -6   6  582.63   11.04
  -2  -6   7  227.92    6.79
  -2  -5   7  562.28   10.65
  -2  -5   8  221.14    6.71
  -2  -5   9  311.36    7.24
  -2  -5  10   29.92    2.34
  -2  -4   6  504.31    9.88
  -2  -4   7 1424.65   16.64
  -2  -4   8 1168.00   15.02
  -2  -4   9   88.83    4.49
  -2  -4  10   11.29    1.96
  -2  -4  10   22.04    2.67
  -2  -3  -7 2930.41   26.38
  -2  -3   6 1792.64   17.64
  -2  -3   7 2667.57   22.39
  -2  -3   8 1864.56   18.71
  -2  -3   9 1095.31   14.82
  -2  -3  10  499.98    8.38
  -2  -3  10  639.07   10.53
  -2  -3  11  319.83    6.49
  -2  -2  -9  421.45    9.07
  -2  -2  -8  942.70   15.34
  -2  -2  -7 1839.45   22.32
  -2  -2   1 2040.59   19.61
  -2  -2   1 2116.30   19.98
  -2  -2   2 5794.86   36.80
  -2  -2   2 5826.20   37.58
  -2  -2   6 2567.72   19.94
  -2  -2   7  351.63    8.07
  -2  -2   8 1167.82   15.31
  -2  -2   9 2471.90   19.93
  -2  -2   9 2617.83   23.05
  -2  -2  10 1957.91   16.56
  -2  -2  10 2123.92   19.73
  -2  -2  11 1203.64   13.07
  -2  -1 -10  299.55    7.18
  -2  -1  -9  784.05   13.57
  -2  -1  -8  579.29   12.71
  -2  -1  -7   30.84    3.80
  -2  -1  -7   30.16    3.24
  -2  -1  -2 5216.88   37.90
  -2  -1  -1 1077.87   18.90
  -2  -1  -1  995.01   12.15
  -2  -1   0  649.56    9.19
  -2  -1   1  290.32    5.34
  -2  -1   1  284.05    5.24
  -2  -1   6  490.91    8.38
  -2  -1   7  207.07    6.36
  -2  -1   8 1064.38   13.21
  -2  -1   8 1094.05   14.94
  -2  -1   9 2196.94   18.55
  -2  -1   9 2238.37   21.63
  -2  -1  10 2293.45   17.99
  -2  -1  10 2458.14   21.58
  -2  -1  11 1392.67   14.40
  -2   0 -10 1005.08   13.98
  -2   0  -9 1325.14   18.39
  -2   0  -9 1349.01   17.32
  -2   0  -8  435.26   11.43
  -2   0  -8  458.47   10.60
  -2   0  -7  107.24    5.56
  -2   0  -7  108.78    6.00
  -2   0  -2  827.52   16.37
  -2   0  -1  335.05    9.10
  -2   0  -1  320.17    9.86
  -2   0   0   17.63    2.22
  -2   0   0   16.02    1.99
  -2   0   1  375.26    9.00
  -2   0   6  913.22   11.70
  -2   0   7 1189.20   13.23
  -2   0   7 1159.81   14.28
  -2   0   8  663.88   10.36
  -2   0   8  686.97   11.92
  -2   0   9  503.11   10.38
  -2   0   9  526.00    9.13
  -2   0  10  559.68   10.57
  -2   0  11  660.75   10.04
  -2   1 -11  951.64   11.92
  -2   1 -10 1365.22   16.04
  -2   1 -10 1411.68   17.17
  -2   1  -9  704.86   13.87
  -2   1  -9  700.32   13.27
  -2   1  -8 1090.08   18.01
  -2   1  -8 1121.40   17.55
  -2   1  -7 1953.69   23.25
  -2   1  -6 1522.88   19.47
  -2   1  -1 1805.09   20.98
  -2   1  -1 2185.24   21.19
  -2   1   0 1889.31   20.17
  -2   1   0 1969.64   16.39
  -2   1   1 1804.49   12.94
  -2   1   1 1722.10   12.66
  -2   1   5  154.02    4.29
  -2   1   6 1356.01   14.35
  -2   1   6 1311.87   13.16
  -2   1   7  976.13   11.87
  -2   1   7  930.86   13.05
  -2   1   8   83.30    3.92
  -2   1   8   82.81    4.61
  -2   1   9    9.39    2.08
  -2   1   9   10.92    2.56
  -2   1  10   19.08    2.75
  -2   1  11   45.84    3.01
  -2   2 -11  504.19    8.44
  -2   2 -10  333.56    8.37
  -2   2 -10  359.24    8.98
  -2   2  -9  725.27   14.04
  -2   2  -9  702.49   13.56
  -2   2  -8 1164.55   18.69
  -2   2  -8 1368.90   19.78
  -2   2  -7 4174.08   33.89
  -2   2  -7 4005.14   36.66
  -2   2  -6 5849.51   42.94
  -2   2  -6 5773.51   37.50
  -2   2  -5 3342.40   26.69
  -2   2  -5 3317.97   30.70
  -2   2  -5 3386.50   26.70
  -2   2   0 1462.78   11.63
  -2   2   1 5092.76   31.22
  -2   2   1 5243.51   31.31
  -2   2   2 4143.64   31.58
  -2   2   2 4109.91   31.11
  -2   2   3  143.27    7.38
  -2   2   3  153.46    7.60
  -2   2   5 2145.55   16.00
  -2   2   5 2168.21   16.95
  -2   2   6 2878.51   19.84
  -2   2   6 2866.44   21.61
  -2   2   7 1348.14   14.42
  -2   2   7 1356.97   16.13
  -2   2   8  325.67    7.26
  -2   2   8  330.91    8.56
  -2   2   9  220.52    6.02
  -2   2   9  225.57    7.14
  -2   2  10   63.93    3.84
  -2   2  11  130.73    4.46
  -2   3 -11  341.73    7.02
  -2   3 -10  463.01    9.82
  -2   3 -10  505.44   10.59
  -2   3  -9 1003.95   16.18
  -2   3  -9  986.02   16.05
  -2   3  -8 1610.89   21.15
  -2   3  -8 1657.02   21.95
  -2   3  -7 3151.75   29.60
  -2   3  -7 3080.60   34.14
  -2   3  -6 3693.74   30.59
  -2   3  -6 3574.41   29.79
  -2   3  -6 3669.18   39.88
  -2   3  -6 3683.06   36.28
  -2   3  -6 3568.26   31.48
  -2   3  -5 2239.08   21.71
  -2   3  -5 2216.40   27.82
  -2   3  -4 1729.54   21.62
  -2   3  -4 1678.97   18.78
  -2   3  -4 1711.51   22.04
  -2   3  -4 1759.60   19.46
  -2   3  -4 1660.62   17.50
  -2   3  -1 3967.94   23.38
  -2   3   1 4064.48   33.31
  -2   3   1 4112.01   34.14
  -2   3   2 5241.56   41.62
  -2   3   2 4941.26   40.30
  -2   3   3 4027.44   40.42
  -2   3   3 4312.40   41.71
  -2   3   4 3050.92   18.64
  -2   3   4 3008.32   24.45
  -2   3   4 3336.64   41.05
  -2   3   4 3320.90   40.95
  -2   3   4 3078.68   19.22
  -2   3   5 3435.57   22.33
  -2   3   5 3347.76   21.06
  -2   3   5 3239.97   46.10
  -2   3   5 3165.39   45.21
  -2   3   6 1722.87   37.60
  -2   3   6 1834.03   16.53
  -2   3   6 1652.50   36.60
  -2   3   6 1817.14   17.95
  -2   3   6 1652.45   21.05
  -2   3   7 1771.48   22.09
  -2   3   7 1793.34   18.86
  -2   3   8 1779.23   17.25
  -2   3   8 1802.47   19.74
  -2   3   9  864.81   13.12
  -2   3  10 1106.16   13.54
  -2   3  11  731.38    9.31
  -2   4 -11  527.59    8.06
  -2   4 -10  493.66    9.62
  -2   4  -9  752.69   13.70
  -2   4  -9  763.14   13.80
  -2   4  -9  719.07   15.88
  -2   4  -8  498.98   15.74
  -2   4  -8  520.59   11.87
  -2   4  -8  504.36   11.92
  -2   4  -8  522.19   14.77
  -2   4  -7  295.04    9.18
  -2   4  -7  291.75    8.85
  -2   4  -7  298.66   11.59
  -2   4  -7  312.52    9.94
  -2   4  -6  633.59   13.42
  -2   4  -6  616.36   16.02
  -2   4  -6  665.57   17.07
  -2   4  -6  638.30   14.26
  -2   4  -6  646.89   12.53
  -2   4  -5  871.20   13.71
  -2   4  -5  845.48   15.51
  -2   4  -5  858.25   18.03
  -2   4  -5  886.03   17.18
  -2   4  -5  888.32   16.41
  -2   4  -4 4237.19   27.85
  -2   4  -4 4102.35   33.81
  -2   4  -4 4190.54   36.57
  -2   4  -4 4074.58   31.83
  -2   4  -4 4145.93   34.01
  -2   4  -4 4150.32   32.09
  -2   4  -4 4329.96   37.59
  -2   4  -3 4756.75   30.70
  -2   4  -3 4983.71   37.04
  -2   4  -3 4856.54   32.16
  -2   4  -3 4898.81   35.59
  -2   4  -3 4999.54   35.96
  -2   4  -3 4687.80   32.94
  -2   4  -3 4885.21   39.31
  -2   4  -2  779.76   15.21
  -2   4  -2  761.32   11.34
  -2   4  -2  782.20   11.83
  -2   4  -2  814.48   11.72
  -2   4   1 1424.50   14.86
  -2   4   2 3573.81   40.40
  -2   4   2 3982.41   26.51
  -2   4   2 4062.32   29.24
  -2   4   2 3459.90   20.77
  -2   4   2 3769.83   24.04
  -2   4   2 3655.08   40.52
  -2   4   3 6189.04   28.88
  -2   4   3 6098.43   57.15
  -2   4   3 6210.52   57.51
  -2   4   4 3279.91   27.66
  -2   4   4 3166.57   21.41
  -2   4   4 3263.96   45.45
  -2   4   4 3254.17   22.23
  -2   4   5  475.69    9.29
  -2   4   5  420.48   18.44
  -2   4   5  410.27   10.68
  -2   4   5  479.55    8.85
  -2   4   5  431.37   18.72
  -2   4   6  301.38    7.88
  -2   4   6  313.45    9.63
  -2   4   7 1353.35   16.01
  -2   4   7 1300.87   19.35
  -2   4   8 1651.60   19.08
  -2   4   8 1756.98   17.56
  -2   4   9 2351.81   20.99
  -2   4  10 1017.91   17.37
  -2   4  10 2072.91   17.05
  -2   5 -10  691.64   10.78
  -2   5 -10  588.39   12.13
  -2   5  -9  425.78    9.86
  -2   5  -9  431.20   12.19
  -2   5  -9  425.38   11.95
  -2   5  -8   96.11    5.37
  -2   5  -8   86.97    7.21
  -2   5  -8   92.59    5.23
  -2   5  -8  103.27    5.52
  -2   5  -8   92.05    6.79
  -2   5  -7   26.35    3.25
  -2   5  -7   29.67    3.53
  -2   5  -7   34.02    3.91
  -2   5  -6   58.99    4.77
  -2   5  -6   50.12    5.74
  -2   5  -6   52.49    4.04
  -2   5  -6   57.75    4.49
  -2   5  -6   43.11    5.58
  -2   5  -6   49.83    4.74
  -2   5  -5 1510.08   21.98
  -2   5  -5 1567.12   17.93
  -2   5  -5 1594.73   24.92
  -2   5  -5 1509.06   23.86
  -2   5  -5 1480.33   25.30
  -2   5  -5 1485.17   22.05
  -2   5  -5 1559.61   24.82
  -2   5  -4 2321.84   30.23
  -2   5  -4 2230.26   27.88
  -2   5  -4 2293.36   26.63
  -2   5  -4 2275.90   25.87
  -2   5  -4 2288.43   28.25
  -2   5  -3 1987.80   25.52
  -2   5  -3 1926.36   22.16
  -2   5  -3 1870.93   21.22
  -2   5  -3 1863.05   24.83
  -2   5  -3 1940.41   25.74
  -2   5  -3 1869.36   22.36
  -2   5  -3 1811.01   24.87
  -2   5  -2  657.61   14.66
  -2   5  -2  631.09   11.71
  -2   5  -2  636.49   14.72
  -2   5  -2  612.55   14.12
  -2   5  -2  613.45   11.43
  -2   5  -2  599.74   11.85
  -2   5  -1   45.75    3.37
  -2   5  -1   53.87    4.62
  -2   5  -1   54.01    3.64
  -2   5  -1   46.08    2.85
  -2   5  -1   57.18    4.72
  -2   5  -1   49.99    3.32
  -2   5  -1   45.69    4.56
  -2   5   0  252.71    7.33
  -2   5   0  236.48    6.09
  -2   5   0  255.58    7.03
  -2   5   0  256.35    6.97
  -2   5   0  237.30    6.71
  -2   5   0  268.28    9.26
  -2   5   0  278.62    9.37
  -2   5   0  233.37    8.84
  -2   5   1  549.07    9.50
  -2   5   1  616.49   11.07
  -2   5   1  635.75   13.97
  -2   5   1  563.57    9.48
  -2   5   1  628.74   10.89
  -2   5   1  600.49   11.60
  -2   5   1  631.31   13.88
  -2   5   1  602.43   12.97
  -2   5   2 2011.51   35.38
  -2   5   2 2055.71   36.32
  -2   5   2 2043.18   19.05
  -2   5   2 2151.54   19.76
  -2   5   2 2347.90   23.40
  -2   5   2 2215.55   21.09
  -2   5   2 2136.53   22.77
  -2   5   2 2308.22   27.36
  -2   5   2 2347.16   27.52
  -2   5   3 3608.83   49.64
  -2   5   3 3891.23   28.81
  -2   5   3 3588.58   50.45
  -2   5   3 4161.88   34.98
  -2   5   3 4019.66   29.81
  -2   5   3 3775.31   26.67
  -2   5   3 4105.79   37.80
  -2   5   3 4101.79   37.80
  -2   5   3 3887.53   31.22
  -2   5   4  866.57   12.95
  -2   5   4  878.32   13.14
  -2   5   4  906.65   15.84
  -2   5   4 1031.28   19.20
  -2   5   4 1065.41   19.10
  -2   5   4 1042.02   19.23
  -2   5   5  432.83   11.42
  -2   5   5  478.02    9.95
  -2   5   5  486.45   14.34
  -2   5   5  468.96   14.06
  -2   5   5  439.95    9.69
  -2   5   6  608.66   16.84
  -2   5   6  566.25   14.69
  -2   5   6  536.54   12.98
  -2   5   6  539.82   11.25
  -2   5   6  562.58   14.67
  -2   5   6  608.72   11.57
  -2   5   7  437.64    9.69
  -2   5   7  433.18   11.49
  -2   5   7  383.22   13.77
  -2   5   7  384.23    9.48
  -2   5   8 1220.03   22.30
  -2   5   8 1389.73   16.97
  -2   5   9  884.28   16.94
  -2   5   9  650.97   11.59
  -2   5  10  495.78    8.28
  -2   5  10  348.15    8.35
  -2   6 -10  733.51    9.64
  -2   6  -9  843.20   12.26
  -2   6  -9  809.79   15.76
  -2   6  -8  544.09   15.27
  -2   6  -8  532.04   11.27
  -2   6  -8  544.30   11.11
  -2   6  -8  524.50   14.66
  -2   6  -7   82.50    5.44
  -2   6  -7   84.22    4.84
  -2   6  -7   77.63    6.71
  -2   6  -7   78.97    7.29
  -2   6  -6  430.19   11.90
  -2   6  -6  424.04   13.75
  -2   6  -6  466.26   10.74
  -2   6  -6  425.87   13.84
  -2   6  -6  375.84   14.32
  -2   6  -6  402.82   14.39
  -2   6  -5 1075.96   19.24
  -2   6  -5 1136.76   22.69
  -2   6  -5 1022.86   21.11
  -2   6  -5  989.97   21.76
  -2   6  -5 1078.43   15.89
  -2   6  -5 1129.15   22.49
  -2   6  -5 1067.27   19.55
  -2   6  -4  231.53    9.19
  -2   6  -4  217.94    9.91
  -2   6  -4  223.87   10.05
  -2   6  -4  211.54    9.21
  -2   6  -4  219.12    8.98
  -2   6  -4  222.34   10.41
  -2   6  -4  227.85    9.03
  -2   6  -3  273.53    9.39
  -2   6  -3  292.26   11.34
  -2   6  -3  284.05   11.19
  -2   6  -3  290.23   11.33
  -2   6  -3  280.64    9.22
  -2   6  -3  294.15    9.72
  -2   6  -3  297.10   10.23
  -2   6  -2  621.50   13.20
  -2   6  -2  659.87   13.71
  -2   6  -2  602.90   12.75
  -2   6  -2  632.04   16.28
  -2   6  -2  693.88   15.05
  -2   6  -2  647.55   16.41
  -2   6  -2  638.97   15.59
  -2   6  -1  526.59   10.08
  -2   6  -1  540.14   11.91
  -2   6  -1  496.32   10.99
  -2   6  -1  513.52   14.64
  -2   6  -1  501.24   11.62
  -2   6  -1  504.31   14.46
  -2   6  -1  507.94   12.55
  -2   6   0  434.32   10.21
  -2   6   0  395.68    8.53
  -2   6   0  399.46    9.71
  -2   6   0  439.35   13.57
  -2   6   0  432.01   10.21
  -2   6   0  425.63   10.81
  -2   6   0  430.66   13.43
  -2   6   0  422.51   10.95
  -2   6   1  548.03   12.56
  -2   6   1  563.59   11.63
  -2   6   1  551.31   10.38
  -2   6   1  579.67   15.63
  -2   6   1  548.84   11.32
  -2   6   1  582.25   15.65
  -2   6   2  496.62   11.55
  -2   6   2  497.80   14.51
  -2   6   2  493.70   12.24
  -2   6   2  505.12   14.67
  -2   6   2  474.48   10.72
  -2   6   2  463.68    9.75
  -2   6   3  302.47   10.17
  -2   6   3  295.32   11.54
  -2   6   3  292.88    8.77
  -2   6   3  311.15    9.93
  -2   6   3  288.91    8.23
  -2   6   3  296.24   11.63
  -2   6   4  556.93   12.17
  -2   6   4  618.41   14.57
  -2   6   4  561.13   14.47
  -2   6   4  591.90   12.73
  -2   6   4  600.38   16.19
  -2   6   4  592.87   15.98
  -2   6   5  712.44   14.34
  -2   6   5  773.06   16.47
  -2   6   5  743.81   17.39
  -2   6   5  710.69   14.28
  -2   6   5  741.76   17.74
  -2   6   5  760.26   18.07
  -2   6   6  600.73   13.22
  -2   6   6  600.63   15.87
  -2   6   6  574.79   12.82
  -2   6   7  546.15   11.96
  -2   6   7  541.70   14.32
  -2   6   8  144.38    5.58
  -2   6   8  135.78    6.55
  -2   6   9   26.67    2.28
  -2   6   9   19.43    2.61
  -2   7  -9  719.02   13.03
  -2   7  -9  766.69   13.85
  -2   7  -8 1477.92   17.39
  -2   7  -8 1503.52   22.35
  -2   7  -8 1463.29   22.20
  -2   7  -7 2254.43   31.40
  -2   7  -7 2210.31   24.43
  -2   7  -7 2208.45   30.21
  -2   7  -7 2173.03   20.52
  -2   7  -6 1107.84   22.30
  -2   7  -6 1120.98   18.79
  -2   7  -6 1092.44   22.79
  -2   7  -6 1083.92   21.90
  -2   7  -6 1084.53   23.35
  -2   7  -5  882.98   21.06
  -2   7  -5  985.24   24.01
  -2   7  -5  846.06   19.85
  -2   7  -5  946.23   21.46
  -2   7  -5  986.48   22.12
  -2   7  -5  956.30   18.20
  -2   7  -4  627.38   17.41
  -2   7  -4  632.59   17.84
  -2   7  -4  695.63   15.57
  -2   7  -4  598.77   15.35
  -2   7  -4  610.92   15.87
  -2   7  -4  605.86   17.16
  -2   7  -4  670.16   15.63
  -2   7  -3  534.75   13.69
  -2   7  -3  478.47   13.12
  -2   7  -3  482.62   13.55
  -2   7  -3  503.79   15.86
  -2   7  -3  525.66   16.21
  -2   7  -3  514.19   15.65
  -2   7  -3  533.22   13.51
  -2   7  -2 2358.54   27.53
  -2   7  -2 2256.32   33.41
  -2   7  -2 2253.20   31.58
  -2   7  -2 2232.94   26.34
  -2   7  -2 2240.26   27.28
  -2   7  -2 2253.02   33.46
  -2   7  -2 2234.21   26.66
  -2   7  -1 3084.86   31.79
  -2   7  -1 3133.27   30.50
  -2   7  -1 3061.25   29.56
  -2   7  -1 3109.66   39.31
  -2   7  -1 3150.18   35.57
  -2   7  -1 3038.11   38.65
  -2   7  -1 3178.83   30.12
  -2   7   0 2122.04   23.48
  -2   7   0 2004.53   25.66
  -2   7   0 2033.34   20.44
  -2   7   0 2035.66   31.45
  -2   7   0 2013.45   31.44
  -2   7   0 1978.12   23.30
  -2   7   0 2078.24   28.23
  -2   7   1  591.68   11.06
  -2   7   1  656.29   18.16
  -2   7   1  608.53   12.91
  -2   7   1  618.72   14.61
  -2   7   1  638.24   15.40
  -2   7   1  653.10   13.43
  -2   7   1  660.65   18.12
  -2   7   2   75.76    4.30
  -2   7   2   77.11    5.07
  -2   7   2   69.92    4.57
  -2   7   2   90.82    7.34
  -2   7   2   70.30    5.42
  -2   7   2   89.25    7.31
  -2   7   3  168.11    7.36
  -2   7   3  157.55    7.81
  -2   7   3  153.00    6.58
  -2   7   3  171.98    9.45
  -2   7   3  172.79    9.44
  -2   7   3  151.59    5.90
  -2   7   4  693.29   14.79
  -2   7   4  720.88   18.19
  -2   7   4  674.90   12.59
  -2   7   4  689.96   13.54
  -2   7   4  672.67   15.86
  -2   7   4  728.50   18.35
  -2   7   5  597.05   13.46
  -2   7   5  604.68   11.98
  -2   7   5  593.93   12.30
  -2   7   5  590.52   14.69
  -2   7   5  625.35   16.26
  -2   7   5  630.37   16.29
  -2   7   6 1038.28   18.48
  -2   7   6 1026.22   14.83
  -2   7   6 1004.38   14.98
  -2   7   7  438.05    8.91
  -2   7   7  455.95   11.09
  -2   7   8   17.64    1.91
  -2   7   8   19.25    2.49
  -2   8  -8 1777.61   20.87
  -2   8  -8 1945.47   21.91
  -2   8  -7 2716.05   24.03
  -2   8  -7 2762.89   29.58
  -2   8  -6 1187.08   17.83
  -2   8  -6 1220.52   22.21
  -2   8  -6 1148.43   21.46
  -2   8  -6 1142.32   21.25
  -2   8  -6 1223.95   22.53
  -2   8  -6 1162.76   21.21
  -2   8  -5  600.81   13.59
  -2   8  -5  599.86   16.83
  -2   8  -5  575.04   16.15
  -2   8  -5  549.42   15.74
  -2   8  -5  594.08   15.95
  -2   8  -5  550.95   15.74
  -2   8  -4  970.91   22.40
  -2   8  -4  976.80   22.59
  -2   8  -4  974.53   17.73
  -2   8  -4  927.25   19.18
  -2   8  -4  907.53   19.00
  -2   8  -4 1016.50   22.12
  -2   8  -4  930.11   20.78
  -2   8  -3 1351.99   24.82
  -2   8  -3 1287.27   25.81
  -2   8  -3 1318.31   20.41
  -2   8  -3 1276.70   24.22
  -2   8  -3 1258.60   21.31
  -2   8  -3 1313.38   23.02
  -2   8  -3 1258.73   25.59
  -2   8  -2 1979.96   24.25
  -2   8  -2 1914.34   29.31
  -2   8  -2 1977.57   28.83
  -2   8  -2 1961.89   25.40
  -2   8  -2 2068.65   27.49
  -2   8  -2 2029.73   32.74
  -2   8  -2 2049.66   32.83
  -2   8  -1 3379.37   30.87
  -2   8  -1 3309.49   42.05
  -2   8  -1 3317.06   31.91
  -2   8  -1 3309.96   34.16
  -2   8  -1 3383.11   37.34
  -2   8  -1 3316.94   42.29
  -2   8   0 2307.19   28.76
  -2   8   0 2221.47   25.41
  -2   8   0 2231.81   34.32
  -2   8   0 2296.35   34.83
  -2   8   1  896.97   21.57
  -2   8   1  908.25   18.22
  -2   8   1  899.97   21.54
  -2   8   2  881.54   13.65
  -2   8   2  842.32   15.15
  -2   8   2  840.20   17.53
  -2   8   2  821.89   20.18
  -2   8   2  816.36   20.08
  -2   8   3  776.58   16.56
  -2   8   3  800.92   15.04
  -2   8   3  780.36   12.65
  -2   8   3  797.32   14.24
  -2   8   3  780.79   18.82
  -2   8   3  788.65   18.85
  -2   8   4 1374.99   19.07
  -2   8   4 1367.49   16.39
  -2   8   4 1413.32   18.09
  -2   8   4 1427.60   24.09
  -2   8   4 1410.88   23.88
  -2   8   5 1622.96   16.87
  -2   8   5 1543.99   20.91
  -2   8   6  831.02   11.09
  -2   8   6  872.62   14.16
  -2   8   7  541.21    9.90
  -2   9  -7  643.49   11.69
  -2   9  -6  662.60   13.67
  -2   9  -6  511.56   12.32
  -2   9  -6  633.08   10.99
  -2   9  -6  492.97   12.17
  -2   9  -6  616.51   13.38
  -2   9  -5  392.36   12.25
  -2   9  -5  386.12   11.49
  -2   9  -5  395.79   12.22
  -2   9  -5  428.15    9.91
  -2   9  -5  428.64   11.81
  -2   9  -5  424.75   12.16
  -2   9  -4 1154.51   20.14
  -2   9  -4 1132.28   19.70
  -2   9  -4 1172.52   22.07
  -2   9  -4 1196.44   20.39
  -2   9  -4 1187.62   17.10
  -2   9  -4 1160.46   22.10
  -2   9  -3 1117.61   16.74
  -2   9  -3 1163.17   20.16
  -2   9  -3 1178.47   20.12
  -2   9  -3 1155.54   20.75
  -2   9  -3 1141.12   19.24
  -2   9  -3 1162.48   23.54
  -2   9  -3 1192.77   23.71
  -2   9  -2  796.40   19.33
  -2   9  -2  807.97   15.67
  -2   9  -2  806.31   17.15
  -2   9  -2  801.24   19.42
  -2   9  -2  855.95   17.30
  -2   9  -2  800.57   14.16
  -2   9  -1  855.22   16.92
  -2   9  -1  826.24   19.81
  -2   9  -1  882.50   16.16
  -2   9  -1  839.00   19.93
  -2   9   0  936.05   20.94
  -2   9   0  921.53   20.77
  -2   9   0  934.30   17.27
  -2   9   0  995.54   16.40
  -2   9   1 2210.88   31.09
  -2   9   1 2247.77   26.58
  -2   9   1 2268.93   31.40
  -2   9   2 2166.30   29.34
  -2   9   2 2120.86   25.03
  -2   9   3 1177.50   20.21
  -2   9   3 1200.73   20.40
  -2   9   4 1050.61   15.58
  -2   9   5  739.29   11.88
  -2  10  -4  988.66   16.96
  -2  10  -4 1022.91   17.12
  -2  10  -3  785.18   15.60
  -2  10  -3  773.80   15.57
  -2  10  -2   51.91    4.09
  -2  10  -2   48.78    4.80
  -2  10  -2   51.29    4.82
  -2  10  -1   29.40    3.22
  -2  10  -1   31.59    4.24
  -2  10  -1   30.11    4.16
  -2  10   0  617.44   14.64
  -2  10   0  611.92   12.08
  -2  10   0  623.13   14.81
  -2  10   1  950.66   17.10
  -2  10   1  977.32   17.42
  -2  10   1  973.88   14.55
  -2  10   2 1170.52   15.04
  -1  -9   5  108.17    4.14
  -1  -8   6  373.30    8.11
  -1  -8   7  200.02    5.40
  -1  -7   7  409.88    8.82
  -1  -7   8  414.84    7.80
  -1  -7   9  433.23    6.85
  -1  -6   7 1293.03   16.24
  -1  -6   8 1537.77   16.51
  -1  -6   9 1233.54   13.08
  -1  -6  10  561.37    7.98
  -1  -5   7 1448.35   17.56
  -1  -5   8 1516.89   17.39
  -1  -5   9  761.59   11.33
  -1  -5  10   56.02    3.26
  -1  -4   3   25.49    3.26
  -1  -4   4    5.66    2.99
  -1  -4   5   64.54    7.14
  -1  -4   6  384.04   16.45
  -1  -4   7  961.90   13.91
  -1  -4   8  680.33   11.77
  -1  -4   9  373.30    8.48
  -1  -4  10  264.04    6.81
  -1  -4  11  219.79    5.37
  -1  -3  -2  514.93    5.32
  -1  -3  -1 1764.50   23.57
  -1  -3   0  510.35    7.94
  -1  -3   2  416.48    8.11
  -1  -3   3  679.06   14.07
  -1  -3   4 1420.43   22.73
  -1  -3   5  376.72   13.30
  -1  -3   6  253.23    6.67
  -1  -3   6  213.33   11.85
  -1  -3   7   66.43    4.05
  -1  -3   8   40.96    3.43
  -1  -3   9  491.39   10.17
  -1  -3  10  594.18   10.51
  -1  -3  11  244.04    5.97
  -1  -2 -11  789.51   10.26
  -1  -2  -9 2793.92   24.16
  -1  -2  -8 2398.23   24.96
  -1  -2  -7  976.20   15.99
  -1  -2  -6 1155.48   16.72
  -1  -2  -3 4999.99   40.39
  -1  -2  -2 9935.19   41.67
  -1  -2  -1 4573.27   29.74
  -1  -2  -1 4747.60   35.98
  -1  -2   0 2538.30   21.85
  -1  -2   0 2343.19   20.15
  -1  -2   0 2657.60   18.40
  -1  -2   0 2313.52   20.16
  -1  -2   1 2110.90   19.77
  -1  -2   1 2072.53   19.44
  -1  -2   2 5031.13   28.25
  -1  -2   3 5299.91   37.54
  -1  -2   4 3722.69   35.75
  -1  -2   5 2146.49   16.26
  -1  -2   5 1962.23   28.92
  -1  -2   6  414.20   15.27
  -1  -2   6  423.81    8.17
  -1  -2   7  169.31    5.74
  -1  -2   7  143.81   11.63
  -1  -2   8  266.32    7.38
  -1  -2   9  768.54   10.42
  -1  -2   9  828.31   13.52
  -1  -2  10 1757.51   18.51
  -1  -2  11  624.38    9.66
  -1  -1 -10 1374.57   16.67
  -1  -1  -9 2701.90   25.83
  -1  -1  -8 2056.45   23.82
  -1  -1  -8 2085.65   22.13
  -1  -1  -7  354.74    9.77
  -1  -1  -7  376.04    9.42
  -1  -1  -6  956.45   14.99
  -1  -1  -6 1082.72   15.44
  -1  -1  -2 6512.04   36.53
  -1  -1  -2 7098.44   52.74
  -1  -1  -1 5332.63   29.74
  -1  -1  -1 5624.33   23.49
  -1  -1   0  878.31    5.84
  -1  -1   0  844.59    9.34
  -1  -1   0  722.10    9.09
  -1  -1   0  867.04    8.68
  -1  -1   0  773.36    8.05
  -1  -1   2 5342.91   28.24
  -1  -1   3 5163.99   36.27
  -1  -1   4 5017.84   39.48
  -1  -1   5 3100.78   36.80
  -1  -1   6 3097.78   41.15
  -1  -1   6 2962.97   20.38
  -1  -1   7 3149.41   46.78
  -1  -1   7 3243.12   23.75
  -1  -1   8 1914.12   19.79
  -1  -1   8 1974.34   16.63
  -1  -1   9 1499.50   17.95
  -1  -1  10 1861.37   19.16
  -1  -1  11 1209.50   13.71
  -1  -1  12  412.14    6.47
  -1   0 -10  582.04   11.64
  -1   0 -10  638.18   11.68
  -1   0  -9  394.42   10.43
  -1   0  -9  411.54   10.22
  -1   0  -8  662.53   14.09
  -1   0  -8  694.49   13.55
  -1   0  -7 1170.56   17.07
  -1   0  -7 1065.85   16.97
  -1   0  -6  780.22   13.56
  -1   0  -6  873.38   14.32
  -1   0  -2 2231.09   22.65
  -1   0  -2 2483.97   29.01
  -1   0  -1 2779.42   23.49
  -1   0  -1 2801.76   19.23
  -1   0   0 2200.17   13.59
  -1   0   0 2784.89   13.93
  -1   0   2 3701.55   25.06
  -1   0   3 4126.94   31.63
  -1   0   4  997.38   18.40
  -1   0   5 2733.87   35.48
  -1   0   6 4435.12   22.32
  -1   0   6 4353.56   25.19
  -1   0   6 4353.51   48.13
  -1   0   7 3588.82   51.31
  -1   0   7 3539.82   20.98
  -1   0   8 2346.06   17.61
  -1   0   8 2243.85   21.45
  -1   0   9  473.55   10.30
  -1   0  10  379.82    8.90
  -1   0  11 1165.96   13.35
  -1   0  12 1059.85   10.04
  -1   1 -11   92.67    3.91
  -1   1 -10   25.69    3.29
  -1   1 -10   20.90    2.69
  -1   1  -9   57.38    4.67
  -1   1  -9   67.16    4.68
  -1   1  -8  176.32    7.45
  -1   1  -8  171.96    7.14
  -1   1  -7 1616.55   20.91
  -1   1  -7 1577.48   22.47
  -1   1  -6 1401.93   17.96
  -1   1  -6 1401.67   19.93
  -1   1  -5  178.33    6.18
  -1   1  -2  160.82    7.23
  -1   1  -2  140.79    6.36
  -1   1  -1 3400.29   22.71
  -1   1  -1 3416.77   23.76
  -1   1   0 3008.61   12.71
  -1   1   0 3892.87   19.70
  -1   1   1 3040.08   21.61
  -1   1   1 3013.39   18.54
  -1   1   5 1119.50   11.58
  -1   1   6 2207.50   15.61
  -1   1   6 2063.11   17.73
  -1   1   7 1683.51   14.70
  -1   1   7 1634.64   17.38
  -1   1   8  867.00   13.58
  -1   1   9  311.53    8.55
  -1   1  10   95.65    4.73
  -1   1  11  473.67    8.23
  -1   2 -11  256.46    6.61
  -1   2 -10  179.96    6.72
  -1   2 -10  184.91    7.10
  -1   2  -9  504.18   12.22
  -1   2  -9  479.90   13.74
  -1   2  -9  500.71   12.15
  -1   2  -8 1011.31   17.14
  -1   2  -8  984.43   19.45
  -1   2  -8 1044.64   17.51
  -1   2  -7 2354.17   28.92
  -1   2  -7 2523.05   26.78
  -1   2  -6 1648.04   23.02
  -1   2  -6 1605.69   19.63
  -1   2  -5  875.00   15.70
  -1   2  -5  860.48   13.62
  -1   2  -2  190.08    6.66
  -1   2  -2  202.62    8.04
  -1   2  -1  856.72   13.68
  -1   2   0  523.70    9.14
  -1   2   1  446.76    8.96
  -1   2   1  437.57    9.78
  -1   2   1  450.61    8.99
  -1   2   2   31.48    3.19
  -1   2   2   30.32    3.09
  -1   2   5  341.52    9.89
  -1   2   5  345.76    6.16
  -1   2   5  361.42    7.12
  -1   2   6  839.39   10.08
  -1   2   6  838.91   11.87
  -1   2   7  332.72   10.47
  -1   2   7  307.75    6.58
  -1   2   7  318.32    8.05
  -1   2   8  446.86   11.51
  -1   2   8  388.18    9.29
  -1   2   9  609.60   11.57
  -1   2  10  208.11    6.30
  -1   2  11  230.35    5.56
  -1   3 -11  988.27   12.33
  -1   3 -11 1115.23   13.44
  -1   3 -10 1197.37   16.74
  -1   3 -10 1290.94   18.01
  -1   3  -9 2826.72   28.24
  -1   3  -9 2836.35   28.67
  -1   3  -8 2180.60   25.08
  -1   3  -8 2269.49   25.93
  -1   3  -8 2202.37   30.22
  -1   3  -7  795.84   14.44
  -1   3  -7  821.01   18.37
  -1   3  -6 1428.44   18.29
  -1   3  -6 1462.15   23.42
  -1   3  -6 1488.15   19.15
  -1   3  -6 1497.02   20.77
  -1   3  -5 3495.62   26.68
  -1   3  -5 3471.16   28.66
  -1   3  -4 4582.34   35.58
  -1   3  -4 4650.99   31.34
  -1   3  -1 1851.92   21.92
  -1   3   0 1482.93   19.68
  -1   3   1  692.90   14.04
  -1   3   1  725.50   14.36
  -1   3   1  700.68   13.96
  -1   3   2 2604.33   28.79
  -1   3   2 2868.56   30.15
  -1   3   3 3472.53   37.32
  -1   3   3 3414.70   37.20
  -1   3   4 2075.12   15.96
  -1   3   4 1955.45   31.45
  -1   3   4 2091.77   22.04
  -1   3   4 1890.08   30.83
  -1   3   4 2062.79   15.23
  -1   3   5   73.20    4.81
  -1   3   5   60.00    7.09
  -1   3   5   79.76    3.49
  -1   3   5   59.14    7.03
  -1   3   5   81.23    3.84
  -1   3   6  100.13    6.19
  -1   3   6   93.09    9.88
  -1   3   6  100.35   10.19
  -1   3   6  114.75    4.87
  -1   3   7  271.23    9.45
  -1   3   7  243.87    7.27
  -1   3   8  492.56   12.12
  -1   3   8  406.71    9.50
  -1   3   9  835.61   14.11
  -1   3   9  727.59   12.16
  -1   3  10  860.66   11.83
  -1   3  11  126.19    3.95
  -1   4 -11 1327.79   13.69
  -1   4 -10 1634.75   18.72
  -1   4 -10 1535.81   22.12
  -1   4  -9 1963.62   23.22
  -1   4  -9 2025.91   23.62
  -1   4  -9 1977.24   26.66
  -1   4  -8  877.52   20.97
  -1   4  -8  875.43   15.84
  -1   4  -8  897.64   20.28
  -1   4  -8  878.52   16.46
  -1   4  -7  496.69   16.37
  -1   4  -7  489.42   11.77
  -1   4  -7  451.46   14.61
  -1   4  -7  442.19   11.36
  -1   4  -7  498.69   11.65
  -1   4  -6 1401.43   24.47
  -1   4  -6 1428.84   18.19
  -1   4  -6 1442.95   23.78
  -1   4  -6 1438.85   23.53
  -1   4  -6 1505.79   25.78
  -1   4  -6 1438.06   19.82
  -1   4  -6 1532.71   20.61
  -1   4  -5 3902.94   32.32
  -1   4  -5 3711.95   27.37
  -1   4  -5 3802.18   36.39
  -1   4  -5 3935.79   33.46
  -1   4  -5 4059.01   36.69
  -1   4  -5 3781.81   38.22
  -1   4  -5 3914.71   36.80
  -1   4  -5 4102.21   32.05
  -1   4  -4 9359.18   56.23
  -1   4  -4 9573.79   49.81
  -1   4  -4 8989.64   51.60
  -1   4  -4 9341.77   47.54
  -1   4  -4 8936.05   51.41
  -1   4  -4 8776.98   38.20
  -1   4  -4 9261.78   47.91
  -1   4  -4 9999.00   51.31
  -1   4  -3 7974.42   48.00
  -1   4  -3 7918.17   42.12
  -1   4  -3 7721.13   46.12
  -1   4  -3 7860.27   38.91
  -1   4  -3 7805.66   38.12
  -1   4  -3 8023.07   45.75
  -1   4  -3 7571.48   45.79
  -1   4  -1 1427.73    9.90
  -1   4   1 4192.95   41.56
  -1   4   1 4278.33   41.16
  -1   4   2 4606.98   24.93
  -1   4   2 4851.60   29.71
  -1   4   2 5200.15   33.02
  -1   4   2 4805.79   45.61
  -1   4   2 4161.06   21.72
  -1   4   2 4534.38   44.81
  -1   4   3 5209.37   26.72
  -1   4   3 4925.13   50.38
  -1   4   3 4910.41   50.21
  -1   4   3 5282.46   33.75
  -1   4   3 4784.32   24.89
  -1   4   4 3990.23   24.24
  -1   4   4 3971.90   31.99
  -1   4   4 3540.99   46.50
  -1   4   4 3562.84   46.68
  -1   4   4 3860.46   24.25
  -1   4   5  680.93   10.64
  -1   4   5  496.26   19.71
  -1   4   5  637.06   13.76
  -1   4   5  498.55   19.78
  -1   4   5  649.80   10.74
  -1   4   6  327.86   10.40
  -1   4   6  299.67    7.76
  -1   4   7 1201.83   19.70
  -1   4   7 1081.42   15.34
  -1   4   8 1488.26   20.39
  -1   4   8 1364.11   17.05
  -1   4   9 1272.77   16.23
  -1   4   9 1160.39   14.63
  -1   4  10  373.95   10.21
  -1   4  10  781.59   10.42
  -1   5 -11  968.95   10.79
  -1   5 -10 1094.19   18.00
  -1   5 -10 1146.65   14.86
  -1   5  -9  498.62   14.19
  -1   5  -9  519.34   14.01
  -1   5  -9  471.81   10.81
  -1   5  -8  820.51   15.07
  -1   5  -8  841.76   19.86
  -1   5  -8  855.56   15.44
  -1   5  -7  717.79   14.24
  -1   5  -7  731.52   20.01
  -1   5  -7  647.27   16.49
  -1   5  -7  631.62   16.43
  -1   5  -7  666.30   18.26
  -1   5  -7  703.91   14.85
  -1   5  -6  854.55   16.40
  -1   5  -6  830.29   14.27
  -1   5  -6  821.99   20.39
  -1   5  -6  817.17   18.94
  -1   5  -6  814.04   20.07
  -1   5  -6  795.98   14.40
  -1   5  -6  809.12   18.85
  -1   5  -5 1785.97   23.67
  -1   5  -5 1832.82   28.04
  -1   5  -5 1785.83   20.46
  -1   5  -5 1803.36   19.63
  -1   5  -5 1882.17   26.45
  -1   5  -5 1908.53   28.43
  -1   5  -5 1795.04   24.85
  -1   5  -5 1767.48   28.00
  -1   5  -4 1710.24   23.32
  -1   5  -4 1801.19   23.27
  -1   5  -4 1767.29   23.23
  -1   5  -4 1754.46   22.85
  -1   5  -4 1782.94   26.82
  -1   5  -4 1814.44   25.96
  -1   5  -4 1814.44   19.47
  -1   5  -4 1748.59   25.50
  -1   5  -3 2423.26   26.38
  -1   5  -3 2297.68   23.19
  -1   5  -3 2320.13   28.99
  -1   5  -3 2335.44   28.75
  -1   5  -3 2285.30   23.29
  -1   5  -3 2354.64   28.91
  -1   5  -3 2235.93   24.83
  -1   5  -2 2006.12   20.68
  -1   5  -2 1943.20   19.96
  -1   5  -2 2071.88   25.55
  -1   5  -2 2100.12   26.63
  -1   5  -2 1957.48   22.12
  -1   5  -2 1957.04   25.63
  -1   5  -2 1937.60   22.96
  -1   5  -1 1869.16   21.82
  -1   5  -1 1895.42   20.63
  -1   5  -1 1779.86   15.50
  -1   5  -1 1910.98   18.65
  -1   5  -1 1902.29   19.78
  -1   5  -1 1929.72   17.38
  -1   5  -1 2045.61   26.10
  -1   5  -1 2029.98   25.91
  -1   5   0 2988.74   26.29
  -1   5   0 2916.64   24.50
  -1   5   0 3051.44   22.64
  -1   5   0 2847.01   19.56
  -1   5   0 2906.03   22.35
  -1   5   0 3126.94   32.00
  -1   5   0 3172.86   32.18
  -1   5   1 2720.13   22.84
  -1   5   1 2531.94   18.99
  -1   5   1 2641.81   21.46
  -1   5   1 2600.24   23.95
  -1   5   1 2805.41   30.45
  -1   5   1 2825.76   30.65
  -1   5   2 3492.69   24.52
  -1   5   2 3452.21   27.24
  -1   5   2 3536.96   25.47
  -1   5   2 3015.62   42.55
  -1   5   2 2883.21   42.34
  -1   5   2 3839.25   35.70
  -1   5   2 3817.24   35.76
  -1   5   2 3565.93   29.77
  -1   5   3 2212.39   19.29
  -1   5   3 2306.18   20.62
  -1   5   3 1984.37   24.66
  -1   5   3 2648.63   30.34
  -1   5   3 2502.53   22.38
  -1   5   3 2247.75   39.09
  -1   5   3 2682.83   30.49
  -1   5   3 2428.52   24.72
  -1   5   3 2261.55   39.30
  -1   5   4 2620.80   30.80
  -1   5   4 2695.28   30.40
  -1   5   4 2419.95   21.91
  -1   5   4 2342.88   26.19
  -1   5   4 2613.83   30.84
  -1   5   4 2191.85   20.18
  -1   5   5 4287.33   36.90
  -1   5   5 4189.48   29.71
  -1   5   6 2329.86   27.38
  -1   5   6 2225.62   22.18
  -1   5   7 1752.41   22.96
  -1   5   7 1726.31   27.64
  -1   5   7 1680.96   19.59
  -1   5   8 1543.05   19.21
  -1   5   8 1419.07   16.66
  -1   5   9  516.99    8.89
  -1   5   9  647.82   11.08
  -1   5  10  359.04    6.64
  -1   5  10  280.82    7.23
  -1   6 -10   63.71    4.63
  -1   6 -10   64.64    3.26
  -1   6  -9  201.84    8.77
  -1   6  -9  221.52    8.74
  -1   6  -9  210.40    6.66
  -1   6  -8  762.09   13.27
  -1   6  -8  743.04   14.19
  -1   6  -8  727.85   18.02
  -1   6  -7 1007.59   18.06
  -1   6  -7 1069.03   24.08
  -1   6  -7  933.38   20.67
  -1   6  -7 1016.47   22.94
  -1   6  -7 1013.48   15.75
  -1   6  -7  930.90   20.59
  -1   6  -6  759.33   16.20
  -1   6  -6  795.06   21.30
  -1   6  -6  736.25   18.79
  -1   6  -6  734.28   18.70
  -1   6  -6  758.60   13.68
  -1   6  -6  755.26   19.91
  -1   6  -6  699.89   19.50
  -1   6  -5  189.85   10.11
  -1   6  -5  181.65    8.28
  -1   6  -5  168.29    9.78
  -1   6  -5  180.47    6.58
  -1   6  -5  196.88   11.14
  -1   6  -5  166.31    8.89
  -1   6  -5  189.52   10.01
  -1   6  -4   73.52    6.45
  -1   6  -4   64.25    5.20
  -1   6  -4   68.26    5.27
  -1   6  -4   57.83    4.99
  -1   6  -4   78.84    6.64
  -1   6  -4   60.88    6.29
  -1   6  -4   64.65    5.32
  -1   6  -3  413.00   11.62
  -1   6  -3  389.47   11.27
  -1   6  -3  412.80   11.14
  -1   6  -3  414.95   13.49
  -1   6  -3  401.49   10.98
  -1   6  -3  427.11   14.08
  -1   6  -3  431.50   14.12
  -1   6  -2 1706.38   22.68
  -1   6  -2 1770.54   26.56
  -1   6  -2 1721.90   21.65
  -1   6  -2 1758.19   27.92
  -1   6  -2 1754.40   27.89
  -1   6  -2 1752.52   22.75
  -1   6  -1 3079.29   29.13
  -1   6  -1 3281.94   37.50
  -1   6  -1 2996.84   22.53
  -1   6  -1 3053.32   28.51
  -1   6  -1 3084.80   26.86
  -1   6  -1 3304.99   34.33
  -1   6  -1 3194.74   37.21
  -1   6  -1 3135.95   28.65
  -1   6   0 1978.02   21.95
  -1   6   0 1971.89   20.00
  -1   6   0 1973.59   20.83
  -1   6   0 1979.19   25.64
  -1   6   0 2015.49   29.37
  -1   6   0 1992.47   29.08
  -1   6   1 1055.40   21.34
  -1   6   1 1009.14   15.42
  -1   6   1 1063.19   21.34
  -1   6   1  978.72   14.52
  -1   6   1  994.97   16.65
  -1   6   2  299.67    8.95
  -1   6   2  307.21    9.74
  -1   6   2  266.35    7.20
  -1   6   2  294.81    8.21
  -1   6   2  334.86   12.29
  -1   6   2  342.15   12.39
  -1   6   3   95.90    4.81
  -1   6   3  102.24    5.58
  -1   6   3  101.70    6.05
  -1   6   3  105.48    5.28
  -1   6   3  115.22    7.68
  -1   6   3  119.84    7.77
  -1   6   4  783.81   15.26
  -1   6   4  788.34   13.68
  -1   6   4  832.54   14.27
  -1   6   4  812.34   17.18
  -1   6   4  921.81   20.19
  -1   6   4  915.05   20.08
  -1   6   5 2557.39   25.43
  -1   6   5 2615.03   28.30
  -1   6   5 2628.47   25.25
  -1   6   6 2063.19   22.78
  -1   6   6 2287.79   26.16
  -1   6   6 1918.76   21.26
  -1   6   6 2331.48   29.80
  -1   6   7  559.34   11.28
  -1   6   7  597.83   14.46
  -1   6   8  246.96    6.73
  -1   6   8  231.29    8.03
  -1   6   9  177.83    5.98
  -1   7  -9  194.12    7.73
  -1   7  -9  182.44    6.86
  -1   7  -8  892.69   17.95
  -1   7  -8  931.91   15.02
  -1   7  -7 1816.94   28.75
  -1   7  -7 1456.67   24.64
  -1   7  -7 1709.95   22.33
  -1   7  -7 1705.20   27.17
  -1   7  -7 1470.15   24.76
  -1   7  -6  439.47   12.44
  -1   7  -6  441.28   15.36
  -1   7  -6  391.47   14.60
  -1   7  -6  428.06   14.75
  -1   7  -6  437.11   14.82
  -1   7  -6  429.27   14.60
  -1   7  -5   79.56    5.98
  -1   7  -5   69.24    6.79
  -1   7  -5   72.30    6.44
  -1   7  -5   82.60    7.31
  -1   7  -5   72.21    6.98
  -1   7  -4   55.13    5.04
  -1   7  -4   54.17    6.37
  -1   7  -4   55.97    6.12
  -1   7  -4   50.06    5.07
  -1   7  -4   61.98    5.54
  -1   7  -4   53.79    6.25
  -1   7  -4   55.10    6.28
  -1   7  -3  362.91   14.19
  -1   7  -3  384.04   11.56
  -1   7  -3  372.34   14.00
  -1   7  -3  362.83   11.25
  -1   7  -3  367.77   13.54
  -1   7  -3  322.20   10.70
  -1   7  -3  359.18   14.11
  -1   7  -2 1083.58   18.49
  -1   7  -2  992.91   22.86
  -1   7  -2 1090.78   22.26
  -1   7  -2 1027.14   18.33
  -1   7  -2 1038.64   21.57
  -1   7  -2 1011.73   23.15
  -1   7  -2 1017.01   17.51
  -1   7  -1 1038.23   17.28
  -1   7  -1  954.49   17.58
  -1   7  -1 1075.01   20.32
  -1   7  -1 1006.16   20.34
  -1   7  -1  990.71   16.65
  -1   7  -1  963.47   22.37
  -1   7  -1  999.69   22.79
  -1   7   0 1364.03   17.88
  -1   7   0 1385.59   18.98
  -1   7   0 1336.84   18.74
  -1   7   0 1316.01   20.70
  -1   7   0 1329.32   25.96
  -1   7   0 1366.51   26.38
  -1   7   1  295.53    8.74
  -1   7   1  286.57    7.36
  -1   7   1  303.27    8.85
  -1   7   1  292.66   10.13
  -1   7   1  301.44   12.67
  -1   7   1  314.96   12.97
  -1   7   2   13.66    2.67
  -1   7   2   15.31    2.26
  -1   7   2   11.00    2.81
  -1   7   2   19.12    4.47
  -1   7   2   18.38    2.80
  -1   7   2   19.21    4.44
  -1   7   3  199.38   10.22
  -1   7   3  191.20    7.80
  -1   7   3  192.55    7.04
  -1   7   3  174.26    8.10
  -1   7   3  201.00   10.30
  -1   7   3  170.30    5.96
  -1   7   4  470.40    9.96
  -1   7   4  496.19   13.47
  -1   7   4  570.33   15.82
  -1   7   4  560.75   13.40
  -1   7   4  568.10   15.73
  -1   7   5  876.92   13.46
  -1   7   5  925.64   17.83
  -1   7   6  702.96   14.80
  -1   7   6  658.60   11.12
  -1   7   7  203.65    7.24
  -1   7   7  177.55    5.33
  -1   7   8  296.76    6.28
  -1   7   8  231.17    6.51
  -1   8  -8  741.82   13.52
  -1   8  -8  774.37   14.69
  -1   8  -7 1008.35   18.61
  -1   8  -7 1078.06   19.30
  -1   8  -7  810.12   16.66
  -1   8  -7 1077.34   16.20
  -1   8  -7  811.14   16.65
  -1   8  -6  602.67   16.56
  -1   8  -6  632.55   16.08
  -1   8  -6  600.81   16.62
  -1   8  -6  598.63   15.57
  -1   8  -6  660.51   13.73
  -1   8  -5  347.12   12.83
  -1   8  -5  348.39   12.53
  -1   8  -5  329.05   12.30
  -1   8  -5  349.93   10.65
  -1   8  -5  342.77   13.19
  -1   8  -5  332.80   12.99
  -1   8  -4  933.27   18.88
  -1   8  -4  931.15   20.67
  -1   8  -4  908.04   20.52
  -1   8  -4  947.06   17.67
  -1   8  -4  911.67   19.05
  -1   8  -4  968.61   23.35
  -1   8  -4  977.02   23.63
  -1   8  -3  931.91   17.29
  -1   8  -3  918.02   22.64
  -1   8  -3  889.59   22.26
  -1   8  -3  842.56   17.68
  -1   8  -3  914.10   20.40
  -1   8  -3  929.75   18.88
  -1   8  -3  932.40   20.15
  -1   8  -2  280.87   10.76
  -1   8  -2  273.01    9.76
  -1   8  -2  272.53   11.25
  -1   8  -2  311.16    9.80
  -1   8  -2  271.73   10.06
  -1   8  -2  291.56   13.17
  -1   8  -2  295.65   13.27
  -1   8  -1  394.13   10.53
  -1   8  -1  344.64   11.11
  -1   8  -1  383.84   11.00
  -1   8  -1  364.98   14.39
  -1   8  -1  384.12   14.76
  -1   8   0  719.40   16.00
  -1   8   0  766.18   14.70
  -1   8   0  760.09   20.32
  -1   8   0  759.82   20.25
  -1   8   1  900.09   17.75
  -1   8   1  902.19   21.59
  -1   8   1  929.62   21.89
  -1   8   2  699.95   13.53
  -1   8   2  710.06   18.54
  -1   8   2  685.60   15.47
  -1   8   2  706.22   18.46
  -1   8   3  738.59   13.82
  -1   8   3  737.35   15.77
  -1   8   3  824.03   18.97
  -1   8   3  819.45   18.89
  -1   8   4  568.78   13.16
  -1   8   4  598.84   12.04
  -1   8   5   70.48    4.06
  -1   8   5   66.00    4.50
  -1   8   6   92.65    4.10
  -1   8   6   82.34    4.44
  -1   9  -7  438.48    9.57
  -1   9  -6 1242.07   17.98
  -1   9  -6 1161.83   17.96
  -1   9  -6 1028.35   18.11
  -1   9  -6 1049.87   18.22
  -1   9  -5 2419.36   26.96
  -1   9  -5 2388.83   30.68
  -1   9  -5 2429.16   31.17
  -1   9  -5 2395.89   27.33
  -1   9  -4 2473.62   27.96
  -1   9  -4 2491.68   24.80
  -1   9  -4 2398.41   28.08
  -1   9  -4 2284.40   28.26
  -1   9  -4 2371.13   32.25
  -1   9  -4 2389.97   32.28
  -1   9  -3 1288.88   19.74
  -1   9  -3 1306.74   18.44
  -1   9  -3 1307.90   25.10
  -1   9  -3 1206.28   20.46
  -1   9  -3 1241.53   20.52
  -1   9  -3 1229.96   24.56
  -1   9  -2  774.98   16.23
  -1   9  -2  801.21   20.31
  -1   9  -2  837.63   20.65
  -1   9  -1  339.42   10.56
  -1   9  -1  346.05   13.20
  -1   9  -1  369.44   13.65
  -1   9   0  559.24   13.18
  -1   9   0  606.82   16.90
  -1   9   0  604.36   16.82
  -1   9   1 1952.03   24.05
  -1   9   1 1967.51   28.68
  -1   9   1 1957.75   28.52
  -1   9   2 2106.23   28.12
  -1   9   2 2131.50   28.21
  -1   9   3  927.45   15.12
  -1   9   4  233.72    7.14
  -1   9   5   70.93    3.76
  -1  10  -4 1071.02   18.10
  -1  10  -4 1108.49   18.32
  -1  10  -3  927.22   17.29
  -1  10  -3  938.55   17.50
  -1  10  -2  744.66   15.84
  -1  10  -2  729.03   15.61
  -1  10  -2  741.36   13.41
  -1  10  -1  740.40   15.63
  -1  10  -1  749.78   13.50
  -1  10  -1  756.44   15.89
  -1  10   0  712.67   12.66
  -1  10   0  734.97   15.32
  -1  10   0  711.12   15.00
  -1  10   1 1451.63   17.14
  -1  10   2 2032.60   19.09
   0  -9   6  590.91    8.76
   0  -8   7   45.80    3.08
   0  -8   8   16.15    2.00
   0  -7   7  339.42    8.26
   0  -7   8  632.52   10.16
   0  -7   9  199.62    5.07
   0  -6   7 1913.30   20.12
   0  -6   8 1290.48   15.74
   0  -6   9  629.44    9.97
   0  -6  10   53.53    2.88
   0  -5   7 2582.08   23.39
   0  -5   8 2019.04   20.57
   0  -5   9 1070.54   13.92
   0  -5  10  705.30   10.23
   0  -5  11  629.91    8.30
   0  -4  -9  208.53    6.85
   0  -4  -1  861.21   10.10
   0  -4   0  874.87   11.25
   0  -4   1  637.16   12.34
   0  -4   2  531.93   13.56
   0  -4   3 1716.87   27.24
   0  -4   4 3457.94   41.89
   0  -4   5  803.76   21.25
   0  -4   6  663.35   20.76
   0  -4   7 1516.12   17.66
   0  -4   8  699.35   12.18
   0  -4   9  898.59   13.27
   0  -4  10 1801.82   17.52
   0  -4  11 1377.15   13.02
   0  -3 -10  837.47   13.02
   0  -3  -5   24.93    6.05
   0  -3  -4 1466.90   26.30
   0  -3  -3 1088.28   18.65
   0  -3  -2 1415.54   16.87
   0  -3  -2 1328.42   15.94
   0  -3  -1 1149.66   12.53
   0  -3  -1 1243.41   11.06
   0  -3   0   54.18    2.55
   0  -3   1   84.73    4.11
   0  -3   2  543.97   12.13
   0  -3   3 3376.57   35.44
   0  -3   4 3786.12   40.51
   0  -3   5  595.11   17.09
   0  -3   6   71.45    7.33
   0  -3   6   77.27    3.91
   0  -3   7   20.54    2.65
   0  -3   8   47.65    3.66
   0  -3   9  620.15   11.53
   0  -3  10 1199.91   15.09
   0  -3  11  735.49   10.09
   0  -2 -11  820.37   11.70
   0  -2  -8 2020.91   22.42
   0  -2  -7  331.20    9.57
   0  -2  -6  191.54   15.25
   0  -2  -6  235.62    7.63
   0  -2  -5 1066.73   28.28
   0  -2  -4 2207.85   35.09
   0  -2  -3 4090.19   39.95
   0  -2  -2 2855.26   24.24
   0  -2  -2 3007.64   23.79
   0  -2  -1 2197.81   15.15
   0  -2  -1 1990.26   14.92
   0  -2   0  357.07    7.64
   0  -2   0  365.81    7.77
   0  -2   0  373.95    5.30
   0  -2   1  150.33    2.81
   0  -2   1  165.16    4.84
   0  -2   1  166.93    5.75
   0  -2   1  159.86    5.53
   0  -2   2 4083.66   30.68
   0  -2   3  227.90    9.08
   0  -2   4  380.22   12.38
   0  -2   5 1111.09   11.81
   0  -2   5 1245.69   23.58
   0  -2   6  125.97    4.63
   0  -2   6  120.55    8.44
   0  -2   7   79.24    8.05
   0  -2   7   96.16    4.48
   0  -2   8  276.48    7.69
   0  -2   9  467.29   10.36
   0  -2  10  404.26    9.05
   0  -2  11  152.45    4.94
   0  -2  12  206.65    4.53
   0  -1 -10 1625.63   19.52
   0  -1  -9 3306.26   29.55
   0  -1  -9 3211.56   27.73
   0  -1  -8 2935.55   28.21
   0  -1  -8 2824.21   26.20
   0  -1  -7 3058.37   28.31
   0  -1  -7 3015.44   26.57
   0  -1  -6 4936.90   31.51
   0  -1  -6 4881.45   32.71
   0  -1  -3 4716.89   40.05
   0  -1  -2 2444.59   21.90
   0  -1  -1 2105.37   12.38
   0  -1   0 2303.18   13.28
   0  -1   0 2095.58    9.48
   0  -1   0 2300.81   13.34
   0  -1   0 1982.25    9.70
   0  -1   1 3479.92   17.15
   0  -1   1 3408.93   19.51
   0  -1   2 2006.38   20.75
   0  -1   3  607.37   13.32
   0  -1   4 1499.72   22.96
   0  -1   5 1672.44   14.00
   0  -1   5 1964.34   28.12
   0  -1   6 1732.14   28.69
   0  -1   6 1663.02   15.54
   0  -1   7 1727.98   32.36
   0  -1   7 1686.35   17.06
   0  -1   8 1023.20   14.65
   0  -1   9   81.12    4.72
   0  -1  10   23.95    2.91
   0  -1  11  205.62    5.73
   0  -1  12  440.86    6.54
   0   0 -12  942.40   10.67
   0   0 -10  281.61    8.13
   0   0 -10  286.65    8.84
   0   0  -9  285.67    8.88
   0   0  -9  269.29    9.06
   0   0  -8 2137.78   24.50
   0   0  -8 2347.17   25.27
   0   0  -7 4870.33   35.60
   0   0  -7 4932.81   34.67
   0   0  -6 4658.57   32.25
   0   0  -6 4742.35   31.68
   0   0  -3 6558.00   48.02
   0   0  -3 6828.78   55.88
   0   0  -2 1335.74   20.87
   0   0  -2 1456.84   17.39
   0   0  -1 4625.79   22.27
   0   0   1 4092.42   19.33
   0   0   2 1582.46   16.26
   0   0   3 5988.26   38.78
   0   0   4 2361.09   27.85
   0   0   5 2728.69   33.36
   0   0   5 2856.42   17.88
   0   0   6 3805.54   42.38
   0   0   6 3893.82   24.20
   0   0   7 3972.88   50.93
   0   0   7 3847.19   26.52
   0   0   8 1777.34   19.34
   0   0   9  231.72    7.34
   0   0  10  246.40    7.16
   0   0  11  595.70    9.32
   0   0  12  811.11    8.46
   0   1 -11  235.07    6.60
   0   1 -10   10.42    3.03
   0   1 -10    9.39    2.51
   0   1  -9   90.20    5.60
   0   1  -9   85.26    5.25
   0   1  -8 1233.05   18.74
   0   1  -8 1169.58   21.92
   0   1  -7 2285.94   24.36
   0   1  -7 2396.34   25.02
   0   1  -6 2057.48   21.67
   0   1  -6 2125.43   25.17
   0   1  -5 1990.78   19.20
   0   1  -5 2199.41   21.16
   0   1  -3  683.38   16.03
   0   1  -2 1920.17   19.73
   0   1  -2 1805.71   19.91
   0   1  -1 2834.26   13.70
   0   1  -1 2892.35   17.05
   0   1   0 2055.61   13.40
   0   1   0 1884.84    8.02
   0   1   2 2169.84   16.55
   0   1   3 4245.44   30.29
   0   1   4 4106.19   33.91
   0   1   5 3695.01   27.35
   0   1   5 3684.73   21.34
   0   1   6 4089.72   30.85
   0   1   6 4130.83   25.51
   0   1   7 2739.41   28.05
   0   1   7 2444.05   21.51
   0   1   8 2361.65   22.62
   0   1   9 2603.49   26.88
   0   1   9 2724.38   24.23
   0   1  10 1328.48   15.70
   0   1  11  877.03   10.65
   0   2 -11  179.66    7.74
   0   2 -11  197.15    6.47
   0   2 -11  184.30    6.06
   0   2 -10  502.84   11.73
   0   2  -9  574.53   13.60
   0   2  -9  558.79   15.76
   0   2  -9  602.99   13.58
   0   2  -8  377.55   10.78
   0   2  -8  390.76   11.02
   0   2  -8  368.63   12.67
   0   2  -7  112.10    5.68
   0   2  -7  132.64    7.59
   0   2  -7  128.44    6.16
   0   2  -6  143.78    8.82
   0   2  -6  155.21    7.66
   0   2  -6  152.91    6.36
   0   2  -5 1522.44   21.48
   0   2  -5 1492.94   18.07
   0   2  -3  217.74    7.60
   0   2  -2 3688.49   20.49
   0   2  -2 4333.42   30.26
   0   2  -1  106.98    3.71
   0   2   0  351.70    7.52
   0   2   0  326.97    4.97
   0   2   0  313.85    5.21
   0   2   0  356.36    7.71
   0   2   1 2587.96   21.55
   0   2   1 2550.58   21.48
   0   2   2 2987.71   27.54
   0   2   2 2962.41   27.40
   0   2   5  891.69   14.78
   0   2   5  756.97   10.33
   0   2   6  187.74    7.64
   0   2   6  178.00    5.70
   0   2   7  244.65    9.15
   0   2   7  245.91    7.27
   0   2   8 1550.60   23.02
   0   2   8 1534.27   18.11
   0   2   9 2157.09   21.06
   0   2   9 2242.93   24.67
   0   2  10 1441.61   15.39
   0   2  11  668.27    8.75
   0   3 -11  813.16   15.65
   0   3 -11  838.30   12.30
   0   3 -10 1589.56   20.99
   0   3 -10 1337.52   22.06
   0   3  -9  805.40   16.03
   0   3  -9  768.80   18.67
   0   3  -9  822.51   15.91
   0   3  -8  101.43    5.97
   0   3  -8   94.11    7.01
   0   3  -8   92.86    5.83
   0   3  -8   93.99    7.11
   0   3  -7   58.45    6.25
   0   3  -7   62.31    4.70
   0   3  -7   42.48    5.40
   0   3  -7   77.85    5.11
   0   3  -7   42.03    5.37
   0   3  -7   68.70    6.14
   0   3  -7   65.34    4.67
   0   3  -6  130.01    6.03
   0   3  -6  129.58    8.27
   0   3  -6  131.26    5.78
   0   3  -6  128.25    7.56
   0   3  -6  125.33    5.89
   0   3  -6  105.46    6.90
   0   3  -6  107.81    7.06
   0   3  -5  657.80   12.61
   0   3  -5  618.43   11.09
   0   3  -5  697.20   15.93
   0   3  -5  687.49   12.45
   0   3  -5  636.98   14.46
   0   3  -5  647.73   14.48
   0   3  -4 3859.89   27.43
   0   3  -4 3992.73   35.14
   0   3  -2  458.11   11.13
   0   3  -1   83.79    3.38
   0   3  -1   84.45    3.73
   0   3   0   67.96    3.25
   0   3   1 1176.88   18.35
   0   3   1 1159.08   18.04
   0   3   2 1325.35   20.68
   0   3   2 1340.63   20.79
   0   3   3  949.89   19.58
   0   3   3  963.94   19.80
   0   3   4 1333.49   26.16
   0   3   4 1383.74   18.73
   0   3   4 1381.52   13.38
   0   3   5   14.76    4.61
   0   3   5   18.83    3.39
   0   3   5   15.67    4.71
   0   3   5   17.56    2.16
   0   3   6   46.51    4.59
   0   3   6   49.98    3.51
   0   3   7  238.09    9.52
   0   3   7  225.08    7.02
   0   3   8  350.16   10.78
   0   3   8  300.96    8.12
   0   3   9  822.00   14.26
   0   3   9  645.83   11.03
   0   3  10  630.08    9.54
   0   3  11  190.56    4.44
   0   4 -11 1459.77   20.15
   0   4 -11 1602.80   16.03
   0   4 -10 1972.36   26.94
   0   4 -10 2094.08   22.46
   0   4  -9 1170.76   23.16
   0   4  -9 1209.98   18.69
   0   4  -8  938.36   20.95
   0   4  -8  896.16   20.97
   0   4  -8  863.75   16.33
   0   4  -8  909.09   16.33
   0   4  -7 2065.38   32.41
   0   4  -7 1977.49   24.20
   0   4  -7 1973.39   23.61
   0   4  -7 1628.06   26.84
   0   4  -7 1639.43   27.06
   0   4  -7 1985.09   30.81
   0   4  -7 1999.12   24.40
   0   4  -6 1002.85   17.05
   0   4  -6 1050.48   22.94
   0   4  -6  952.84   20.86
   0   4  -6  979.06   15.80
   0   4  -6 1092.81   22.58
   0   4  -6 1023.94   21.58
   0   4  -6  972.63   16.16
   0   4  -6  939.74   20.61
   0   4  -5 1100.45   17.62
   0   4  -5 1087.24   21.32
   0   4  -5 1102.69   23.34
   0   4  -5 1056.70   15.28
   0   4  -5 1083.11   20.73
   0   4  -5 1068.97   15.56
   0   4  -5 1058.34   19.71
   0   4  -5 1068.36   19.84
   0   4  -4 4142.54   32.98
   0   4  -4 4398.35   38.57
   0   4  -4 4255.88   34.29
   0   4  -4 3758.22   31.96
   0   4  -4 3989.34   27.67
   0   4  -4 4404.61   38.66
   0   4  -4 4163.60   34.45
   0   4  -4 4208.11   39.27
   0   4  -3 2085.62   26.17
   0   4  -3 2041.76   21.10
   0   4  -3 1995.51   19.50
   0   4  -3 2060.04   25.34
   0   4  -3 2016.73   25.06
   0   4  -3 2053.44   22.59
   0   4  -2  471.64   10.45
   0   4  -1  778.44   11.58
   0   4  -1  714.26   12.58
   0   4   1  925.04   19.37
   0   4   1  941.27   19.90
   0   4   2  893.33   20.30
   0   4   2  893.73   20.05
   0   4   2  899.41   10.50
   0   4   3  809.10   11.30
   0   4   3  820.32   14.37
   0   4   3  755.65   13.85
   0   4   3  707.48   19.59
   0   4   3  730.75   20.00
   0   4   3  705.78    9.82
   0   4   4  585.54   13.14
   0   4   4  573.86   13.05
   0   4   4  545.94    9.20
   0   4   4  567.77   19.44
   0   4   4  552.70   19.18
   0   4   5 1090.78   19.04
   0   4   5 1106.45   18.79
   0   4   6 1089.63   19.79
   0   4   6 1085.02   19.95
   0   4   7  355.02    8.87
   0   4   7  379.82   11.43
   0   4   8  254.80    8.88
   0   4   8  228.84    7.04
   0   4   9  186.65    6.46
   0   4   9  160.49    5.36
   0   4  10   31.04    3.33
   0   4  10   76.50    3.25
   0   5 -11  775.88   13.36
   0   5 -11  910.01   11.15
   0   5 -10  804.32   16.57
   0   5 -10  782.23   12.30
   0   5  -9 1379.20   24.57
   0   5  -9 1390.98   19.16
   0   5  -8 2528.25   34.61
   0   5  -8 1686.27   27.43
   0   5  -8 2500.70   26.47
   0   5  -8 1768.31   28.04
   0   5  -8 2557.38   35.60
   0   5  -8 2485.14   27.56
   0   5  -7 2873.06   36.96
   0   5  -7 3355.80   42.13
   0   5  -7 3369.31   33.20
   0   5  -7 3131.36   29.37
   0   5  -7 2905.27   36.96
   0   5  -7 3315.99   41.12
   0   5  -6 3809.28   35.85
   0   5  -6 3837.07   45.72
   0   5  -6 3821.96   43.20
   0   5  -6 3704.90   30.89
   0   5  -6 3886.69   43.76
   0   5  -6 3774.26   43.19
   0   5  -6 3753.65   43.78
   0   5  -5 1362.85   26.73
   0   5  -5 1281.10   20.70
   0   5  -5 1336.59   17.60
   0   5  -5 1297.71   22.95
   0   5  -5 1293.72   24.15
   0   5  -5 1331.64   24.41
   0   5  -5 1377.83   25.54
   0   5  -4  841.32   16.20
   0   5  -4  832.88   20.70
   0   5  -4  824.37   19.09
   0   5  -4  801.09   16.32
   0   5  -4  781.79   15.58
   0   5  -4  826.90   19.03
   0   5  -4  797.21   12.52
   0   5  -4  832.42   19.00
   0   5  -3 3034.42   29.63
   0   5  -3 3049.59   36.82
   0   5  -3 3077.97   29.17
   0   5  -3 3020.22   26.81
   0   5  -3 3095.66   35.14
   0   5  -3 3126.53   35.32
   0   5  -2 3569.34   30.79
   0   5  -2 4143.27   41.03
   0   5  -2 3791.53   28.82
   0   5  -2 3784.00   28.64
   0   5  -2 3955.86   38.85
   0   5  -2 3882.99   38.52
   0   5  -2 3824.79   31.89
   0   5  -2 4061.71   37.75
   0   5  -1 5807.78   37.53
   0   5  -1 6249.16   45.99
   0   5  -1 5787.18   28.77
   0   5  -1 5801.11   33.23
   0   5  -1 5432.94   33.75
   0   5  -1 5931.63   46.80
   0   5  -1 5869.37   46.66
   0   5   0 4718.82   31.88
   0   5   0 4561.60   27.36
   0   5   0 4551.62   28.08
   0   5   0 4579.16   31.14
   0   5   0 4766.96   42.02
   0   5   0 4779.25   41.86
   0   5   1 2329.24   21.13
   0   5   1 2361.65   23.08
   0   5   1 2625.88   31.23
   0   5   1 2579.86   30.79
   0   5   2 1550.57   31.56
   0   5   2 1577.73   15.85
   0   5   2 1620.02   19.84
   0   5   2 1850.38   26.41
   0   5   2 1539.15   19.47
   0   5   2 1694.47   20.80
   0   5   2 1552.80   32.25
   0   5   2 1854.92   26.55
   0   5   3  148.07    5.28
   0   5   3  157.73   11.27
   0   5   3  203.54    9.45
   0   5   3  169.83    6.94
   0   5   3  178.09    7.48
   0   5   3  182.70    7.63
   0   5   3  165.74   11.77
   0   5   3  210.71    9.60
   0   5   4 1024.89   17.51
   0   5   4 1013.28   17.55
   0   5   5 3872.74   35.69
   0   5   5 3782.88   28.23
   0   5   6 1890.49   24.90
   0   5   6 1932.98   28.46
   0   5   7  452.68   13.71
   0   5   7  472.02   10.22
   0   5   8  184.76    6.80
   0   5   8  171.18    5.77
   0   5   9  103.97    4.24
   0   5   9   55.20    4.02
   0   6 -10   54.00    4.43
   0   6 -10   58.88    3.95
   0   6 -10   55.98    4.58
   0   6 -10   59.33    3.23
   0   6  -9  769.95   17.09
   0   6  -9  761.75   15.58
   0   6  -9  751.33   12.06
   0   6  -8 1676.11   27.42
   0   6  -8 1181.36   22.80
   0   6  -8 1590.13   26.88
   0   6  -8 1215.82   23.09
   0   6  -8 1583.37   18.93
   0   6  -7 2204.57   32.50
   0   6  -7 2501.51   36.05
   0   6  -7 2200.56   32.67
   0   6  -7 2313.05   24.10
   0   6  -7 2436.67   28.92
   0   6  -7 2333.67   34.58
   0   6  -6 2833.68   39.86
   0   6  -6 2907.36   26.90
   0   6  -6 2720.72   31.11
   0   6  -6 2686.37   38.71
   0   6  -6 2815.15   38.34
   0   6  -6 2792.40   38.44
   0   6  -6 2803.13   38.33
   0   6  -5  996.22   23.49
   0   6  -5  985.33   19.14
   0   6  -5  941.76   20.68
   0   6  -5  911.79   21.63
   0   6  -5  983.70   22.81
   0   6  -5  948.32   22.24
   0   6  -4  522.08   16.73
   0   6  -4  524.83   13.72
   0   6  -4  492.75   13.61
   0   6  -4  489.36   13.23
   0   6  -4  492.99   15.69
   0   6  -4  531.21   17.09
   0   6  -4  540.93   17.17
   0   6  -3 2250.61   32.99
   0   6  -3 2181.46   25.41
   0   6  -3 2276.27   32.20
   0   6  -3 2238.76   26.52
   0   6  -3 2264.40   33.59
   0   6  -3 2285.61   33.65
   0   6  -2 4790.59   38.04
   0   6  -2 4762.33   45.06
   0   6  -2 4940.33   45.11
   0   6  -2 4812.37   35.95
   0   6  -2 4605.31   35.70
   0   6  -2 4904.64   48.37
   0   6  -2 4745.09   47.59
   0   6  -1 4757.69   36.57
   0   6  -1 4653.59   41.43
   0   6  -1 4678.56   28.49
   0   6  -1 4802.28   33.32
   0   6  -1 4733.84   35.69
   0   6  -1 4866.69   48.09
   0   6  -1 4913.66   48.45
   0   6   0 4679.74   30.50
   0   6   0 4642.42   32.14
   0   6   0 4651.67   35.69
   0   6   0 4678.62   46.51
   0   6   0 4567.87   46.00
   0   6   1 2451.12   23.54
   0   6   1 2483.14   26.53
   0   6   1 2565.34   34.20
   0   6   1 2555.91   33.97
   0   6   2  686.36   12.97
   0   6   2  759.25   18.69
   0   6   2  688.90   14.44
   0   6   2  747.21   18.64
   0   6   3 1297.83   15.83
   0   6   3 1341.16   19.15
   0   6   3 1409.59   21.46
   0   6   3 1571.06   26.27
   0   6   3 1568.84   26.18
   0   6   4 2038.43   24.48
   0   6   4 2143.70   27.08
   0   6   5 2463.61   27.13
   0   6   5 2446.77   29.80
   0   6   6 2330.02   25.65
   0   6   6 2227.81   27.80
   0   6   7 1196.61   16.63
   0   6   7 1027.92   17.42
   0   6   8  367.44    7.31
   0   6   8  479.19   10.47
   0   7  -9  273.17    8.30
   0   7  -9  267.27    9.21
   0   7  -8  771.30   16.74
   0   7  -8  750.04   16.97
   0   7  -8  537.37   14.23
   0   7  -8  547.35   14.38
   0   7  -7  423.32   11.87
   0   7  -7  378.19   13.35
   0   7  -7  454.50   14.61
   0   7  -7  415.79   13.96
   0   7  -7  375.50   13.30
   0   7  -6  391.14   14.41
   0   7  -6  383.55   11.95
   0   7  -6  362.72   13.55
   0   7  -6  386.87   14.98
   0   7  -6  392.36   15.09
   0   7  -5  709.84   19.45
   0   7  -5  709.89   16.27
   0   7  -5  713.77   18.65
   0   7  -5  716.60   19.21
   0   7  -5  730.95   20.47
   0   7  -5  714.48   20.19
   0   7  -4  370.51   12.25
   0   7  -4  369.93   14.08
   0   7  -4  378.14   11.88
   0   7  -4  343.81   12.37
   0   7  -4  346.22   13.47
   0   7  -4  411.88   16.10
   0   7  -4  390.48   15.49
   0   7  -3  606.77   17.11
   0   7  -3  647.08   15.26
   0   7  -3  658.12   17.88
   0   7  -3  641.40   15.07
   0   7  -3  661.33   19.79
   0   7  -3  687.96   20.09
   0   7  -3  650.83   15.11
   0   7  -2  667.92   16.91
   0   7  -2  611.07   14.11
   0   7  -2  630.88   14.36
   0   7  -2  664.79   14.76
   0   7  -2  629.59   19.01
   0   7  -2  643.08   19.22
   0   7  -1  810.82   15.44
   0   7  -1  754.46   15.62
   0   7  -1  796.40   21.03
   0   7  -1  779.11   20.82
   0   7   0 1468.75   17.61
   0   7   0 1428.75   21.52
   0   7   0 1482.03   27.98
   0   7   0 1513.98   28.22
   0   7   1  860.79   14.33
   0   7   1  881.54   17.20
   0   7   1  905.63   21.73
   0   7   1  923.77   21.91
   0   7   2 1796.93   22.22
   0   7   2 1855.35   30.24
   0   7   2 1856.53   30.21
   0   7   3 2832.67   30.87
   0   7   3 3018.97   29.75
   0   7   4 1089.49   17.50
   0   7   4 1099.20   19.09
   0   7   5  536.37   11.90
   0   7   5  517.78   12.65
   0   7   6  942.29   14.83
   0   7   6  909.68   15.43
   0   7   7 1489.84   15.63
   0   7   7 1207.45   15.88
   0   8  -8   30.86    3.23
   0   8  -8   24.80    3.69
   0   8  -8    9.20    3.11
   0   8  -8    8.38    3.08
   0   8  -7   46.12    5.00
   0   8  -7   56.88    4.74
   0   8  -7   45.26    5.01
   0   8  -7   49.84    5.06
   0   8  -6  270.40   11.90
   0   8  -6  245.99   10.21
   0   8  -6  258.51   10.32
   0   8  -6  265.46   11.77
   0   8  -5 1162.01   22.57
   0   8  -5 1215.36   20.04
   0   8  -5 1186.20   25.18
   0   8  -5 1168.36   24.89
   0   8  -4 1154.52   19.55
   0   8  -4 1164.49   22.77
   0   8  -4 1126.79   21.93
   0   8  -4 1149.64   21.05
   0   8  -4 1178.21   25.64
   0   8  -4 1211.74   25.86
   0   8  -3  232.35    8.85
   0   8  -3  234.93    9.98
   0   8  -3  229.09    9.69
   0   8  -3  254.39   13.06
   0   8  -3  243.76   12.66
   0   8  -2  154.67    7.71
   0   8  -2  155.01    7.61
   0   8  -2  168.30   10.73
   0   8  -2  166.16   10.58
   0   8  -1   37.78    4.16
   0   8  -1   43.68    5.93
   0   8  -1   43.06    5.96
   0   8   0   39.39    4.12
   0   8   0   48.11    6.12
   0   8   0   44.33    6.01
   0   8   1 1206.63   16.47
   0   8   1 1179.57   24.36
   0   8   1 1176.73   24.31
   0   8   1 1125.26   19.23
   0   8   2 1680.50   19.54
   0   8   2 1686.44   23.25
   0   8   2 1878.48   29.01
   0   8   2 1855.70   28.75
   0   8   3  659.25   12.27
   0   8   3  696.22   14.65
   0   8   4   64.35    3.97
   0   8   4   70.35    4.67
   0   8   5    9.87    1.90
   0   8   5    9.60    2.25
   0   8   6  133.66    4.43
   0   8   6  132.90    5.16
   0   9  -7  233.65    6.70
   0   9  -6  725.04   15.51
   0   9  -6  736.76   15.62
   0   9  -5 1496.10   24.63
   0   9  -5 1491.53   24.71
   0   9  -4  946.38   16.76
   0   9  -4  879.47   19.71
   0   9  -4  896.91   19.82
   0   9  -3  455.82   11.36
   0   9  -3  458.94   14.76
   0   9  -3  477.26   14.98
   0   9  -3  447.52   12.14
   0   9  -2  428.75   11.71
   0   9  -2  416.66   14.53
   0   9  -2  400.47   14.16
   0   9  -1   81.73    7.03
   0   9  -1   72.88    5.06
   0   9  -1   78.55    6.89
   0   9   0  138.07    6.44
   0   9   0  143.00    8.59
   0   9   0  149.41    8.72
   0   9   1  922.19   19.02
   0   9   1  958.53   19.49
   0   9   2  842.68   14.30
   0   9   3  207.19    6.82
   0   9   4  102.87    4.54
   0  10  -4  598.05   12.82
   0  10  -4  596.07   12.85
   0  10  -3  744.72   15.53
   0  10  -3  760.59   15.62
   0  10  -2  802.53   16.28
   0  10  -2  788.61   16.10
   0  10  -1 1366.86   17.09
   0  10  -1 1381.72   20.66
   0  10  -1 1392.91   20.64
   0  10   0  691.89   11.88
   1  -9   6  972.89   11.46
   1  -9   7  301.46    5.89
   1  -8   7  851.96   11.60
   1  -8   8  584.65    8.47
   1  -7   7 1412.15   16.72
   1  -7   8  770.26   11.25
   1  -7   9  141.07    4.27
   1  -6   7  815.48   13.54
   1  -6   8  627.12   11.19
   1  -6   9  165.72    5.21
   1  -6  10   59.07    2.98
   1  -5   0 2538.70   27.29
   1  -5   1 1660.69   24.69
   1  -5   2 1787.74   28.83
   1  -5   3 1811.64   31.01
   1  -5   4 1343.21   29.77
   1  -5   5 1291.15   30.14
   1  -5   7  557.98   11.25
   1  -5   8  672.03   11.97
   1  -5   9  398.93    8.62
   1  -5  10  947.20   11.63
   1  -5  11  634.92    8.28
   1  -4 -10  765.09   10.53
   1  -4  -9 1358.97   17.39
   1  -4  -8 1693.51   22.19
   1  -4  -4 3629.32   42.46
   1  -4  -3 3941.61   36.18
   1  -4  -2 4136.06   34.60
   1  -4  -1 4349.02   36.32
   1  -4   0 1862.91   22.43
   1  -4   1 1872.85   19.62
   1  -4   1 1868.81   22.69
   1  -4   2 2793.91   25.71
   1  -4   2 2957.16   32.21
   1  -4   3 6706.50   55.06
   1  -4   4 8773.63   69.88
   1  -4   5 3141.03   44.07
   1  -4   7  422.17    9.62
   1  -4   8  707.22   12.44
   1  -4   9 1539.73   17.26
   1  -4  10 1415.06   15.27
   1  -4  11 1135.86   11.46
   1  -3 -11  127.47    4.20
   1  -3 -10 1019.28   15.34
   1  -3  -6   74.13   10.48
   1  -3  -5   44.36    6.99
   1  -3  -4 2172.30   34.06
   1  -3  -3 3966.63   39.42
   1  -3  -2 2602.28   15.73
   1  -3  -2 2548.06   26.04
   1  -3  -1  583.67   11.00
   1  -3   0 1406.28   16.75
   1  -3   1 2024.97   20.87
   1  -3   1 2154.14   19.31
   1  -3   2 1429.54   17.90
   1  -3   2 1584.66   21.24
   1  -3   3 3466.48   36.49
   1  -3   3 3417.26   34.91
   1  -3   4 4170.93   44.64
   1  -3   5 2797.80   39.25
   1  -3   6 1201.06   27.97
   1  -3   6 1012.72   13.40
   1  -3   7  601.44   11.00
   1  -3   8 1728.33   18.99
   1  -3   9 2287.91   21.96
   1  -3  10 1061.17   13.75
   1  -3  11  908.81   10.68
   1  -2 -11  279.85    7.15
   1  -2  -6  787.78   26.48
   1  -2  -5  337.69   15.33
   1  -2  -4  722.28   19.22
   1  -2  -3  965.53   19.29
   1  -2  -2   12.38    2.54
   1  -2  -2   17.18    2.04
   1  -2  -1  357.92    7.80
   1  -2   0  561.75    9.54
   1  -2   0  550.85    9.45
   1  -2   1  789.92   11.99
   1  -2   1  787.32   11.04
   1  -2   2  138.45    5.78
   1  -2   2  144.87    6.01
   1  -2   3   73.86    5.72
   1  -2   3   62.64    4.95
   1  -2   4  622.83   16.89
   1  -2   5  767.45   19.51
   1  -2   5  787.04   13.65
   1  -2   6 1395.20   28.09
   1  -2   6 1270.89   14.35
   1  -2   7 1846.23   18.53
   1  -2   8  783.88   12.98
   1  -2   9  391.99    9.42
   1  -2  10  123.94    5.10
   1  -2  11  193.25    5.19
   1  -1 -12 1244.19   11.87
   1  -1 -11  626.89   11.70
   1  -1  -9  412.91   11.35
   1  -1  -9  367.77    9.67
   1  -1  -8 1023.63   16.57
   1  -1  -8 1021.41   16.94
   1  -1  -7 1908.16   21.66
   1  -1  -7 1972.15   22.08
   1  -1  -6 2331.78   48.80
   1  -1  -6 2230.22   21.91
   1  -1  -6 2312.48   21.82
   1  -1  -3  203.46    9.68
   1  -1  -2  418.76   10.51
   1  -1  -2  377.10    7.39
   1  -1  -1 3431.11   23.08
   1  -1   0 3617.48   16.72
   1  -1   0 3529.91   16.55
   1  -1   1 2883.71   20.01
   1  -1   1 2766.70   20.92
   1  -1   2  154.36    6.84
   1  -1   2  148.89    5.94
   1  -1   3   81.31    6.26
   1  -1   3   72.67    5.06
   1  -1   4   17.40    3.50
   1  -1   5  175.68    9.12
   1  -1   5  163.52    4.66
   1  -1   6 1168.35   14.26
   1  -1   6 1108.07   12.98
   1  -1   7 1308.36   15.51
   1  -1   8  146.31    5.87
   1  -1   9   48.14    3.80
   1  -1  10   10.00    2.24
   1  -1  11   80.73    3.56
   1   0 -12 1196.50   12.40
   1   0 -11 1367.21   17.80
   1   0 -11 1226.82   14.42
   1   0 -10  444.78   10.53
   1   0  -9  631.41   14.33
   1   0  -9  608.16   13.41
   1   0  -8 2720.28   28.01
   1   0  -8 2794.39   28.56
   1   0  -7 3936.14   31.78
   1   0  -7 3923.02   31.60
   1   0  -6 4737.52   31.60
   1   0  -6 4694.85   32.37
   1   0  -2 3134.50   20.72
   1   0  -1 3069.37   20.35
   1   0  -1 3018.08   16.37
   1   0   0 2126.20   14.22
   1   0   0 2059.84   14.16
   1   0   1 2175.65   15.15
   1   0   1 2304.27   19.53
   1   0   2 2533.18   22.71
   1   0   2 2906.29   29.23
   1   0   3  209.55    8.06
   1   0   4  958.57   18.19
   1   0   5 1559.57   15.29
   1   0   5 1500.29   24.27
   1   0   6  726.18   11.21
   1   0   6  727.82   12.73
   1   0   6  692.76   10.54
   1   0   7  940.05   13.22
   1   0   7  924.90   14.89
   1   0   7  896.89   13.01
   1   0   8  587.39   11.33
   1   0   9  339.39    8.73
   1   0  10  502.99    9.68
   1   0  11  167.87    4.79
   1   1 -12  462.66    7.67
   1   1 -11 1513.66   18.37
   1   1 -11 1413.61   17.05
   1   1 -10 2227.89   24.03
   1   1 -10 2307.01   31.21
   1   1  -9 1945.99   25.28
   1   1  -9 2069.76   26.16
   1   1  -8 2380.79   26.97
   1   1  -8 2357.44   26.64
   1   1  -7 4105.16   32.78
   1   1  -7 4111.46   40.41
   1   1  -6 3666.41   35.65
   1   1  -6 3636.60   29.79
   1   1  -5 3412.14   24.63
   1   1  -5 3144.71   25.27
   1   1  -2 8141.44   39.09
   1   1  -1 1674.71   15.89
   1   1  -1 1619.52   11.61
   1   1   0 1068.75   11.52
   1   1   0 1060.18   10.72
   1   1   1 4676.89   21.39
   1   1   1 4754.02   25.03
   1   1   2 6799.27   32.95
   1   1   3 5469.84   34.22
   1   1   4 3099.85   29.16
   1   1   5 2713.18   19.20
   1   1   5 2700.66   30.85
   1   1   5 2678.73   21.18
   1   1   5 2924.69   26.63
   1   1   5 2796.95   24.88
   1   1   5 2856.17   27.44
   1   1   6  858.25   12.73
   1   1   6  857.31   11.94
   1   1   6  831.85   20.18
   1   1   7  334.07    8.16
   1   1   7  366.24    8.68
   1   1   7  346.13    9.70
   1   1   8 1675.66   19.06
   1   1   8 1899.94   23.71
   1   1   9 2253.53   21.49
   1   1  10 1134.15   13.79
   1   1  11  464.82    7.26
   1   2 -12   86.78    3.43
   1   2 -11  679.92   14.09
   1   2 -11  712.31   11.64
   1   2 -10 2030.28   23.38
   1   2 -10 2136.36   24.00
   1   2  -9 1119.22   19.73
   1   2  -9  987.14   21.74
   1   2  -8  321.47   10.21
   1   2  -8  321.70   10.60
   1   2  -8  345.01   13.18
   1   2  -7  201.35    9.57
   1   2  -7  204.32    7.97
   1   2  -7  115.87    7.77
   1   2  -7  115.49    7.69
   1   2  -7  184.70    9.60
   1   2  -7  241.40    8.55
   1   2  -6  508.08   14.24
   1   2  -6  506.92   11.17
   1   2  -6  477.40   11.28
   1   2  -6  446.01   13.80
   1   2  -6  447.65   13.77
   1   2  -6  534.75   14.93
   1   2  -6  517.53   11.67
   1   2  -5 2249.72   21.05
   1   2  -5 2616.83   29.89
   1   2  -5 2225.06   21.99
   1   2  -5 2696.37   28.43
   1   2  -5 2627.48   28.01
   1   2  -4 5595.07   45.22
   1   2  -3 9662.91   43.78
   1   2  -2 6319.29   35.61
   1   2  -1 1747.52   16.93
   1   2   0 2459.80   20.41
   1   2   0 2387.41   20.41
   1   2   1 3762.49   26.70
   1   2   1 3606.20   26.29
   1   2   2 8352.85   46.14
   1   2   2 8444.48   46.68
   1   2   3 8870.37   40.75
   1   2   3 8810.93   56.08
   1   2   4 2909.04   23.61
   1   2   4 2917.83   36.85
   1   2   4 2991.07   21.79
   1   2   4 2987.94   37.37
   1   2   4 2909.42   18.67
   1   2   5 2375.17   23.82
   1   2   5 2244.53   20.51
   1   2   5 2379.21   25.87
   1   2   5 2252.32   37.53
   1   2   5 2226.02   37.02
   1   2   5 2256.93   18.20
   1   2   6 1007.07   16.91
   1   2   6  914.56   27.70
   1   2   6 1017.18   13.46
   1   2   6  874.26   26.97
   1   2   7  816.06   15.46
   1   2   7  745.18   12.26
   1   2   8 2125.88   25.87
   1   2   8 1930.89   20.09
   1   2   9 2501.22   26.29
   1   2   9 2362.08   21.11
   1   2  10 1456.68   15.95
   1   2  10 1653.90   15.30
   1   2  11  695.93    8.33
   1   3 -12  131.16    4.00
   1   3 -11  274.54    9.21
   1   3 -11  276.22    7.52
   1   3 -10  706.03   12.17
   1   3 -10  735.64   13.85
   1   3  -9  608.90   12.65
   1   3  -9  634.88   18.06
   1   3  -8   24.42    3.53
   1   3  -8   21.57    4.80
   1   3  -7   75.56    5.54
   1   3  -7   75.20    6.64
   1   3  -7   53.05    6.18
   1   3  -7   76.24    6.85
   1   3  -7   82.16    5.29
   1   3  -7   55.94    6.30
   1   3  -6  282.81    9.90
   1   3  -6  313.81   11.92
   1   3  -6  309.47    9.27
   1   3  -6  351.11   12.07
   1   3  -6  341.49   11.90
   1   3  -6  315.58   12.27
   1   3  -5  506.12   11.76
   1   3  -5  532.71   15.11
   1   3  -5  561.47   15.10
   1   3  -5  530.94   11.09
   1   3  -5  648.77   16.05
   1   3  -5  629.72   15.73
   1   3  -4 1595.51   19.98
   1   3  -4 1478.85   23.99
   1   3  -4 2004.86   26.50
   1   3  -4 2156.07   26.47
   1   3  -4 2211.21   26.64
   1   3  -2  506.73   11.78
   1   3  -2  549.28   10.09
   1   3  -1  288.66    8.04
   1   3   1 1922.06   23.75
   1   3   1 1920.96   23.78
   1   3   2  815.05   17.04
   1   3   2  818.39   17.13
   1   3   3 2038.95   29.47
   1   3   3 2088.92   30.01
   1   3   3 2076.65   15.32
   1   3   4 2011.04   20.59
   1   3   4 1920.48   32.33
   1   3   4 2030.48   33.35
   1   3   4 1957.00   16.37
   1   3   5 1084.31   28.02
   1   3   5 1085.24   27.85
   1   3   5 1149.28   13.65
   1   3   6 2745.34   29.04
   1   3   6 2563.10   21.72
   1   3   7 1824.93   23.99
   1   3   7 1735.31   18.51
   1   3   8  981.81   18.08
   1   3   8  943.73   13.62
   1   3   9 1146.11   13.85
   1   3   9 1094.11   16.03
   1   3  10  625.58    9.61
   1   3  10  717.50    9.41
   1   4 -11  236.67    7.94
   1   4 -11  262.44    6.70
   1   4 -10  314.79   11.42
   1   4 -10  305.96    8.62
   1   4  -9  511.48   13.83
   1   4  -9  501.45   16.34
   1   4  -9  471.47   11.77
   1   4  -8  584.53   16.47
   1   4  -8  873.15   20.61
   1   4  -8  915.22   17.56
   1   4  -8  880.74   21.68
   1   4  -8  619.41   16.96
   1   4  -7 1305.64   20.79
   1   4  -7 1122.34   23.05
   1   4  -7 1284.49   25.36
   1   4  -7 1146.18   23.25
   1   4  -7 1337.67   26.47
   1   4  -7 1209.64   19.29
   1   4  -6  625.96   14.77
   1   4  -6  667.19   18.38
   1   4  -6  600.33   12.70
   1   4  -6  648.09   18.04
   1   4  -6  657.66   17.88
   1   4  -6  673.64   18.00
   1   4  -5  132.22    6.89
   1   4  -5  128.37    8.48
   1   4  -5  127.95    5.57
   1   4  -5  143.16    8.34
   1   4  -5  146.36    8.70
   1   4  -5  154.67    8.79
   1   4  -5  149.19    8.59
   1   4  -4   16.41    3.16
   1   4  -4   19.83    4.68
   1   4  -4   17.44    4.01
   1   4  -4   13.29    2.63
   1   4  -4   16.60    3.66
   1   4  -4   19.94    4.10
   1   4  -4   19.43    3.89
   1   4  -4   18.23    2.43
   1   4  -4   19.64    3.88
   1   4  -3   52.67    4.95
   1   4  -3   38.80    3.97
   1   4  -3   52.66    5.34
   1   4  -3   49.52    3.59
   1   4  -3   55.69    5.30
   1   4  -3   53.53    5.20
   1   4  -2  429.28   10.53
   1   4  -2  391.60   10.95
   1   4  -2  477.55   12.96
   1   4  -2  464.29    9.46
   1   4  -2  534.88   14.15
   1   4  -2  505.58   13.79
   1   4  -1  926.75   16.15
   1   4   1  201.14    6.31
   1   4   1  225.90    6.60
   1   4   2   60.97    5.99
   1   4   2   56.91    4.99
   1   4   2   57.59    5.87
   1   4   2   64.42    4.24
   1   4   2   52.32    2.89
   1   4   2   51.12    3.89
   1   4   3   57.11    4.89
   1   4   3   39.27    5.84
   1   4   3   51.54    4.24
   1   4   3   38.97    5.84
   1   4   3   34.94    2.69
   1   4   4  441.87   11.92
   1   4   4  443.95   18.67
   1   4   4  449.37   18.78
   1   4   4  416.95    8.30
   1   4   5 1089.80   18.58
   1   4   5 1115.77   19.81
   1   4   6 1330.54   20.84
   1   4   6 1319.50   16.23
   1   4   7  655.44   15.33
   1   4   7  616.22   11.26
   1   4   8   42.28    3.98
   1   4   8   42.56    3.36
   1   4   9    9.61    1.97
   1   4   9    8.55    1.98
   1   4   9    8.39    2.54
   1   5 -11  153.43    5.77
   1   5 -11  168.44    4.77
   1   5 -10   81.89    6.08
   1   5 -10   83.13    6.00
   1   5 -10   87.19    4.42
   1   5  -9  913.64   18.08
   1   5  -9  899.14   14.85
   1   5  -8 1897.22   30.06
   1   5  -8 1744.27   21.41
   1   5  -8 1955.16   32.19
   1   5  -8 1482.23   26.89
   1   5  -8 1526.53   27.43
   1   5  -7 1971.89   26.84
   1   5  -7 1803.74   22.05
   1   5  -7 1727.41   29.90
   1   5  -7 1885.98   31.88
   1   5  -7 2007.33   32.68
   1   5  -7 1735.79   29.94
   1   5  -6 2510.10   37.52
   1   5  -6 2183.91   34.45
   1   5  -6 2311.28   29.62
   1   5  -6 2317.04   34.82
   1   5  -6 2216.89   24.06
   1   5  -6 2440.90   36.87
   1   5  -5  531.60   16.99
   1   5  -5  594.84   16.98
   1   5  -5  595.36   17.50
   1   5  -5  623.34   18.32
   1   5  -5  583.11   11.40
   1   5  -5  620.13   18.22
   1   5  -5  550.63   14.24
   1   5  -4  105.82    8.67
   1   5  -4  128.54    8.60
   1   5  -4  130.94    7.12
   1   5  -4  139.69    7.99
   1   5  -4  158.32    9.09
   1   5  -4  131.72    7.01
   1   5  -4  141.45    9.01
   1   5  -4  135.26    8.79
   1   5  -3  565.76   13.38
   1   5  -3  556.21   16.34
   1   5  -3  591.34   16.39
   1   5  -3  623.58   14.38
   1   5  -3  635.66   16.78
   1   5  -3  608.27   12.80
   1   5  -3  744.39   19.52
   1   5  -3  695.66   18.78
   1   5  -2 2584.85   27.55
   1   5  -2 2455.47   31.59
   1   5  -2 2816.72   32.94
   1   5  -2 2419.12   30.64
   1   5  -2 2745.86   25.37
   1   5  -2 2763.76   35.54
   1   5  -2 2775.18   35.50
   1   5  -1 4533.79   26.14
   1   5  -1 4624.43   32.13
   1   5  -1 4579.19   44.99
   1   5  -1 4604.34   45.01
   1   5  -1 4560.69   35.03
   1   5   0 1291.21   14.50
   1   5   0 1328.80   17.38
   1   5   0 1371.73   24.44
   1   5   0 1349.08   24.16
   1   5   1  416.78    9.48
   1   5   1  428.80   10.51
   1   5   1  441.16   10.37
   1   5   1  452.09   14.09
   1   5   1  454.31   14.14
   1   5   2  145.19    6.22
   1   5   2  146.91    6.84
   1   5   2  149.63    6.54
   1   5   3   42.12    3.89
   1   5   3   49.30    4.59
   1   5   3   45.75    4.05
   1   5   4  414.75   11.58
   1   5   4  441.06   11.84
   1   5   4  453.60   12.65
   1   5   4  391.65    8.85
   1   5   5  565.78   13.59
   1   5   5  579.77   13.76
   1   5   6  593.16   13.87
   1   5   6  608.19   14.35
   1   5   6  540.86   14.45
   1   5   6  542.17   10.56
   1   5   7  331.77    9.76
   1   5   7  334.14    8.10
   1   5   8   15.94    2.42
   1   5   8    5.42    2.27
   1   5   9   26.75    2.25
   1   6 -10  665.55   13.38
   1   6 -10  653.43    9.45
   1   6  -9 1595.47   24.07
   1   6  -9 1456.37   21.01
   1   6  -9 1558.39   24.59
   1   6  -9 1465.84   16.32
   1   6  -8 1905.15   30.17
   1   6  -8 1970.75   28.59
   1   6  -8 1459.56   26.33
   1   6  -8 1806.73   20.15
   1   6  -8 1522.15   26.95
   1   6  -7 1584.38   28.55
   1   6  -7 1515.65   28.43
   1   6  -7 1506.64   18.70
   1   6  -7 1536.14   28.64
   1   6  -6 2186.34   29.20
   1   6  -6 2182.20   34.99
   1   6  -6 2279.66   37.37
   1   6  -6 2247.62   37.26
   1   6  -6 2134.08   33.54
   1   6  -5 2263.54   29.81
   1   6  -5 2195.93   34.96
   1   6  -5 2254.71   34.29
   1   6  -5 2406.46   37.68
   1   6  -5 2421.29   37.58
   1   6  -4 1061.23   23.55
   1   6  -4 1103.60   20.15
   1   6  -4 1105.13   20.45
   1   6  -4 1052.25   21.60
   1   6  -4 1100.80   23.45
   1   6  -4 1163.81   26.26
   1   6  -4 1156.12   26.03
   1   6  -3 1232.92   24.23
   1   6  -3 1245.89   21.08
   1   6  -3 1245.61   23.76
   1   6  -3 1259.87   19.97
   1   6  -3 1371.85   28.87
   1   6  -3 1385.21   28.76
   1   6  -2 2575.29   28.88
   1   6  -2 2631.80   27.10
   1   6  -2 2658.57   38.29
   1   6  -2 2618.07   37.80
   1   6  -1 1883.35   25.00
   1   6  -1 1859.52   22.71
   1   6  -1 1815.73   30.93
   1   6  -1 1860.55   23.98
   1   6  -1 1835.56   31.08
   1   6   0 1151.53   15.41
   1   6   0 1164.82   18.10
   1   6   0 1122.43   24.30
   1   6   0 1115.54   24.22
   1   6   1 1212.06   18.64
   1   6   1 1219.17   24.65
   1   6   1 1230.78   24.80
   1   6   2 2136.36   22.84
   1   6   2 2129.50   23.22
   1   6   3 1724.47   21.71
   1   6   3 1774.12   23.53
   1   6   4  676.79   14.34
   1   6   4  698.06   14.68
   1   6   4  684.76   15.10
   1   6   5  675.72   14.28
   1   6   5  681.58   15.02
   1   6   6  525.34   11.65
   1   6   6  501.65   12.20
   1   6   7  657.17   11.36
   1   6   7  538.05   11.45
   1   6   8  723.73   10.03
   1   7  -9  557.24   11.17
   1   7  -9  560.61   12.93
   1   7  -8  433.82   11.38
   1   7  -8  523.56   13.19
   1   7  -8  397.28   12.73
   1   7  -8  525.82   14.49
   1   7  -8  393.40   12.61
   1   7  -7  471.65   14.14
   1   7  -7  454.99   15.15
   1   7  -7  478.55   14.71
   1   7  -7  459.98   15.25
   1   7  -7  462.29   13.23
   1   7  -6 1382.49   28.30
   1   7  -6 1261.41   24.37
   1   7  -6 1371.33   28.24
   1   7  -6 1248.17   24.32
   1   7  -5 2645.37   36.62
   1   7  -5 2740.37   36.55
   1   7  -5 2964.66   43.73
   1   7  -5 2925.32   43.41
   1   7  -4 3307.16   39.93
   1   7  -4 3183.93   35.05
   1   7  -4 3245.35   38.79
   1   7  -4 3482.84   46.68
   1   7  -4 3477.26   46.46
   1   7  -3 2369.41   29.19
   1   7  -3 2400.95   38.25
   1   7  -2  722.15   15.44
   1   7  -2  767.09   22.42
   1   7  -2  775.23   22.40
   1   7  -1  922.23   17.23
   1   7  -1  993.17   24.72
   1   7  -1  976.99   24.34
   1   7   0 1634.46   17.90
   1   7   0 1599.12   22.39
   1   7   0 1602.78   30.11
   1   7   0 1611.96   30.01
   1   7   1 2704.85   24.63
   1   7   1 2777.70   29.57
   1   7   1 2866.06   39.05
   1   7   1 2925.08   39.22
   1   7   2 4707.75   34.51
   1   7   2 4469.03   37.69
   1   7   3 2486.42   25.03
   1   7   3 2560.29   27.80
   1   7   4  747.71   13.45
   1   7   4  779.39   15.19
   1   7   5  240.93    7.45
   1   7   5  242.01    8.17
   1   7   6  284.98    7.42
   1   7   6  250.32    7.44
   1   7   7  971.99   11.31
   1   8  -8   23.12    2.60
   1   8  -8   20.61    3.41
   1   8  -8   13.07    3.00
   1   8  -8   12.78    3.06
   1   8  -7  230.95    9.70
   1   8  -7  249.88    8.61
   1   8  -7  250.40    9.30
   1   8  -7  236.68    9.82
   1   8  -6  454.27   12.93
   1   8  -6  454.26   13.06
   1   8  -6  482.30   14.95
   1   8  -6  481.23   14.90
   1   8  -5 1852.71   31.94
   1   8  -5 1859.96   31.97
   1   8  -4 2474.95   37.63
   1   8  -4 2506.90   37.63
   1   8  -3 1060.69   19.41
   1   8  -3 1100.53   20.43
   1   8  -3 1140.65   25.56
   1   8  -3 1090.22   24.93
   1   8  -2  456.83   12.58
   1   8  -2  450.14   16.21
   1   8  -2  469.00   16.45
   1   8  -1  380.39   11.11
   1   8  -1  395.14   15.03
   1   8  -1  407.44   15.22
   1   8   0 1342.78   20.29
   1   8   0 1379.88   26.86
   1   8   0 1397.66   26.82
   1   8   1 1968.40   19.58
   1   8   1 1940.43   24.01
   1   8   2 1431.21   16.68
   1   8   2 1468.78   20.25
   1   8   3 1507.37   16.75
   1   8   3 1579.68   19.97
   1   8   4  655.53   10.60
   1   8   4  688.57   12.44
   1   8   5  530.21    8.63
   1   9  -6  159.07    5.64
   1   9  -6  159.92    7.50
   1   9  -6  161.30    7.54
   1   9  -5  166.54    6.12
   1   9  -5  178.05    8.34
   1   9  -5  174.58    8.28
   1   9  -4   94.56    4.88
   1   9  -4  110.23    7.45
   1   9  -4  101.21    7.16
   1   9  -3  242.97   10.89
   1   9  -3  243.63   10.89
   1   9  -2  341.94   10.08
   1   9  -2  335.14   12.72
   1   9  -2  341.18   12.76
   1   9  -1  474.03   11.44
   1   9  -1  443.24   14.31
   1   9  -1  428.13   13.95
   1   9   0  497.26   11.19
   1   9   1  256.69    7.81
   1   9   2  204.38    6.58
   2  -9   1  762.93   12.99
   2  -9   6  528.95    8.43
   2  -9   7  459.50    7.16
   2  -8   2 1829.94   20.72
   2  -8   7 2069.45   17.53
   2  -8   8 1382.46   12.63
   2  -7   2 1880.71   20.55
   2  -7   7 1800.68   18.69
   2  -7   8 1219.18   13.63
   2  -7   9  607.96    8.21
   2  -6  -1  477.21    8.94
   2  -6   3  238.67    7.30
   2  -6   7   56.30    4.08
   2  -6   8  417.52    8.94
   2  -6   9  637.16    9.42
   2  -6  10  628.58    8.17
   2  -5  -3 3342.79   42.53
   2  -5  -2 2253.72   35.40
   2  -5  -1  543.68   15.57
   2  -5   0  226.97    9.55
   2  -5   0  226.00    5.60
   2  -5   0  240.78   10.35
   2  -5   1   62.34    5.69
   2  -5   1   70.27    6.13
   2  -5   2  514.71   16.22
   2  -5   3 1591.59   16.60
   2  -5   3 1633.71   31.06
   2  -5   4 1978.84   18.98
   2  -5   4 1718.60   34.17
   2  -5   7   33.61    3.47
   2  -5   8   80.25    4.52
   2  -5   9  338.21    7.65
   2  -5  10  575.01    8.67
   2  -4 -10 2128.88   18.38
   2  -4  -9 2469.46   23.87
   2  -4  -8 1790.81   22.63
   2  -4  -7 1432.28   21.14
   2  -4  -6  379.18   10.64
   2  -4  -5  457.42   19.33
   2  -4  -5  586.32   12.15
   2  -4  -4 3840.00   26.79
   2  -4  -4 2953.74   41.27
   2  -4  -3 5074.18   47.18
   2  -4  -2 3120.81   34.92
   2  -4  -1 1339.35   23.04
   2  -4   0 2119.09   27.03
   2  -4   1 1359.75   21.84
   2  -4   1 1428.29   21.72
   2  -4   2  696.70   15.82
   2  -4   2  660.76   15.99
   2  -4   3 4126.11   24.63
   2  -4   3 4154.28   43.64
   2  -4   3 4234.91   44.86
   2  -4   4 3354.84   23.56
   2  -4   4 3271.69   44.41
   2  -4   4 3275.29   44.02
   2  -4   5  707.81   23.24
   2  -4   5  785.10   14.66
   2  -4   6  544.90   10.53
   2  -4   7  262.02    7.75
   2  -4   8  448.38    9.89
   2  -4   9  605.79   10.75
   2  -4  10  442.15    8.16
   2  -4  11  442.33    6.63
   2  -3 -11  754.52   10.34
   2  -3 -10 1187.95   16.27
   2  -3  -9 1100.74   18.65
   2  -3  -8 2162.81   27.42
   2  -3  -6 1827.00   43.11
   2  -3  -5 3643.33   53.52
   2  -3  -4 3443.06   46.05
   2  -3  -3 4229.68   44.44
   2  -3  -2 2545.30    9.16
   2  -3  -2 3593.98   32.61
   2  -3  -1 3639.24   32.44
   2  -3   0 4358.77   36.21
   2  -3   1 4125.40   35.43
   2  -3   1 4254.96   34.77
   2  -3   2 2560.79   28.38
   2  -3   2 2513.45   28.71
   2  -3   3 1669.36   26.88
   2  -3   3 1567.22   25.32
   2  -3   4 1408.73   19.84
   2  -3   4 1404.06   14.36
   2  -3   4 1453.29   28.58
   2  -3   4 1467.58   27.27
   2  -3   5 2102.79   36.87
   2  -3   5 2079.41   24.54
   2  -3   5 1968.57   18.36
   2  -3   5 1986.58   17.78
   2  -3   6 3268.92   31.06
   2  -3   6 3038.25   23.53
   2  -3   7 2521.35   22.40
   2  -3   8 1281.16   16.25
   2  -3   9  835.49   13.07
   2  -3  10  421.32    8.29
   2  -3  11  303.40    5.87
   2  -2 -11  133.61    5.05
   2  -2 -10   54.02    4.36
   2  -2  -9  266.97   10.01
   2  -2  -7 1444.72   17.87
   2  -2  -6 2822.92   52.94
   2  -2  -6 3197.57   25.21
   2  -2  -5 2210.98   41.16
   2  -2  -4  174.84   10.55
   2  -2  -3   97.15    6.95
   2  -2  -2 5300.71   29.99
   2  -2  -2 5149.86   41.55
   2  -2  -1 4815.55   20.72
   2  -2  -1 4087.68   31.58
   2  -2   0 1699.04   16.81
   2  -2   0 1717.91   16.94
   2  -2   1 8348.77   41.08
   2  -2   1 8333.72   41.85
   2  -2   1 8320.66   46.74
   2  -2   2 6724.55   42.31
   2  -2   2 5819.64   41.99
   2  -2   3  215.45   10.11
   2  -2   3  209.96    9.06
   2  -2   4 1018.09   24.41
   2  -2   4 1076.80   11.53
   2  -2   4 1002.35   21.51
   2  -2   5 2971.93   29.98
   2  -2   5 2971.46   22.13
   2  -2   5 2965.04   40.76
   2  -2   5 2941.05   20.66
   2  -2   6 4744.86   54.70
   2  -2   6 4832.15   29.70
   2  -2   6 4786.56   28.23
   2  -2   7 3033.30   24.07
   2  -2   7 3194.03   24.48
   2  -2   8 1122.84   15.56
   2  -2   9  591.52   10.98
   2  -2  10  274.71    6.87
   2  -2  11  462.44    7.28
   2  -1 -12  385.32    6.74
   2  -1 -11   49.83    3.61
   2  -1 -10   24.36    3.57
   2  -1 -10   16.53    2.63
   2  -1  -9   16.00    2.83
   2  -1  -8   74.38    5.87
   2  -1  -8   93.15    5.41
   2  -1  -7 1058.89   19.77
   2  -1  -7  987.17   15.61
   2  -1  -6 1129.95   32.75
   2  -1  -6 1262.04   16.29
   2  -1  -5  134.87   10.49
   2  -1  -4  123.50    8.89
   2  -1  -3   34.28    4.66
   2  -1  -2  673.40   14.57
   2  -1  -1 1624.41   14.61
   2  -1  -1 1638.47   18.39
   2  -1   0 2095.37   20.06
   2  -1   0 2067.24   11.96
   2  -1   1 2395.19   22.96
   2  -1   1 2327.38   24.82
   2  -1   2 1171.78   19.09
   2  -1   2 1161.29   16.81
   2  -1   3  213.57   10.55
   2  -1   3  245.78    9.40
   2  -1   4  594.50   12.32
   2  -1   4  554.22   19.28
   2  -1   4  568.34   16.08
   2  -1   5 1369.54   20.98
   2  -1   5 1331.12   25.88
   2  -1   5 1252.44   14.70
   2  -1   5 1341.12   18.50
   2  -1   5 1269.60   16.76
   2  -1   5 1248.23   13.10
   2  -1   6 1348.87   20.95
   2  -1   6 1305.23   15.57
   2  -1   6 1340.08   17.29
   2  -1   6 1343.95   14.84
   2  -1   7 1669.88   18.46
   2  -1   7 1674.75   18.04
   2  -1   8  906.84   13.37
   2  -1   8  922.79   13.90
   2  -1   9  600.55   11.14
   2  -1  10 1158.87   13.79
   2  -1  11  789.80    9.42
   2   0 -12  301.27    6.29
   2   0 -11  728.29   12.65
   2   0 -11  687.91   11.25
   2   0 -10  576.54   13.78
   2   0 -10  551.23   13.69
   2   0  -9  570.35   15.58
   2   0  -9  577.60   13.14
   2   0  -8  752.09   19.15
   2   0  -8  682.06   14.13
   2   0  -7 1002.65   36.10
   2   0  -7 1085.96   17.44
   2   0  -6  688.25   13.00
   2   0  -6  744.92   13.76
   2   0  -5  195.05   13.25
   2   0  -5  204.16    6.62
   2   0  -4 2619.48   40.55
   2   0  -3 2548.83   32.61
   2   0  -2  321.73    9.34
   2   0  -2  303.23    9.58
   2   0  -1  387.74    8.17
   2   0  -1  412.26    8.75
   2   0   0   20.89    2.23
   2   0   0   22.41    2.58
   2   0   0   24.92    2.26
   2   0   1  318.61    7.27
   2   0   1  304.83    8.78
   2   0   2  868.59   17.91
   2   0   2  850.96   14.07
   2   0   3  718.81   19.31
   2   0   3  764.37   15.58
   2   0   4  665.49   13.50
   2   0   4  680.56   16.50
   2   0   4  652.63   10.07
   2   0   5  156.03    7.39
   2   0   5  150.95    5.50
   2   0   5  166.07    7.65
   2   0   5  154.33    8.59
   2   0   5  151.86    6.16
   2   0   5  162.38    5.08
   2   0   6    6.59    2.74
   2   0   6   12.98    4.29
   2   0   6    9.93    2.51
   2   0   6   10.88    3.21
   2   0   7   77.73    4.57
   2   0   7   75.15    4.93
   2   0   7   76.02    4.28
   2   0   8  383.63    9.09
   2   0   8  383.47    8.86
   2   0   8  383.76    9.95
   2   0   9 1133.28   14.99
   2   0  10  866.17   11.51
   2   0  11  197.37    4.61
   2   1 -12  575.95    8.17
   2   1 -11 1539.78   17.46
   2   1 -11 1541.39   17.57
   2   1 -10 2883.05   29.07
   2   1 -10 2928.29   29.17
   2   1  -9 2778.58   37.87
   2   1  -9 2798.44   30.56
   2   1  -8 1159.78   23.58
   2   1  -8 1131.10   19.09
   2   1  -7  262.44    9.18
   2   1  -7  242.78   11.73
   2   1  -6  431.94   23.29
   2   1  -6  579.09   13.07
   2   1  -6  583.84   16.54
   2   1  -6  422.54   10.93
   2   1  -5 2248.51   47.70
   2   1  -5 3203.40   33.84
   2   1  -5 3108.72   31.61
   2   1  -5 3057.50   31.50
   2   1  -4 3251.32   48.21
   2   1  -3 6635.09   53.56
   2   1  -2 4287.58   34.14
   2   1  -2 4340.48   26.36
   2   1  -1  309.45    8.30
   2   1  -1  309.46    7.14
   2   1  -1  316.64    5.82
   2   1  -1  312.06    6.60
   2   1   0  601.56   11.63
   2   1   0  616.61    7.89
   2   1   1 1138.97   18.73
   2   1   1 1124.31   12.30
   2   1   1 1147.95   12.08
   2   1   2 5915.87   35.68
   2   1   2 5913.51   35.59
   2   1   3 4108.78   32.45
   2   1   4  634.32   13.92
   2   1   4  645.86   10.36
   2   1   4  619.97   14.30
   2   1   4  627.24   10.80
   2   1   4  620.74    8.71
   2   1   5  451.27   12.06
   2   1   5  463.41   10.51
   2   1   5  449.38    9.29
   2   1   5  470.85   12.69
   2   1   5  434.99    8.03
   2   1   5  417.58   12.88
   2   1   6   18.04    3.69
   2   1   6   17.96    2.87
   2   1   6   21.39    3.57
   2   1   6   19.65    2.54
   2   1   7   42.22    3.42
   2   1   7   43.30    3.75
   2   1   7   45.18    4.36
   2   1   8  524.37   11.88
   2   1   8  496.48   10.14
   2   1   9  672.23   11.15
   2   1  10  230.01    6.60
   2   1  10  263.56    6.10
   2   2 -11 1232.49   18.31
   2   2 -11 1283.41   14.63
   2   2 -11 1227.68   18.60
   2   2 -10 2461.51   32.80
   2   2 -10 2468.30   26.60
   2   2  -9 2989.23   29.38
   2   2  -9 3044.60   31.41
   2   2  -8 1429.88   20.57
   2   2  -8 1412.84   27.68
   2   2  -7  425.27   12.72
   2   2  -7  334.09   12.77
   2   2  -7  425.66   15.12
   2   2  -7  368.47   10.88
   2   2  -7  332.20   12.93
   2   2  -6 2780.71   32.56
   2   2  -6 2264.33   53.80
   2   2  -6 3146.44   38.00
   2   2  -6 3041.77   36.44
   2   2  -6 2977.21   35.97
   2   2  -6 2572.65   27.23
   2   2  -5 6204.14   47.48
   2   2  -5 4540.91   40.42
   2   2  -5 5371.86   46.22
   2   2  -5 4896.50   34.45
   2   2  -5 6120.53   47.18
   2   2  -4 3704.47   35.00
   2   2  -4 3668.79   35.02
   2   2  -3 5736.37   50.43
   2   2  -3 6305.06   52.03
   2   2  -2 5728.80   35.68
   2   2  -2 5751.94   33.51
   2   2  -1 2237.21   18.11
   2   2  -1 2004.02   11.67
   2   2   0 3143.36   27.73
   2   2   1 3188.35   26.42
   2   2   1 3300.18   26.67
   2   2   2 2687.02   26.91
   2   2   2 2688.03   27.04
   2   2   3 3267.88   22.70
   2   2   3 3250.73   23.51
   2   2   3 3244.05   22.67
   2   2   3 3392.71   33.22
   2   2   3 3176.64   34.24
   2   2   3 3086.45   33.85
   2   2   4 2337.23   20.58
   2   2   4 2366.34   29.42
   2   2   4 2328.21   34.25
   2   2   4 2342.73   21.72
   2   2   4 2281.54   33.95
   2   2   4 2353.39   17.51
   2   2   4 2343.62   25.10
   2   2   5 1141.32   18.69
   2   2   5 1165.38   15.55
   2   2   5 1189.39   20.13
   2   2   5 1061.50   27.01
   2   2   5 1173.48   17.21
   2   2   5 1069.49   27.09
   2   2   5 1170.19   13.49
   2   2   6 1263.10   16.70
   2   2   6 1309.07   20.33
   2   2   6 1293.61   15.36
   2   2   7 1626.99   21.93
   2   2   7 1591.01   17.64
   2   2   8  809.05   14.74
   2   2   8  758.57   12.01
   2   2   9  331.84    9.33
   2   2   9  364.59    7.74
   2   2  10  402.78    7.85
   2   2  10  463.10    7.52
   2   3 -11  343.92    9.75
   2   3 -11  351.59    8.12
   2   3 -10  750.59   18.18
   2   3 -10  767.24   14.59
   2   3  -9 1319.64   26.66
   2   3  -9 1236.69   19.85
   2   3  -8 2147.84   26.01
   2   3  -8 2243.75   30.39
   2   3  -8 2076.22   21.70
   2   3  -8 2349.69   37.11
   2   3  -7 3030.32   36.57
   2   3  -7 3028.00   30.37
   2   3  -7 3008.21   38.21
   2   3  -7 3011.68   40.07
   2   3  -7 3037.43   38.42
   2   3  -6 1982.32   30.34
   2   3  -6 1891.35   22.70
   2   3  -6 2109.26   32.17
   2   3  -6 2247.41   31.85
   2   3  -6 2264.42   32.07
   2   3  -5 1755.84   42.74
   2   3  -5 1820.00   28.30
   2   3  -5 2526.58   33.17
   2   3  -5 2980.53   36.66
   2   3  -5 2597.54   24.43
   2   3  -5 2997.73   36.43
   2   3  -5 2596.01   45.08
   2   3  -4 1826.70   32.55
   2   3  -4 1459.07   32.03
   2   3  -4 1459.63   24.07
   2   3  -4 2365.13   32.03
   2   3  -4 1897.87   18.69
   2   3  -4 2382.95   31.97
   2   3  -3  522.40   14.71
   2   3  -3  455.92   11.23
   2   3  -3  505.13   13.59
   2   3  -3  547.37   14.17
   2   3  -3  690.64   16.70
   2   3  -3  662.71   16.31
   2   3  -2 3950.75   36.78
   2   3  -2 3838.99   21.93
   2   3  -1 5575.29   43.64
   2   3   1 2431.06   28.62
   2   3   1 2570.41   29.90
   2   3   2  398.39   12.85
   2   3   2  416.32   12.41
   2   3   2  367.65    7.64
   2   3   2  409.77   12.94
   2   3   3 3205.68   34.94
   2   3   3 3030.07   23.64
   2   3   3 3191.06   23.49
   2   3   3 3470.02   41.37
   2   3   3 3459.46   41.51
   2   3   3 3114.73   19.41
   2   3   4 2897.78   32.45
   2   3   4 2800.53   23.42
   2   3   4 2588.73   40.29
   2   3   4 2612.35   40.47
   2   3   4 2737.73   19.83
   2   3   4 2730.00   24.80
   2   3   5 2414.04   28.56
   2   3   5 2339.66   24.89
   2   3   5 2379.99   19.79
   2   3   6 4559.53   37.89
   2   3   6 4300.93   27.97
   2   3   7 2410.20   20.96
   2   3   7 2443.60   26.85
   2   3   8  476.76   12.21
   2   3   8  500.55    9.42
   2   3   9  137.42    5.45
   2   3   9  158.15    4.92
   2   4 -11    4.30    2.08
   2   4 -11    6.11    2.12
   2   4 -11    5.39    1.57
   2   4 -10    8.45    3.11
   2   4 -10   10.60    2.24
   2   4  -9   93.49    7.79
   2   4  -9   79.36    5.89
   2   4  -9   85.99    7.70
   2   4  -9   79.36    5.19
   2   4  -8 1483.58   25.65
   2   4  -8 1531.26   30.07
   2   4  -8 1107.69   23.64
   2   4  -8 1346.98   20.18
   2   4  -8 1120.01   23.93
   2   4  -7 1585.09   28.15
   2   4  -7 1756.09   31.72
   2   4  -7 1714.62   31.25
   2   4  -7 1543.53   21.18
   2   4  -7 1707.07   31.38
   2   4  -6  496.60   16.26
   2   4  -6  583.81   17.81
   2   4  -6  564.49   17.75
   2   4  -6  516.89   11.74
   2   4  -6  552.15   17.57
   2   4  -5  325.85   16.56
   2   4  -5  304.10   12.70
   2   4  -5  467.29   16.55
   2   4  -5  350.56   13.35
   2   4  -5  467.63   16.60
   2   4  -5  389.57    9.52
   2   4  -4  139.52    9.33
   2   4  -4  131.91    7.35
   2   4  -4  111.00    7.77
   2   4  -4  153.14    9.09
   2   4  -4  234.11   11.60
   2   4  -4  200.01    6.51
   2   4  -4  229.73   11.49
   2   4  -3  198.45   10.16
   2   4  -3  260.03   10.64
   2   4  -3  153.27    8.60
   2   4  -3  278.58    8.56
   2   4  -3  252.54   11.64
   2   4  -3  149.05    7.67
   2   4  -3  253.64   11.59
   2   4  -2 3156.83   32.83
   2   4  -2 3174.31   25.80
   2   4  -2 3020.59   37.51
   2   4  -2 3057.67   37.37
   2   4  -1 6489.01   54.50
   2   4  -1 6493.45   54.00
   2   4   0 3261.94   26.38
   2   4   0 3415.64   25.36
   2   4   0 2522.64   32.99
   2   4   0 2501.55   32.65
   2   4   1 1536.87   18.12
   2   4   1 1545.62   23.93
   2   4   2 1193.72   12.84
   2   4   2 1238.95   26.82
   2   4   2 1072.38   13.80
   2   4   2 1134.62   20.47
   2   4   2 1321.99   17.31
   2   4   2 1236.24   27.27
   2   4   3  676.28   21.66
   2   4   3  647.50   15.46
   2   4   3  596.60   11.28
   2   4   3  650.57   21.67
   2   4   3  643.27   10.14
   2   4   4 1655.73   23.75
   2   4   4 1678.88   20.45
   2   4   4 1726.30   17.25
   2   4   5 2582.80   29.03
   2   4   5 2601.89   30.12
   2   4   5 2553.06   21.60
   2   4   6 2021.69   27.09
   2   4   6 2014.69   25.10
   2   4   7 1095.76   18.73
   2   4   7 1103.98   14.24
   2   4   8  446.06   10.34
   2   4   8  483.02    8.66
   2   4   9  409.04    7.90
   2   5 -11    9.77    2.05
   2   5 -11   13.83    2.18
   2   5 -10   47.53    4.21
   2   5 -10   44.13    3.49
   2   5  -9  345.84   12.22
   2   5  -9  359.12   11.04
   2   5  -9  366.00   13.37
   2   5  -9  339.76    8.83
   2   5  -8  285.62   12.48
   2   5  -8  277.34   11.43
   2   5  -8  216.39   11.13
   2   5  -8  221.01   11.23
   2   5  -8  294.02   13.24
   2   5  -8  249.80    8.23
   2   5  -7  619.78   18.22
   2   5  -7  654.75   19.39
   2   5  -7  679.04   20.34
   2   5  -7  624.13   12.90
   2   5  -7  678.58   20.34
   2   5  -6  469.52   15.97
   2   5  -6  516.90   17.13
   2   5  -6  548.67   18.52
   2   5  -6  501.31   11.30
   2   5  -6  556.49   18.60
   2   5  -5   54.82    6.39
   2   5  -5   54.57    6.44
   2   5  -5   72.48    7.97
   2   5  -5   54.72    3.87
   2   5  -5   65.03    7.61
   2   5  -4  180.29    8.78
   2   5  -4  143.73    8.95
   2   5  -4  132.89    8.91
   2   5  -4  148.28    7.45
   2   5  -4  184.97   11.34
   2   5  -4  182.79   11.18
   2   5  -3  163.15   11.40
   2   5  -3  222.21   10.20
   2   5  -3  153.39    8.77
   2   5  -3  201.01    8.18
   2   5  -3  202.96   11.42
   2   5  -3  196.68   11.25
   2   5  -2  558.41   14.62
   2   5  -2  614.50   12.71
   2   5  -2  584.76   18.20
   2   5  -2  556.79   17.67
   2   5  -1  439.45   12.12
   2   5  -1  442.16   10.47
   2   5  -1  374.83   15.04
   2   5  -1  383.48   15.03
   2   5   0   44.72    3.79
   2   5   0   54.46    3.52
   2   5   0   46.63    6.57
   2   5   0   45.28    6.47
   2   5   1  832.00   13.26
   2   5   1  879.14   16.47
   2   5   2  608.06   12.56
   2   5   2  586.65   13.69
   2   5   3  199.48    7.84
   2   5   3  207.46    8.58
   2   5   4  657.84   14.79
   2   5   4  674.62   14.60
   2   5   5  576.49   13.60
   2   5   5  596.63   13.55
   2   5   5  625.52   14.02
   2   5   6  314.76    9.74
   2   5   6  325.95    9.67
   2   5   7  434.80   10.13
   2   5   8  993.11   12.40
   2   6 -10  679.64   11.55
   2   6 -10  701.45   11.53
   2   6  -9  570.61   12.58
   2   6  -9  573.59   12.14
   2   6  -9  550.24   12.62
   2   6  -8  259.63    9.93
   2   6  -8  307.38   11.19
   2   6  -8  285.88   11.96
   2   6  -8  225.06   10.83
   2   6  -8  224.68   10.84
   2   6  -7  262.95   10.76
   2   6  -7  273.53   11.55
   2   6  -7  275.99   12.72
   2   6  -7  272.04   13.25
   2   6  -7  276.19   13.37
   2   6  -6  635.98   16.14
   2   6  -6  661.55   18.59
   2   6  -6  696.20   19.33
   2   6  -6  746.74   22.03
   2   6  -6  731.81   21.84
   2   6  -5  970.95   22.48
   2   6  -5  956.23   22.46
   2   6  -5 1230.19   29.75
   2   6  -5 1193.62   29.29
   2   6  -4 1391.19   26.20
   2   6  -4 1289.79   24.66
   2   6  -4 1424.20   22.48
   2   6  -4 1636.82   33.51
   2   6  -4 1626.46   33.31
   2   6  -3 1055.34   21.59
   2   6  -3 1146.48   19.56
   2   6  -3 1129.18   26.78
   2   6  -3 1069.22   25.91
   2   6  -2   75.94    5.95
   2   6  -2   54.09    4.44
   2   6  -2   62.28    7.16
   2   6  -2   63.87    7.25
   2   6  -1   59.23    4.68
   2   6  -1   37.99    3.84
   2   6  -1   47.44    6.57
   2   6  -1   50.07    6.65
   2   6   0  433.84   15.98
   2   6   0  439.35   15.93
   2   6   1  565.14   10.94
   2   6   1  686.82   14.24
   2   6   2 1220.10   17.04
   2   6   2 1180.31   17.93
   2   6   3  834.70   14.97
   2   6   3  822.38   15.02
   2   6   4  124.87    6.19
   2   6   4  129.85    6.33
   2   6   5   23.03    3.10
   2   6   5   31.25    4.01
   2   6   5   26.03    3.62
   2   6   6   24.47    2.66
   2   6   7  303.70    6.74
   2   7  -9  386.71    8.33
   2   7  -8  343.61    9.53
   2   7  -8  364.11   11.02
   2   7  -8  291.05   10.56
   2   7  -8  299.61   10.69
   2   7  -7  327.70   10.90
   2   7  -7  335.49   13.45
   2   7  -7  363.07   12.49
   2   7  -7  343.37   13.63
   2   7  -6  999.74   20.91
   2   7  -6 1040.46   21.46
   2   7  -6 1135.36   25.40
   2   7  -6 1114.22   25.13
   2   7  -5 2769.37   41.45
   2   7  -5 2760.75   41.15
   2   7  -4 4162.44   52.30
   2   7  -4 4300.30   53.06
   2   7  -3 1602.52   24.64
   2   7  -3 1670.50   24.32
   2   7  -3 1841.46   34.56
   2   7  -3 1836.60   34.35
   2   7  -2  244.16    8.98
   2   7  -2  259.82    9.49
   2   7  -2  272.44   13.52
   2   7  -1  751.77   21.46
   2   7  -1  725.42   20.88
   2   7   0 1395.32   27.75
   2   7   0 1411.56   27.76
   2   7   1 1299.87   16.21
   2   7   1 1353.83   20.13
   2   7   2 1372.84   17.59
   2   7   2 1445.33   20.18
   2   7   3 1099.94   15.36
   2   7   3 1269.32   18.63
   2   7   4  273.13    7.50
   2   7   5   53.83    3.37
   2   7   6  162.54    4.87
   2   8  -8  743.28   10.66
   2   8  -7  647.03   14.65
   2   8  -7  675.09   12.10
   2   8  -7  664.73   14.96
   2   8  -6  882.61   19.13
   2   8  -6  891.78   19.24
   2   8  -5 1458.50   26.12
   2   8  -5 1471.43   26.18
   2   8  -4  854.08   21.48
   2   8  -4  852.71   21.37
   2   8  -3 1321.52   27.61
   2   8  -3 1325.22   27.56
   2   8  -2 1778.31   23.67
   2   8  -2 1706.93   30.89
   2   8  -1 1071.54   24.15
   2   8  -1  992.39   23.07
   2   8   0 1753.96   21.93
   2   8   3  918.23   11.50
   2   9  -5  100.70    6.16
   2   9  -5  101.94    6.22
   2   9  -4  140.77    7.66
   2   9  -4  135.14    7.66
   2   9  -3  986.81   18.49
   2   9  -3  998.48   18.66
   2   9  -2 1946.49   25.66
   2   9  -2 1918.63   25.54
   3 -10  -2  717.74   10.70
   3 -10  -1  349.00    7.86
   3 -10   0  100.24    4.82
   3  -9   0  577.56   12.06
   3  -9   1 1491.72   18.69
   3  -9   6  300.86    6.29
   3  -8  -6 1573.49   15.25
   3  -8  -5 1596.66   16.91
   3  -8  -4 1341.15   15.95
   3  -8   1 2638.81   26.80
   3  -8   2 1741.54   21.43
   3  -8   3  692.50   12.98
   3  -8   6  805.19   11.94
   3  -8   7 1042.00   12.03
   3  -7  -3 1231.10   17.22
   3  -7  -2 1198.34   16.37
   3  -7  -1 1741.46   18.64
   3  -7   2 1672.97   20.93
   3  -7   3 1018.59   16.08
   3  -7   4 1473.45   18.75
   3  -7   6  991.48   14.44
   3  -7   7  473.55    9.31
   3  -7   8  546.43    8.73
   3  -6  -1 1056.95   14.54
   3  -6   0  407.82   16.50
   3  -6   0  427.43    8.72
   3  -6   1  384.61   16.32
   3  -6   1  397.35    8.41
   3  -6   2 1244.48   17.06
   3  -6   2 1232.81   14.85
   3  -6   3 2327.68   23.33
   3  -6   4 2915.53   26.20
   3  -6   6  623.57   11.92
   3  -6   7  307.95    8.13
   3  -6   8  469.63    8.96
   3  -6   9 1038.93   11.52
   3  -5  -8  491.65    9.83
   3  -5  -7   14.69    2.62
   3  -5  -6    5.77    2.18
   3  -5  -5   21.70    2.68
   3  -5  -4  364.66   17.84
   3  -5  -3 1278.75   29.83
   3  -5  -2 1247.50   30.22
   3  -5  -1  612.95   10.20
   3  -5  -1  612.85   18.71
   3  -5   0   40.07    5.90
   3  -5   0   33.41    5.82
   3  -5   0   34.57    2.69
   3  -5   1   32.38    5.03
   3  -5   1   32.31    6.06
   3  -5   1   34.21    2.70
   3  -5   2  999.54   14.26
   3  -5   2  947.39   23.06
   3  -5   2  932.82   23.18
   3  -5   2  981.67   12.51
   3  -5   3 2034.24   20.47
   3  -5   3 1906.16   35.82
   3  -5   4 1822.08   20.00
   3  -5   5  676.89   13.53
   3  -5   5  656.62   12.18
   3  -5   6  407.90    9.61
   3  -5   7  511.91   10.49
   3  -5   8  196.26    6.24
   3  -5   9  444.59    8.34
   3  -5  10 1140.16   11.05
   3  -4 -10  927.95   11.88
   3  -4  -9  640.86   11.99
   3  -4  -8  848.64   15.17
   3  -4  -7  653.80   13.59
   3  -4  -6  431.21   10.68
   3  -4  -5 1364.24   17.47
   3  -4  -5 1125.42   30.65
   3  -4  -4  826.04   12.20
   3  -4  -4  709.88   21.91
   3  -4  -3  824.55   10.68
   3  -4  -3  783.32   21.65
   3  -4  -2 1229.60   24.52
   3  -4  -1  850.38   21.87
   3  -4   0  544.73   15.62
   3  -4   0  530.60    8.49
   3  -4   0  521.46   15.37
   3  -4   1  384.48   13.36
   3  -4   1  359.98    6.90
   3  -4   2  419.67    8.81
   3  -4   2  389.41   13.62
   3  -4   2  385.26   14.14
   3  -4   2  373.73    7.38
   3  -4   3  279.31    8.61
   3  -4   3  269.05    7.29
   3  -4   3  258.39   12.45
   3  -4   4   13.91    4.99
   3  -4   4   15.71    3.65
   3  -4   4   15.06    2.77
   3  -4   4    9.52    6.11
   3  -4   5  245.74    9.53
   3  -4   5  256.21    7.68
   3  -4   5  264.56    7.24
   3  -4   6  813.29   16.02
   3  -4   6  766.64   13.23
   3  -4   6  807.49   12.98
   3  -4   7  559.61   10.85
   3  -4   8  479.72    9.71
   3  -4   9   90.15    4.28
   3  -4  10  111.96    4.04
   3  -3 -11  703.00    9.61
   3  -3 -10  704.13   12.44
   3  -3  -9  507.16   12.09
   3  -3  -8 1213.16   20.06
   3  -3  -7 2641.23   29.03
   3  -3  -6 3866.79   33.29
   3  -3  -5 3082.84   27.13
   3  -3  -5 3231.89   55.29
   3  -3  -4  928.58   13.11
   3  -3  -4  884.98   24.95
   3  -3  -3  540.92   10.23
   3  -3  -3  548.90    8.80
   3  -3  -2 1648.20   26.95
   3  -3  -1 2843.58   33.41
   3  -3   0 3372.63   35.69
   3  -3   0 3547.13   37.28
   3  -3   1 4860.27   44.41
   3  -3   1 4583.48   44.53
   3  -3   2 1878.35   16.99
   3  -3   2 1851.31   28.91
   3  -3   2 1822.82   15.26
   3  -3   3   72.05    4.29
   3  -3   3   70.91    4.01
   3  -3   3   74.07    7.19
   3  -3   3   65.66    6.01
   3  -3   4  111.53    8.79
   3  -3   4  151.38    6.90
   3  -3   4  146.31    5.58
   3  -3   4  126.03   10.92
   3  -3   5 1521.94   17.76
   3  -3   5 1526.31   16.34
   3  -3   6 2013.13   25.89
   3  -3   6 1932.43   19.23
   3  -3   7  929.60   13.90
   3  -3   7 1053.94   14.36
   3  -3   8  528.28   10.47
   3  -3   9   60.93    3.71
   3  -3  10   32.30    2.57
   3  -2 -11  339.78    7.67
   3  -2 -10  504.01   11.48
   3  -2  -9  676.57   15.12
   3  -2  -8  962.21   18.38
   3  -2  -7 3310.63   30.25
   3  -2  -7 3263.20   30.09
   3  -2  -7 3236.69   28.77
   3  -2  -6 3062.81   27.38
   3  -2  -6 3139.07   28.00
   3  -2  -6 3046.31   26.85
   3  -2  -5 2558.11   23.21
   3  -2  -5 2854.62   49.77
   3  -2  -5 2718.04   25.41
   3  -2  -5 2460.93   23.12
   3  -2  -4 1465.89   16.61
   3  -2  -4 1394.08   31.15
   3  -2  -3  532.74   12.58
   3  -2  -3  526.49   16.88
   3  -2  -2 3800.68   28.70
   3  -2  -2 3089.39   32.34
   3  -2  -1 5457.62   42.67
   3  -2   0 6095.61   45.92
   3  -2   0 5885.91   32.17
   3  -2   1 6043.19   36.10
   3  -2   1 5953.50   45.73
   3  -2   2 1805.10   25.16
   3  -2   2 1849.06   27.93
   3  -2   3 2039.37   17.97
   3  -2   3 2083.87   33.37
   3  -2   4 1770.94   21.33
   3  -2   4 1622.78   17.19
   3  -2   4 1566.86   33.30
   3  -2   4 1527.23   17.33
   3  -2   4 1529.57   29.22
   3  -2   4 1680.59   15.18
   3  -2   5 1597.71   24.27
   3  -2   5 1531.49   17.80
   3  -2   5 1559.74   15.77
   3  -2   5 1555.23   32.69
   3  -2   6 2683.34   24.04
   3  -2   6 2711.84   21.59
   3  -2   7 1431.23   22.71
   3  -2   7 1400.82   17.34
   3  -2   8  743.94   12.07
   3  -2   8  902.83   13.43
   3  -2   9  766.18   11.68
   3  -2  10  447.47    7.86
   3  -1 -12  353.87    6.21
   3  -1 -11  186.36    6.18
   3  -1 -10  259.35    8.64
   3  -1  -9  751.98   15.32
   3  -1  -9  839.36   16.94
   3  -1  -9  703.57   15.00
   3  -1  -9  784.33   14.82
   3  -1  -8  939.74   18.36
   3  -1  -8  961.29   18.94
   3  -1  -8  934.85   18.42
   3  -1  -8  917.39   16.29
   3  -1  -7  848.83   17.41
   3  -1  -7  839.90   17.66
   3  -1  -6 1470.42   21.59
   3  -1  -6 1453.87   21.89
   3  -1  -5 2144.44   42.66
   3  -1  -5 2240.81   24.71
   3  -1  -5 2169.73   21.00
   3  -1  -4 4397.31   53.47
   3  -1  -4 4320.37   27.59
   3  -1  -3 4347.98   39.56
   3  -1  -3 4309.93   47.19
   3  -1  -2 1470.62   19.56
   3  -1  -2 1495.28   23.46
   3  -1  -1 3427.77   29.30
   3  -1  -1 3433.72   32.22
   3  -1   0 2624.25   29.31
   3  -1   0 2875.02   30.92
   3  -1   1  609.02   13.56
   3  -1   1  605.67   15.24
   3  -1   2 2496.83   27.74
   3  -1   2 1904.29   28.16
   3  -1   3 5214.27   31.02
   3  -1   3 5279.16   28.98
   3  -1   3 5171.41   27.87
   3  -1   3 5234.42   46.76
   3  -1   4 3587.66   30.63
   3  -1   4 3634.04   25.73
   3  -1   4 3434.21   31.08
   3  -1   4 3455.72   49.07
   3  -1   4 3387.44   25.97
   3  -1   4 3630.76   20.86
   3  -1   4 3333.32   40.50
   3  -1   5 1027.95   19.81
   3  -1   5  960.45   24.32
   3  -1   5 1030.57   14.57
   3  -1   5 1005.41   18.32
   3  -1   5  991.30   15.67
   3  -1   5 1054.44   12.85
   3  -1   6  962.21   18.94
   3  -1   6  927.60   14.28
   3  -1   6  975.83   16.57
   3  -1   6 1011.68   13.49
   3  -1   7 1476.27   23.27
   3  -1   7 1437.73   18.01
   3  -1   8 1373.93   16.53
   3  -1   8 1424.32   16.62
   3  -1   9 2320.77   19.98
   3  -1  10 2005.15   15.94
   3   0 -12   96.32    3.43
   3   0 -11  392.03    8.82
   3   0 -10  453.73   11.95
   3   0 -10  491.98   11.60
   3   0 -10  460.55   12.30
   3   0 -10  506.90   11.60
   3   0  -9  845.60   18.45
   3   0  -9  846.93   18.76
   3   0  -9  841.65   16.21
   3   0  -8  127.86    7.89
   3   0  -8  131.20    6.95
   3   0  -8  118.20    6.68
   3   0  -7   32.47    4.58
   3   0  -7   36.86    4.02
   3   0  -7   35.77    4.01
   3   0  -6   10.97    3.21
   3   0  -6   22.78    3.17
   3   0  -6   22.34    3.08
   3   0  -6    7.55    6.77
   3   0  -5  662.01   11.95
   3   0  -5  689.88   12.43
   3   0  -4 2788.97   42.53
   3   0  -4 2761.01   21.20
   3   0  -4 2820.69   40.38
   3   0  -3 1822.65   27.18
   3   0  -3 1890.30   30.67
   3   0  -2  596.05   13.48
   3   0  -2  630.33   14.80
   3   0  -1  367.05   10.46
   3   0  -1  367.35    9.69
   3   0   0  208.30    8.78
   3   0   0  186.49    6.73
   3   0   1 1340.56   17.87
   3   0   1 1289.64   21.62
   3   0   2 2577.09   34.81
   3   0   2 2617.14   28.20
   3   0   3 4549.68   29.47
   3   0   3 4276.12   26.08
   3   0   3 4214.37   26.42
   3   0   3 4491.48   33.20
   3   0   3 4065.56   49.40
   3   0   3 4620.47   42.19
   3   0   4 3793.93   32.78
   3   0   4 3727.76   41.99
   3   0   4 3615.77   25.86
   3   0   4 3718.56   34.14
   3   0   4 3561.43   26.71
   3   0   4 3733.05   21.59
   3   0   5  389.28   12.75
   3   0   5  431.30    9.67
   3   0   5  424.94   15.54
   3   0   5  414.57   12.57
   3   0   5  417.26   10.42
   3   0   6  118.99    7.06
   3   0   6  131.36    5.92
   3   0   6  139.54    7.19
   3   0   6  115.12    6.23
   3   0   6  141.38    5.36
   3   0   7  575.79   11.57
   3   0   7  589.15   12.71
   3   0   8 1223.71   16.74
   3   0   8 1233.69   15.29
   3   0   9 1543.62   15.76
   3   0  10  918.03   10.46
   3   1 -11  745.95   13.01
   3   1 -11  765.92   11.31
   3   1 -11  740.49   13.11
   3   1 -10  848.43   17.74
   3   1 -10  852.33   14.34
   3   1 -10  864.66   18.08
   3   1 -10  861.39   15.50
   3   1  -9  510.46   15.58
   3   1  -9  529.30   12.50
   3   1  -9  534.65   13.41
   3   1  -8  149.26    9.28
   3   1  -8  172.06    7.40
   3   1  -8  146.99    7.66
   3   1  -7   72.65    6.86
   3   1  -7   96.71    5.45
   3   1  -7   81.18    7.40
   3   1  -7   57.83    4.76
   3   1  -6   23.93    4.64
   3   1  -6   36.05    3.75
   3   1  -6   31.45    3.21
   3   1  -6   15.55    7.85
   3   1  -6   30.63    5.03
   3   1  -6   20.02    3.03
   3   1  -5  817.28   18.33
   3   1  -5  862.45   12.81
   3   1  -5  812.52   18.44
   3   1  -5  859.31   18.58
   3   1  -5  860.18   18.74
   3   1  -5  826.74   25.57
   3   1  -4  582.20   18.67
   3   1  -4  649.59   14.13
   3   1  -4  571.02   11.79
   3   1  -4  590.72   19.93
   3   1  -4  627.64   15.17
   3   1  -4  563.31   14.76
   3   1  -4  621.66   10.78
   3   1  -4  534.72   14.49
   3   1  -3  737.67   17.61
   3   1  -3  903.20   20.17
   3   1  -2  318.82   10.73
   3   1  -2  286.72    8.82
   3   1  -2  306.39    9.57
   3   1  -1   97.93    6.09
   3   1  -1   88.56    4.38
   3   1   0  106.55    4.56
   3   1   0  103.01    6.00
   3   1   1  113.87    4.97
   3   1   1  127.06    7.75
   3   1   2 1045.08   12.74
   3   1   2 1032.86   16.03
   3   1   2  990.22   23.35
   3   1   2  981.53   14.17
   3   1   2 1052.93   16.60
   3   1   2  984.54   14.27
   3   1   2  976.99   11.90
   3   1   3  543.12   11.03
   3   1   3  502.67   12.72
   3   1   3  493.18    9.28
   3   1   3  530.11   13.15
   3   1   3  486.90   12.68
   3   1   3  493.99    9.37
   3   1   3  479.30   12.64
   3   1   4  472.96   12.71
   3   1   4  457.16    9.65
   3   1   4  450.95   13.18
   3   1   4  416.38   14.66
   3   1   4  436.33   12.79
   3   1   4  425.81    9.67
   3   1   4  419.93   14.64
   3   1   4  485.54    8.23
   3   1   5  445.68   13.82
   3   1   5  495.54   10.57
   3   1   5  497.80   14.33
   3   1   5  452.99   11.16
   3   1   6  120.97    6.78
   3   1   6  131.65    5.97
   3   1   6  134.37    7.35
   3   1   6  131.18    6.76
   3   1   6  138.21    5.25
   3   1   7  601.09   11.67
   3   1   7  633.20   10.98
   3   1   8  550.70   11.62
   3   1   8  564.85   10.17
   3   1   9  183.44    5.40
   3   1  10  311.27    6.74
   3   2 -11  666.30   12.73
   3   2 -11  682.97    9.71
   3   2 -11  650.05   12.70
   3   2 -10  771.10   17.31
   3   2 -10  728.78   11.83
   3   2 -10  771.23   17.51
   3   2 -10  776.60   14.59
   3   2  -9 1269.76   25.02
   3   2  -9 1191.41   16.80
   3   2  -9 1243.74   20.25
   3   2  -8 1699.84   30.82
   3   2  -8 1723.00   23.26
   3   2  -8 1709.46   20.42
   3   2  -7 1541.68   29.66
   3   2  -7 1824.99   25.26
   3   2  -7 1986.06   21.19
   3   2  -7 1933.74   32.94
   3   2  -7 1595.28   23.06
   3   2  -6 1882.10   44.31
   3   2  -6 1477.85   31.00
   3   2  -6  885.69   21.56
   3   2  -6 1059.81   36.05
   3   2  -6 1622.85   25.28
   3   2  -6 1826.63   18.93
   3   2  -6 1471.55   30.79
   3   2  -6 1828.01   30.94
   3   2  -6 1397.26   20.36
   3   2  -5 1428.58   33.45
   3   2  -5 1175.66   22.74
   3   2  -5 1616.40   28.00
   3   2  -5 1042.05   19.83
   3   2  -5 1123.68   31.86
   3   2  -5 1371.44   14.77
   3   2  -5 1210.19   24.15
   3   2  -5 1334.20   18.23
   3   2  -5 1550.44   27.50
   3   2  -4  656.07   19.54
   3   2  -4  779.03   16.57
   3   2  -4  632.15   14.84
   3   2  -4  713.95   20.94
   3   2  -4  684.24   16.76
   3   2  -4  717.01   18.78
   3   2  -4  777.31   12.45
   3   2  -4  704.18   18.68
   3   2  -3  327.74    9.36
   3   2  -3  308.96    9.55
   3   2  -3  280.15    8.17
   3   2  -3  317.27   11.53
   3   2  -3  303.74   11.46
   3   2  -3  301.52    7.16
   3   2  -3  308.64   11.55
   3   2  -2 1189.54   22.36
   3   2  -2 1200.00   15.71
   3   2  -1 2405.64   31.06
   3   2  -1 2373.73   16.33
   3   2   0  739.57   16.91
   3   2   1  253.08    8.72
   3   2   1  234.70   11.37
   3   2   2   79.33    4.00
   3   2   2   82.39    6.03
   3   2   2   82.35    3.91
   3   2   2   88.14    5.57
   3   2   2   89.28    5.58
   3   2   3   29.13    2.81
   3   2   3   26.38    3.57
   3   2   3   29.09    2.97
   3   2   3   23.38    4.55
   3   2   4  173.85    8.23
   3   2   4  178.31    6.44
   3   2   4  168.70    9.44
   3   2   4  175.92    6.61
   3   2   4  198.47    5.53
   3   2   5  850.04   13.94
   3   2   5  847.99   18.33
   3   2   5  853.56   15.46
   3   2   5  870.38   11.89
   3   2   6 1195.76   16.60
   3   2   6 1234.63   20.62
   3   2   6 1188.89   19.18
   3   2   6 1234.55   14.61
   3   2   7  540.84   12.67
   3   2   7  553.09    9.99
   3   2   8   27.02    3.44
   3   2   8   24.94    2.71
   3   2   9   10.07    2.19
   3   2   9    9.37    2.11
   3   3 -11  323.32    8.75
   3   3 -11  326.03    8.69
   3   3 -10  525.10   14.02
   3   3 -10  535.82   14.32
   3   3 -10  573.71   12.02
   3   3  -9  836.15   19.96
   3   3  -9  819.21   15.80
   3   3  -8 3141.19   34.18
   3   3  -8 3224.81   32.13
   3   3  -7 4202.35   49.29
   3   3  -7 4245.84   42.76
   3   3  -7 4237.45   36.69
   3   3  -6 1426.71   27.56
   3   3  -6 1546.40   27.52
   3   3  -6 1742.35   31.23
   3   3  -6 2109.43   36.05
   3   3  -6 1775.64   22.48
   3   3  -6 2020.78   35.45
   3   3  -5 1091.86   29.05
   3   3  -5 1185.42   23.49
   3   3  -5  877.72   21.56
   3   3  -5 1071.71   26.84
   3   3  -5 1269.82   17.62
   3   3  -5 1057.67   26.46
   3   3  -4  939.80   24.22
   3   3  -4 1097.00   19.53
   3   3  -4  818.49   18.63
   3   3  -4  735.72   18.74
   3   3  -4  961.81   23.26
   3   3  -4 1083.47   14.90
   3   3  -4  945.78   23.19
   3   3  -3 1689.05   21.29
   3   3  -3 1403.64   27.72
   3   3  -3 1637.48   24.38
   3   3  -3 1697.29   21.37
   3   3  -3 1525.13   24.57
   3   3  -3 1360.53   27.75
   3   3  -3 1350.83   27.43
   3   3  -2 3759.65   44.43
   3   3  -2 4075.76   33.74
   3   3  -2 3293.66   39.71
   3   3  -2 3270.34   39.42
   3   3  -1 5678.38   36.68
   3   3  -1 5356.51   36.68
   3   3  -1 4260.07   43.41
   3   3  -1 4242.49   43.07
   3   3   0 6064.89   35.33
   3   3   0 6386.01   43.39
   3   3   1 2148.20   27.31
   3   3   1 2100.06   17.60
   3   3   2  543.94   15.17
   3   3   2  548.45    9.87
   3   3   2  513.74    9.82
   3   3   3  673.04   17.71
   3   3   3  666.49   11.51
   3   3   3  685.82   12.21
   3   3   4  981.11   20.52
   3   3   4  949.71   14.37
   3   3   4  974.86   15.58
   3   3   4 1008.58   12.61
   3   3   5 2223.69   19.53
   3   3   5 2176.29   24.78
   3   3   6 1315.03   20.53
   3   3   6 1298.08   15.17
   3   3   7  285.61    8.99
   3   3   7  297.48    7.34
   3   3   8  171.21    6.73
   3   3   8  177.16    5.57
   3   3   9   30.86    2.50
   3   4 -11  269.05    7.14
   3   4 -11  257.37    7.09
   3   4 -10  232.27    8.73
   3   4 -10  230.39    8.88
   3   4  -9  601.65   15.84
   3   4  -9  571.74   13.08
   3   4  -9  604.60   12.58
   3   4  -8 1763.41   29.43
   3   4  -8 1719.67   25.90
   3   4  -8 1702.63   21.95
   3   4  -7 2433.10   34.76
   3   4  -7 2570.04   36.08
   3   4  -7 2868.04   41.33
   3   4  -7 2661.71   40.10
   3   4  -7 2452.12   26.31
   3   4  -7 2758.71   41.10
   3   4  -6 1543.16   27.45
   3   4  -6 1401.96   27.57
   3   4  -6 1517.09   29.71
   3   4  -6 1923.20   35.86
   3   4  -6 1526.94   19.94
   3   4  -6 1810.47   35.04
   3   4  -5  968.81   20.13
   3   4  -5  628.49   18.23
   3   4  -5  720.97   20.38
   3   4  -5 1027.11   26.46
   3   4  -5  946.28   15.22
   3   4  -5 1028.12   26.55
   3   4  -4 2474.70   28.58
   3   4  -4 2501.43   39.26
   3   4  -4 2462.63   38.68
   3   4  -3 3035.84   27.68
   3   4  -3 3113.80   47.28
   3   4  -3 3293.71   37.08
   3   4  -3 3137.27   28.15
   3   4  -3 2899.54   42.44
   3   4  -3 2925.07   42.26
   3   4  -2 2159.13   36.79
   3   4  -2 2382.72   27.74
   3   4  -2 1563.32   31.01
   3   4  -2 1603.39   31.09
   3   4  -1 1671.20   30.03
   3   4  -1 1710.82   30.15
   3   4   0 3585.78   28.77
   3   4   0 3552.94   37.18
   3   4   1 2954.99   26.20
   3   4   1 3149.34   35.79
   3   4   2 1671.23   18.90
   3   4   2 1710.69   27.18
   3   4   3 1672.79   26.10
   3   4   3 1592.83   19.23
   3   4   4 2441.34   20.47
   3   4   4 2347.94   29.83
   3   4   5 1507.04   22.15
   3   4   5 1533.39   16.55
   3   4   6 1028.68   13.52
   3   4   6 1008.79   16.82
   3   4   7  895.37   15.05
   3   4   7  972.60   14.78
   3   4   8 1360.31   14.91
   3   5 -10  467.24   10.19
   3   5 -10  458.88   10.18
   3   5  -9  476.94   11.36
   3   5  -9  500.30   12.68
   3   5  -9  499.64   12.82
   3   5  -8  182.71    8.75
   3   5  -8  186.32    8.60
   3   5  -8  174.75    8.67
   3   5  -8  193.27   10.37
   3   5  -7  343.67   12.10
   3   5  -7  396.14   13.85
   3   5  -7  385.98   15.31
   3   5  -7  390.83   16.66
   3   5  -7  395.21   16.69
   3   5  -6  674.82   16.65
   3   5  -6  699.47   19.41
   3   5  -6  651.79   16.35
   3   5  -6  690.22   20.18
   3   5  -6  791.02   23.30
   3   5  -6  773.64   23.23
   3   5  -5 1469.67   22.74
   3   5  -5 1253.13   25.80
   3   5  -5 1391.36   22.30
   3   5  -5 1289.15   26.54
   3   5  -5 1708.08   33.56
   3   5  -5 1664.49   33.15
   3   5  -4 1819.12   30.14
   3   5  -4 1772.73   28.89
   3   5  -4 2159.49   37.51
   3   5  -4 2202.40   37.68
   3   5  -3 1433.42   31.29
   3   5  -3 1437.02   31.24
   3   5  -2  469.27   18.17
   3   5  -2  486.08   18.46
   3   5  -1  101.19    5.75
   3   5  -1   82.27    8.76
   3   5  -1   78.49    8.55
   3   5   0  739.37   13.79
   3   5   1 2568.13   23.29
   3   5   1 2637.90   31.16
   3   5   2 2742.97   26.13
   3   5   2 2653.96   30.23
   3   5   3 2450.80   25.90
   3   5   3 2458.60   28.38
   3   5   4 1101.27   17.73
   3   5   4 1081.02   18.00
   3   5   5  338.61    9.91
   3   5   5  342.24    9.75
   3   5   6  515.45   10.82
   3   5   6  530.21   11.00
   3   5   7  973.32   12.71
   3   6  -9   68.04    4.06
   3   6  -9   72.05    4.11
   3   6  -9   66.77    4.06
   3   6  -8   20.55    3.15
   3   6  -8   18.15    3.12
   3   6  -8   19.18    3.11
   3   6  -7   33.14    3.87
   3   6  -7   35.32    4.30
   3   6  -7   36.05    4.00
   3   6  -7   34.43    5.27
   3   6  -7   34.52    5.85
   3   6  -7   31.52    5.76
   3   6  -6  319.95    9.80
   3   6  -6  321.42   11.94
   3   6  -6  327.24   13.09
   3   6  -6  434.59   17.06
   3   6  -6  424.64   16.88
   3   6  -5 1176.26   27.75
   3   6  -5 1220.41   28.36
   3   6  -4 1185.65   28.34
   3   6  -4 1177.28   28.14
   3   6  -3  651.86   21.26
   3   6  -3  660.38   21.29
   3   6  -2   64.07    5.09
   3   6  -2   69.88    8.51
   3   6  -2   73.85    8.54
   3   6  -1  133.83    6.45
   3   6  -1  125.63   10.27
   3   6  -1  126.23   10.17
   3   6   2 1756.53   19.14
   3   6   2 1673.64   20.64
   3   6   3  713.25   12.71
   3   6   3  701.76   13.36
   3   6   4  325.52    8.48
   3   6   4  330.66    8.95
   3   6   5   73.24    3.98
   3   6   5   84.99    4.90
   3   6   6  176.81    5.17
   3   7  -8  187.33    6.26
   3   7  -7  278.00    8.67
   3   7  -7  253.11   10.36
   3   7  -7  256.61   10.51
   3   7  -6  310.27   13.05
   3   7  -6  305.79   12.99
   3   7  -5  306.18   10.33
   3   7  -5  341.59   14.85
   3   7  -5  335.19   14.73
   3   7  -4  393.09   15.47
   3   7  -4  412.91   15.85
   3   7  -3  179.05    7.53
   3   7  -3  202.81   11.53
   3   7  -3  198.48   11.40
   3   7  -2  286.66    9.04
   3   7  -2  274.32   13.21
   3   7  -2  276.40   13.25
   3   7   3  155.52    5.45
   3   7   4  359.52    7.54
   3   8  -7  891.19   11.96
   3   8  -6  445.56    9.38
   3   8  -6  434.93   12.39
   3   8  -6  448.59   12.65
   3   8  -5  131.21    5.53
   3   8  -5  130.28    7.83
   3   8  -5  133.79    7.98
   3   8  -4  115.97    5.38
   3   8  -4  108.47    7.82
   3   8  -4  112.53    8.02
   3   8  -3  868.03   13.36
   3   8  -3  844.67   19.67
   3   8  -3  838.33   19.58
   4 -10  -2  251.52    6.66
   4 -10  -1  404.97    8.42
   4 -10   0  624.64   10.22
   4  -9  -5  863.91   11.97
   4  -9  -3    9.01    2.97
   4  -9  -2   12.30    3.27
   4  -9  -1   24.05    3.72
   4  -9   0  598.92   12.58
   4  -9   1  865.37   14.50
   4  -9   2  542.66   11.09
   4  -9   5   85.92    3.97
   4  -8  -6  941.61   12.00
   4  -8  -5  728.01   11.60
   4  -8  -4  441.90    9.63
   4  -8  -3  300.72    8.19
   4  -8  -2  199.60    6.79
   4  -8  -1  368.18    9.01
   4  -8   0  782.59   15.77
   4  -8   1  595.27   13.55
   4  -8   2  257.34    8.75
   4  -8   3  369.93    9.95
   4  -8   5   49.92    3.77
   4  -8   6  129.82    4.88
   4  -7  -8  799.18   10.89
   4  -7  -7  887.62   13.06
   4  -7  -6  482.14   10.75
   4  -7  -5  889.41   15.26
   4  -7  -4 1645.73   21.24
   4  -7  -3 1790.32   21.65
   4  -7  -2 2717.64   25.79
   4  -7  -1 1478.81   18.52
   4  -7   0  341.30   10.77
   4  -7   0  327.71    8.71
   4  -7   1  394.61   11.37
   4  -7   1  347.67    9.03
   4  -7   2  656.29   14.08
   4  -7   3 1585.99   21.13
   4  -7   4 1703.62   20.83
   4  -7   5  686.04   12.02
   4  -7   6  333.14    8.08
   4  -7   7   67.05    3.63
   4  -6  -3 2437.97   25.49
   4  -6  -2 3744.47   30.76
   4  -6  -1 2081.67   21.44
   4  -6   0  222.79    7.01
   4  -6   1  650.16   13.83
   4  -6   1  647.58   11.69
   4  -6   2 3072.87   29.46
   4  -6   2 2765.82   24.86
   4  -6   3 2585.78   26.61
   4  -6   4 2595.09   26.40
   4  -6   5 2085.67   22.41
   4  -6   5 2068.14   20.96
   4  -6   6  748.97   12.48
   4  -6   7  549.67    9.91
   4  -6   8  373.68    7.37
   4  -5  -9  819.18   10.79
   4  -5  -8  308.42    7.80
   4  -5  -7  347.83    8.94
   4  -5  -6  519.91   10.82
   4  -5  -5  600.45   11.18
   4  -5  -4 1525.44   16.62
   4  -5  -3 1411.01   15.21
   4  -5  -2 1425.18   17.89
   4  -5  -2 1565.75   36.56
   4  -5  -1 1976.49   38.31
   4  -5  -1 1910.94   19.63
   4  -5  -1 2014.88   38.00
   4  -5   0 1676.72   34.71
   4  -5   0 1751.10   36.36
   4  -5   1 1396.81   30.21
   4  -5   1 1571.74   19.96
   4  -5   1 1669.79   36.46
   4  -5   1 1501.72   16.93
   4  -5   2 1667.05   20.61
   4  -5   2 1597.66   17.83
   4  -5   3 1170.74   17.46
   4  -5   4  865.53   18.04
   4  -5   4  903.26   15.35
   4  -5   5 1059.35   18.20
   4  -5   5 1072.67   16.54
   4  -5   5 1110.49   15.38
   4  -5   6 1288.79   17.42
   4  -5   6 1435.36   17.09
   4  -5   7 1771.06   17.90
   4  -5   8 1291.63   14.28
   4  -5   9  557.01    8.40
   4  -4 -10   38.04    2.73
   4  -4  -9   10.40    2.21
   4  -4  -8  261.06    8.19
   4  -4  -7  773.96   14.32
   4  -4  -6  828.62   14.39
   4  -4  -5  512.79   10.71
   4  -4  -4  387.15    8.75
   4  -4  -4  414.37   19.71
   4  -4  -4  394.36   10.49
   4  -4  -3  209.19    6.41
   4  -4  -3  211.82    5.94
   4  -4  -3  213.49    6.48
   4  -4  -3  217.43    7.06
   4  -4  -2    9.15    1.97
   4  -4  -2   12.58    1.84
   4  -4  -2   10.79    4.61
   4  -4  -2   15.04    2.58
   4  -4  -1 1104.03   14.03
   4  -4  -1 1188.54   27.14
   4  -4  -1 1149.49   12.31
   4  -4  -1 1220.04   15.00
   4  -4  -1 1143.03   14.46
   4  -4   0 4456.40   53.49
   4  -4   0 4284.15   30.02
   4  -4   0 3939.35   22.99
   4  -4   0 4085.10   26.03
   4  -4   0 4211.73   49.82
   4  -4   0 3911.01   26.46
   4  -4   1 1074.14   24.82
   4  -4   1 1132.91   15.88
   4  -4   1 1100.40   13.71
   4  -4   1 1095.11   14.66
   4  -4   2  327.51    8.60
   4  -4   2  341.90   14.44
   4  -4   2  341.34    9.05
   4  -4   2  324.00   15.28
   4  -4   2  336.97    8.01
   4  -4   3  379.40   10.32
   4  -4   3  411.87   10.16
   4  -4   3  330.13   17.57
   4  -4   3  355.52   16.38
   4  -4   4  148.17    8.01
   4  -4   4  164.63    6.02
   4  -4   4  161.18    6.85
   4  -4   5  938.33   19.31
   4  -4   5  926.99   15.39
   4  -4   5  984.03   14.11
   4  -4   6 1625.10   23.03
   4  -4   6 1597.30   19.75
   4  -4   6 1665.00   18.07
   4  -4   7 1744.17   18.80
   4  -4   7 1912.72   18.71
   4  -4   8 1311.82   15.06
   4  -4   9  132.52    4.59
   4  -3 -11  402.15    7.00
   4  -3 -10   31.61    2.91
   4  -3  -9  115.08    5.74
   4  -3  -8  481.62   12.20
   4  -3  -7  814.72   15.79
   4  -3  -6 1104.25   16.65
   4  -3  -6 1072.79   17.16
   4  -3  -6 1122.58   16.77
   4  -3  -5  550.88   11.33
   4  -3  -5  551.65   11.35
   4  -3  -5  566.32   24.03
   4  -3  -5  541.19   11.41
   4  -3  -4   58.97    3.91
   4  -3  -4   62.48    3.69
   4  -3  -4   55.85    7.34
   4  -3  -4   60.06    3.96
   4  -3  -3   38.87    3.07
   4  -3  -3   41.41    2.83
   4  -3  -3   40.04    3.15
   4  -3  -3   46.73    3.69
   4  -3  -2   86.20    4.11
   4  -3  -2   87.59    3.65
   4  -3  -2   82.22    3.96
   4  -3  -2   94.12    7.60
   4  -3  -2   94.14    4.47
   4  -3  -1 1152.92   13.91
   4  -3  -1 1273.51   25.79
   4  -3  -1 1190.25   14.81
   4  -3  -1 1165.85   12.19
   4  -3  -1 1252.90   14.11
   4  -3  -1 1133.02   13.75
   4  -3  -1 1292.06   27.58
   4  -3  -1 1160.68   14.10
   4  -3   0 2037.69   18.38
   4  -3   0 2240.73   35.51
   4  -3   0 2141.53   20.04
   4  -3   0 2058.66   15.89
   4  -3   0 2174.25   17.91
   4  -3   0 2173.09   32.70
   4  -3   0 2062.67   18.50
   4  -3   1 1222.72   24.62
   4  -3   1 1200.22   15.25
   4  -3   1 1175.62   13.63
   4  -3   1 1154.38   14.56
   4  -3   2  252.35    7.35
   4  -3   2  251.38   11.57
   4  -3   2  262.53    7.68
   4  -3   2  259.89   13.13
   4  -3   2  255.51    6.93
   4  -3   3  194.98    7.18
   4  -3   3  198.08    6.88
   4  -3   3  175.47   12.34
   4  -3   3  171.85   10.89
   4  -3   3  186.91    6.29
   4  -3   4  267.60    9.39
   4  -3   4  252.53    7.96
   4  -3   4  256.90    7.97
   4  -3   4  253.82    6.98
   4  -3   5  355.34   12.67
   4  -3   5  374.49   10.00
   4  -3   6  819.17   17.70
   4  -3   6  848.24   12.54
   4  -3   7  405.49   12.05
   4  -3   7  403.84    9.59
   4  -3   8  338.06    7.87
   4  -3   8  430.91    8.76
   4  -3   9  288.05    6.60
   4  -2 -11  422.53    7.92
   4  -2 -10  632.00   11.80
   4  -2  -9 1011.33   17.14
   4  -2  -8 1272.98   19.28
   4  -2  -8 1288.06   19.52
   4  -2  -7  892.47   16.45
   4  -2  -7  891.31   16.50
   4  -2  -6 1386.19   19.82
   4  -2  -6 1356.75   19.79
   4  -2  -5 2801.83   41.12
   4  -2  -5 2806.70   26.57
   4  -2  -5 2783.14   25.47
   4  -2  -5 2817.06   26.60
   4  -2  -4 1301.59   17.18
   4  -2  -4 1354.20   15.80
   4  -2  -4 1317.12   31.12
   4  -2  -4 1326.31   17.32
   4  -2  -3 2101.12   20.52
   4  -2  -3 1991.16   17.54
   4  -2  -3 1930.61   32.79
   4  -2  -3 2034.72   20.13
   4  -2  -2 2526.55   20.83
   4  -2  -2 2510.26   17.94
   4  -2  -2 2669.84   19.96
   4  -2  -2 2594.83   36.41
   4  -2  -2 2462.53   20.82
   4  -2  -2 2705.57   22.53
   4  -2  -1  577.54    9.74
   4  -2  -1  572.34   16.43
   4  -2  -1  571.94    8.41
   4  -2  -1  572.26    8.87
   4  -2  -1  556.75    9.51
   4  -2  -1  607.68   17.61
   4  -2  -1  578.98    9.96
   4  -2   0  663.00   10.36
   4  -2   0  643.05   10.43
   4  -2   0  640.48    8.75
   4  -2   0  658.89    9.44
   4  -2   0  642.68   10.16
   4  -2   0  650.88   17.23
   4  -2   0  643.61   10.57
   4  -2   1  668.11   17.33
   4  -2   1  661.44   10.42
   4  -2   1  686.07   19.52
   4  -2   1  668.69   11.05
   4  -2   1  638.59    9.69
   4  -2   1  670.66   10.92
   4  -2   2  551.77   10.68
   4  -2   2  491.69   15.03
   4  -2   2  497.89    9.94
   4  -2   2  471.45   16.80
   4  -2   2  550.07    9.36
   4  -2   2  512.12    9.50
   4  -2   3 1625.87   19.30
   4  -2   3 1608.46   18.43
   4  -2   3 1543.50   33.38
   4  -2   3 1523.57   19.76
   4  -2   3 1463.80   29.39
   4  -2   3 1563.80   17.25
   4  -2   4  846.43   14.17
   4  -2   4  865.29   16.32
   4  -2   4  849.89   14.20
   4  -2   4  837.28   16.67
   4  -2   4  783.22   27.14
   4  -2   4  797.43   23.77
   4  -2   5  157.17    8.66
   4  -2   5  159.11    6.73
   4  -2   5  168.90    7.09
   4  -2   5  174.55    5.76
   4  -2   6   94.71    7.00
   4  -2   6   89.44    5.40
   4  -2   6  110.85    4.98
   4  -2   7  107.81    6.94
   4  -2   7  103.20    5.30
   4  -2   7  121.32    5.12
   4  -2   8  378.87    8.59
   4  -2   8  478.11    9.22
   4  -2   9  679.69    9.80
   4  -1 -11 1133.78   13.41
   4  -1 -10 1616.08   19.50
   4  -1 -10 1634.46   19.80
   4  -1  -9 1785.99   23.69
   4  -1  -9 1799.79   23.08
   4  -1  -9 1757.35   23.53
   4  -1  -8 1132.56   20.20
   4  -1  -8 1179.53   20.72
   4  -1  -7  761.86   16.39
   4  -1  -7  787.37   16.84
   4  -1  -6  651.16   25.28
   4  -1  -6  781.24   15.99
   4  -1  -6  636.81   13.30
   4  -1  -6  814.43   16.47
   4  -1  -5 2252.76   40.02
   4  -1  -5 2188.40   22.01
   4  -1  -5 2262.75   25.69
   4  -1  -4 7034.08   60.69
   4  -1  -4 6858.83   40.91
   4  -1  -4 6447.57   35.51
   4  -1  -4 6555.93   33.70
   4  -1  -4 7147.27   73.06
   4  -1  -4 6832.78   41.19
   4  -1  -3 5345.85   33.17
   4  -1  -3 5198.73   30.76
   4  -1  -3 5312.65   27.58
   4  -1  -3 5147.87   51.91
   4  -1  -3 5236.17   33.02
   4  -1  -2 2549.27   21.63
   4  -1  -2 2472.13   20.90
   4  -1  -2 2493.38   17.72
   4  -1  -2 2472.80   34.08
   4  -1  -2 2642.27   22.05
   4  -1  -2 2662.74   22.46
   4  -1  -1 1530.73   15.63
   4  -1  -1 1580.69   27.15
   4  -1  -1 1646.46   17.36
   4  -1  -1 1437.99   15.30
   4  -1  -1 1559.68   25.80
   4  -1  -1 1481.54   15.95
   4  -1   0  869.70   11.71
   4  -1   0  959.42   13.27
   4  -1   0  952.33   22.47
   4  -1   0  837.34   10.02
   4  -1   0  857.82   11.52
   4  -1   0  914.51   19.01
   4  -1   0  880.81   12.16
   4  -1   1 1851.96   26.59
   4  -1   1 1816.52   16.89
   4  -1   1 1764.71   30.21
   4  -1   1 1808.05   17.46
   4  -1   1 1758.71   16.26
   4  -1   1 1840.76   18.02
   4  -1   2 3269.21   25.44
   4  -1   2 3612.99   24.18
   4  -1   2 3425.93   25.10
   4  -1   2 3233.38   43.54
   4  -1   2 3361.44   37.39
   4  -1   2 3545.89   29.34
   4  -1   3 4621.39   31.08
   4  -1   3 4515.01   58.53
   4  -1   3 4657.82   36.10
   4  -1   3 4839.70   50.39
   4  -1   3 4788.90   30.45
   4  -1   4 3727.26   34.05
   4  -1   4 3565.62   28.56
   4  -1   4 3501.78   35.09
   4  -1   4 3387.51   55.11
   4  -1   4 3591.44   28.99
   4  -1   4 3453.21   46.60
   4  -1   5  374.91   12.72
   4  -1   5  351.05    9.54
   4  -1   5  333.17   12.01
   4  -1   5  366.59   10.26
   4  -1   6  174.15    9.09
   4  -1   6  161.80    6.64
   4  -1   6  174.97    8.34
   4  -1   6  171.20    6.00
   4  -1   7  596.20   14.57
   4  -1   7  595.11   11.93
   4  -1   7  589.87   12.06
   4  -1   8  531.44    9.99
   4  -1   8  642.99   10.48
   4   0 -11 1071.93   12.98
   4   0 -11 1036.78   13.92
   4   0 -10 1323.46   19.46
   4   0 -10 1349.90   19.73
   4   0  -9  634.23   15.27
   4   0  -9  669.80   13.87
   4   0  -9  649.46   15.63
   4   0  -8  461.02   14.04
   4   0  -8  489.10   12.41
   4   0  -8  457.76   14.19
   4   0  -7  472.82   14.29
   4   0  -7  432.75   11.32
   4   0  -7  435.79   13.83
   4   0  -6   97.17   11.38
   4   0  -6  135.46    7.68
   4   0  -6  148.66    6.30
   4   0  -6  117.67   14.80
   4   0  -6  129.17    5.93
   4   0  -6  123.34    7.38
   4   0  -5 1261.85   31.08
   4   0  -5 1364.38   21.15
   4   0  -5 1334.93   17.98
   4   0  -5 1475.46   38.73
   4   0  -5 1247.51   15.94
   4   0  -5 1377.97   21.39
   4   0  -4 4953.81   53.20
   4   0  -4 5113.44   36.71
   4   0  -4 4706.36   32.69
   4   0  -4 4711.56   27.79
   4   0  -4 5375.82   63.16
   4   0  -4 4954.50   36.72
   4   0  -3 3125.56   26.56
   4   0  -3 2981.39   38.31
   4   0  -3 3115.53   25.42
   4   0  -3 2870.46   19.93
   4   0  -3 2829.58   37.18
   4   0  -3 3153.41   26.83
   4   0  -2 2318.12   21.15
   4   0  -2 2270.48   31.50
   4   0  -2 2379.66   21.30
   4   0  -2 2188.07   16.40
   4   0  -2 2256.82   20.79
   4   0  -2 2230.48   30.55
   4   0  -2 2288.69   20.81
   4   0  -1 2108.83   18.87
   4   0  -1 2357.73   20.99
   4   0  -1 2155.35   31.34
   4   0  -1 2095.07   15.70
   4   0  -1 2074.71   18.74
   4   0  -1 2379.09   31.08
   4   0  -1 2037.54   18.76
   4   0   0 1436.41   14.99
   4   0   0 1546.16   16.96
   4   0   0 1426.65   26.15
   4   0   0 1409.87   13.22
   4   0   0 1376.76   14.56
   4   0   0 1533.37   23.20
   4   0   0 1467.37   15.98
   4   0   1 3314.76   22.50
   4   0   1 3318.06   32.89
   4   0   1 3353.44   25.72
   4   0   1 3281.11   23.64
   4   0   2 4042.74   26.51
   4   0   2 3958.87   27.55
   4   0   2 3998.30   51.32
   4   0   2 4170.09   33.94
   4   0   2 4117.58   40.66
   4   0   3 2997.51   26.83
   4   0   3 2849.46   24.33
   4   0   3 2989.70   30.61
   4   0   3 2801.80   48.11
   4   0   3 2942.98   24.50
   4   0   3 2996.55   38.66
   4   0   4 2343.28   27.77
   4   0   4 2325.24   22.98
   4   0   4 2375.23   30.31
   4   0   4 2374.14   24.09
   4   0   5 1909.46   28.69
   4   0   5 2096.06   22.39
   4   0   5 1941.04   28.91
   4   0   5 2038.18   24.33
   4   0   6 1280.71   22.25
   4   0   6 1307.23   17.90
   4   0   6 1252.62   21.27
   4   0   6 1384.02   20.78
   4   0   6 1414.75   15.92
   4   0   7  972.90   17.86
   4   0   7  964.66   14.74
   4   0   7  957.41   16.18
   4   0   8 1157.20   14.34
   4   0   8 1264.62   15.82
   4   1 -11  165.46    6.03
   4   1 -11  170.09    5.04
   4   1 -11  172.97    6.11
   4   1 -10  154.40    7.20
   4   1 -10  152.77    5.67
   4   1 -10  144.35    7.13
   4   1  -9  241.25   10.33
   4   1  -9  261.65    8.02
   4   1  -9  244.58   10.40
   4   1  -8  311.85   12.49
   4   1  -8  296.64   12.13
   4   1  -8  284.78   10.47
   4   1  -7  453.88   14.90
   4   1  -7  672.64   14.39
   4   1  -7  611.32   12.24
   4   1  -7  457.31   15.12
   4   1  -7  326.94   10.81
   4   1  -6  873.57   19.47
   4   1  -6 1163.45   18.80
   4   1  -6 1014.94   36.69
   4   1  -6 1217.17   16.00
   4   1  -6  909.44   20.05
   4   1  -6  967.79   17.10
   4   1  -5  272.61   15.00
   4   1  -5  303.37   10.88
   4   1  -5  272.37    9.03
   4   1  -5  387.89   20.39
   4   1  -5  351.26    8.07
   4   1  -5  291.94   10.64
   4   1  -4  353.97   15.33
   4   1  -4  391.90   10.96
   4   1  -4  336.33    9.68
   4   1  -4  363.37    7.54
   4   1  -4  411.15   17.49
   4   1  -4  386.38   10.98
   4   1  -3 1345.46   18.12
   4   1  -3 1407.44   28.11
   4   1  -3 1396.10   24.94
   4   1  -3 1312.60   18.25
   4   1  -3 1207.92   12.80
   4   1  -3 1129.63   21.59
   4   1  -3 1418.81   18.63
   4   1  -3 1292.81   17.14
   4   1  -2 1123.58   14.99
   4   1  -2 1214.72   25.53
   4   1  -2 1141.12   16.39
   4   1  -2 1181.74   22.94
   4   1  -2 1043.39   11.49
   4   1  -2 1074.65   14.72
   4   1  -2 1051.80   19.07
   4   1  -2 1070.60   14.26
   4   1  -1 1717.89   17.27
   4   1  -1 1782.61   19.19
   4   1  -1 1734.63   27.88
   4   1  -1 1585.96   14.04
   4   1  -1 1652.26   16.89
   4   1  -1 1733.57   23.13
   4   1  -1 1595.94   16.80
   4   1   0 1230.50   13.98
   4   1   0 1236.16   17.87
   4   1   0 1194.72   23.94
   4   1   0 1227.51   13.82
   4   1   0 1263.25   14.88
   4   1   1 1513.14   15.00
   4   1   1 1597.64   18.45
   4   1   1 1584.52   16.41
   4   1   1 1603.87   21.51
   4   1   1 1527.97   30.82
   4   1   1 1682.64   22.27
   4   1   1 1665.72   17.92
   4   1   2 1010.05   14.90
   4   1   2  973.46   13.52
   4   1   2  976.17   18.00
   4   1   3   16.04    3.03
   4   1   3   19.62    4.71
   4   1   3   11.25    2.32
   4   1   4  903.76   18.35
   4   1   4  929.78   14.82
   4   1   4  941.17   20.41
   4   1   4  905.17   15.22
   4   1   5 3382.42   36.67
   4   1   5 3363.10   28.35
   4   1   5 3305.93   37.93
   4   1   5 3327.24   31.36
   4   1   6 1938.72   25.05
   4   1   6 1980.07   21.62
   4   1   6 1987.04   26.62
   4   1   6 1906.57   24.44
   4   1   7 1274.33   16.45
   4   1   7 1258.63   18.25
   4   1   8  738.55   12.08
   4   2 -11   11.18    2.23
   4   2 -11   13.64    2.30
   4   2 -10   20.87    3.29
   4   2 -10   20.38    2.45
   4   2 -10   20.62    3.37
   4   2  -9  176.13    9.07
   4   2  -9  173.06    6.05
   4   2  -9  163.57    8.90
   4   2  -8  388.74   14.23
   4   2  -8  516.43   12.93
   4   2  -8  474.30   10.09
   4   2  -8  405.88   14.48
   4   2  -8  400.71   12.11
   4   2  -7  731.21   19.16
   4   2  -7 1169.17   20.37
   4   2  -7 1288.07   16.31
   4   2  -7  740.65   19.41
   4   2  -7  937.91   17.91
   4   2  -6  452.64   14.48
   4   2  -6  465.46   14.79
   4   2  -5   20.74    3.85
   4   2  -5   15.72    3.28
   4   2  -5   23.95    2.41
   4   2  -5   23.35    4.01
   4   2  -5   25.48    5.84
   4   2  -5   21.53    5.64
   4   2  -4   88.09    5.66
   4   2  -4   89.88    8.80
   4   2  -4   84.31    5.74
   4   2  -4   87.48    3.77
   4   2  -4   93.29    5.81
   4   2  -4   67.02    7.65
   4   2  -4   72.75    7.90
   4   2  -3  217.47    7.64
   4   2  -3  226.74   13.01
   4   2  -3  208.77    8.12
   4   2  -3  209.56    5.40
   4   2  -3  223.92    7.80
   4   2  -3  162.91   10.17
   4   2  -3  156.92    9.95
   4   2  -3  217.36    7.07
   4   2  -2  472.54   10.00
   4   2  -2  480.33   17.17
   4   2  -2  478.09   11.55
   4   2  -2  457.13    7.65
   4   2  -2  482.94   10.10
   4   2  -2  409.70   13.41
   4   2  -2  399.89   13.32
   4   2  -2  466.71    9.61
   4   2  -1 1147.76   14.23
   4   2  -1 1079.77   22.41
   4   2  -1 1195.44   18.19
   4   2  -1 1128.44   14.14
   4   2  -1 1137.51   14.51
   4   2   0 2457.79   26.68
   4   2   0 2404.20   19.11
   4   2   0 2419.08   21.15
   4   2   1  468.54    9.84
   4   2   1  457.46   12.73
   4   2   1  448.32    8.96
   4   2   2   11.36    2.18
   4   2   2   10.10    2.60
   4   2   2    7.04    2.19
   4   2   2   16.56    2.70
   4   2   2   10.81    4.20
   4   2   3  105.77    6.27
   4   2   3   98.45    5.07
   4   2   3   98.32    7.68
   4   2   3   92.75    4.99
   4   2   4  492.60   13.77
   4   2   4  543.88   11.37
   4   2   4  514.24   16.54
   4   2   4  527.40   12.01
   4   2   5 1133.73   19.22
   4   2   5 1145.58   22.92
   4   2   5 1183.13   18.91
   4   2   6 1175.16   19.80
   4   2   6 1170.79   18.86
   4   2   7  404.97   10.21
   4   2   8   96.52    4.56
   4   2   9   27.06    2.35
   4   3 -11  311.10    7.64
   4   3 -11  317.17    7.77
   4   3 -10  124.78    6.15
   4   3 -10  132.41    6.42
   4   3  -9  221.18    9.51
   4   3  -9  217.89    7.91
   4   3  -9  211.26    9.36
   4   3  -8 1168.34   23.14
   4   3  -8 1226.73   20.40
   4   3  -8 1211.38   24.01
   4   3  -7  668.05   17.96
   4   3  -7  691.60   18.39
   4   3  -6  292.74   11.74
   4   3  -6  238.81   10.51
   4   3  -6  302.10   12.06
   4   3  -6  373.76   16.65
   4   3  -6  347.15   16.24
   4   3  -5  335.23   11.60
   4   3  -5  342.13   11.73
   4   3  -5  312.49   14.96
   4   3  -5  303.88   14.81
   4   3  -4  264.85    9.29
   4   3  -4  210.30    9.31
   4   3  -4  277.41    9.49
   4   3  -4  209.38   12.62
   4   3  -4  195.25   12.31
   4   3  -4  243.59    7.68
   4   3  -3  534.52   11.79
   4   3  -3  572.89   21.90
   4   3  -3  538.49   13.88
   4   3  -3  539.21   11.84
   4   3  -3  371.80   15.71
   4   3  -3  367.29   15.69
   4   3  -2  452.78    9.98
   4   3  -2  427.40   17.72
   4   3  -2  443.34   11.65
   4   3  -2  451.81   12.07
   4   3  -2  410.79    9.43
   4   3  -2  283.98   13.57
   4   3  -2  292.08   13.68
   4   3  -1  810.63   15.25
   4   3  -1  848.26   16.72
   4   3   0 1358.78   18.41
   4   3   0 1346.45   21.90
   4   3   1   74.32    4.59
   4   3   1   84.01    7.15
   4   3   1   95.63    4.47
   4   3   2  185.27   10.11
   4   3   2  196.58    6.42
   4   3   2  178.93    6.64
   4   3   3  504.80   16.46
   4   3   3  526.33   10.58
   4   3   3  510.31   11.46
   4   3   4  149.85    9.19
   4   3   4  147.02    6.11
   4   3   4  157.77    6.91
   4   3   5  129.41    7.78
   4   3   5  141.97    6.68
   4   3   6  172.51    7.31
   4   3   7  189.27    6.94
   4   3   7  206.54    6.86
   4   3   8  202.74    5.88
   4   4 -10 1017.73   15.24
   4   4 -10 1095.32   15.93
   4   4  -9 1029.10   17.89
   4   4  -9 1081.62   16.69
   4   4  -9 1053.19   18.22
   4   4  -8  991.63   18.47
   4   4  -8  956.97   19.20
   4   4  -7  794.63   17.87
   4   4  -7  833.71   18.68
   4   4  -7  769.81   17.91
   4   4  -6 1256.18   21.91
   4   4  -6 1297.89   22.35
   4   4  -6 1478.96   32.17
   4   4  -6 1540.55   32.93
   4   4  -5 2543.39   29.37
   4   4  -5 2549.43   29.56
   4   4  -5 2806.65   43.69
   4   4  -5 2765.48   43.38
   4   4  -4 2430.75   26.72
   4   4  -4 1882.15   28.16
   4   4  -4 2509.77   27.12
   4   4  -4 2136.04   38.07
   4   4  -4 2070.96   37.56
   4   4  -3  770.39   23.21
   4   4  -3  762.26   23.13
   4   4  -2  669.98   21.14
   4   4  -2  664.76   21.16
   4   4  -1  217.00    8.46
   4   4  -1  213.53   10.05
   4   4   0  236.23    8.22
   4   4   0  238.54   10.83
   4   4   1 1639.71   19.52
   4   4   1 1761.96   28.69
   4   4   2 1726.70   28.32
   4   4   2 1701.79   20.56
   4   4   3 1174.20   22.76
   4   4   3 1075.19   16.66
   4   4   4  329.17    9.72
   4   4   4  338.63   11.09
   4   4   5   63.09    4.96
   4   4   5   72.16    4.78
   4   4   6  104.69    5.30
   4   4   6  113.86    5.32
   4   4   7  206.85    6.00
   4   4   7  248.39    6.74
   4   5  -9  537.09   11.05
   4   5  -9  526.55   10.96
   4   5  -8  116.46    6.08
   4   5  -8  106.05    5.97
   4   5  -8  109.39    5.93
   4   5  -7  422.40   11.52
   4   5  -7  410.12   12.54
   4   5  -7  400.41   11.40
   4   5  -6 1483.03   21.50
   4   5  -6 1376.23   24.19
   4   5  -6 1565.22   22.17
   4   5  -6 1755.52   33.67
   4   5  -6 1756.76   33.88
   4   5  -5 2680.00   27.26
   4   5  -5 2307.97   31.89
   4   5  -5 2711.13   27.47
   4   5  -5 3163.29   46.95
   4   5  -5 3177.46   47.07
   4   5  -4 2306.05   40.05
   4   5  -4 2307.62   40.07
   4   5  -3 1506.26   32.10
   4   5  -3 1535.63   32.61
   4   5  -2 1090.34   26.64
   4   5  -2 1116.91   26.96
   4   5  -1  513.01   12.63
   4   5   0 1078.27   15.90
   4   5   0 1069.74   16.85
   4   5   0 1113.44   21.24
   4   5   1 3547.52   36.03
   4   5   1 3328.61   27.88
   4   5   2 3246.96   26.42
   4   5   2 3343.24   33.52
   4   5   2 3289.58   27.86
   4   5   3 1707.10   19.80
   4   5   3 1728.92   22.89
   4   5   3 1731.20   20.58
   4   5   4  739.50   12.95
   4   5   4  713.45   13.47
   4   5   5  369.20    8.59
   4   5   5  378.13    9.03
   4   5   6  343.28    7.42
   4   5   6  397.09    8.29
   4   6  -8   79.66    4.61
   4   6  -7  442.50   11.38
   4   6  -6  758.53   20.40
   4   6  -6  720.05   20.16
   4   6  -5  653.82   20.16
   4   6  -5  641.22   20.06
   4   6  -4 1222.69   21.24
   4   6  -4 1256.29   28.53
   4   6  -4 1204.46   27.90
   4   6  -3  674.32   21.02
   4   6  -3  661.06   21.11
   4   6  -2  704.29   20.65
   4   6  -2  715.24   20.75
   4   6  -1 1651.11   21.44
   4   6   2 1125.77   15.77
   4   6   3 1005.03   14.31
   4   6   4  993.71   12.04
   4   6   4 1166.18   14.21
   4   7  -7  493.17    9.82
   4   7  -6   87.57    4.87
   4   7  -5   14.36    2.77
   4   7  -5   10.23    4.03
   4   7  -5    8.80    3.97
   4   7  -4   69.77    4.69
   4   7  -4   50.74    6.36
   4   7  -4   50.88    6.40
   4   7  -3  184.12   10.08
   4   7  -3  189.67   10.26
   5  -9  -4  252.34    7.28
   5  -9  -3  169.75    6.51
   5  -9  -2  270.97    8.39
   5  -9  -1  540.49   11.79
   5  -9   0 1133.61   16.59
   5  -9   1  745.48   13.18
   5  -9   2  873.08   13.40
   5  -9   3  966.41   12.61
   5  -8  -6   19.95    3.48
   5  -8  -6   19.79    2.30
   5  -8  -5  105.29    5.55
   5  -8  -5  103.55    4.60
   5  -8  -4  438.33   11.17
   5  -8  -4  513.75   10.30
   5  -8  -3  444.57   11.94
   5  -8  -3  488.63   10.42
   5  -8  -2  734.99   15.60
   5  -8  -2  708.09   12.78
   5  -8  -1  642.96   14.79
   5  -8  -1  619.53   11.86
   5  -8   0  118.49    6.90
   5  -8   0   98.49    5.17
   5  -8   1   47.03    4.87
   5  -8   2  200.31    7.99
   5  -8   3  787.55   13.94
   5  -8   4  940.75   13.67
   5  -8   4  916.69   12.71
   5  -7  -7  256.78    6.93
   5  -7  -6   30.19    3.26
   5  -7  -5  114.54    5.81
   5  -7  -4  480.21   11.55
   5  -7  -3 1015.45   16.74
   5  -7  -2 1097.38   20.06
   5  -7  -2 1164.91   17.73
   5  -7  -1  161.65    8.40
   5  -7  -1  148.47    6.55
   5  -7   0   29.97    4.79
   5  -7   0   22.42    3.26
   5  -7   1   52.72    5.30
   5  -7   1   34.80    3.79
   5  -7   2  237.77    9.19
   5  -7   3  709.76   14.64
   5  -7   4  981.65   15.82
   5  -7   4 1027.39   14.42
   5  -7   5  766.65   12.79
   5  -7   5  845.21   12.39
   5  -6  -8  753.94   12.10
   5  -6  -7  566.92   11.93
   5  -6  -6  674.75   14.07
   5  -6  -5  485.95   12.39
   5  -6  -4 1447.36   21.51
   5  -6  -3 1553.88   21.29
   5  -6  -2  906.95   15.90
   5  -6  -1 1017.72   18.88
   5  -6  -1 1042.32   16.64
   5  -6   0 1047.72   19.06
   5  -6   0  941.77   15.64
   5  -6   1  968.82   18.06
   5  -6   1  900.91   15.10
   5  -6   2  572.79   13.88
   5  -6   2  491.54   11.72
   5  -6   3  411.35   11.65
   5  -6   4  628.06   13.71
   5  -6   4  628.00   11.80
   5  -6   5  258.07    8.45
   5  -6   5  273.99    7.59
   5  -6   6  245.03    7.30
   5  -5  -9  321.86    6.75
   5  -5  -9  372.95    8.36
   5  -5  -8  700.71   11.56
   5  -5  -7 1584.21   18.73
   5  -5  -6 1820.88   20.68
   5  -5  -5 1889.41   20.75
   5  -5  -4 1857.18   20.03
   5  -5  -4 1939.07   24.43
   5  -5  -3  881.43   13.29
   5  -5  -3  925.76   16.64
   5  -5  -2  735.05   11.61
   5  -5  -2  744.78   13.98
   5  -5  -1 2736.57   29.33
   5  -5  -1 2729.67   22.26
   5  -5  -1 2765.10   26.00
   5  -5   0 4734.64   38.49
   5  -5   0 4454.11   32.33
   5  -5   1 2174.78   23.50
   5  -5   1 2249.35   23.19
   5  -5   2  842.34   16.30
   5  -5   2  806.56   14.40
   5  -5   3  729.04   15.91
   5  -5   3  769.52   15.45
   5  -5   4  423.10   13.37
   5  -5   4  460.44   11.82
   5  -5   5  560.84   13.99
   5  -5   5  589.54   12.90
   5  -5   6 1699.43   21.37
   5  -5   6 1606.40   18.90
   5  -5   7 1700.36   16.62
   5  -4 -10   13.58    1.88
   5  -4 -10   12.08    2.28
   5  -4  -9   57.30    3.63
   5  -4  -8  740.28   13.33
   5  -4  -8  766.64   15.48
   5  -4  -7 1014.19   16.38
   5  -4  -7 1177.40   20.54
   5  -4  -6 1874.51   22.21
   5  -4  -6 1974.31   26.46
   5  -4  -5  970.54   15.91
   5  -4  -5  958.85   15.18
   5  -4  -5  975.16   15.75
   5  -4  -4  342.71    9.42
   5  -4  -4  354.52    9.00
   5  -4  -4  360.25    9.70
   5  -4  -4  366.43   10.52
   5  -4  -3  378.22    9.70
   5  -4  -3  399.40    9.07
   5  -4  -3  422.45   10.70
   5  -4  -3  373.52    9.50
   5  -4  -3  407.29   10.56
   5  -4  -2  530.53   11.19
   5  -4  -2  517.22   12.13
   5  -4  -2  548.45   10.21
   5  -4  -2  551.90   11.74
   5  -4  -1 2402.35   23.37
   5  -4  -1 2734.79   50.14
   5  -4  -1 2405.82   25.76
   5  -4  -1 2401.24   21.02
   5  -4  -1 2614.57   23.88
   5  -4  -1 2692.06   46.79
   5  -4  -1 2416.51   23.81
   5  -4   0 4279.09   59.50
   5  -4   0 4087.43   61.89
   5  -4   0 3842.20   32.51
   5  -4   0 3777.06   28.51
   5  -4   0 3637.23   29.34
   5  -4   1 2787.80   26.42
   5  -4   1 2776.78   24.83
   5  -4   2 1991.57   22.89
   5  -4   2 2052.20   24.28
   5  -4   2 2064.14   22.31
   5  -4   3  782.57   15.82
   5  -4   3  818.94   15.47
   5  -4   4 1168.99   21.66
   5  -4   4 1228.46   18.87
   5  -4   5 1933.68   28.73
   5  -4   5 2066.07   23.90
   5  -4   6 1396.89   21.20
   5  -4   6 1447.53   18.73
   5  -4   7 1554.98   17.15
   5  -3 -10   89.90    4.05
   5  -3 -10  105.63    4.67
   5  -3  -9   73.00    4.38
   5  -3  -9   64.30    5.44
   5  -3  -8  175.92    7.19
   5  -3  -7  407.23   10.83
   5  -3  -7  409.74   11.01
   5  -3  -6  464.02   11.63
   5  -3  -6  497.51   12.27
   5  -3  -5  558.98   12.57
   5  -3  -5  546.52   11.79
   5  -3  -5  551.78   12.66
   5  -3  -4  334.04    9.54
   5  -3  -4  309.75    9.03
   5  -3  -4  315.33    8.48
   5  -3  -4  332.47    9.52
   5  -3  -4  352.27   10.59
   5  -3  -3  886.13   14.89
   5  -3  -3  854.05   14.38
   5  -3  -3  904.09   13.41
   5  -3  -3  912.24   14.78
   5  -3  -3  891.08   14.77
   5  -3  -3  885.67   27.48
   5  -3  -3  942.48   15.81
   5  -3  -2 1530.16   19.05
   5  -3  -2 1550.53   35.26
   5  -3  -2 1508.65   19.08
   5  -3  -2 1525.90   16.92
   5  -3  -2 1542.01   18.02
   5  -3  -2 1483.93   18.65
   5  -3  -2 1520.07   19.39
   5  -3  -1  399.03    9.43
   5  -3  -1  396.74    9.42
   5  -3  -1  419.73   19.01
   5  -3  -1  429.10   10.37
   5  -3  -1  369.97    8.08
   5  -3  -1  391.07    8.97
   5  -3  -1  442.40   18.27
   5  -3  -1  376.08    9.58
   5  -3   0  369.58    9.25
   5  -3   0  433.41   20.14
   5  -3   0  400.72   10.22
   5  -3   0  370.11    8.17
   5  -3   0  402.18    8.97
   5  -3   0  433.33   17.93
   5  -3   0  376.79    9.58
   5  -3   1 1314.23   29.71
   5  -3   1 1353.34   18.69
   5  -3   1 1311.46   33.50
   5  -3   1 1352.35   16.75
   5  -3   1 1304.54   18.02
   5  -3   2  938.13   15.86
   5  -3   2  944.79   15.87
   5  -3   2  938.31   16.67
   5  -3   3  834.98   15.78
   5  -3   3  848.75   15.39
   5  -3   3  847.52   14.46
   5  -3   4 1158.24   20.84
   5  -3   4 1187.64   18.60
   5  -3   4 1168.82   17.74
   5  -3   5  927.65   20.77
   5  -3   5  970.72   16.65
   5  -3   6  290.03   10.91
   5  -3   6  293.88    8.84
   5  -3   7  239.00    8.70
   5  -3   7  224.79    7.08
   5  -3   8  847.06   11.11
   5  -2 -11  324.45    6.40
   5  -2 -11  200.86    6.22
   5  -2 -10  832.76   12.46
   5  -2 -10  670.57   13.94
   5  -2  -9  344.50    9.48
   5  -2  -9  368.83    9.87
   5  -2  -8  220.92    8.54
   5  -2  -8  229.63    8.73
   5  -2  -7   66.85    5.28
   5  -2  -7   69.36    5.36
   5  -2  -6   76.73    5.54
   5  -2  -6   61.99    4.60
   5  -2  -6   77.55    5.58
   5  -2  -5  554.92   13.36
   5  -2  -5  554.80   13.28
   5  -2  -4 1289.58   19.06
   5  -2  -4 1341.15   18.92
   5  -2  -4 1253.67   16.29
   5  -2  -4 1248.54   16.73
   5  -2  -4 1327.51   36.31
   5  -2  -4 1298.16   19.17
   5  -2  -4 1398.00   21.25
   5  -2  -3 2174.40   23.51
   5  -2  -3 2178.74   41.56
   5  -2  -3 2116.54   24.05
   5  -2  -3 2096.31   20.73
   5  -2  -3 2070.27   19.98
   5  -2  -3 2134.36   20.92
   5  -2  -3 2227.62   24.22
   5  -2  -3 2142.33   41.62
   5  -2  -3 2151.76   24.51
   5  -2  -2  613.54   12.08
   5  -2  -2  691.04   22.75
   5  -2  -2  669.28   11.87
   5  -2  -2  630.94   10.73
   5  -2  -2  640.65   10.99
   5  -2  -2  619.88   12.11
   5  -2  -2  708.97   23.13
   5  -2  -2  653.65   12.86
   5  -2  -1    5.76    2.20
   5  -2  -1   17.26    2.48
   5  -2  -1    9.42    1.72
   5  -2  -1    8.85    5.24
   5  -2  -1   10.66    2.10
   5  -2  -1   17.38    2.47
   5  -2  -1    7.50    4.17
   5  -2   0    3.18    1.92
   5  -2   0    4.52    1.72
   5  -2   0    4.02    1.58
   5  -2   0    7.53    5.42
   5  -2   0    5.95    2.63
   5  -2   0    5.67    1.85
   5  -2   0   11.08    4.35
   5  -2   1  104.59    5.02
   5  -2   1  102.01    8.75
   5  -2   1   99.42    9.79
   5  -2   1  107.99    5.52
   5  -2   1  107.51    5.01
   5  -2   1  100.65    4.58
   5  -2   1  108.63    5.46
   5  -2   2 1265.37   18.32
   5  -2   2 1256.24   17.78
   5  -2   2 1273.47   28.79
   5  -2   2 1290.52   19.77
   5  -2   2 1210.30   15.91
   5  -2   3 1813.51   22.83
   5  -2   3 1794.10   21.91
   5  -2   3 1782.48   24.37
   5  -2   3 1842.86   20.94
   5  -2   4  661.29   15.68
   5  -2   4  650.45   13.60
   5  -2   4  617.51   15.81
   5  -2   4  608.87   13.26
   5  -2   5  269.29   11.49
   5  -2   5  287.01    9.30
   5  -2   5  260.55   10.82
   5  -2   5  261.46    9.21
   5  -2   6   36.22    5.15
   5  -2   6   44.72    4.18
   5  -2   7   37.72    4.24
   5  -2   7   40.46    3.68
   5  -2   8  336.00    7.43
   5  -1 -11 1154.88   12.29
   5  -1 -11  803.28   13.09
   5  -1 -10 1776.83   18.57
   5  -1 -10 1813.16   20.07
   5  -1  -9 1072.20   18.58
   5  -1  -9 1079.39   18.56
   5  -1  -8  309.85   10.77
   5  -1  -8  317.49   10.93
   5  -1  -7  360.94   11.89
   5  -1  -7  356.61   11.78
   5  -1  -6  159.65    7.97
   5  -1  -6  134.78    6.25
   5  -1  -6  151.02    7.73
   5  -1  -5  614.99   14.39
   5  -1  -5  606.03   23.65
   5  -1  -5  610.33   12.87
   5  -1  -5  557.76   11.51
   5  -1  -5  591.44   11.30
   5  -1  -5  578.55   14.02
   5  -1  -4 2624.91   28.68
   5  -1  -4 2412.10   25.32
   5  -1  -4 2288.03   21.72
   5  -1  -4 2445.94   21.94
   5  -1  -4 2573.86   48.18
   5  -1  -4 2614.71   28.49
   5  -1  -4 2587.15   28.95
   5  -1  -3 1578.22   20.65
   5  -1  -3 1768.59   34.28
   5  -1  -3 1601.18   33.99
   5  -1  -3 1670.52   20.92
   5  -1  -3 1500.71   16.70
   5  -1  -3 1473.69   15.97
   5  -1  -3 1587.19   20.71
   5  -1  -3 1596.97   34.76
   5  -1  -3 1566.13   20.77
   5  -1  -2  790.84   13.78
   5  -1  -2  812.95   24.50
   5  -1  -2  832.28   14.80
   5  -1  -2  782.75   11.69
   5  -1  -2  734.30   11.09
   5  -1  -2  790.36   13.90
   5  -1  -2  827.12   23.63
   5  -1  -2  782.68   14.08
   5  -1  -1  367.36    9.10
   5  -1  -1  390.38   10.24
   5  -1  -1  411.92   17.78
   5  -1  -1  359.87    8.50
   5  -1  -1  339.77    7.54
   5  -1  -1  333.08    7.62
   5  -1  -1  356.42    8.89
   5  -1  -1  379.11   15.21
   5  -1  -1  332.01    8.94
   5  -1   0  267.12   13.21
   5  -1   0  255.14    7.36
   5  -1   0  244.44   13.91
   5  -1   0  236.79    7.24
   5  -1   0  242.16    6.55
   5  -1   0  228.86    6.64
   5  -1   0  236.96    7.02
   5  -1   0  245.41    7.71
   5  -1   1  865.16   13.38
   5  -1   1  846.31   21.52
   5  -1   1  854.13   13.85
   5  -1   1  914.87   13.46
   5  -1   1  892.66   14.87
   5  -1   2 1252.85   18.24
   5  -1   2 1203.24   17.37
   5  -1   2 1220.29   20.08
   5  -1   2 1186.56   27.18
   5  -1   2 1238.56   16.53
   5  -1   3 1143.76   18.28
   5  -1   3 1094.92   17.18
   5  -1   3 1149.35   20.20
   5  -1   3 1079.72   16.46
   5  -1   4  632.41   15.52
   5  -1   4  590.42   15.74
   5  -1   4  601.87   13.30
   5  -1   5  271.62   11.62
   5  -1   5  278.01    8.94
   5  -1   5  243.21   11.27
   5  -1   5  279.30    9.55
   5  -1   6  304.73   11.33
   5  -1   6  323.43   10.89
   5  -1   7   61.01    4.94
   5  -1   7   59.25    4.08
   5  -1   8  170.76    5.29
   5   0 -11  897.13   10.74
   5   0 -11  589.97   11.32
   5   0 -10 1068.71   16.90
   5   0 -10 1056.00   14.06
   5   0 -10 1051.69   16.47
   5   0  -9  811.29   16.67
   5   0  -9  839.08   14.16
   5   0  -9  834.63   16.90
   5   0  -8  957.03   19.72
   5   0  -8  958.53   16.11
   5   0  -8  936.63   19.52
   5   0  -7 1395.81   24.20
   5   0  -7 1416.04   24.54
   5   0  -6 1706.61   26.11
   5   0  -6 1746.20   26.62
   5   0  -5 1473.65   23.05
   5   0  -5 1446.88   21.56
   5   0  -5 1452.97   23.03
   5   0  -4 1597.41   22.48
   5   0  -4 1820.22   39.85
   5   0  -4 1619.27   35.32
   5   0  -4 1613.25   22.45
   5   0  -4 1524.15   17.36
   5   0  -4 1747.69   38.58
   5   0  -4 1677.88   23.15
   5   0  -4 1692.56   23.28
   5   0  -3 2562.51   26.89
   5   0  -3 2537.05   43.63
   5   0  -3 2538.31   42.82
   5   0  -3 2574.54   27.23
   5   0  -3 2320.21   20.45
   5   0  -3 2543.48   27.10
   5   0  -3 2492.38   41.15
   5   0  -3 2349.04   25.36
   5   0  -2 2341.31   23.70
   5   0  -2 2401.02   25.38
   5   0  -2 2428.57   41.53
   5   0  -2 2227.68   19.30
   5   0  -2 2300.33   23.74
   5   0  -2 2562.90   40.85
   5   0  -2 2205.96   23.40
   5   0  -1 2043.00   21.17
   5   0  -1 2017.66   22.95
   5   0  -1 2197.45   39.18
   5   0  -1 2046.41   19.19
   5   0  -1 2109.29   18.84
   5   0  -1 1965.21   20.65
   5   0  -1 1953.17   18.09
   5   0  -1 2194.11   33.39
   5   0  -1 2018.90   21.75
   5   0   0 2798.60   23.91
   5   0   0 2758.53   35.55
   5   0   0 2730.83   43.44
   5   0   0 2777.41   23.33
   5   0   0 2688.26   23.31
   5   0   0 2737.36   25.22
   5   0   1 1731.52   18.52
   5   0   1 1764.98   19.36
   5   0   1 1775.03   24.40
   5   0   1 1788.58   21.14
   5   0   2  344.67    9.79
   5   0   2  332.32    9.06
   5   0   2  318.01   11.12
   5   0   2  328.36    8.83
   5   0   3  212.09    8.34
   5   0   3  197.11    7.24
   5   0   3  198.81    9.50
   5   0   3  210.21    7.54
   5   0   4  746.17   16.94
   5   0   4  724.53   13.66
   5   0   4  705.43   18.32
   5   0   4  723.72   14.56
   5   0   5 1430.66   25.25
   5   0   5 1468.99   19.42
   5   0   5 1381.41   25.25
   5   0   5 1449.11   21.41
   5   0   6 1228.81   20.37
   5   0   6 1179.06   16.56
   5   0   7  660.26   11.39
   5   0   7  628.95   12.01
   5   1 -11  116.32    4.75
   5   1 -11  123.03    4.86
   5   1 -10  101.46    5.47
   5   1 -10  112.96    4.55
   5   1 -10  101.65    5.50
   5   1  -9  803.28   17.05
   5   1  -9  767.79   16.68
   5   1  -8  907.88   19.80
   5   1  -8  881.05   19.57
   5   1  -7 2320.23   27.61
   5   1  -7 2204.03   22.47
   5   1  -6 2407.00   31.96
   5   1  -6 2325.97   31.52
   5   1  -5  672.48   16.04
   5   1  -5  699.59   12.08
   5   1  -5  683.18   16.30
   5   1  -4  387.57   11.38
   5   1  -4  360.39   11.15
   5   1  -4  388.08    8.61
   5   1  -4  393.46   11.49
   5   1  -4  404.63   11.22
   5   1  -3 1358.76   20.10
   5   1  -3 1357.18   33.68
   5   1  -3 1245.00   19.78
   5   1  -3 1247.44   14.69
   5   1  -3 1308.16   19.63
   5   1  -3 1216.76   17.97
   5   1  -2 3101.76   27.67
   5   1  -2 3093.59   45.41
   5   1  -2 3061.98   22.52
   5   1  -2 3005.25   27.30
   5   1  -2 2969.84   27.11
   5   1  -1 4943.31   32.80
   5   1  -1 5002.17   32.60
   5   1  -1 4977.72   34.11
   5   1   0 3821.42   27.59
   5   1   0 3829.41   26.24
   5   1   0 3840.97   36.27
   5   1   0 3722.77   27.18
   5   1   0 3759.80   29.77
   5   1   1 2032.97   19.70
   5   1   1 2013.50   24.34
   5   1   1 2204.68   21.01
   5   1   1 2146.46   28.29
   5   1   1 1858.98   41.42
   5   1   1 2227.65   23.78
   5   1   2  764.80   14.46
   5   1   2  736.68   12.84
   5   1   2  730.40   17.74
   5   1   2  721.77   13.45
   5   1   3  673.38   12.83
   5   1   3  633.02   18.16
   5   1   3  645.44   13.38
   5   1   4 1919.27   27.82
   5   1   4 1996.88   22.21
   5   1   4 1951.26   24.06
   5   1   5 1957.14   26.74
   5   1   5 1879.61   29.36
   5   1   5 1932.26   24.65
   5   1   6 2351.00   22.15
   5   1   6 2299.77   26.85
   5   1   7 1324.95   16.62
   5   1   8  147.97    4.91
   5   2 -11   14.34    2.14
   5   2 -11   13.51    2.17
   5   2 -10   32.77    3.34
   5   2 -10   31.73    3.33
   5   2 -10   30.35    3.58
   5   2  -9  212.11    8.77
   5   2  -9  212.21    8.80
   5   2  -9  222.93    8.71
   5   2  -8  434.74   13.65
   5   2  -8  548.23   12.99
   5   2  -8  611.40   10.97
   5   2  -8  426.44   13.68
   5   2  -8  568.31   14.34
   5   2  -7  243.92   10.76
   5   2  -7  474.10   13.45
   5   2  -7  548.34   10.59
   5   2  -7  255.66   10.99
   5   2  -7  514.35   13.85
   5   2  -6  430.97   13.67
   5   2  -6  439.16   13.63
   5   2  -6  598.52   10.99
   5   2  -6  428.16   13.74
   5   2  -6  635.47   15.15
   5   2  -5  463.81   13.37
   5   2  -5  528.59   10.09
   5   2  -5  483.85   13.69
   5   2  -5  546.26   13.26
   5   2  -4  103.36    6.14
   5   2  -4   91.01    6.53
   5   2  -4  104.08    4.57
   5   2  -4   99.46    6.05
   5   2  -4  104.25    5.70
   5   2  -3  488.32   12.13
   5   2  -3  465.20   12.93
   5   2  -3  473.71   11.92
   5   2  -3  455.89   10.94
   5   2  -2 1886.68   21.36
   5   2  -2 1911.10   25.37
   5   2  -2 1901.91   21.60
   5   2  -2 1827.18   21.06
   5   2  -1 2341.40   22.40
   5   2  -1 2399.27   29.49
   5   2  -1 2321.30   22.02
   5   2  -1 2352.32   23.36
   5   2   0 1612.57   21.64
   5   2   0 1595.00   19.70
   5   2   1  969.08   20.44
   5   2   1  938.29   13.61
   5   2   2 1676.17   21.96
   5   2   2 1644.88   28.34
   5   2   2 1611.03   18.57
   5   2   2 1645.10   20.96
   5   2   3 1697.04   24.72
   5   2   3 1712.04   29.62
   5   2   3 1699.65   19.66
   5   2   3 1651.93   21.60
   5   2   4  890.75   18.16
   5   2   4  933.40   14.77
   5   2   4  891.19   16.27
   5   2   5  977.58   16.37
   5   2   5  960.30   19.46
   5   2   5 1011.98   14.85
   5   2   5  961.19   16.87
   5   2   6 1194.34   17.81
   5   2   7  965.69   13.22
   5   2   8  425.60    7.82
   5   3 -10  180.65    6.37
   5   3 -10  192.99    6.58
   5   3  -9  119.46    6.29
   5   3  -9  117.50    5.70
   5   3  -9  116.26    6.19
   5   3  -9  117.00    5.83
   5   3  -8  115.99    6.95
   5   3  -8  128.46    6.64
   5   3  -8  118.88    7.00
   5   3  -7   31.67    4.31
   5   3  -7   36.77    4.63
   5   3  -7   33.73    4.50
   5   3  -7   47.22    4.48
   5   3  -6  225.39    9.62
   5   3  -6  226.29    9.70
   5   3  -5  673.06   15.36
   5   3  -5  681.00   15.46
   5   3  -4  686.64   14.86
   5   3  -4  684.70   14.76
   5   3  -4  710.34   13.56
   5   3  -3  410.76   10.70
   5   3  -3  398.40   12.71
   5   3  -3  420.30   12.58
   5   3  -3  401.37   10.53
   5   3  -2  103.16    5.23
   5   3  -2  110.97    6.68
   5   3  -2  121.35    7.42
   5   3  -2  106.02    5.33
   5   3  -1   63.87    5.00
   5   3  -1   60.04    6.16
   5   3   0   25.60    3.35
   5   3   0   34.77    5.65
   5   3   1  399.46   14.53
   5   3   1  379.93    8.46
   5   3   2 1503.31   27.57
   5   3   2 1528.86   17.13
   5   3   3  655.94   18.82
   5   3   3  667.24   11.76
   5   3   3  646.16   13.45
   5   3   4  203.52    9.93
   5   3   4  211.13    7.95
   5   3   5   83.83    5.64
   5   3   5   89.01    5.19
   5   3   6   68.64    4.29
   5   3   6   80.75    4.49
   5   3   7  428.34    8.27
   5   3   7  562.76    9.06
   5   4 -10  905.36   12.50
   5   4 -10  933.15   12.62
   5   4  -9  170.61    6.47
   5   4  -9  174.97    6.32
   5   4  -9  188.38    6.76
   5   4  -8   22.68    3.20
   5   4  -8   21.07    3.17
   5   4  -8   22.05    3.10
   5   4  -7   72.92    5.24
   5   4  -7   69.63    5.65
   5   4  -7   67.65    5.11
   5   4  -6  270.39    9.51
   5   4  -6  268.76    9.46
   5   4  -5  949.20   17.22
   5   4  -5 1022.87   17.78
   5   4  -4 1076.61   17.17
   5   4  -4 1041.48   16.83
   5   4  -3  408.27   13.05
   5   4  -2   68.68    5.50
   5   4  -1   43.24    4.40
   5   4  -1   27.24    5.63
   5   4   0  117.89    6.30
   5   4   0  127.58    8.77
   5   4   0  123.91    5.90
   5   4   1  813.31   19.67
   5   4   1  824.81   14.66
   5   4   2 1000.35   20.80
   5   4   2  937.14   15.57
   5   4   3  598.33   14.69
   5   4   3  594.75   12.34
   5   4   4   49.74    3.94
   5   4   4   56.65    4.72
   5   4   4   57.84    4.26
   5   4   5   13.29    2.40
   5   4   5   17.28    2.79
   5   4   6   16.72    2.23
   5   4   6   22.95    2.56
   5   5  -8  243.25    7.29
   5   5  -8  234.75    7.50
   5   5  -8  251.83    7.32
   5   5  -7  369.19    9.52
   5   5  -7  370.98    9.61
   5   5  -6  670.05   15.74
   5   5  -5  758.52   17.24
   5   5  -4  739.06   16.94
   5   5  -3  815.00   17.13
   5   5  -2  630.50   14.88
   5   5  -1  661.24   13.83
   5   5  -1  613.82   12.26
   5   5   0  613.72   14.43
   5   5   0  663.58   12.58
   5   5   1  410.43   11.67
   5   5   1  404.27    9.83
   5   5   2  379.45   10.57
   5   5   2  385.23    9.53
   5   5   3  334.01    8.99
   5   5   3  367.90    8.91
   5   5   4  260.45    7.14
   5   5   5  366.45    7.34
   5   6  -7 1343.95   16.68
   5   6  -6  709.68   13.25
   5   6  -5  530.96   12.23
   5   6  -4  758.88   14.85
   5   6  -3  810.76   15.53
   5   6  -2 1626.43   20.54
   5   6  -2 1731.20   18.58
   5   7  -5  218.84    6.45
   5   7  -4  397.39    8.84
   6  -9  -3 1675.74   17.79
   6  -9  -2 1222.57   15.90
   6  -9  -1 1370.19   17.19
   6  -9   0 1054.43   15.09
   6  -9   1  508.39   10.26
   6  -9   2  833.51   11.99
   6  -8  -5   79.27    4.96
   6  -8  -5   68.23    3.73
   6  -8  -4  865.31   14.74
   6  -8  -4  943.25   13.39
   6  -8  -3 1625.91   21.27
   6  -8  -3 1728.47   18.76
   6  -8  -2 1065.53   17.79
   6  -8  -2 1085.78   15.34
   6  -8  -1  469.39   12.14
   6  -8  -1  478.77   10.47
   6  -8   0  571.54   13.25
   6  -8   1  294.90    9.53
   6  -8   2  353.90    9.66
   6  -8   3 1753.77   19.13
   6  -8   4 1932.87   17.99
   6  -7  -7   98.40    4.15
   6  -7  -6   35.61    4.45
   6  -7  -6   30.03    3.00
   6  -7  -5  117.87    6.43
   6  -7  -5  125.65    5.76
   6  -7  -4  169.64    7.92
   6  -7  -4  245.57    8.13
   6  -7  -3  466.41   13.04
   6  -7  -3  591.10   12.76
   6  -7  -2  395.63   12.44
   6  -7  -2  413.77   11.18
   6  -7  -1  200.02    9.18
   6  -7  -1  188.06    7.54
   6  -7   0  444.69   12.94
   6  -7   0  429.83   11.03
   6  -7   1  448.72   12.71
   6  -7   2  399.27   11.48
   6  -7   3  542.53   12.42
   6  -7   4  473.34   10.67
   6  -7   5  452.94    9.07
   6  -6  -8  119.99    4.66
   6  -6  -7  331.34    8.56
   6  -6  -6  681.72   13.39
   6  -6  -5  463.94   12.24
   6  -6  -5  616.96   13.50
   6  -6  -4  101.24    6.82
   6  -6  -4  170.68    7.62
   6  -6  -3   31.50    4.97
   6  -6  -3   37.42    4.16
   6  -6  -2  326.99   11.63
   6  -6  -2  383.79   10.99
   6  -6  -1  572.15   15.06
   6  -6  -1  600.74   13.47
   6  -6   0  685.38   16.28
   6  -6   0  649.98   13.90
   6  -6   1 1179.47   18.83
   6  -6   1 1275.93   21.70
   6  -6   2  213.07    9.13
   6  -6   3   11.94    3.71
   6  -6   4   12.25    3.35
   6  -6   5   75.18    4.80
   6  -6   6  643.98   10.16
   6  -5  -9  122.62    4.55
   6  -5  -8  477.75    9.19
   6  -5  -8  498.70   10.34
   6  -5  -7 1428.53   17.46
   6  -5  -7 1299.49   18.78
   6  -5  -6 1616.86   19.74
   6  -5  -6 1397.95   21.06
   6  -5  -5  944.15   15.18
   6  -5  -5  879.13   17.06
   6  -5  -4  221.01    7.80
   6  -5  -4  230.96    7.68
   6  -5  -4  237.83    9.11
   6  -5  -3   84.06    6.26
   6  -5  -3   95.66    5.10
   6  -5  -3   95.41    6.02
   6  -5  -3  102.87    6.04
   6  -5  -2  295.81    8.45
   6  -5  -2  306.94    9.84
   6  -5  -2  311.30    9.74
   6  -5  -1  908.12   18.11
   6  -5  -1  900.94   16.32
   6  -5   0 1540.54   23.53
   6  -5   0 1544.83   21.03
   6  -5   1 1349.73   22.10
   6  -5   1 1344.26   19.98
   6  -5   2  467.66   12.74
   6  -5   2  538.51   13.89
   6  -5   3   85.92    6.67
   6  -5   3  106.87    6.67
   6  -5   4  147.33    8.31
   6  -5   4  182.58    7.94
   6  -5   5  419.31   11.28
   6  -5   5  486.45   11.37
   6  -5   6  622.96   10.91
   6  -5   7  452.23    8.03
   6  -4  -9  394.58    8.35
   6  -4  -9  507.72    9.52
   6  -4  -8  684.07   12.30
   6  -4  -8  671.79   13.84
   6  -4  -7 1271.09   17.90
   6  -4  -7 1466.12   21.61
   6  -4  -6 1281.91   18.46
   6  -4  -6 1316.44   18.95
   6  -4  -6 1331.12   18.48
   6  -4  -5  792.64   15.22
   6  -4  -5  839.31   15.15
   6  -4  -5  757.44   15.84
   6  -4  -5  791.94   15.05
   6  -4  -5  856.31   17.51
   6  -4  -4 1638.35   22.08
   6  -4  -4 1642.40   20.84
   6  -4  -4 1680.11   21.91
   6  -4  -4 1689.31   23.90
   6  -4  -3 1490.20   20.68
   6  -4  -3 1446.89   18.67
   6  -4  -3 1472.03   20.77
   6  -4  -3 1519.90   22.11
   6  -4  -2 1370.97   19.78
   6  -4  -2 1371.19   18.02
   6  -4  -2 1361.33   19.53
   6  -4  -2 1313.44   20.01
   6  -4  -1 1743.14   22.29
   6  -4  -1 1711.56   23.59
   6  -4  -1 1701.49   19.77
   6  -4  -1 1728.64   22.90
   6  -4   0  996.93   18.29
   6  -4   0 1009.27   16.58
   6  -4   0  977.87   17.30
   6  -4   1 1346.33   21.30
   6  -4   1 1318.69   19.36
   6  -4   2 1488.82   21.97
   6  -4   2 1776.01   24.25
   6  -4   3  838.63   17.57
   6  -4   3  894.16   17.13
   6  -4   4 1024.48   20.98
   6  -4   4 1099.71   18.59
   6  -4   5  735.25   17.34
   6  -4   5  794.50   14.81
   6  -4   6  219.85    8.04
   6  -4   6  221.78    7.16
   6  -4   7  169.81    5.33
   6  -3 -10  823.12   10.69
   6  -3  -9  617.38   11.08
   6  -3  -9  581.13   12.53
   6  -3  -8  229.53    7.90
   6  -3  -8  270.36   10.14
   6  -3  -7  242.12    8.82
   6  -3  -7  194.42    7.71
   6  -3  -7  200.64    7.96
   6  -3  -7  246.52    8.81
   6  -3  -7  217.01    9.75
   6  -3  -6  640.60   14.51
   6  -3  -6  537.03   12.63
   6  -3  -6  491.35   12.36
   6  -3  -6  613.76   14.19
   6  -3  -6  614.58   15.93
   6  -3  -5 1389.08   21.49
   6  -3  -5 1365.04   19.52
   6  -3  -5 1394.67   21.23
   6  -3  -5 1390.94   23.00
   6  -3  -4 2273.92   27.28
   6  -3  -4 2220.43   24.07
   6  -3  -4 2215.50   24.75
   6  -3  -4 2174.63   26.27
   6  -3  -4 2324.18   29.08
   6  -3  -3 3733.89   33.96
   6  -3  -3 3690.37   31.76
   6  -3  -3 3905.85   31.14
   6  -3  -3 3772.71   31.40
   6  -3  -3 3890.96   34.39
   6  -3  -3 3887.78   35.97
   6  -3  -2 2467.74   27.02
   6  -3  -2 2501.14   26.61
   6  -3  -2 2620.30   24.89
   6  -3  -2 2676.45   26.10
   6  -3  -2 2523.41   26.97
   6  -3  -2 2557.31   28.58
   6  -3  -1  585.04   12.95
   6  -3  -1  593.16   13.43
   6  -3  -1  589.03   11.83
   6  -3  -1  606.23   12.50
   6  -3  -1  591.12   13.55
   6  -3   0  422.78   11.06
   6  -3   0  439.32   11.68
   6  -3   0  448.48   10.79
   6  -3   0  448.32   11.88
   6  -3   1 1155.10   19.29
   6  -3   1 1128.28   18.69
   6  -3   1 1156.09   17.87
   6  -3   2 2710.37   29.79
   6  -3   2 2696.38   28.81
   6  -3   2 2662.10   30.93
   6  -3   3 2778.25   31.73
   6  -3   3 2806.89   27.89
   6  -3   4 1547.19   25.36
   6  -3   4 1579.20   21.95
   6  -3   5 1181.22   22.81
   6  -3   5 1316.06   18.97
   6  -3   6  277.00    9.53
   6  -3   6  274.17    7.94
   6  -3   7  134.66    5.07
   6  -2 -10  805.78   11.12
   6  -2 -10  632.60   11.99
   6  -2  -9  631.68   12.02
   6  -2  -9  557.75   11.12
   6  -2  -9  687.77   12.43
   6  -2  -9  530.91   13.18
   6  -2  -8   63.94    4.89
   6  -2  -8   33.85    3.56
   6  -2  -8   71.17    5.21
   6  -2  -8   40.10    5.19
   6  -2  -7   11.80    3.91
   6  -2  -7   11.54    3.02
   6  -2  -7    7.42    2.66
   6  -2  -7   12.74    3.19
   6  -2  -7   12.28    3.04
   6  -2  -6  220.18    9.19
   6  -2  -6  216.85    7.84
   6  -2  -6  227.44    9.46
   6  -2  -6  206.92    9.90
   6  -2  -5  440.31   12.75
   6  -2  -5  403.55   10.82
   6  -2  -5  421.12   10.52
   6  -2  -5  433.14   12.85
   6  -2  -5  431.37   13.39
   6  -2  -4  973.17   18.28
   6  -2  -4  884.71   15.24
   6  -2  -4  889.56   14.72
   6  -2  -4  960.36   18.15
   6  -2  -4  922.44   18.37
   6  -2  -3 1746.63   23.72
   6  -2  -3 1742.87   20.81
   6  -2  -3 1697.85   20.00
   6  -2  -3 1776.33   23.75
   6  -2  -3 1805.79   24.84
   6  -2  -2  669.87   14.38
   6  -2  -2  653.99   12.95
   6  -2  -2  652.15   12.22
   6  -2  -2  645.98   12.28
   6  -2  -2  649.95   14.11
   6  -2  -2  622.64   14.22
   6  -2  -1  338.98    9.90
   6  -2  -1  319.40    9.43
   6  -2  -1  330.01    8.91
   6  -2  -1  321.23    8.79
   6  -2  -1  316.61   10.04
   6  -2  -1  334.42    9.85
   6  -2   0  549.77   12.40
   6  -2   0  547.28   12.41
   6  -2   0  548.52   12.03
   6  -2   0  572.54   11.54
   6  -2   0  573.88   13.35
   6  -2   1  811.90   15.43
   6  -2   1  827.97   18.07
   6  -2   1  820.51   14.26
   6  -2   2 1914.49   25.18
   6  -2   2 1902.06   23.81
   6  -2   2 1849.54   26.52
   6  -2   2 1841.11   21.96
   6  -2   3 2451.73   29.69
   6  -2   3 2378.77   26.73
   6  -2   3 2383.91   26.22
   6  -2   4 1469.22   24.91
   6  -2   4 1428.50   20.40
   6  -2   4 1443.01   21.00
   6  -2   5  732.36   18.48
   6  -2   5  787.85   14.51
   6  -2   6  623.00   14.47
   6  -2   6  720.94   12.61
   6  -2   7  687.69   10.59
   6  -1 -10  232.22    6.67
   6  -1 -10  288.53    6.88
   6  -1 -10  268.08    7.11
   6  -1 -10  223.73    7.60
   6  -1  -9  179.26    7.28
   6  -1  -9  173.36    6.34
   6  -1  -9  187.21    7.42
   6  -1  -8  228.20    9.16
   6  -1  -8  231.14    9.22
   6  -1  -7  205.51    9.36
   6  -1  -7  210.95    9.40
   6  -1  -6  152.49    8.21
   6  -1  -6  151.67    7.70
   6  -1  -6  127.84    6.32
   6  -1  -6  146.38    8.07
   6  -1  -6  133.85    8.18
   6  -1  -5  460.27   13.58
   6  -1  -5  462.28   12.99
   6  -1  -5  467.89   11.31
   6  -1  -5  496.17   14.04
   6  -1  -5  488.18   14.28
   6  -1  -4  256.87    9.86
   6  -1  -4  250.49    9.95
   6  -1  -4  251.36    8.06
   6  -1  -4  252.84    9.92
   6  -1  -4  261.22    9.96
   6  -1  -3  129.09    6.90
   6  -1  -3  124.97    7.27
   6  -1  -3  127.84    5.76
   6  -1  -3  125.54    5.52
   6  -1  -3  126.54    6.88
   6  -1  -3  131.35    7.11
   6  -1  -2  508.85   12.64
   6  -1  -2  507.47   14.07
   6  -1  -2  493.56   10.72
   6  -1  -2  474.31   10.31
   6  -1  -2  482.25   12.17
   6  -1  -2  480.98   12.58
   6  -1  -1  765.95   14.70
   6  -1  -1  783.36   13.71
   6  -1  -1  763.21   13.31
   6  -1  -1  772.51   14.82
   6  -1  -1  724.32   13.21
   6  -1  -1  774.85   15.44
   6  -1   0  942.30   15.80
   6  -1   0  955.45   15.70
   6  -1   0  982.08   17.40
   6  -1   1  228.47    8.19
   6  -1   1  208.03   10.40
   6  -1   1  223.10    7.78
   6  -1   1  235.27    8.92
   6  -1   2   21.32    3.59
   6  -1   2   23.49    3.78
   6  -1   2   22.30    4.84
   6  -1   2   22.75    3.25
   6  -1   3  372.79   11.78
   6  -1   3  378.26   10.72
   6  -1   3  362.79   13.22
   6  -1   3  361.47   10.53
   6  -1   4  182.92    9.36
   6  -1   4  185.45    7.62
   6  -1   4  170.66    9.91
   6  -1   4  183.34    8.00
   6  -1   5  222.37   10.44
   6  -1   5  242.59    8.22
   6  -1   5  232.50   10.60
   6  -1   5  238.94    8.89
   6  -1   6 1106.45   18.38
   6  -1   6 1143.09   15.41
   6  -1   7  646.78    9.99
   6   0 -10   64.97    4.00
   6   0 -10   73.10    3.55
   6   0 -10   67.53    4.07
   6   0 -10   59.35    4.29
   6   0  -9  305.49    9.68
   6   0  -9  311.82    9.73
   6   0  -9  280.50    9.94
   6   0  -8  926.11   18.75
   6   0  -8  936.53   18.82
   6   0  -7  853.69   19.32
   6   0  -7  841.49   19.13
   6   0  -7  898.72   19.68
   6   0  -6  930.08   20.06
   6   0  -6 1023.00   19.32
   6   0  -6  999.96   16.21
   6   0  -6  902.13   19.79
   6   0  -6  914.01   19.60
   6   0  -5  610.30   15.86
   6   0  -5  560.94   14.72
   6   0  -5  589.38   12.25
   6   0  -5  616.67   15.88
   6   0  -5  604.11   15.42
   6   0  -4   60.85    5.38
   6   0  -4   61.22    5.50
   6   0  -4   60.11    4.19
   6   0  -4   62.07    5.42
   6   0  -4   59.23    5.16
   6   0  -3   79.38    5.51
   6   0  -3   71.18    5.78
   6   0  -3   71.36    4.25
   6   0  -3   72.53    5.35
   6   0  -3   75.82    5.51
   6   0  -2 1211.73   19.10
   6   0  -2 1247.37   22.15
   6   0  -2 1179.75   16.43
   6   0  -2 1213.93   18.94
   6   0  -2 1247.25   19.93
   6   0  -1 2077.11   23.78
   6   0  -1 2058.28   25.17
   6   0   0  960.23   15.49
   6   0   0  931.51   19.90
   6   0   0  991.36   17.49
   6   0   1  330.14   10.39
   6   0   1  301.27    8.91
   6   0   1  299.79   11.89
   6   0   1  321.69    9.58
   6   0   2   55.24    4.83
   6   0   2   54.60    4.45
   6   0   2   47.91    6.15
   6   0   2   62.87    4.71
   6   0   3   11.66    3.48
   6   0   3   15.05    3.29
   6   0   3   11.67    5.06
   6   0   3   11.95    2.94
   6   0   4  194.73    9.71
   6   0   4  206.45    7.60
   6   0   4  186.51   10.28
   6   0   4  212.20    8.51
   6   0   5  730.11   17.01
   6   0   5  733.45   13.12
   6   0   5  689.00   16.73
   6   0   5  725.38   14.82
   6   0   6  828.17   14.43
   6   0   6  797.29   12.17
   6   0   7  374.16    7.20
   6   0   7  338.76    7.37
   6   1 -10  423.73    9.40
   6   1 -10  468.65    9.85
   6   1  -9  825.27   15.71
   6   1  -9  872.88   16.01
   6   1  -9  872.38   16.18
   6   1  -8  625.46   15.56
   6   1  -8  607.62   15.35
   6   1  -7  852.06   19.23
   6   1  -7 1457.59   22.34
   6   1  -7 1614.40   19.11
   6   1  -7  783.04   18.50
   6   1  -7 1422.05   23.08
   6   1  -6 1078.65   21.87
   6   1  -6 1187.17   21.38
   6   1  -6 1423.07   18.43
   6   1  -6 1114.81   22.06
   6   1  -6 1324.88   22.31
   6   1  -5  588.63   15.66
   6   1  -5  615.54   11.95
   6   1  -5  615.44   16.00
   6   1  -5  586.62   14.63
   6   1  -4  381.90   11.92
   6   1  -4  364.74    9.00
   6   1  -4  383.49   12.03
   6   1  -4  391.93   11.66
   6   1  -3  617.10   14.21
   6   1  -3  592.80   15.65
   6   1  -3  551.31   11.12
   6   1  -3  580.69   13.98
   6   1  -3  569.01   13.53
   6   1  -2 2114.58   24.67
   6   1  -2 2164.28   24.71
   6   1  -2 2082.74   25.13
   6   1  -1 1882.99   22.20
   6   1  -1 1987.14   27.99
   6   1  -1 1855.63   28.01
   6   1  -1 1836.96   21.88
   6   1  -1 1971.83   24.11
   6   1   0  925.98   14.86
   6   1   0  979.34   19.17
   6   1   0  919.05   20.26
   6   1   0  906.35   13.62
   6   1   0  989.17   17.29
   6   1   1 1532.39   21.55
   6   1   1 1570.30   21.21
   6   1   2  815.10   16.28
   6   1   2  782.50   13.57
   6   1   2  773.43   20.12
   6   1   3  457.18   13.25
   6   1   3  427.55   10.21
   6   1   3  431.19   11.62
   6   1   4  731.32   17.11
   6   1   4  762.52   13.44
   6   1   4  710.85   18.84
   6   1   4  760.22   15.45
   6   1   5  567.66   12.78
   6   1   5  561.47   10.65
   6   1   5  524.85   13.65
   6   1   5  520.49   11.95
   6   1   6  452.02   10.06
   6   1   6  449.64    8.45
   6   2 -10  727.23   11.61
   6   2 -10  784.34   12.01
   6   2  -9  613.62   12.72
   6   2  -9  634.58   12.24
   6   2  -8  484.39   13.12
   6   2  -8  625.23   13.17
   6   2  -8  502.28   13.28
   6   2  -8  632.92   13.51
   6   2  -7  518.19   14.41
   6   2  -7  511.08   14.30
   6   2  -6  925.28   19.43
   6   2  -6  807.58   18.53
   6   2  -6 1285.68   15.88
   6   2  -6  923.27   19.37
   6   2  -6 1152.85   19.14
   6   2  -5 1629.11   24.54
   6   2  -5 1771.68   18.85
   6   2  -5 1602.33   24.26
   6   2  -5 1753.26   23.57
   6   2  -4 2732.25   30.00
   6   2  -4 2702.12   23.39
   6   2  -4 2715.84   31.77
   6   2  -4 2707.77   30.27
   6   2  -4 2809.95   29.03
   6   2  -3 2067.84   24.96
   6   2  -3 2062.93   30.14
   6   2  -3 2132.97   28.71
   6   2  -3 2067.60   25.12
   6   2  -3 2144.73   25.04
   6   2  -2  788.28   14.75
   6   2  -2  817.99   18.27
   6   2  -2  775.39   18.13
   6   2  -2  741.32   14.10
   6   2  -2  768.19   14.95
   6   2  -1 1019.65   15.56
   6   2  -1 1006.73   21.07
   6   2  -1 1020.49   15.48
   6   2  -1 1040.70   17.29
   6   2   0 1144.56   18.04
   6   2   0 1105.01   22.78
   6   2   1 1161.11   18.23
   6   2   1 1133.11   24.19
   6   2   1 1035.08   14.20
   6   2   1 1066.39   17.79
   6   2   2 2330.78   27.65
   6   2   2 2335.96   34.68
   6   2   2 2247.42   21.37
   6   2   2 2309.58   26.15
   6   2   3 1732.47   25.21
   6   2   3 1768.95   29.48
   6   2   3 1704.09   18.59
   6   2   3 1739.47   22.55
   6   2   4  649.89   13.15
   6   2   4  575.29   15.92
   6   2   4  660.11   11.25
   6   2   4  596.13   13.14
   6   2   5  230.89    8.24
   6   2   5  232.98    7.70
   6   2   6  199.71    6.15
   6   3  -9  298.00    8.24
   6   3  -9  317.54    8.40
   6   3  -8  110.64    5.96
   6   3  -8  117.63    5.86
   6   3  -8  116.45    6.07
   6   3  -7   71.18    5.28
   6   3  -7   71.15    5.47
   6   3  -7   72.57    5.30
   6   3  -6  409.74   11.77
   6   3  -6  390.04   11.46
   6   3  -5 1445.23   21.41
   6   3  -5 1479.85   21.76
   6   3  -4 2715.12   28.15
   6   3  -4 2604.93   27.85
   6   3  -3 1049.94   16.75
   6   3  -3 1065.70   21.55
   6   3  -3 1109.19   20.97
   6   3  -3 1085.55   16.82
   6   3  -2  136.42    7.82
   6   3  -2  156.95    8.96
   6   3  -1  467.54   13.67
   6   3  -1  485.51   15.04
   6   3   0  924.90   21.38
   6   3   0  905.51   16.26
   6   3   1 1374.01   19.79
   6   3   1 1500.28   26.84
   6   3   2 2381.67   33.31
   6   3   2 2367.38   25.35
   6   3   3 1882.98   27.11
   6   3   3 1873.15   21.93
   6   3   4  779.70   14.66
   6   3   4  782.40   13.61
   6   3   5  155.12    6.06
   6   3   5  288.13    7.46
   6   4  -8   21.83    2.78
   6   4  -8   22.65    2.84
   6   4  -8   22.75    2.80
   6   4  -7    2.50    2.17
   6   4  -7    2.55    2.20
   6   4  -7    2.63    2.16
   6   4  -6  124.27    5.95
   6   4  -6  124.06    5.99
   6   4  -5  393.98   10.03
   6   4  -5  375.77    9.84
   6   4  -4  173.47    8.57
   6   4  -3  415.71   12.67
   6   4  -2  236.70    9.64
   6   4  -1  127.08    6.86
   6   4  -1  142.04    8.99
   6   4  -1  132.46    6.24
   6   4   0  790.69   18.37
   6   4   0  765.17   14.11
   6   4   1  581.83   15.11
   6   4   1  628.58   12.49
   6   4   2  339.05   10.72
   6   4   2  342.59    9.10
   6   4   3  435.49   10.38
   6   4   3  473.07   10.15
   6   4   4  527.16    9.83
   6   5  -7  365.41    8.87
   6   5  -6  129.67    5.95
   6   5  -5   32.61    3.65
   6   5  -4   27.11    3.54
   6   5  -3  213.21    8.19
   6   5  -2  448.82   11.67
   6   5  -2  474.39   10.34
   6   5  -1  307.73    9.29
   6   5  -1  424.97    9.71
   6   5   0  209.26    6.69
   6   5   1    3.52    3.22
   6   5   1    3.99    2.19
   6   5   2   54.10    4.03
   6   5   2   57.60    3.88
   6   6  -5  137.40    5.46
   6   6  -4  193.86    6.78
   6   6  -3  227.24    7.04
   7  -8  -4  781.78   11.14
   7  -8  -3 1053.63   15.57
   7  -8  -3 1144.24   14.33
   7  -8  -2 1324.32   18.03
   7  -8  -2 1300.45   15.89
   7  -8  -1  739.88   13.67
   7  -8   0  616.55   12.28
   7  -8   1  709.15   12.73
   7  -8   2  973.73   13.89
   7  -7  -6 1035.40   12.90
   7  -7  -5  829.16   12.77
   7  -7  -4  235.59    8.38
   7  -7  -4  276.27    8.16
   7  -7  -3  394.39   11.06
   7  -7  -3  505.76   11.32
   7  -7  -2  914.52   17.08
   7  -7  -2 1114.54   16.90
   7  -7  -1 1054.12   18.51
   7  -7  -1 1130.31   17.40
   7  -7   0 1489.92   21.59
   7  -7   1 2364.27   25.81
   7  -7   2 1311.70   18.25
   7  -7   3  191.56    6.97
   7  -7   4  211.89    6.56
   7  -6  -7  695.19   10.97
   7  -6  -6  668.39   12.00
   7  -6  -5  399.34   10.24
   7  -6  -4   52.98    5.40
   7  -6  -4   69.74    5.10
   7  -6  -3   12.92    4.26
   7  -6  -3   17.39    3.41
   7  -6  -2  188.51    8.89
   7  -6  -2  231.87    8.71
   7  -6  -1  565.78   14.61
   7  -6  -1  625.85   13.87
   7  -6   0 1170.45   20.51
   7  -6   0 1162.50   19.17
   7  -6   1 1172.95   19.78
   7  -6   2  435.51   11.78
   7  -6   3  306.07    9.40
   7  -6   4  183.86    6.72
   7  -6   5  503.75    9.37
   7  -5  -7  307.65    7.54
   7  -5  -7  300.75    8.14
   7  -5  -6  247.81    7.56
   7  -5  -6  224.56    7.76
   7  -5  -5  191.16    7.06
   7  -5  -5  170.00    7.36
   7  -5  -5  195.42    7.87
   7  -5  -4  207.19    8.80
   7  -5  -4  233.07    7.98
   7  -5  -4  227.44    8.71
   7  -5  -3   78.45    6.36
   7  -5  -3   87.59    5.23
   7  -5  -3   94.65    5.98
   7  -5  -3   86.48    5.90
   7  -5  -2   70.30    6.14
   7  -5  -2   80.12    5.73
   7  -5  -2   79.08    5.78
   7  -5  -1  434.21   12.92
   7  -5  -1  473.32   12.62
   7  -5   0  278.46   10.58
   7  -5   0  276.59    9.81
   7  -5   1   74.12    5.67
   7  -5   1  107.61    7.03
   7  -5   2  293.19   10.53
   7  -5   2  393.73   11.73
   7  -5   3  331.88   11.82
   7  -5   3  498.21   12.49
   7  -5   4  159.57    7.66
   7  -5   4  307.71    9.09
   7  -5   5   75.03    4.56
   7  -5   5  148.31    5.79
   7  -5   6  114.63    4.41
   7  -4  -8  222.36    6.57
   7  -4  -8  239.17    7.56
   7  -4  -7  103.43    5.27
   7  -4  -7  118.54    5.62
   7  -4  -6  231.44    8.02
   7  -4  -6  233.75    8.03
   7  -4  -6  249.53    9.31
   7  -4  -5  584.39   13.25
   7  -4  -5  593.41   12.67
   7  -4  -4 1509.24   21.84
   7  -4  -4 1492.79   20.44
   7  -4  -4 1540.63   23.49
   7  -4  -3 1552.51   22.52
   7  -4  -3 1555.10   21.14
   7  -4  -3 1545.66   21.90
   7  -4  -3 1531.01   23.35
   7  -4  -2 1069.03   18.76
   7  -4  -2  922.68   17.69
   7  -4  -2 1018.72   18.02
   7  -4  -2  963.41   18.51
   7  -4  -1  216.76    9.14
   7  -4  -1  228.46    8.90
   7  -4  -1  218.77    9.11
   7  -4   0   51.66    4.89
   7  -4   0   44.38    5.23
   7  -4   0   42.82    4.63
   7  -4   1  232.90    9.29
   7  -4   1  251.74    9.81
   7  -4   1  217.19    9.99
   7  -4   2  496.14   13.66
   7  -4   2  582.06   14.22
   7  -4   3  814.09   17.83
   7  -4   3  929.61   17.10
   7  -4   4  654.48   16.32
   7  -4   4  762.82   14.26
   7  -4   5   36.75    4.09
   7  -4   5   48.57    3.90
   7  -4   6   11.67    2.40
   7  -3  -9 1194.28   13.55
   7  -3  -9 1020.48   14.66
   7  -3  -8  448.57    9.59
   7  -3  -8  451.66   11.33
   7  -3  -7   91.07    5.42
   7  -3  -7   62.26    4.54
   7  -3  -7  114.19    5.56
   7  -3  -7   94.82    5.46
   7  -3  -7   82.21    5.90
   7  -3  -6  552.92   13.60
   7  -3  -6  467.14   11.81
   7  -3  -6  490.24   11.41
   7  -3  -6  536.85   13.23
   7  -3  -6  529.60   14.39
   7  -3  -5 1217.14   20.61
   7  -3  -5 1169.26   18.47
   7  -3  -5 1213.17   20.40
   7  -3  -5 1237.14   22.20
   7  -3  -4 1392.73   22.24
   7  -3  -4 1331.40   19.56
   7  -3  -4 1342.10   19.45
   7  -3  -4 1359.65   21.57
   7  -3  -4 1330.14   22.92
   7  -3  -3 2287.45   28.50
   7  -3  -3 2364.98   26.25
   7  -3  -3 2324.84   29.87
   7  -3  -2 1029.38   17.67
   7  -3  -2 1071.37   17.59
   7  -3  -2 1039.41   17.50
   7  -3  -2 1057.33   19.90
   7  -3  -1  396.86   11.64
   7  -3  -1  351.36   10.86
   7  -3  -1  371.53   10.98
   7  -3  -1  379.84   12.03
   7  -3   0  448.38   12.22
   7  -3   0  468.25   13.35
   7  -3   1  597.99   14.96
   7  -3   1  567.60   16.17
   7  -3   2 1402.59   22.75
   7  -3   2 1431.23   21.55
   7  -3   3 1732.64   26.10
   7  -3   3 1721.21   22.89
   7  -3   4 1024.39   20.92
   7  -3   4 1105.14   17.14
   7  -3   5  369.53   11.14
   7  -3   5  401.51    9.37
   7  -3   6  142.83    5.82
   7  -3   6  160.42    5.32
   7  -2  -9  615.63   10.35
   7  -2  -9  599.21   12.07
   7  -2  -8  663.23   13.26
   7  -2  -8  463.97   10.33
   7  -2  -8  640.51   12.82
   7  -2  -8  467.37   12.30
   7  -2  -7  429.64   12.00
   7  -2  -7  262.55    8.71
   7  -2  -7  431.23   11.84
   7  -2  -7  302.24   11.08
   7  -2  -6  704.74   16.22
   7  -2  -6  582.17   13.19
   7  -2  -6  691.95   15.87
   7  -2  -6  597.49   15.83
   7  -2  -5 1213.02   21.80
   7  -2  -5 1165.72   18.79
   7  -2  -5 1234.63   21.55
   7  -2  -5 1214.40   22.54
   7  -2  -4 1218.57   21.89
   7  -2  -4 1188.46   17.38
   7  -2  -4 1220.52   21.61
   7  -2  -4 1179.58   22.00
   7  -2  -3  827.54   17.71
   7  -2  -3  821.91   14.70
   7  -2  -3  842.32   17.77
   7  -2  -3  843.74   18.44
   7  -2  -2 1428.86   20.26
   7  -2  -2 1375.41   19.38
   7  -2  -2 1448.33   23.31
   7  -2  -1 2505.29   28.82
   7  -2  -1 2594.43   26.72
   7  -2  -1 2555.89   30.69
   7  -2   0 1567.97   21.68
   7  -2   0 1576.58   27.97
   7  -2   0 1690.84   21.89
   7  -2   0 1695.22   24.99
   7  -2   1  968.83   19.06
   7  -2   1  968.48   17.23
   7  -2   1 1012.59   17.22
   7  -2   2 1026.26   19.40
   7  -2   2 1035.86   17.94
   7  -2   2 1068.27   17.80
   7  -2   3  856.17   18.37
   7  -2   3  856.51   15.66
   7  -2   3  900.40   16.67
   7  -2   4  445.50   13.80
   7  -2   4  547.10   11.78
   7  -2   4  447.52   13.88
   7  -2   4  556.77   12.63
   7  -2   5  684.96   14.82
   7  -2   5  754.51   12.47
   7  -2   6 1214.96   15.83
   7  -2   6 1253.48   13.77
   7  -1  -9   55.32    3.82
   7  -1  -9   58.60    3.45
   7  -1  -9   51.32    3.69
   7  -1  -9   48.30    4.12
   7  -1  -8  696.73   14.22
   7  -1  -8  722.18   12.73
   7  -1  -8  722.65   14.27
   7  -1  -7  770.10   16.46
   7  -1  -7  766.41   14.40
   7  -1  -7  797.26   16.70
   7  -1  -6  488.33   13.94
   7  -1  -6  460.16   11.54
   7  -1  -6  523.03   14.42
   7  -1  -6  430.55   13.64
   7  -1  -5  651.04   16.34
   7  -1  -5  605.64   13.29
   7  -1  -5  645.26   16.16
   7  -1  -5  631.02   16.35
   7  -1  -4  195.51    9.21
   7  -1  -4  170.10    7.20
   7  -1  -4  193.09    9.07
   7  -1  -4  176.84    9.01
   7  -1  -3  260.38   10.31
   7  -1  -3  244.13    8.57
   7  -1  -3  249.01    9.96
   7  -1  -3  260.61   10.55
   7  -1  -2 1420.30   22.15
   7  -1  -2 1408.68   21.82
   7  -1  -2 1462.82   23.41
   7  -1  -1 2419.29   27.54
   7  -1  -1 2463.53   29.91
   7  -1   0 2092.04   25.02
   7  -1   0 2001.53   22.76
   7  -1   0 2003.94   31.80
   7  -1   0 2152.10   25.38
   7  -1   0 2176.81   28.05
   7  -1   1  830.06   17.49
   7  -1   1  819.55   14.89
   7  -1   1  805.46   19.83
   7  -1   1  813.18   15.72
   7  -1   2  326.23   11.25
   7  -1   2  337.66    9.83
   7  -1   2  331.44   12.99
   7  -1   2  326.93   10.21
   7  -1   3  210.32    9.50
   7  -1   3  225.57    7.99
   7  -1   3  208.98   10.85
   7  -1   3  220.51    8.55
   7  -1   4  486.93   14.36
   7  -1   4  476.99   10.74
   7  -1   4  464.34   11.68
   7  -1   5 1573.93   21.17
   7  -1   5 1719.72   17.92
   7  -1   6 1385.13   16.18
   7  -1   6 1358.99   13.67
   7   0  -9   86.90    4.68
   7   0  -9  100.48    4.12
   7   0  -9   92.48    4.75
   7   0  -9   93.63    5.15
   7   0  -8  254.11    8.78
   7   0  -8  266.30    9.02
   7   0  -8  277.75    9.45
   7   0  -7  392.03   11.88
   7   0  -7  400.58   12.13
   7   0  -6  208.37    9.26
   7   0  -6  243.15   10.07
   7   0  -6  249.25    8.07
   7   0  -6  221.52    9.53
   7   0  -6  231.61    9.80
   7   0  -5    9.25    3.52
   7   0  -5   13.14    3.35
   7   0  -5    9.25    3.43
   7   0  -5    6.36    2.25
   7   0  -5   10.93    3.33
   7   0  -4   25.20    3.97
   7   0  -4   25.91    4.47
   7   0  -4   24.08    3.21
   7   0  -4   23.21    3.85
   7   0  -4   20.93    4.06
   7   0  -3  137.22    7.49
   7   0  -3  135.73    8.68
   7   0  -3  128.22    6.17
   7   0  -3  139.50    7.49
   7   0  -3  136.94    7.64
   7   0  -2  358.12   10.95
   7   0  -2  343.22   10.57
   7   0  -2  358.67   11.61
   7   0  -1  590.37   13.29
   7   0  -1  567.81   17.52
   7   0  -1  579.54   14.49
   7   0   0  857.99   17.47
   7   0   0  828.44   20.53
   7   0   0  888.32   16.64
   7   0   1  728.69   15.95
   7   0   1  718.28   13.16
   7   0   1  722.95   19.39
   7   0   1  735.00   15.25
   7   0   2  182.31    8.56
   7   0   2  183.70    7.05
   7   0   2  169.55   10.58
   7   0   2  185.44    7.89
   7   0   3  244.59    9.91
   7   0   3  241.02    7.68
   7   0   3  235.91    8.66
   7   0   4  826.19   17.40
   7   0   4  863.90   13.38
   7   0   4  799.54   17.93
   7   0   4  834.02   15.16
   7   0   5  654.78   12.23
   7   0   5  634.03   12.71
   7   1  -9  286.37    7.78
   7   1  -9  292.55    7.81
   7   1  -9  309.73    8.22
   7   1  -8  118.29    5.92
   7   1  -8  193.12    5.94
   7   1  -8  119.40    6.02
   7   1  -8  166.07    6.91
   7   1  -7  165.03    7.60
   7   1  -7  317.76   10.18
   7   1  -7  356.12    8.54
   7   1  -7  165.86    7.75
   7   1  -7  318.26   10.13
   7   1  -6  174.49    8.20
   7   1  -6  194.30    9.10
   7   1  -6  259.63    7.74
   7   1  -6  173.34    8.32
   7   1  -6  245.67    9.33
   7   1  -5  376.09   11.90
   7   1  -5  365.10   11.82
   7   1  -5  373.83   11.59
   7   1  -4  852.45   17.36
   7   1  -4  814.84   18.99
   7   1  -4  858.01   17.26
   7   1  -4  827.81   16.98
   7   1  -3  563.21   13.74
   7   1  -3  569.12   16.66
   7   1  -3  517.34   15.77
   7   1  -3  543.06   13.33
   7   1  -3  517.75   13.33
   7   1  -2  135.83    6.75
   7   1  -2  136.25    8.69
   7   1  -2  132.11    8.82
   7   1  -2  139.85    6.71
   7   1  -2  125.00    6.88
   7   1  -1   38.53    3.83
   7   1  -1   35.43    5.78
   7   1  -1   38.49    4.31
   7   1   0  207.62    8.55
   7   1   0  194.49   10.84
   7   1   1  327.29   10.58
   7   1   1  306.36   13.45
   7   1   1  314.99    8.41
   7   1   1  341.23   10.45
   7   1   2  321.45   10.74
   7   1   2  312.40   13.29
   7   1   2  320.15    8.34
   7   1   2  334.03   10.13
   7   1   3  561.17   14.64
   7   1   3  542.74   15.95
   7   1   3  573.72   10.62
   7   1   4  112.11    5.98
   7   1   4  116.12    6.93
   7   1   4  117.33    4.82
   7   1   4  113.35    5.58
   7   1   5    5.16    2.65
   7   2  -9  547.01    9.81
   7   2  -9  564.10    9.92
   7   2  -8  252.48    7.93
   7   2  -8  260.07    7.85
   7   2  -8  263.96    8.03
   7   2  -7  130.66    6.38
   7   2  -7  136.45    6.56
   7   2  -6  596.69   13.59
   7   2  -6  562.18   13.11
   7   2  -5 1497.45   21.61
   7   2  -5 1451.27   22.67
   7   2  -5 1481.25   21.36
   7   2  -4 2181.33   25.78
   7   2  -4 2123.03   28.68
   7   2  -4 2098.04   24.97
   7   2  -3  970.17   16.63
   7   2  -3  995.67   21.05
   7   2  -3  966.14   19.96
   7   2  -3  979.41   16.63
   7   2  -2  168.07    6.89
   7   2  -2  172.23    9.49
   7   2  -2  163.18    9.36
   7   2  -2  180.03    7.67
   7   2  -1  196.14    7.87
   7   2  -1  184.07   10.00
   7   2  -1  198.02    8.10
   7   2   0  271.78    9.29
   7   2   0  275.90   12.19
   7   2   0  284.11    9.43
   7   2   1  705.24   14.97
   7   2   1  706.56   18.55
   7   2   1  700.65   14.21
   7   2   2 1151.79   22.59
   7   2   2 1266.75   18.34
   7   2   3  701.50   15.66
   7   2   3  759.54   13.70
   7   2   4  219.19    7.54
   7   2   4  272.53    7.55
   7   3  -7  327.86    8.67
   7   3  -7  325.91    9.29
   7   3  -7  314.42    8.31
   7   3  -6  563.71   11.66
   7   3  -6  568.30   11.62
   7   3  -5 1150.50   16.86
   7   3  -5 1105.80   16.31
   7   3  -4 1188.94   16.71
   7   3  -4 1203.88   16.76
   7   3  -3  905.73   19.06
   7   3  -3  940.37   18.99
   7   3  -2  748.16   16.83
   7   3  -2  792.06   18.01
   7   3  -1  745.40   17.86
   7   3  -1  753.19   14.27
   7   3   0 1008.44   20.37
   7   3   0 1077.47   16.86
   7   3   1 1256.11   21.94
   7   3   1 1327.84   17.91
   7   3   2  754.37   15.29
   7   3   2  836.37   13.55
   7   3   3  645.19   12.15
   7   3   3  727.61   12.00
   7   4  -7  688.67   11.62
   7   4  -6  501.50   11.18
   7   4  -5  197.16    7.77
   7   4  -4  224.27    8.39
   7   4  -3  935.80   17.04
   7   4  -2 1128.14   18.39
   7   4  -2 1381.72   17.52
   7   4  -1 1273.55   16.62
   7   4   0  621.90   13.03
   7   4   0  861.15   13.21
   7   4   1  242.33    7.75
   7   4   1  322.42    7.94
   7   4   2  252.70    6.76
   7   5  -4   33.63    3.35
   7   5  -4   44.44    3.13
   7   5  -3  373.07    7.95
   7   5  -2  987.48   12.55
   8  -7  -4  426.86    8.83
   8  -7  -3  249.03    7.39
   8  -7  -2  350.95    9.37
   8  -7  -1  990.37   15.38
   8  -7   0 1501.01   18.88
   8  -7   1 1180.31   15.95
   8  -7   2  504.79    9.79
   8  -6  -5  801.93   12.70
   8  -6  -4  392.14    9.64
   8  -6  -3  369.21   10.06
   8  -6  -3  449.90   10.86
   8  -6  -2  533.99   12.33
   8  -6  -2  749.17   14.38
   8  -6  -1  652.63   13.81
   8  -6   0 1098.51   17.47
   8  -6   1  724.98   13.85
   8  -6   2  699.35   12.75
   8  -6   3 1217.67   14.94
   8  -5  -6   24.56    3.10
   8  -5  -5  251.02    7.94
   8  -5  -4  968.01   15.86
   8  -5  -4  857.23   15.20
   8  -5  -3  691.92   14.22
   8  -5  -3  897.87   15.93
   8  -5  -2  459.63   11.86
   8  -5  -2  560.72   13.03
   8  -5  -1  298.26    9.67
   8  -5  -1  265.73   10.97
   8  -5   0  133.62    6.82
   8  -5   0  213.74    8.65
   8  -5   1  189.12    8.30
   8  -5   1  330.41   10.30
   8  -5   2  345.66   11.14
   8  -5   2  724.08   13.79
   8  -5   3  640.17   13.84
   8  -5   3 1586.70   18.30
   8  -5   4 1140.92   13.67
   8  -4  -7    6.89    2.03
   8  -4  -6    8.15    2.86
   8  -4  -6    7.62    2.24
   8  -4  -6    8.12    2.85
   8  -4  -5  251.85    8.30
   8  -4  -5  237.94    7.95
   8  -4  -5  232.53    8.62
   8  -4  -4  651.83   13.41
   8  -4  -4  622.47   14.32
   8  -4  -3  453.03   11.66
   8  -4  -3  389.89   11.79
   8  -4  -2  289.54    9.74
   8  -4  -2  266.85    9.86
   8  -4  -1   18.09    3.67
   8  -4  -1   28.81    4.52
   8  -4  -1   19.03    5.13
   8  -4   0    3.70    2.85
   8  -4   0    3.73    4.59
   8  -4   1  144.89    7.42
   8  -4   1  130.99    8.21
   8  -4   2  339.77   11.07
   8  -4   2  510.54   11.98
   8  -4   3  392.34   12.15
   8  -4   3  673.56   12.36
   8  -4   4  245.76    8.19
   8  -4   4  541.48    9.89
   8  -3  -8  220.25    6.00
   8  -3  -7  203.38    6.69
   8  -3  -7  176.22    7.10
   8  -3  -6  296.99    8.65
   8  -3  -6  295.46    9.77
   8  -3  -5  214.91    8.31
   8  -3  -5  203.89    7.61
   8  -3  -5  211.15    7.70
   8  -3  -5  188.59    8.36
   8  -3  -4  290.49    9.96
   8  -3  -4  279.49    9.15
   8  -3  -4  266.24    8.67
   8  -3  -4  260.77   10.04
   8  -3  -3  324.42    9.93
   8  -3  -3  314.41   11.09
   8  -3  -2  255.65   10.13
   8  -3  -1  395.67   12.31
   8  -3  -1  386.75   10.89
   8  -3  -1  395.07   13.99
   8  -3   0  232.27    9.46
   8  -3   0  242.58    8.92
   8  -3   0  224.94   10.88
   8  -3   1  328.25   10.93
   8  -3   1  365.94   10.52
   8  -3   2  206.61    8.97
   8  -3   2  213.73   10.23
   8  -3   3   10.21    3.50
   8  -3   3    9.85    2.91
   8  -3   4   82.07    5.70
   8  -3   4  130.40    5.32
   8  -3   5  326.02    6.91
   8  -2  -8  565.16   10.06
   8  -2  -8  597.52   10.14
   8  -2  -7 1281.71   17.78
   8  -2  -7  904.59   13.84
   8  -2  -7 1357.14   17.87
   8  -2  -7  813.98   15.22
   8  -2  -6  860.76   16.00
   8  -2  -6  720.45   13.54
   8  -2  -6  866.79   15.78
   8  -2  -6  759.07   15.95
   8  -2  -5  407.10   11.75
   8  -2  -5  364.39   10.20
   8  -2  -5  417.22   11.77
   8  -2  -5  357.84   11.58
   8  -2  -4  419.91   11.32
   8  -2  -4  411.15   12.58
   8  -2  -3  404.30   12.03
   8  -2  -3  514.27   14.16
   8  -2  -2  892.65   17.38
   8  -2  -2  812.28   17.61
   8  -2  -1 1833.49   29.38
   8  -2  -1 1744.85   25.51
   8  -2   0 1765.66   25.07
   8  -2   0 1756.19   21.01
   8  -2   1  516.25   13.43
   8  -2   1  549.00   12.01
   8  -2   1  530.52   15.67
   8  -2   2   61.02    5.30
   8  -2   2   61.22    4.57
   8  -2   2   58.86    6.60
   8  -2   2   70.40    5.09
   8  -2   3   39.12    4.71
   8  -2   3   45.69    3.93
   8  -2   3   34.45    5.43
   8  -2   4  142.96    7.00
   8  -2   4  187.48    6.08
   8  -1  -8 1064.44   14.46
   8  -1  -8 1109.48   14.77
   8  -1  -7  916.08   15.35
   8  -1  -7  912.81   15.31
   8  -1  -6  669.79   14.39
   8  -1  -6  693.35   12.99
   8  -1  -6  649.46   14.19
   8  -1  -5  352.62   11.08
   8  -1  -5  374.04   10.07
   8  -1  -5  334.21   10.80
   8  -1  -5  336.85   11.08
   8  -1  -4  398.10   11.84
   8  -1  -4  393.02   11.73
   8  -1  -3  773.31   16.33
   8  -1  -3  652.69   15.59
   8  -1  -2  721.01   15.39
   8  -1  -2  751.51   15.05
   8  -1  -2  700.76   16.17
   8  -1  -1 1596.32   27.45
   8  -1  -1 1662.25   22.34
   8  -1   0 2098.32   30.96
   8  -1   0 2211.81   25.36
   8  -1   1  603.76   14.31
   8  -1   1  640.25   11.97
   8  -1   1  651.06   17.16
   8  -1   2  438.61   12.51
   8  -1   2  438.09   14.40
   8  -1   3  608.21   14.59
   8  -1   3  582.78   14.98
   8  -1   4  650.03   12.93
   8  -1   4  563.80   12.17
   8   0  -8  228.26    6.89
   8   0  -8  224.20    6.75
   8   0  -7  149.79    6.33
   8   0  -7  148.44    6.29
   8   0  -6  272.28    9.19
   8   0  -6  279.16    9.24
   8   0  -5  533.59   13.18
   8   0  -5  501.29   14.46
   8   0  -5  525.31   12.98
   8   0  -5  522.85   13.09
   8   0  -4  670.15   14.90
   8   0  -4  644.95   16.86
   8   0  -4  673.75   14.70
   8   0  -3  900.37   16.82
   8   0  -3  859.18   19.78
   8   0  -3  834.56   16.89
   8   0  -2  746.35   14.82
   8   0  -2  744.72   18.67
   8   0  -2  781.28   15.57
   8   0  -2  725.71   15.80
   8   0  -1  258.19    9.49
   8   0  -1  267.93   11.71
   8   0  -1  288.47    9.53
   8   0   0  510.15   12.72
   8   0   0  529.41   15.88
   8   0   1 1103.92   18.89
   8   0   1 1196.82   23.09
   8   0   2  898.86   17.26
   8   0   2  899.83   12.48
   8   0   3  841.24   15.93
   8   0   3  816.63   17.18
   8   0   4  485.28   10.18
   8   1  -7   11.45    2.40
   8   1  -7   12.08    2.40
   8   1  -7   16.88    2.98
   8   1  -6  180.46    7.10
   8   1  -6  178.18    7.01
   8   1  -5  719.55   14.26
   8   1  -5  695.39   15.39
   8   1  -5  715.98   14.19
   8   1  -4  700.77   13.82
   8   1  -4  708.35   16.26
   8   1  -3  670.72   13.31
   8   1  -3  641.19   16.03
   8   1  -3  650.96   13.94
   8   1  -2  221.53    8.35
   8   1  -2  231.40    7.76
   8   1  -2  237.72   10.62
   8   1  -2  236.48    8.65
   8   1  -1    9.54    3.00
   8   1  -1   13.56    4.71
   8   1  -1   13.61    2.98
   8   1   0  110.46    6.20
   8   1   0  118.36    8.35
   8   1   0  130.25    6.27
   8   1   1  663.20   14.15
   8   1   1  684.96   16.85
   8   1   2  821.20   15.60
   8   1   2  900.68   17.70
   8   1   3  618.95   12.64
   8   1   3  714.96   11.86
   8   2  -6   84.36    4.59
   8   2  -6   85.25    4.45
   8   2  -5  256.70    7.62
   8   2  -4  419.47    9.56
   8   2  -4  347.04   11.40
   8   2  -3   70.60    6.52
   8   2  -3   75.13    4.84
   8   2  -2   93.30    7.24
   8   2  -2   95.51    5.28
   8   2  -1  163.32    8.84
   8   2  -1  186.91    7.03
   8   2   0   57.10    5.83
   8   2   0   63.68    4.24
   8   2   1  289.85   10.36
   8   2   1  333.21    8.49
   8   2   2  385.26   10.19
   8   2   2  465.90    9.53
   8   3  -4  176.32    6.07
   8   3  -3  347.65    8.48
   8   3  -2  756.64   12.44
   8   3  -1  508.06   12.49
   8   3  -1  765.19   12.24
   8   3   0  254.83    6.99
   9  -4  -4  166.22    6.74
   9  -4  -3  336.76    9.73
   9  -4  -3  260.27   10.61
   9  -4  -2  206.41    7.93
   9  -4  -2  241.22    9.89
   9  -4  -1  121.86    6.43
   9  -4  -1  162.96    8.34
   9  -4   0  326.47   10.11
   9  -4   0  410.91   11.93
   9  -4   1  353.42   10.63
   9  -3  -5    7.99    2.87
   9  -3  -4   16.00    4.61
   9  -3  -4   22.31    3.48
   9  -3  -3   76.97    5.36
   9  -3  -3   73.51    6.68
   9  -3  -2  167.02    7.50
   9  -3  -2  166.94    9.17
   9  -3  -1  484.38   12.12
   9  -3  -1  597.49   15.07
   9  -3   0  508.23   12.39
   9  -3   0  652.79   15.24
   9  -3   1  217.22    8.56
   9  -3   1  271.38   10.40
   9  -3   2   10.07    3.36
   9  -2  -6   57.27    6.49
   9  -2  -6  135.57    6.08
   9  -2  -5   69.45    5.97
   9  -2  -5   74.97    4.94
   9  -2  -4   10.21    3.08
   9  -2  -4   12.09    4.43
   9  -2  -3   24.88    3.53
   9  -2  -3   18.22    4.92
   9  -2  -2  179.78    7.71
   9  -2  -2  197.50    9.51
   9  -2  -1  359.46   10.18
   9  -2  -1  450.55   13.58
   9  -2   0  227.34    8.31
   9  -2   0  266.96   10.70
   9  -2   1   45.66    4.33
   9  -2   1   55.72    6.11
   9  -2   2   49.16    4.63
   9  -1  -6  241.45    6.99
   9  -1  -6  262.60    7.85
   9  -1  -5  153.19    9.20
   9  -1  -5  268.89    8.47
   9  -1  -4  240.14    9.81
   9  -1  -4  231.67    8.28
   9  -1  -3  342.02    9.97
   9  -1  -3  362.11   11.91
   9  -1  -2  279.21    9.00
   9  -1  -2  295.01   11.10
   9  -1  -1  189.76    9.14
   9  -1  -1  215.29    7.29
   9  -1   0  106.74    5.93
   9  -1   0  113.49    7.64
   9  -1   1  282.21    9.30
   9  -1   1  326.48   11.12
   9   0  -5  877.55   13.20
   9   0  -5  867.51   13.93
   9   0  -4  848.89   16.99
   9   0  -4  768.91   12.50
   9   0  -3  940.35   15.20
   9   0  -3  977.86   14.57
   9   0  -2  410.77   10.15
   9   0  -2  500.70   13.47
   9   0  -1   92.76    6.94
   9   0  -1  106.89    5.24
   9   0   0  281.38   10.26
   9   0   0  324.70    8.34
   9   0   1  654.43   14.26
   9   1  -3  389.68    8.87
   9   1  -2  258.25    9.87
   9   1  -2  295.07    7.79
   9   1  -1  227.10    9.81
   9   1  -1  395.58    8.80
   0   0   0    0.00    0.00




TITL jps3296b in P1
REM P1 (#1 in standard setting)
CELL 1.54184   7.940793   8.718086  10.131366  94.7337  99.5535 102.8432
ZERR    1.00   0.000279   0.000280   0.000313   0.0026   0.0028   0.0029
LATT -1
SFAC C H N P Br Re
UNIT 20.00 48.00 2.00 4.00 1.00 1.00
TREF
HKLF 4
END
_computing_structure_solution     'SHELXT 2014/5 (Sheldrick, 2014)'
_computing_structure_solution     'SHELXT 2014/5 (Sheldrick, 2014)'
_computing_structure_solution     'SHELXT 2014/5 (Sheldrick, 2014)'
;
_shelx_hkl_checksum              80284
_olex2_submission_special_instructions 'No special instructions were received'
_oxdiff_exptl_absorpt_empirical_details
;
Empirical correction (ABSPACK) includes:
- Absorption correction using spherical harmonics
- Frame scaling
- Detector area scaling
;
_oxdiff_exptl_absorpt_empirical_full_max 2.366
_oxdiff_exptl_absorpt_empirical_full_min 0.477
loop_
_space_group_symop_operation_xyz
'x, y, z'
'-x, -y, -z'
loop_
_atom_site_label
_atom_site_type_symbol
_atom_site_fract_x
_atom_site_fract_y
_atom_site_fract_z
_atom_site_U_iso_or_equiv
_atom_site_adp_type
_atom_site_occupancy
_atom_site_site_symmetry_order
_atom_site_calc_flag
_atom_site_refinement_flags_posn
_atom_site_refinement_flags_adp
_atom_site_refinement_flags_occupancy
_atom_site_disorder_assembly
_atom_site_disorder_group
Re1 Re 0.500000 0.500000 0.500000 0.01209(19) Uani 1 2 d S T P A 1
P1 P 0.35069(18) 0.34216(16) 0.64682(14) 0.0155(3) Uani 1 1 d . . . A 1
P2 P 0.31579(18) 0.29214(15) 0.33518(13) 0.0144(3) Uani 1 1 d . . . A 1
C3 C 0.4711(8) 0.2343(7) 0.7631(6) 0.0214(12) Uani 1 1 d . . . A 1
H3A H 0.387333 0.163867 0.803841 0.026 Uiso 1 1 calc R . . A 1
H3B H 0.528004 0.169224 0.711637 0.026 Uiso 1 1 calc R . . A 1
C8 C 0.2994(8) 0.0594(7) 0.1107(6) 0.0222(12) Uani 1 1 d . . . A 1
H8A H 0.366902 0.023108 0.049784 0.033 Uiso 1 1 calc GR . . A 1
H8B H 0.195863 0.081314 0.060057 0.033 Uiso 1 1 calc GR . . A 1
H8C H 0.265755 -0.021019 0.166983 0.033 Uiso 1 1 calc GR . . A 1
C2 C 0.2205(9) 0.4301(7) 0.7513(6) 0.0213(12) Uani 1 1 d . . . A 1
H2A H 0.301053 0.512852 0.816467 0.026 Uiso 1 1 calc R . . A 1
H2B H 0.145344 0.481022 0.693518 0.026 Uiso 1 1 calc R . . A 1
C7 C 0.4101(8) 0.2101(7) 0.1985(6) 0.0225(12) Uani 1 1 d . . . A 1
H7A H 0.436249 0.291403 0.140077 0.027 Uiso 1 1 calc R . . A 1
H7B H 0.521051 0.189166 0.238794 0.027 Uiso 1 1 calc R . . A 1
C10 C -0.0565(9) 0.1910(8) 0.2127(7) 0.0298(14) Uani 1 1 d . . . A 1
H10A H -0.147401 0.224600 0.155920 0.045 Uiso 1 1 calc GR . . A 1
H10B H -0.094983 0.163047 0.294337 0.045 Uiso 1 1 calc GR . . A 1
H10C H -0.031470 0.100540 0.166267 0.045 Uiso 1 1 calc GR . . A 1
C6 C 0.2468(8) 0.1174(6) 0.4219(6) 0.0177(11) Uani 1 1 d . . . A 1
H6A H 0.152737 0.039067 0.362749 0.021 Uiso 1 1 calc R . . A 1
H6B H 0.344900 0.069616 0.446936 0.021 Uiso 1 1 calc R . . A 1
C1 C 0.1050(9) 0.3211(8) 0.8283(7) 0.0269(13) Uani 1 1 d . . . A 1
H1A H 0.020347 0.240757 0.765543 0.040 Uiso 1 1 calc GR . . A 1
H1B H 0.044820 0.381913 0.878906 0.040 Uiso 1 1 calc GR . . A 1
H1C H 0.177019 0.272038 0.888739 0.040 Uiso 1 1 calc GR . . A 1
C5 C 0.1839(8) 0.1718(7) 0.5466(6) 0.0203(12) Uani 1 1 d . . . A 1
H5A H 0.162745 0.085416 0.600916 0.024 Uiso 1 1 calc R . . A 1
H5B H 0.074057 0.202497 0.520504 0.024 Uiso 1 1 calc R . . A 1
C9 C 0.1067(9) 0.3235(8) 0.2462(8) 0.0309(15) Uani 1 1 d . . . A 1
H9A H 0.079274 0.408873 0.299811 0.037 Uiso 1 1 calc R . . A 1
H9B H 0.128395 0.362112 0.162022 0.037 Uiso 1 1 calc R . . A 1
C4 C 0.6095(8) 0.3418(7) 0.8747(6) 0.0239(13) Uani 1 1 d . . . A 1
H4A H 0.696214 0.408626 0.835505 0.036 Uiso 1 1 calc GR . . A 1
H4B H 0.665235 0.278174 0.932395 0.036 Uiso 1 1 calc GR . . A 1
H4C H 0.554423 0.406365 0.926585 0.036 Uiso 1 1 calc GR . . A 1
Br1 Br 0.7311(2) 0.32252(18) 0.51732(16) 0.0164(4) Uani 0.5 1 d . . . A -1
N1 N 0.6710(16) 0.3757(14) 0.5115(10) 0.0164(4) Uani 0.5 1 d . . . A 1
N2 N 0.774(2) 0.303(2) 0.519(2) 0.0164(4) Uani 0.5 1 d . . . A 1
loop_
_atom_site_aniso_label
_atom_site_aniso_U_11
_atom_site_aniso_U_22
_atom_site_aniso_U_33
_atom_site_aniso_U_23
_atom_site_aniso_U_13
_atom_site_aniso_U_12
Re1 0.0168(3) 0.0067(2) 0.0123(2) 0.00122(13) -0.00020(14) 0.00401(15)
P1 0.0206(7) 0.0107(6) 0.0141(7) 0.0018(5) 0.0005(5) 0.0034(5)
P2 0.0189(7) 0.0090(6) 0.0135(7) 0.0004(5) -0.0006(5) 0.0024(5)
C3 0.028(3) 0.018(3) 0.017(3) -0.001(2) -0.002(2) 0.009(2)
C8 0.031(3) 0.014(3) 0.021(3) -0.004(2) 0.005(2) 0.007(2)
C2 0.031(3) 0.018(3) 0.018(3) 0.000(2) 0.007(2) 0.010(2)
C7 0.028(3) 0.016(3) 0.020(3) -0.003(2) 0.005(2) 0.001(2)
C10 0.025(3) 0.021(3) 0.037(4) -0.005(3) -0.004(3) 0.005(3)
C6 0.021(3) 0.013(3) 0.018(3) 0.004(2) 0.000(2) 0.004(2)
C1 0.032(3) 0.026(3) 0.025(3) 0.006(3) 0.010(3) 0.008(3)
C5 0.022(3) 0.014(3) 0.022(3) 0.006(2) 0.001(2) -0.002(2)
C9 0.026(3) 0.019(3) 0.041(4) 0.007(3) -0.010(3) 0.003(3)
C4 0.031(3) 0.017(3) 0.022(3) 0.004(2) -0.002(2) 0.007(2)
Br1 0.0195(9) 0.0133(7) 0.0180(6) 0.0017(5) 0.0013(7) 0.0090(6)
N1 0.0195(9) 0.0133(7) 0.0180(6) 0.0017(5) 0.0013(7) 0.0090(6)
N2 0.0195(9) 0.0133(7) 0.0180(6) 0.0017(5) 0.0013(7) 0.0090(6)
loop_
_atom_type_symbol
_atom_type_description
_atom_type_scat_dispersion_real
_atom_type_scat_dispersion_imag
_atom_type_scat_source
C C 0.0181 0.0091 'International Tables Vol C Tables 4.2.6.8 and 6.1.1.4'
H H 0.0000 0.0000 'International Tables Vol C Tables 4.2.6.8 and 6.1.1.4'
N N 0.0311 0.0180 'International Tables Vol C Tables 4.2.6.8 and 6.1.1.4'
P P 0.2955 0.4335 'International Tables Vol C Tables 4.2.6.8 and 6.1.1.4'
Br Br -0.6763 1.2805 'International Tables Vol C Tables 4.2.6.8 and 6.1.1.4'
Re Re -5.2083 5.8923 'International Tables Vol C Tables 4.2.6.8 and 6.1.1.4'
loop_
_geom_angle_atom_site_label_1
_geom_angle_atom_site_label_2
_geom_angle_atom_site_label_3
_geom_angle
_geom_angle_site_symmetry_1
_geom_angle_site_symmetry_3
P1 Re1 P1 180.00(6) 2_666 .
P1 Re1 P2 81.10(5) 2_666 2_666
P1 Re1 P2 98.90(5) . 2_666
P1 Re1 P2 98.90(5) 2_666 .
P1 Re1 P2 81.10(5) . .
P1 Re1 Br1 91.45(5) 2_666 .
P1 Re1 Br1 88.55(5) . .
P2 Re1 P2 180.0 . 2_666
P2 Re1 Br1 93.87(5) 2_666 .
P2 Re1 Br1 86.13(5) . .
N1 Re1 P1 90.2(3) . 2_666
N1 Re1 P1 89.8(3) 2_666 2_666
N1 Re1 P1 89.8(3) . .
N1 Re1 P1 90.2(3) 2_666 .
N1 Re1 P2 86.8(3) . .
N1 Re1 P2 86.8(3) 2_666 2_666
N1 Re1 P2 93.2(3) . 2_666
N1 Re1 P2 93.2(3) 2_666 .
N1 Re1 Br1 178.7(3) 2_666 .
N1 Re1 Br1 1.3(3) . .
N1 Re1 N1 180.0 2_666 .
C3 P1 Re1 120.0(2) . .
C3 P1 C5 99.1(3) . .
C2 P1 Re1 119.0(2) . .
C2 P1 C3 103.7(3) . .
C2 P1 C5 102.0(3) . .
C5 P1 Re1 109.87(19) . .
C7 P2 Re1 119.1(2) . .
C6 P2 Re1 107.96(19) . .
C6 P2 C7 102.4(3) . .
C9 P2 Re1 118.2(2) . .
C9 P2 C7 103.5(3) . .
C9 P2 C6 103.6(3) . .
P1 C3 H3A 108.8 . .
P1 C3 H3B 108.8 . .
H3A C3 H3B 107.7 . .
C4 C3 P1 113.8(4) . .
C4 C3 H3A 108.8 . .
C4 C3 H3B 108.8 . .
H8A C8 H8B 109.5 . .
H8A C8 H8C 109.5 . .
H8B C8 H8C 109.5 . .
C7 C8 H8A 109.5 . .
C7 C8 H8B 109.5 . .
C7 C8 H8C 109.5 . .
P1 C2 H2A 107.8 . .
P1 C2 H2B 107.8 . .
H2A C2 H2B 107.1 . .
C1 C2 P1 118.0(4) . .
C1 C2 H2A 107.8 . .
C1 C2 H2B 107.8 . .
P2 C7 H7A 107.9 . .
P2 C7 H7B 107.9 . .
C8 C7 P2 117.5(4) . .
C8 C7 H7A 107.9 . .
C8 C7 H7B 107.9 . .
H7A C7 H7B 107.2 . .
H10A C10 H10B 109.5 . .
H10A C10 H10C 109.5 . .
H10B C10 H10C 109.5 . .
C9 C10 H10A 109.5 . .
C9 C10 H10B 109.5 . .
C9 C10 H10C 109.5 . .
P2 C6 H6A 110.1 . .
P2 C6 H6B 110.1 . .
H6A C6 H6B 108.4 . .
C5 C6 P2 108.0(4) . .
C5 C6 H6A 110.1 . .
C5 C6 H6B 110.1 . .
C2 C1 H1A 109.5 . .
C2 C1 H1B 109.5 . .
C2 C1 H1C 109.5 . .
H1A C1 H1B 109.5 . .
H1A C1 H1C 109.5 . .
H1B C1 H1C 109.5 . .
P1 C5 H5A 109.6 . .
P1 C5 H5B 109.6 . .
C6 C5 P1 110.1(4) . .
C6 C5 H5A 109.6 . .
C6 C5 H5B 109.6 . .
H5A C5 H5B 108.1 . .
P2 C9 H9A 107.0 . .
P2 C9 H9B 107.0 . .
C10 C9 P2 121.1(5) . .
C10 C9 H9A 107.0 . .
C10 C9 H9B 107.0 . .
H9A C9 H9B 106.8 . .
C3 C4 H4A 109.5 . .
C3 C4 H4B 109.5 . .
C3 C4 H4C 109.5 . .
H4A C4 H4B 109.5 . .
H4A C4 H4C 109.5 . .
H4B C4 H4C 109.5 . .
N1 Br1 Re1 3.5(8) . .
Br1 N1 Re1 175.2(11) . .
Br1 N1 N2 5.3(10) . .
N2 N1 Re1 179.3(15) . .
loop_
_geom_bond_atom_site_label_1
_geom_bond_atom_site_label_2
_geom_bond_distance
_geom_bond_site_symmetry_2
Re1 P1 2.3895(14) 2_666
Re1 P1 2.3896(14) .
Re1 P2 2.3923(13) 2_666
Re1 P2 2.3923(13) .
Re1 Br1 2.6442(14) .
Re1 N1 1.911(14) 2_666
Re1 N1 1.912(14) .
P1 C3 1.842(6) .
P1 C2 1.833(6) .
P1 C5 1.849(6) .
P2 C7 1.846(6) .
P2 C6 1.845(6) .
P2 C9 1.841(6) .
C3 H3A 0.9700 .
C3 H3B 0.9700 .
C3 C4 1.524(8) .
C8 H8A 0.9600 .
C8 H8B 0.9600 .
C8 H8C 0.9600 .
C8 C7 1.525(8) .
C2 H2A 0.9700 .
C2 H2B 0.9700 .
C2 C1 1.525(9) .
C7 H7A 0.9700 .
C7 H7B 0.9700 .
C10 H10A 0.9600 .
C10 H10B 0.9600 .
C10 H10C 0.9600 .
C10 C9 1.501(9) .
C6 H6A 0.9700 .
C6 H6B 0.9700 .
C6 C5 1.512(8) .
C1 H1A 0.9600 .
C1 H1B 0.9600 .
C1 H1C 0.9600 .
C5 H5A 0.9700 .
C5 H5B 0.9700 .
C9 H9A 0.9700 .
C9 H9B 0.9700 .
C4 H4A 0.9600 .
C4 H4B 0.9600 .
C4 H4C 0.9600 .
Br1 N1 0.735(13) .
N1 N2 1.137(17) .
