#------------------------------------------------------------------------------
#$Date: 2019-11-02 05:06:08 +0200 (Sat, 02 Nov 2019) $
#$Revision: 220655 $
#$URL: file:///home/coder/svn-repositories/cod/cif/4/12/73/4127377.cif $
#------------------------------------------------------------------------------
#
# This file is available in the Crystallography Open Database (COD),
# http://www.crystallography.net/
#
# All data on this site have been placed in the public domain by the
# contributors.
#
data_4127377
loop_
_publ_author_name
'Trost, Barry M.'
'Gholami, Hadi'
'Zell, Daniel'
_publ_section_title
;
 Palladium-Catalyzed Asymmetric Allylic
 Fluoroalkylation/Trifluoromethylation.
;
_journal_issue                   29
_journal_name_full               'Journal of the American Chemical Society'
_journal_page_first              11446
_journal_page_last               11451
_journal_paper_doi               10.1021/jacs.9b06231
_journal_volume                  141
_journal_year                    2019
_chemical_absolute_configuration ad
_chemical_formula_moiety         'C17 H15 F3'
_chemical_formula_sum            'C17 H15 F3'
_chemical_formula_weight         276.29
_space_group_crystal_system      monoclinic
_space_group_IT_number           4
_space_group_name_Hall           'P 2yb'
_space_group_name_H-M_alt        'P 1 21 1'
_symmetry_space_group_name_Hall  'P 2yb'
_symmetry_space_group_name_H-M   'P 1 21 1'
_atom_sites_solution_hydrogens   geom
_atom_sites_solution_primary     dual
_audit_creation_date             2019-04-14
_audit_creation_method
;
Olex2 1.2
(compiled 2018.05.29 svn.r3508 for OlexSys, GUI svn.r5506)
;
_cell_angle_alpha                90
_cell_angle_beta                 104.905(8)
_cell_angle_gamma                90
_cell_formula_units_Z            2
_cell_length_a                   8.0473(7)
_cell_length_b                   5.7982(7)
_cell_length_c                   15.2584(16)
_cell_measurement_reflns_used    9884
_cell_measurement_temperature    100
_cell_measurement_theta_max      80.125
_cell_measurement_theta_min      2.997
_cell_volume                     688.00(13)
_computing_cell_refinement       'SAINT V8.38A (Madison, 2016)'
_computing_data_reduction        'SAINT V8.38A (Madison, 2016)'
_computing_molecular_graphics    'Olex2 (Dolomanov et al., 2009)'
_computing_publication_material  'Olex2 (Dolomanov et al., 2009)'
_computing_structure_refinement  'XL (Sheldrick, 2008)'
_computing_structure_solution    'XT (Sheldrick, 2015)'
_diffrn_ambient_temperature      100.0
_diffrn_detector_area_resol_mean 7.41
_diffrn_measured_fraction_theta_full 0.999
_diffrn_measured_fraction_theta_max 0.985
_diffrn_measurement_device_type  'D8 Venture'
_diffrn_measurement_method       '\f and \w scans'
_diffrn_radiation_type           CuK\a
_diffrn_radiation_wavelength     1.54178
_diffrn_reflns_av_R_equivalents  0.0433
_diffrn_reflns_av_unetI/netI     0.0252
_diffrn_reflns_Laue_measured_fraction_full 0.999
_diffrn_reflns_Laue_measured_fraction_max 0.985
_diffrn_reflns_limit_h_max       9
_diffrn_reflns_limit_h_min       -10
_diffrn_reflns_limit_k_max       7
_diffrn_reflns_limit_k_min       -7
_diffrn_reflns_limit_l_max       19
_diffrn_reflns_limit_l_min       -19
_diffrn_reflns_number            21495
_diffrn_reflns_point_group_measured_fraction_full 0.999
_diffrn_reflns_point_group_measured_fraction_max 0.964
_diffrn_reflns_theta_full        67.679
_diffrn_reflns_theta_max         80.483
_diffrn_reflns_theta_min         2.997
_diffrn_standards_number         0
_exptl_absorpt_coefficient_mu    0.881
_exptl_absorpt_correction_T_max  0.7543
_exptl_absorpt_correction_T_min  0.6351
_exptl_absorpt_correction_type   multi-scan
_exptl_absorpt_process_details
;  
 'SADABS-2016/2 (Bruker,2016/2) was used for absorption correction.
 wR2(int) was 0.1195 before and 0.0648 after correction. 
The Ratio of minimum to maximum transmission is 0.8420. 
The \l/2 correction factor is Not present.'
;
_exptl_crystal_colour            'clear colourless'
_exptl_crystal_colour_lustre     clear
_exptl_crystal_colour_primary    colourless
_exptl_crystal_density_diffrn    1.334
_exptl_crystal_description       plate
_exptl_crystal_F_000             288
_exptl_crystal_size_max          0.1
_exptl_crystal_size_mid          0.04
_exptl_crystal_size_min          0.005
_refine_diff_density_max         0.228
_refine_diff_density_min         -0.224
_refine_diff_density_rms         0.040
_refine_ls_abs_structure_details
;
 Flack x determined using 1139 quotients [(I+)-(I-)]/[(I+)+(I-)]
 (Parsons, Flack and Wagner, Acta Cryst. B69 (2013) 249-259).
;
_refine_ls_abs_structure_Flack   0.04(5)
_refine_ls_extinction_method     none
_refine_ls_goodness_of_fit_ref   1.061
_refine_ls_hydrogen_treatment    constr
_refine_ls_matrix_type           full
_refine_ls_number_parameters     181
_refine_ls_number_reflns         2928
_refine_ls_number_restraints     1
_refine_ls_restrained_S_all      1.061
_refine_ls_R_factor_all          0.0381
_refine_ls_R_factor_gt           0.0348
_refine_ls_shift/su_max          0.000
_refine_ls_shift/su_mean         0.000
_refine_ls_structure_factor_coef Fsqd
_refine_ls_weighting_details
'w=1/[\s^2^(Fo^2^)+(0.0362P)^2^+0.2359P] where P=(Fo^2^+2Fc^2^)/3'
_refine_ls_weighting_scheme      calc
_refine_ls_wR_factor_gt          0.0831
_refine_ls_wR_factor_ref         0.0846
_reflns_Friedel_coverage         0.778
_reflns_Friedel_fraction_full    0.998
_reflns_Friedel_fraction_max     0.938
_reflns_number_gt                2730
_reflns_number_total             2928
_reflns_threshold_expression     'I > 2\s(I)'
_cod_data_source_file            ja9b06231_si_002.cif
_cod_data_source_block           hg_04_119
_cod_database_code               4127377
_shelx_space_group_comment
;
The symmetry employed for this shelxl refinement is uniquely defined
by the following loop, which should always be used as a source of
symmetry information in preference to the above space-group names.
They are only intended as comments.
;
_shelx_estimated_absorpt_t_max   0.991
_shelx_estimated_absorpt_t_min   0.550
_shelx_res_file
;
TITL sg4_a.res in P2(1)
    hg_04_119.res
    created by SHELXL-2018/3 at 15:01:54 on 14-Apr-2019
REM Old TITL sg4 in P2(1)
REM SHELXT solution in P2(1)
REM R1 0.118, Rweak 0.024, Alpha 0.004, Orientation as input
REM Flack x = 0.001 ( 0.134 ) from Parsons' quotients
REM Formula found by SHELXT: C17 F3
CELL 1.54178 8.0473 5.7982 15.2584 90 104.905 90
ZERR 2 0.0007 0.0007 0.0016 0 0.008 0
LATT -1
SYMM -X,0.5+Y,-Z
SFAC C H F
UNIT 34 30 6

L.S. 10
PLAN  5
SIZE 0.01 0.15 0.77
TEMP -173.15
BOND $H
HTAB
fmap 2
acta
REM <olex2.extras>
REM <HklSrc "%.\\HG_04_119_try2_0m.hkl">
REM </olex2.extras>

WGHT    0.036200    0.235900
FVAR       0.32513
PART 1
F1    3    0.789553    0.493929    0.211319    11.00000    0.02045    0.06008 =
         0.03273   -0.01459    0.00942   -0.00978
F2    3    0.589280    0.603902    0.097196    11.00000    0.04018    0.06312 =
         0.04018    0.01990    0.01588   -0.00866
F3    3    0.708799    0.276313    0.095233    11.00000    0.04416    0.08424 =
         0.05092   -0.03856    0.02602   -0.00859
PART 0
C1    1    0.674352    0.396633    0.391072    11.00000    0.01323    0.01153 =
         0.02073    0.00008    0.00761   -0.00037
AFIX  43
H1    2    0.696803    0.254675    0.365213    11.00000   -1.20000
AFIX   0
C2    1    0.765514    0.448641    0.481327    11.00000    0.01133    0.01048 =
         0.02021    0.00033    0.00771   -0.00134
C3    1    0.887708    0.294060    0.534469    11.00000    0.01276    0.01070 =
         0.02457    0.00199    0.00715   -0.00026
AFIX  43
H3    2    0.910349    0.151654    0.508995    11.00000   -1.20000
AFIX   0
C4    1    0.973210    0.347056    0.621689    11.00000    0.01437    0.01684 =
         0.02390    0.00534    0.00346    0.00017
AFIX  43
H4    2    1.054210    0.241338    0.656307    11.00000   -1.20000
AFIX   0
C5    1    0.941595    0.558671    0.660632    11.00000    0.01814    0.02460 =
         0.01798   -0.00155    0.00430   -0.00665
AFIX  43
H5    2    1.001306    0.594218    0.721342    11.00000   -1.20000
AFIX   0
C6    1    0.824901    0.713217    0.611088    11.00000    0.02074    0.01376 =
         0.02412   -0.00376    0.01119   -0.00354
AFIX  43
H6    2    0.804394    0.854757    0.637875    11.00000   -1.20000
AFIX   0
C7    1    0.735039    0.663039    0.520436    11.00000    0.01190    0.00919 =
         0.02329   -0.00023    0.00892   -0.00145
C8    1    0.614275    0.816510    0.465928    11.00000    0.01455    0.00974 =
         0.02891   -0.00043    0.01151    0.00049
AFIX  43
H8    2    0.592845    0.960962    0.490297    11.00000   -1.20000
AFIX   0
C9    1    0.528372    0.761081    0.379352    11.00000    0.01256    0.01459 =
         0.02672    0.00587    0.00718    0.00279
AFIX  43
H9    2    0.449291    0.868713    0.344559    11.00000   -1.20000
AFIX   0
C10   1    0.554155    0.544680    0.339377    11.00000    0.01296    0.01567 =
         0.01942    0.00204    0.00746   -0.00076
C11   1    0.449664    0.482464    0.246827    11.00000    0.01719    0.02017 =
         0.01887    0.00487    0.00560   -0.00316
C12   1    0.291476    0.567858    0.213923    11.00000    0.01886    0.03550 =
         0.02335    0.00306    0.00573   -0.00002
AFIX  43
H12   2    0.252333    0.676954    0.250563    11.00000   -1.20000
AFIX   0
C13   1    0.169815    0.507347    0.124377    11.00000    0.01966    0.06255 =
         0.02834    0.00288   -0.00173   -0.00002
AFIX  23
H13A  2    0.128731    0.651720    0.091210    11.00000   -1.20000
H13B  2    0.068629    0.427741    0.135854    11.00000   -1.20000
AFIX   0
C14   1    0.248289    0.354031    0.064308    11.00000    0.02533    0.05520 =
         0.02291    0.00086   -0.00162   -0.00991
AFIX  23
H14A  2    0.155767    0.267907    0.021506    11.00000   -1.20000
H14B  2    0.307497    0.451356    0.028393    11.00000   -1.20000
AFIX   0
C15   1    0.375842    0.184657    0.121063    11.00000    0.03539    0.03386 =
         0.02584   -0.00677    0.00241   -0.01164
AFIX  23
H15A  2    0.427360    0.090967    0.080588    11.00000   -1.20000
H15B  2    0.314175    0.078797    0.152744    11.00000   -1.20000
AFIX   0
C16   1    0.520007    0.307791    0.191526    11.00000    0.02200    0.02271 =
         0.01882   -0.00156    0.00139   -0.00075
AFIX  13
H16   2    0.582262    0.187486    0.234590    11.00000   -1.20000
AFIX   0
C17   1    0.650404    0.419786    0.148939    11.00000    0.02353    0.04597 =
         0.02283   -0.00857    0.00748   -0.00077
HKLF 4




REM  sg4_a.res in P2(1)
REM wR2 = 0.084604, GooF = S = 1.06143, Restrained GooF = 1.06123 for all data
REM R1 = 0.034811 for 2730 Fo > 4sig(Fo) and 0.038061 for all 2928 data
REM 181 parameters refined using 1 restraints

END

WGHT      0.0362      0.2359

REM No hydrogen bonds found for HTAB generation

REM Highest difference peak  0.228,  deepest hole -0.224,  1-sigma level  0.040
Q1    1   0.5006  0.5042  0.2957  11.00000  0.05    0.23
Q2    1   0.7400  0.5541  0.5027  11.00000  0.05    0.23
Q3    1   0.6195  0.4586  0.0835  11.00000  0.05    0.20
Q4    1   0.7475  0.4557  0.4242  11.00000  0.05    0.19
Q5    1   0.6752  0.7288  0.4947  11.00000  0.05    0.18
;
_shelx_res_checksum              40090
_shelx_hkl_file
;
   1   0   0  259.22    9.29
  -1   0   0  236.67    9.30
   2   0   0   54.98    2.05
   2   0   0   51.18    2.10
  -2   0   0   52.80    2.04
   2   0   0   53.25    2.06
   3   0   0    0.05    0.19
   3   0   0    0.18    0.15
   3   0   0    0.10    0.20
  -3   0   0   -0.09    0.14
   3   0   0    0.05    0.12
  -4   0   0   18.90    0.88
   4   0   0   19.89    0.80
   4   0   0   20.67    1.11
   4   0   0   20.19    0.97
  -4   0   0   20.38    0.89
  -5   0   0    3.15    0.58
  -5   0   0    2.97    0.41
  -5   0   0    3.50    0.36
  -5   0   0    3.32    0.30
  -5   0   0    3.29    0.29
   5   0   0    3.26    0.43
   5   0   0    2.94    0.25
  -5   0   0    2.93    0.31
   5   0   0    2.29    0.48
  -5   0   0    3.04    0.43
  -5   0   0    3.30    0.26
   5   0   0    3.01    0.27
  -6   0   0    2.95    0.50
  -6   0   0    2.44    0.35
  -6   0   0    2.50    0.33
  -6   0   0    3.75    0.57
   6   0   0    2.97    0.33
  -6   0   0    3.01    0.37
  -6   0   0    3.82    0.43
  -6   0   0    2.94    0.35
  -6   0   0    2.94    0.32
   6   0   0    2.98    0.29
   6   0   0    2.14    0.58
   6   0   0    2.16    0.45
  -6   0   0    3.37    0.52
  -7   0   0   -0.15    0.38
  -7   0   0    0.09    0.23
  -7   0   0   -0.20    0.35
  -7   0   0    0.01    0.23
  -7   0   0   -0.05    0.20
  -7   0   0    0.30    0.19
  -7   0   0    0.06    0.21
   7   0   0   -0.17    0.18
  -7   0   0   -0.11    0.38
   7   0   0    0.21    0.19
  -7   0   0    0.34    0.24
   7   0   0   -0.41    0.39
  -8   0   0    0.54    0.59
   8   0   0    0.59    0.21
  -8   0   0    0.43    0.40
   8   0   0    0.71    0.29
   8   0   0    0.62    0.20
   8   0   0    0.39    0.16
  -8   0   0    0.41    0.36
  -8   0   0    0.28    0.22
  -8   0   0    0.37    0.22
  -8   0   0    0.31    0.21
  -9   0   0    0.06    0.36
  -9   0   0   -0.14    0.18
  -9   0   0   -0.03    0.18
   9   0   0   -0.04    0.18
   9   0   0   -0.05    0.25
  -9   0   0    0.00    0.18
  -9   0   0    0.19    0.36
   0  -1   0    0.08    0.14
   0  -1   0    0.01    0.20
   0  -1   0   -0.02    0.16
   0   1   0   -0.02    0.17
   0   1   0    0.00    0.21
   0   1   0   -0.15    0.16
   0   1   0   -0.15    0.12
   1  -1   0  121.91    4.73
   1  -1   0  118.18    4.73
   1  -1   0  126.84    4.76
  -1  -1   0  120.42    4.81
  -1  -1   0  121.67    4.75
  -1  -1   0  125.40    4.72
   1  -1   0  134.58    4.76
  -1  -1   0  135.29    4.81
   1   1   0  119.82    4.81
   1   1   0  130.02    4.76
  -1   1   0  121.57    4.72
  -1   1   0  122.97    4.79
   1   1   0  132.34    4.81
  -1   1   0  128.34    4.75
  -2  -1   0   26.97    1.11
  -2  -1   0   26.97    1.08
  -2  -1   0   25.54    1.18
  -2  -1   0   27.93    1.10
  -2  -1   0   27.25    1.19
   2   1   0   29.24    1.22
   2   1   0   26.60    1.20
   2   1   0   27.25    1.06
  -2   1   0   25.08    1.09
   2   1   0   28.65    1.14
  -2   1   0   27.06    1.22
  -2   1   0   28.21    1.08
   3  -1   0   23.40    1.10
   3   1   0   22.45    0.92
  -3   1   0   22.32    0.95
  -3   1   0   22.99    1.17
   3   1   0   23.54    1.14
   3   1   0   23.39    1.03
   3   1   0   22.01    1.09
   3   1   0   21.93    0.91
   4  -1   0   73.30    3.02
  -4  -1   0   72.87    2.85
  -4  -1   0   72.87    2.81
   4  -1   0   74.09    2.75
   4  -1   0   71.61    2.94
   4   1   0   72.53    2.79
   4   1   0   70.69    3.06
   4   1   0   73.62    2.78
  -4   1   0   72.81    2.83
   4   1   0   75.00    2.91
  -4   1   0   71.22    2.84
  -4   1   0   72.62    2.88
  -5  -1   0   10.61    0.52
   5  -1   0   10.92    0.74
  -5  -1   0    9.70    0.51
  -5  -1   0   10.62    0.57
  -5  -1   0   10.51    0.60
   5  -1   0   10.17    0.45
   5  -1   0   10.75    0.88
  -5  -1   0   10.38    0.50
  -5  -1   0    9.52    0.62
  -5  -1   0   10.53    0.56
  -5   1   0    9.98    0.68
  -5   1   0   10.25    0.52
   5   1   0   10.39    0.54
  -5   1   0   10.16    0.53
  -5   1   0   10.34    0.52
  -5   1   0   10.51    0.79
  -5   1   0    9.94    0.63
   5   1   0   10.45    0.77
  -5   1   0   10.02    0.61
   5   1   0    9.62    0.48
   5   1   0    8.91    0.87
   5   1   0   10.65    0.50
  -6  -1   0   29.50    1.15
  -6  -1   0   26.33    1.11
   6  -1   0   27.94    1.11
  -6  -1   0   24.64    1.21
  -6  -1   0   25.47    1.23
  -6  -1   0   26.11    1.11
   6  -1   0   25.97    1.08
  -6  -1   0   31.32    1.21
  -6  -1   0   27.24    1.26
   6  -1   0   29.01    1.42
  -6   1   0   26.82    1.13
  -6   1   0   26.68    1.39
  -6   1   0   25.43    1.25
  -6   1   0   26.11    1.16
  -6   1   0   26.29    1.25
  -6   1   0   27.71    1.13
  -6   1   0   27.08    1.13
   6   1   0   25.35    1.41
   6   1   0   27.00    1.14
   6   1   0   26.81    1.11
  -6   1   0   25.39    1.32
  -7  -1   0    3.40    0.37
  -7  -1   0    3.16    0.39
  -7  -1   0    3.17    0.37
  -7  -1   0    3.71    0.44
  -7  -1   0    2.89    0.42
   7  -1   0    2.56    0.62
  -7  -1   0    3.26    0.37
  -7  -1   0    3.44    0.64
   7  -1   0    2.57    0.31
   7  -1   0    3.03    0.35
  -7   1   0    3.82    0.67
  -7   1   0    3.54    0.39
  -7   1   0    3.22    0.50
   7   1   0    3.33    0.37
  -7   1   0    2.64    0.48
  -7   1   0    3.44    0.41
  -7   1   0    3.31    0.43
   7   1   0    3.21    0.57
  -7   1   0    3.55    0.41
  -8  -1   0    6.15    0.45
   8  -1   0    5.71    0.52
  -8  -1   0    5.84    0.65
   8  -1   0    5.99    0.51
  -8  -1   0    6.61    0.67
  -8  -1   0    6.16    0.57
   8  -1   0    4.88    0.47
  -8  -1   0    6.46    0.42
  -8  -1   0    6.35    0.42
  -8   1   0    6.22    0.49
  -8   1   0    5.79    0.44
  -8   1   0    5.21    0.74
   8   1   0    6.40    0.41
   8   1   0    5.84    0.37
  -8   1   0    6.07    0.44
  -8   1   0    6.17    0.70
   8   1   0    6.47    0.43
  -9  -1   0    0.68    0.19
  -9  -1   0    0.61    0.20
  -9  -1   0    0.42    0.27
  -9  -1   0    0.44    0.18
  -9  -1   0    0.52    0.33
  -9   1   0    0.55    0.21
  -9   1   0    0.45    0.19
  -9   1   0    0.09    0.32
   9   1   0    0.56    0.17
  -9   1   0    0.06    0.37
   9   1   0    0.22    0.19
  -9   1   0    0.64    0.23
   0  -2   0    7.55    0.38
   0  -2   0    7.29    0.42
   0  -2   0    7.70    0.55
   0  -2   0    7.93    0.94
   0   2   0    6.62    0.35
   0   2   0    7.21    0.52
   0   2   0    7.41    0.36
   0   2   0    7.22    0.56
  -1  -2   0    1.70    0.25
   1  -2   0    1.75    0.27
   1  -2   0    2.07    0.24
  -1  -2   0    2.13    0.36
   1  -2   0    1.66    0.34
   1  -2   0    2.12    0.19
  -1  -2   0    2.14    0.19
  -1   2   0    1.81    0.37
   1   2   0    1.58    0.27
   1   2   0    1.94    0.32
   1   2   0    1.50    0.20
   1   2   0    1.50    0.31
   1   2   0    1.71    0.20
  -1   2   0    1.62    0.24
   1   2   0    2.06    0.31
   1   2   0    2.39    0.31
  -2  -2   0    5.48    0.42
  -2  -2   0    5.95    0.30
  -2  -2   0    5.90    0.37
   2  -2   0    5.67    0.31
   2  -2   0    6.24    0.44
   2  -2   0    5.95    0.34
  -2  -2   0    5.08    0.53
  -2   2   0    5.41    0.72
  -2   2   0    6.23    0.61
  -2   2   0    5.56    0.30
   2   2   0    5.83    0.65
   2   2   0    5.86    0.50
   2   2   0    5.78    0.35
   2   2   0    5.87    0.32
   2   2   0    5.76    0.55
   3  -2   0    4.37    0.40
   3  -2   0    3.82    0.26
  -3  -2   0    4.12    0.27
  -3  -2   0    4.62    0.41
  -3  -2   0    4.35    0.29
   3  -2   0    4.14    0.68
   3  -2   0    3.54    0.28
  -3  -2   0    4.17    0.34
  -3   2   0    4.25    0.30
   3   2   0    4.36    0.29
   3   2   0    4.15    0.26
  -3   2   0    4.30    0.41
  -3   2   0    4.44    0.55
   3   2   0    3.86    0.33
   3   2   0    4.70    0.33
   3   2   0    4.02    0.52
  -3   2   0    4.03    0.57
   3   2   0    4.35    0.68
  -4  -2   0    4.73    0.36
  -4  -2   0    4.37    0.37
  -4  -2   0    3.91    0.43
   4  -2   0    3.78    0.27
   4  -2   0    4.46    0.61
  -4  -2   0    4.15    0.32
   4  -2   0    3.22    0.31
  -4   2   0    4.09    0.43
  -4   2   0    4.55    0.34
   4   2   0    4.36    0.31
   4   2   0    4.13    0.34
  -4   2   0    4.66    0.67
   4   2   0    4.04    0.70
  -4   2   0    4.30    0.34
   4   2   0    3.92    0.26
  -4   2   0    5.94    0.65
  -4   2   0    4.33    0.49
  -4   2   0    4.40    0.35
  -4   2   0    5.25    0.69
   4   2   0    4.12    0.31
   4   2   0    3.81    0.56
   5  -2   0   23.70    1.40
   5  -2   0   23.91    1.31
  -5  -2   0   19.69    0.98
   5  -2   0   22.33    0.94
  -5  -2   0   24.17    0.96
  -5  -2   0   23.47    1.05
   5  -2   0   22.41    1.01
  -5  -2   0   22.78    0.97
  -5  -2   0   22.24    1.08
  -5  -2   0   22.62    1.03
  -5   2   0   23.19    1.16
   5   2   0   22.52    0.99
  -5   2   0   22.79    1.08
  -5   2   0   22.79    1.05
  -5   2   0   24.16    0.99
   5   2   0   23.80    1.01
   5   2   0   22.35    1.24
   5   2   0   23.66    0.98
  -5   2   0   24.07    0.99
  -5   2   0   22.42    1.20
  -5   2   0   23.11    1.24
   5   2   0   25.34    1.59
  -5   2   0   23.26    0.96
  -5   2   0   23.47    1.01
  -6  -2   0   12.32    0.62
  -6  -2   0   11.66    0.78
  -6  -2   0   12.82    0.61
   6  -2   0   11.41    0.68
   6  -2   0   12.49    0.64
  -6  -2   0   12.67    0.62
   6  -2   0   11.44    0.63
  -6  -2   0   12.62    0.74
  -6   2   0   13.66    1.08
   6   2   0   13.32    0.63
  -6   2   0   13.16    0.94
  -6   2   0   12.86    0.66
   6   2   0   12.41    0.61
  -6   2   0   12.29    0.68
  -6   2   0   12.93    0.74
  -6   2   0   12.23    0.92
   6   2   0   12.29    0.97
  -6   2   0   13.56    0.67
  -6   2   0   12.72    0.82
   7  -2   0    6.40    0.80
   7  -2   0    7.05    0.50
  -7  -2   0    7.38    0.45
  -7  -2   0    7.11    0.65
  -7  -2   0    7.62    0.48
  -7  -2   0    9.08    0.59
   7  -2   0    7.47    0.57
  -7   2   0    6.98    0.72
   7   2   0    7.44    0.47
  -7   2   0    7.43    0.99
  -7   2   0    6.39    0.55
   7   2   0    7.41    0.49
   7   2   0    7.50    0.84
  -7   2   0    6.23    0.55
  -7   2   0    7.37    0.53
  -7   2   0    6.72    1.19
  -8  -2   0   15.46    0.89
   8  -2   0   13.82    0.71
  -8  -2   0   16.77    0.87
  -8  -2   0   15.63    0.69
  -8  -2   0   15.91    0.69
  -8  -2   0   13.88    0.83
  -8  -2   0   15.32    0.72
  -8   2   0   14.89    0.74
  -8   2   0   15.41    1.08
  -8   2   0   15.43    0.74
  -8   2   0   14.75    0.94
  -8   2   0   14.83    0.76
   8   2   0   16.54    0.72
  -8   2   0   14.85    0.97
   8   2   0   15.63    0.68
   8   2   0   16.34    0.71
  -9  -2   0   11.76    0.52
  -9  -2   0   11.49    0.61
  -9  -2   0   11.90    0.62
  -9  -2   0   12.25    0.53
   9   2   0   12.10    0.52
  -9   2   0   12.17    0.56
  -9   2   0   12.31    0.57
  -9   2   0   11.52    0.71
  -9   2   0   11.70    0.72
  -9   2   0   11.24    0.57
   9   2   0   11.00    0.54
   0  -3   0    0.07    0.29
   0  -3   0    0.21    0.27
   0  -3   0    0.01    0.22
   0  -3   0   -0.12    0.13
   0  -3   0   -0.16    0.17
   0   3   0    0.70    0.24
   0   3   0    0.17    0.15
   0   3   0   -0.02    0.34
   0   3   0    0.44    0.26
   1  -3   0    5.58    0.37
  -1  -3   0    6.33    0.47
   1  -3   0    6.73    0.46
   1  -3   0    6.98    0.62
  -1  -3   0    7.10    0.50
  -1  -3   0    6.81    0.67
  -1  -3   0    6.87    0.48
  -1  -3   0    6.47    0.37
  -1  -3   0    6.68    0.42
   1  -3   0    7.26    0.49
   1   3   0    7.07    0.36
  -1   3   0    7.08    0.60
  -1   3   0    6.32    0.71
  -1   3   0    6.46    0.49
  -1   3   0    6.98    0.35
   1   3   0    6.91    0.38
   1   3   0    6.79    0.64
   1   3   0    7.03    0.59
   1   3   0    6.41    0.33
   2  -3   0    2.41    0.40
   2  -3   0    2.17    0.32
   2  -3   0    1.69    0.21
  -2  -3   0    1.32    0.38
  -2  -3   0    1.55    0.17
   2  -3   0    2.52    0.33
  -2  -3   0    1.36    0.24
  -2  -3   0    1.42    0.24
   2  -3   0    1.89    0.26
  -2  -3   0    1.42    0.31
   2   3   0    1.84    0.21
   2   3   0    1.49    0.19
  -2   3   0    1.06    0.16
  -2   3   0    1.95    0.42
   2   3   0    1.43    0.45
  -2   3   0    1.53    0.17
   2   3   0    1.78    0.37
   2   3   0    1.49    0.17
  -2   3   0    1.61    0.45
   2   3   0    1.53    0.35
  -2   3   0    1.44    0.27
   2   3   0    1.23    0.17
   2   3   0    1.28    0.33
  -3  -3   0   23.14    0.99
   3  -3   0   22.51    0.99
  -3  -3   0   22.10    0.93
  -3  -3   0   20.79    1.01
  -3  -3   0   23.29    1.00
   3  -3   0   24.95    0.98
  -3  -3   0   21.80    0.93
   3  -3   0   23.95    1.38
  -3  -3   0   22.62    1.09
   3   3   0   19.93    1.00
   3   3   0   22.80    0.97
  -3   3   0   23.10    1.16
  -3   3   0   25.74    1.35
   3   3   0   23.75    1.39
   3   3   0   24.33    1.40
  -3   3   0   22.36    0.98
   3   3   0   22.00    1.15
  -3   3   0   23.22    1.05
  -3   3   0   22.82    1.09
  -3   3   0   23.63    1.20
   3   3   0   21.53    1.15
   3   3   0   23.83    0.99
  -3   3   0   24.05    1.13
   3   3   0   22.71    0.95
   4  -3   0    3.26    0.38
  -4  -3   0    2.75    0.38
  -4  -3   0    3.21    0.28
  -4  -3   0    2.45    0.27
  -4  -3   0    2.80    0.31
   4  -3   0    3.31    0.66
  -4  -3   0    3.19    0.47
  -4   3   0    3.48    0.55
  -4   3   0    3.16    0.42
  -4   3   0    3.37    0.59
  -4   3   0    3.25    0.50
   4   3   0    4.24    0.73
   4   3   0    2.87    0.34
   4   3   0    3.25    0.32
  -4   3   0    3.31    0.38
  -4   3   0    2.92    0.52
   4   3   0    4.11    0.59
   4   3   0    2.87    0.30
  -4   3   0    2.90    0.37
  -4   3   0    3.60    0.73
   4   3   0    3.13    0.28
   4   3   0    4.72    1.01
   5  -3   0   13.72    0.71
  -5  -3   0   13.58    0.80
   5  -3   0   15.01    1.21
  -5  -3   0   13.84    0.76
   5  -3   0   12.40    0.72
  -5  -3   0   14.80    0.72
   5   3   0   14.36    0.69
  -5   3   0   14.36    0.75
  -5   3   0   14.10    1.10
  -5   3   0   13.72    0.96
   5   3   0   14.36    0.68
  -5   3   0   14.36    0.75
   5   3   0   14.74    0.71
  -5   3   0   14.30    0.74
   5   3   0   12.87    0.61
   6  -3   0   15.07    0.84
  -6  -3   0   16.98    0.90
  -6  -3   0   15.43    0.83
  -6  -3   0   16.48    0.73
   6  -3   0   15.49    0.81
  -6  -3   0   16.54    0.75
  -6  -3   0   16.22    0.74
   6   3   0   17.33    1.12
  -6   3   0   17.10    0.84
  -6   3   0   15.47    0.84
  -6   3   0   15.41    1.09
  -6   3   0   17.80    1.23
  -6   3   0   15.60    0.99
  -6   3   0   16.26    1.09
  -6   3   0   16.92    0.84
   6   3   0   17.33    0.78
   6   3   0   16.80    0.76
   6   3   0   16.55    0.78
  -7  -3   0    8.50    0.66
   7  -3   0    9.33    0.61
  -7  -3   0    9.17    0.49
  -7  -3   0   10.13    0.69
  -7  -3   0    9.24    0.50
  -7  -3   0    8.92    0.48
  -7   3   0    9.08    0.59
   7   3   0    9.76    0.52
  -7   3   0   10.04    0.61
  -7   3   0    9.61    0.60
  -7   3   0    9.80    1.01
  -7   3   0    9.05    0.85
  -7   3   0    9.57    0.82
   7   3   0    9.37    0.62
  -7   3   0    8.12    0.79
  -8  -3   0    4.37    0.51
  -8  -3   0    5.12    0.49
  -8  -3   0    6.34    0.34
  -8  -3   0    5.14    0.33
  -8   3   0    5.32    0.42
  -8   3   0    5.52    0.44
   8   3   0    3.86    0.43
   8   3   0    4.20    0.35
  -8   3   0    5.80    0.77
  -8   3   0    5.16    0.41
  -8   3   0    4.81    0.64
   8   3   0    5.80    0.33
  -8   3   0    5.20    0.75
   8   3   0    5.47    0.36
  -9   3   0    0.78    0.23
  -9   3   0    0.55    0.30
  -9   3   0    0.76    0.21
   0  -4   0   15.85    0.87
   0  -4   0   17.03    0.80
   0  -4   0   16.94    1.10
   0  -4   0   16.68    0.79
   0  -4   0   17.78    0.87
   0  -4   0   16.23    0.83
   0   4   0   15.94    1.05
   0   4   0   16.43    0.75
   0   4   0   15.48    0.92
   0   4   0   16.71    0.86
   0   4   0   16.37    0.75
   0   4   0   16.15    0.84
   0   4   0   15.87    0.74
   0   4   0   16.79    0.95
   1  -4   0    0.77    0.35
   1  -4   0    0.09    0.52
   1  -4   0    0.65    0.24
   1  -4   0    0.12    0.26
  -1  -4   0    0.44    0.31
  -1  -4   0    0.12    0.25
   1  -4   0   -0.01    0.32
  -1  -4   0    0.02    0.21
  -1  -4   0    0.26    0.22
  -1  -4   0    0.22    0.26
  -1  -4   0    0.61    0.19
   1  -4   0    0.20    0.24
   1   4   0    0.46    0.21
   1   4   0    0.28    0.18
  -1   4   0    0.49    0.40
  -1   4   0    0.42    0.25
  -1   4   0    0.41    0.39
  -1   4   0    0.66    0.31
   1   4   0    0.53    0.36
  -1   4   0    0.17    0.21
   1   4   0    0.17    0.24
  -1   4   0    0.25    0.23
   1   4   0   -0.41    0.31
  -1   4   0    0.48    0.18
  -1   4   0    0.54    0.39
   1   4   0    0.58    0.38
  -1   4   0    0.31    0.17
  -2  -4   0   30.33    1.26
  -2  -4   0   30.64    1.30
   2  -4   0   31.12    1.29
  -2  -4   0   29.44    1.40
   2  -4   0   28.64    1.22
   2  -4   0   31.85    1.29
  -2  -4   0   31.24    1.22
  -2  -4   0   29.07    1.21
  -2  -4   0   32.15    1.29
  -2  -4   0   28.39    1.27
   2  -4   0   31.38    1.34
   2  -4   0   29.46    1.71
   2  -4   0   30.17    1.27
  -2   4   0   28.19    1.28
  -2   4   0   29.98    1.25
  -2   4   0   28.95    1.42
  -2   4   0   30.41    1.34
  -2   4   0   30.00    1.41
  -2   4   0   29.58    1.26
   2   4   0   30.23    1.27
  -2   4   0   28.85    1.48
  -2   4   0   29.23    1.20
   2   4   0   28.12    1.42
   2   4   0   29.73    1.34
   2   4   0   28.96    1.22
  -2   4   0   30.43    1.63
  -3  -4   0   32.25    1.39
  -3  -4   0   32.67    1.36
   3  -4   0   33.33    1.44
  -3  -4   0   32.20    1.53
  -3  -4   0   30.20    1.31
   3  -4   0   34.36    1.91
  -3  -4   0   32.77    1.40
   3  -4   0   34.03    1.39
   3  -4   0   31.72    1.37
  -3  -4   0   31.76    1.31
   3  -4   0   33.12    1.35
  -3   4   0   32.99    1.37
  -3   4   0   34.47    1.65
  -3   4   0   32.28    1.46
  -3   4   0   32.58    1.38
   3   4   0   33.09    1.33
   3   4   0   31.78    1.61
  -3   4   0   31.04    1.36
   3   4   0   33.21    1.54
  -3   4   0   33.32    1.57
   3   4   0   32.33    1.32
  -3   4   0   34.69    1.82
  -3   4   0   33.02    1.56
   3   4   0   31.73    1.38
  -4  -4   0    1.76    0.33
   4  -4   0    1.77    0.29
  -4  -4   0    1.65    0.32
  -4  -4   0    1.42    0.23
  -4  -4   0    1.72    0.34
   4   4   0    0.94    0.29
   4   4   0    1.52    0.23
  -4   4   0    0.92    0.50
   4   4   0    1.07    0.21
   4   4   0    0.99    0.23
  -4   4   0    1.96    0.61
  -4   4   0    1.40    0.32
  -4   4   0    1.28    0.43
   4   4   0    1.82    0.54
  -4   4   0    1.84    0.55
  -4   4   0    1.72    0.37
  -5  -4   0    3.23    0.38
   5  -4   0    4.80    0.46
   5  -4   0    4.36    0.57
  -5   4   0    3.15    0.40
   5   4   0    3.54    0.35
  -5   4   0    3.20    0.62
   5   4   0    4.79    0.68
  -5   4   0    3.90    0.63
   5   4   0    3.89    0.84
  -5   4   0    3.56    0.41
  -5   4   0    3.08    0.51
   5   4   0    3.80    0.41
  -5   4   0    3.31    0.70
   5   4   0    3.38    0.31
   5   4   0    3.70    0.35
  -6  -4   0    1.84    0.29
   6  -4   0    2.12    0.37
  -6  -4   0    2.19    0.23
  -6  -4   0    1.86    0.22
  -6   4   0    2.10    0.35
  -6   4   0    1.84    0.58
   6   4   0    1.49    0.29
   6   4   0    1.71    0.34
  -6   4   0    1.97    0.51
  -6   4   0    2.65    0.86
  -6   4   0    1.08    0.48
   6   4   0    2.07    0.32
  -6   4   0    1.77    0.34
   6   4   0    2.03    0.23
  -7  -4   0    1.99    0.25
  -7  -4   0    2.21    0.24
  -7  -4   0    2.86    0.43
   7  -4   0    1.97    0.28
   7   4   0    3.05    0.24
  -7   4   0    2.08    0.49
  -7   4   0    1.95    0.45
  -7   4   0    1.18    0.51
   7   4   0    2.55    0.32
  -7   4   0    2.61    0.40
  -7   4   0    2.18    0.33
  -7   4   0    2.15    0.61
  -8  -4   0    1.71    0.17
  -8  -4   0    1.57    0.16
  -8   4   0    1.53    0.35
  -8   4   0    1.48    0.21
  -8   4   0    1.45    0.20
   0  -5   0    0.34    0.39
   0  -5   0   -0.05    0.57
   0  -5   0   -0.38    0.33
   0  -5   0   -0.25    0.26
   0  -5   0   -0.33    0.28
   0  -5   0   -0.07    0.31
   0  -5   0   -0.36    0.34
   0   5   0    0.13    0.19
   0   5   0    0.16    0.46
   0   5   0    0.06    0.27
   0   5   0    0.10    0.21
   0   5   0    0.67    0.52
   0   5   0   -0.28    0.40
  -1  -5   0   11.72    0.67
   1  -5   0   11.00    0.78
   1  -5   0   12.24    0.76
  -1  -5   0    9.88    0.55
  -1  -5   0   10.34    0.79
  -1  -5   0   11.42    0.78
   1  -5   0   11.20    0.71
  -1  -5   0   11.93    0.76
   1  -5   0   10.82    0.80
   1  -5   0   10.96    0.73
  -1  -5   0   11.49    0.66
  -1  -5   0   11.52    0.75
   1  -5   0   10.43    0.56
   1  -5   0   11.57    1.22
  -1   5   0   10.85    0.58
  -1   5   0   10.72    0.70
   1   5   0   14.10    1.14
   1   5   0   11.15    0.60
  -1   5   0   11.65    0.95
  -1   5   0   12.17    0.94
   1   5   0   10.82    0.63
   1   5   0   11.82    0.89
  -1   5   0   10.12    0.90
  -1   5   0   10.88    0.67
   1   5   0   10.97    0.77
  -1   5   0   13.14    0.86
  -2  -5   0   15.21    0.84
   2  -5   0   13.69    0.71
  -2  -5   0   16.01    0.74
  -2  -5   0   15.16    0.78
   2  -5   0   14.77    0.80
  -2  -5   0   15.88    0.83
   2  -5   0   14.14    0.92
  -2  -5   0   16.35    0.82
   2  -5   0   14.17    0.90
  -2  -5   0   14.54    0.68
   2  -5   0   14.60    0.84
   2  -5   0   15.23    1.37
   2  -5   0   15.67    0.87
  -2   5   0   14.50    0.78
   2   5   0   15.55    0.77
  -2   5   0   14.75    1.28
  -2   5   0   15.85    0.96
   2   5   0   15.78    0.72
  -2   5   0   14.53    0.81
   2   5   0   15.41    0.88
  -2   5   0   15.70    1.13
  -2   5   0   14.33    0.78
  -2   5   0   14.76    1.06
  -2   5   0   14.32    0.69
  -2   5   0   14.34    1.05
  -3  -5   0   28.28    1.25
  -3  -5   0   26.40    1.19
  -3  -5   0   26.86    1.25
   3  -5   0   23.63    2.30
   3  -5   0   30.60    1.29
   3  -5   0   30.29    1.29
  -3   5   0   27.30    1.23
  -3   5   0   27.84    1.47
  -3   5   0   27.88    1.44
   3   5   0   28.92    1.31
  -3   5   0   26.25    1.21
   3   5   0   28.37    1.23
  -3   5   0   30.26    1.77
  -3   5   0   24.72    1.25
  -3   5   0   28.45    1.37
  -3   5   0   27.87    1.47
   3   5   0   27.16    1.16
   4  -5   0    1.14    0.37
   4  -5   0    1.68    0.35
  -4  -5   0    0.80    0.30
   4  -5   0    1.30    0.42
  -4  -5   0    1.23    0.23
  -4   5   0    0.98    0.50
  -4   5   0    0.79    0.53
  -4   5   0    1.75    0.57
  -4   5   0    1.64    0.62
   4   5   0    1.18    0.34
  -4   5   0    1.15    0.34
  -4   5   0    0.03    0.75
  -4   5   0    0.99    0.30
   4   5   0    1.01    0.22
   4   5   0    1.12    0.28
   5  -5   0    1.99    0.36
  -5  -5   0    2.08    0.33
   5  -5   0    1.97    0.42
   5   5   0    1.40    0.21
  -5   5   0    1.88    0.34
  -5   5   0    1.85    0.32
  -5   5   0    2.10    0.63
  -5   5   0    2.13    0.49
   5   5   0    2.44    0.50
  -5   5   0    2.12    0.51
   5   5   0    1.87    0.23
  -5   5   0    1.84    0.52
  -6  -5   0    0.96    0.16
  -6  -5   0    0.77    0.16
  -6  -5   0    0.95    0.22
  -6   5   0    0.85    0.25
  -6   5   0    0.49    0.66
  -6   5   0    0.85    0.26
   6   5   0    0.59    0.20
  -6   5   0    1.65    0.50
  -6   5   0    1.11    0.98
  -6   5   0    0.93    0.43
  -7   5   0   15.14    0.90
  -7   5   0   17.60    0.71
  -7   5   0   17.94    0.82
  -7   5   0   17.63    0.70
   0  -6   0    1.74    0.46
   0  -6   0    1.09    0.28
   0  -6   0    1.18    0.27
   0  -6   0    1.46    0.34
   0   6   0    1.64    0.25
   0   6   0    1.64    0.31
   0   6   0    2.12    0.54
   0   6   0    1.26    0.30
  -1  -6   0    1.99    0.29
   1  -6   0    2.11    0.39
  -1  -6   0    2.12    0.28
   1  -6   0    2.31    0.44
  -1  -6   0    1.73    0.46
  -1  -6   0    1.88    0.35
   1  -6   0    1.42    0.28
  -1  -6   0    2.04    0.37
   1  -6   0    1.35    0.57
   1  -6   0    1.82    0.32
  -1   6   0    2.25    0.47
   1   6   0    1.95    0.36
   1   6   0    2.28    0.35
  -1   6   0    1.68    0.28
  -1   6   0    2.74    0.55
   1   6   0    2.02    0.24
   2  -6   0   -0.03    0.28
   2  -6   0    0.18    0.34
   2  -6   0   -0.08    0.34
  -2  -6   0   -0.06    0.28
  -2  -6   0    0.31    0.20
  -2  -6   0   -0.20    0.21
  -2  -6   0    0.01    0.30
   2  -6   0    0.03    0.23
  -2   6   0   -0.76    0.50
  -2   6   0   -0.15    0.21
  -2   6   0    0.68    0.51
   2   6   0   -0.01    0.16
   2   6   0    0.08    0.27
   2   6   0    0.26    0.19
  -2   6   0    0.45    0.42
   3  -6   0    2.71    0.35
   3  -6   0    2.73    0.40
  -3  -6   0    2.23    0.25
  -3  -6   0    1.71    0.27
   3  -6   0    2.70    0.37
   3  -6   0    3.12    0.39
   3  -6   0    2.38    0.40
  -3  -6   0    2.37    0.31
   3   6   0    3.15    0.43
  -3   6   0    3.94    0.66
   3   6   0    2.43    0.31
  -3   6   0    3.46    0.63
  -3   6   0    2.13    0.55
   3   6   0    2.56    0.27
  -4  -6   0    0.20    0.25
   4  -6   0    0.01    0.31
  -4  -6   0    0.05    0.15
   4  -6   0   -0.01    0.24
   4  -6   0    0.08    0.32
   4  -6   0    0.05    0.28
  -4   6   0   -0.27    0.48
   4   6   0    0.25    0.22
  -4   6   0    1.06    0.45
  -4   6   0    0.18    0.50
  -4   6   0    0.67    0.45
   4   6   0   -0.04    0.12
  -5  -6   0    3.76    0.23
  -5  -6   0    3.58    0.23
   5  -6   0    3.69    0.40
   5  -6   0    4.01    0.33
  -5  -6   0    3.90    0.33
   5   6   0    3.28    0.30
  -5   6   0    4.65    0.54
  -5   6   0    4.82    0.51
   0  -7   0    0.55    0.24
   0  -7   0   -0.12    0.17
   0  -7   0    0.12    0.26
   0  -7   0    0.30    0.22
   0   7   0    0.11    0.16
   1  -7   0    3.70    0.38
   1  -7   0    4.15    0.33
   1  -7   0    3.69    0.37
  -1  -7   0    4.30    0.33
  -1  -7   0    3.46    0.34
   1  -7   0    4.35    0.49
   1   7   0    4.07    0.32
   2  -7   0    6.88    0.38
  -2  -7   0    6.31    0.40
  -2  -7   0    6.54    0.37
   2  -7   0    7.70    0.44
   2   7   0    7.33    0.42
   3   7   0    1.84    0.20
 -10   0   1    0.43    0.15
 -10   0   1    0.31    0.16
 -10   0   1    0.38    0.16
   9   0  -1    0.68    0.19
  -9   0   1    1.49    0.28
   9   0  -1    1.36    0.20
  -9   0   1    1.07    0.41
  -9   0   1    1.17    0.23
  -9   0   1    1.30    0.26
  -9   0   1    2.10    0.34
  -9   0   1    1.14    0.39
   8   0  -1    9.78    0.51
  -8   0   1    9.96    0.81
  -8   0   1    8.62    0.78
  -8   0   1    9.52    0.57
  -8   0   1    9.18    0.53
  -8   0   1    9.65    0.54
  -8   0   1    9.76    0.75
   8   0  -1    9.58    0.47
  -8   0   1   10.15    0.70
   7   0  -1    0.25    0.46
  -7   0   1    0.74    0.22
  -7   0   1    0.78    0.24
  -7   0   1    0.72    0.40
   7   0  -1    0.50    0.20
   7   0  -1    0.80    0.19
  -7   0   1    0.56    0.27
  -7   0   1    1.41    0.30
  -7   0   1    0.44    0.19
  -7   0   1    0.60    0.37
  -7   0   1    0.45    0.38
  -6   0   1    0.44    0.26
  -6   0   1    0.50    0.18
   6   0  -1    0.21    0.38
  -6   0   1    0.56    0.20
  -6   0   1    0.62    0.31
   6   0  -1    0.42    0.17
  -6   0   1    0.48    0.30
  -6   0   1    0.98    0.42
  -6   0   1    0.74    0.30
  -6   0   1    0.77    0.22
   6   0  -1    0.77    0.18
  -6   0   1    0.34    0.18
   5   0  -1    0.73    0.32
  -5   0   1    0.90    0.20
  -5   0   1    0.58    0.35
  -5   0   1    0.84    0.23
   5   0  -1    0.75    0.15
   5   0  -1    0.50    0.32
  -5   0   1    0.67    0.18
  -5   0   1    0.66    0.21
  -5   0   1    0.62    0.34
  -5   0   1    0.58    0.20
  -5   0   1    0.56    0.15
   4   0  -1    4.50    0.42
  -4   0   1    4.13    0.35
   4   0  -1    4.32    0.25
   4   0  -1    3.82    0.26
   4   0  -1    5.71    0.60
  -4   0   1    4.73    0.39
   3   0  -1   11.40    0.64
  -3   0   1   10.67    0.52
   3   0  -1   10.61    0.59
   2   0  -1   21.59    0.91
   2   0  -1   23.92    0.97
  -2   0   1   22.22    0.91
  -2   0   1   22.76    0.99
  -1   0   1   85.15    3.45
   1   0  -1   97.52    3.45
  -1   0   1   88.58    3.44
  -1   0   1   94.37    3.45
   0   0  -1   33.25    1.27
   0   0   1   31.47    1.27
   0   0  -1   32.50    1.26
   0   0  -1   36.38    1.29
   0   0   1   31.60    1.28
   1   0   1   32.02    1.45
   1   0   1   41.29    1.49
  -1   0  -1   38.04    1.45
  -1   0  -1   36.33    1.43
   1   0   1   41.46    1.50
  -2   0  -1  239.43    9.04
  -2   0  -1  235.25    9.04
   2   0   1  230.75    9.10
   2   0   1  256.40    9.07
  -3   0  -1    0.93    0.18
   3   0   1    0.84    0.12
  -3   0  -1    0.81    0.16
   3   0   1    0.63    0.26
   3   0   1    0.67    0.25
   4   0   1   26.64    1.36
   4   0   1   26.76    1.07
  -4   0  -1   28.04    1.13
  -4   0  -1   27.98    1.15
   4   0   1   25.48    1.23
  -4   0  -1   27.14    1.16
   4   0   1   28.41    1.24
  -5   0  -1    2.28    0.28
   5   0   1    1.95    0.26
   5   0   1    1.70    0.36
  -5   0  -1    1.96    0.26
  -5   0  -1    1.95    0.29
   5   0   1    1.89    0.51
  -5   0  -1    2.10    0.26
   5   0   1    2.18    0.23
  -5   0  -1    2.00    0.26
   6   0   1    0.13    0.17
  -6   0  -1    0.09    0.23
  -6   0  -1    0.12    0.50
  -6   0  -1    0.07    0.29
   6   0   1    0.04    0.43
   6   0   1    0.04    0.16
  -6   0  -1    0.08    0.27
  -6   0  -1    0.12    0.19
  -6   0  -1   -0.01    0.40
  -6   0  -1    0.24    0.19
  -6   0  -1   -0.02    0.19
  -6   0  -1    0.26    0.31
  -7   0  -1    0.70    0.44
  -7   0  -1    0.58    0.31
  -7   0  -1    0.71    0.25
  -7   0  -1    0.57    0.23
  -7   0  -1    0.83    0.36
   7   0   1    0.60    0.51
  -7   0  -1    0.75    0.25
  -7   0  -1    0.73    0.40
  -7   0  -1    0.52    0.28
   7   0   1    0.66    0.22
   7   0   1    0.68    0.19
  -8   0  -1   19.71    0.88
  -8   0  -1   20.50    0.94
   8   0   1   19.09    0.83
   8   0   1   23.40    1.15
  -8   0  -1   20.28    0.89
   8   0   1   19.41    0.90
  -8   0  -1   19.85    1.11
   8   0   1   20.44    0.90
  -8   0  -1   20.22    1.08
   9   0   1    1.94    0.32
  -9   0  -1    2.01    0.22
  -9   0  -1    1.99    0.36
   9   0   1    1.82    0.25
  -9   0  -1    1.59    0.21
  -9   0  -1    1.83    0.39
  -9   0  -1    1.64    0.23
  -9  -1   1    2.13    0.24
  -9  -1   1    1.54    0.31
  -9  -1   1    1.85    0.24
  -9  -1   1    2.09    0.36
  -9  -1   1    1.67    0.22
   9   1  -1    1.41    0.28
  -9   1   1    1.51    0.24
   9   1  -1    2.08    0.29
  -9   1   1    1.89    0.26
   9   1  -1    1.08    0.20
   9   1  -1    1.36    0.18
  -9   1   1    1.80    0.43
  -9   1   1    1.68    0.41
  -9   1   1    1.82    0.26
  -8  -1   1    4.21    0.50
   8  -1  -1    4.06    0.38
   8  -1  -1    3.13    0.35
  -8  -1   1    3.71    0.62
   8  -1  -1    4.63    0.62
  -8  -1   1    4.10    0.38
  -8  -1   1    3.61    0.36
  -8  -1   1    4.00    0.39
  -8  -1   1    4.21    0.57
  -8   1   1    4.25    0.28
  -8   1   1    3.98    0.57
  -8   1   1    3.49    0.39
  -8   1   1    3.54    0.39
   8   1  -1    3.91    0.36
  -8   1   1    5.49    0.44
  -8   1   1    4.58    0.73
  -7  -1   1    1.51    0.26
  -7  -1   1    1.19    0.23
  -7  -1   1    1.31    0.23
   7  -1  -1    1.09    0.17
  -7  -1   1    1.34    0.31
   7  -1  -1    1.26    0.21
  -7  -1   1    1.31    0.45
   7  -1  -1    1.37    0.49
  -7  -1   1    1.43    0.37
  -7  -1   1    1.43    0.25
   7  -1  -1    1.26    0.20
  -7  -1   1    0.85    0.35
   7   1  -1    1.48    0.23
  -7   1   1    1.25    0.24
   7   1  -1    1.52    0.54
  -7   1   1    1.18    0.59
  -7   1   1    1.12    0.25
  -7   1   1    1.28    0.31
  -7   1   1    1.28    0.48
  -7   1   1    0.83    0.25
  -7   1   1    1.71    0.29
  -7   1   1    1.22    0.42
   7   1  -1    1.37    0.26
   6  -1  -1    2.94    0.25
  -6  -1   1    3.59    0.49
   6  -1  -1    2.82    0.52
  -6  -1   1    3.15    0.32
  -6  -1   1    4.05    0.42
  -6  -1   1    3.87    0.44
  -6  -1   1    2.26    0.34
  -6   1   1    3.29    0.42
   6   1  -1    2.42    0.57
  -6   1   1    3.69    0.42
   6   1  -1    2.97    0.54
  -6   1   1    3.45    0.60
  -6   1   1    3.49    0.64
  -6   1   1    2.92    0.42
  -6   1   1    2.10    0.33
   6   1  -1    3.00    0.31
   6   1  -1    2.63    0.33
  -6   1   1    2.74    0.35
  -5  -1   1    3.70    0.46
   5  -1  -1    4.51    0.64
  -5  -1   1    3.81    0.33
  -5  -1   1    3.50    0.31
  -5  -1   1    3.17    0.37
  -5  -1   1    3.60    0.27
   5  -1  -1    3.56    0.22
  -5  -1   1    4.45    0.40
  -5  -1   1    3.55    0.27
  -5  -1   1    3.81    0.31
  -5   1   1    4.71    0.30
  -5   1   1    3.62    0.45
   5   1  -1    3.48    0.30
   5   1  -1    3.48    0.28
  -5   1   1    3.69    0.38
   5   1  -1    3.53    0.55
   5   1  -1    3.85    0.55
   5   1  -1    3.78    0.34
  -5   1   1    3.82    0.32
  -5   1   1    3.41    0.31
  -5   1   1    3.74    0.33
  -5   1   1    3.48    0.48
  -4  -1   1    0.83    0.18
   4  -1  -1    1.29    0.31
  -4  -1   1    0.69    0.21
   4   1  -1    0.56    0.26
   4   1  -1    0.70    0.16
   4   1  -1    0.52    0.17
   4   1  -1    0.71    0.15
  -4   1   1    0.66    0.19
   4   1  -1    0.78    0.33
  -4   1   1    0.76    0.24
  -4   1   1    0.79    0.33
  -3  -1   1    7.21    0.39
   3   1  -1    7.34    0.37
   3   1  -1    7.75    0.60
   3   1  -1    8.04    0.51
   3   1  -1    6.64    0.55
  -3   1   1    7.33    0.40
   3   1  -1    7.04    0.37
  -2  -1   1  305.06   11.75
  -2  -1   1  316.90   11.77
   2  -1  -1  317.67   11.78
  -2  -1   1  314.92   11.83
   2   1  -1  327.57   11.78
  -2   1   1  307.10   11.75
   2   1  -1  322.56   11.84
   2   1  -1  306.76   11.74
  -2   1   1  307.06   11.80
   2   1  -1  304.44   11.85
   1  -1  -1  315.88   11.96
  -1  -1   1  328.17   11.98
   1  -1  -1  317.29   12.00
  -1  -1   1  326.02   12.03
  -1  -1   1  328.46   11.95
  -1   1   1  314.77   11.99
  -1   1   1  326.61   11.95
  -1   1   1  321.32   12.01
   1   1  -1  311.70   12.04
   1   1  -1  300.53   12.06
   0  -1   1  366.77   14.36
   0  -1   1  380.97   14.42
   0  -1  -1  393.71   14.41
   0  -1   1  381.96   14.40
   0  -1  -1  387.35   14.42
   0   1  -1  378.69   14.37
   0   1  -1  374.23   14.40
   0   1   1  392.24   14.40
   0   1   1  393.39   14.40
  -1  -1  -1   34.41    1.34
  -1  -1  -1   33.95    1.37
   1  -1   1   34.45    1.33
   1  -1   1   36.14    1.48
  -1  -1  -1   33.01    1.44
   1  -1   1   37.33    1.43
  -1  -1  -1   35.93    1.44
  -1   1  -1   32.59    1.34
  -1   1  -1   34.75    1.36
   1   1   1   34.75    1.45
   1   1   1   34.62    1.45
  -1   1  -1   36.18    1.45
   1   1   1   35.65    1.40
  -2  -1  -1    9.46    0.49
  -2  -1  -1    9.91    0.45
  -2  -1  -1    9.91    0.57
   2  -1   1   10.48    0.68
   2  -1   1   10.59    0.56
  -2  -1  -1    9.77    0.45
  -2  -1  -1    9.25    0.59
   2   1   1    9.63    0.43
  -2   1  -1    9.76    0.45
   2   1   1   10.23    0.66
   2   1   1    9.54    0.59
  -2   1  -1    9.25    0.69
   2   1   1   10.30    0.65
  -2   1  -1    9.99    0.46
   3  -1   1  120.68    4.54
  -3  -1  -1  114.19    4.49
  -3  -1  -1  121.97    4.45
   3  -1   1  114.94    4.60
   3  -1   1  110.57    4.37
   3   1   1  118.36    4.39
   3   1   1  116.90    4.65
  -3   1  -1  111.83    4.42
  -3   1  -1  115.78    4.44
   3   1   1  118.45    4.61
   3   1   1  121.79    4.49
   3   1   1  107.90    4.40
  -3   1  -1  119.83    4.56
  -4  -1  -1   14.36    0.66
   4  -1   1   13.71    0.56
   4  -1   1   14.53    0.88
  -4  -1  -1   14.40    0.67
  -4  -1  -1   14.33    0.67
   4  -1   1   13.03    0.88
  -4   1  -1   13.08    0.67
  -4   1  -1   13.65    0.69
   4   1   1   12.79    0.59
   4   1   1   15.29    0.82
   4   1   1   13.17    0.63
   4   1   1   14.16    0.60
  -4   1  -1   13.69    0.83
   4   1   1   13.90    0.96
  -5  -1  -1   20.46    0.84
  -5  -1  -1   19.79    0.83
  -5  -1  -1   20.95    0.85
   5  -1   1   19.13    1.23
   5  -1   1   18.59    1.08
   5  -1   1   21.04    0.83
  -5  -1  -1   20.56    0.90
  -5  -1  -1   18.64    0.94
  -5  -1  -1   18.90    0.90
  -5  -1  -1   18.71    0.85
  -5  -1  -1   20.41    0.95
   5  -1   1   20.51    0.81
  -5   1  -1   20.08    0.95
   5   1   1   19.26    1.09
  -5   1  -1   20.39    0.85
  -5   1  -1   19.05    1.01
   5   1   1   19.70    0.87
   5   1   1   19.42    0.86
  -5   1  -1   20.38    1.10
   5   1   1   19.28    1.30
  -5   1  -1   19.68    0.85
  -5   1  -1   19.90    0.88
  -5   1  -1   20.47    0.85
  -5   1  -1   19.64    0.95
   6  -1   1   10.48    0.89
   6  -1   1    9.74    0.47
  -6  -1  -1    9.24    0.68
  -6  -1  -1    9.61    0.66
  -6  -1  -1    9.99    0.53
  -6  -1  -1    9.77    0.68
   6  -1   1    9.78    0.52
   6  -1   1   10.65    0.64
  -6  -1  -1    8.82    0.64
   6  -1   1    9.99    0.51
  -6  -1  -1    9.40    0.53
  -6   1  -1    9.09    0.93
  -6   1  -1    9.90    0.66
  -6   1  -1   10.72    0.55
  -6   1  -1    9.91    0.79
   6   1   1    9.85    0.51
  -6   1  -1    9.48    0.73
   6   1   1    9.90    0.54
   6   1   1    9.73    0.90
  -6   1  -1    9.86    0.57
  -6   1  -1   12.20    0.68
  -7  -1  -1   12.32    0.77
   7  -1   1   12.89    0.66
  -7  -1  -1   12.18    0.63
  -7  -1  -1   13.20    0.78
  -7  -1  -1   12.22    0.79
  -7  -1  -1   12.48    0.87
   7  -1   1   11.21    1.02
   7  -1   1   12.19    0.63
  -7  -1  -1   12.39    0.63
   7  -1   1   11.91    0.73
  -7  -1  -1   12.65    0.65
  -7   1  -1   12.20    0.93
  -7   1  -1   12.12    0.65
   7   1   1   12.66    0.64
  -7   1  -1   11.93    0.85
  -7   1  -1   12.74    0.69
  -7   1  -1   11.77    0.76
  -7   1  -1   12.43    0.65
  -7   1  -1   11.58    1.07
   7   1   1   12.79    0.62
   7   1   1   12.80    1.11
   8  -1   1    4.00    0.47
  -8  -1  -1    5.26    0.63
  -8  -1  -1    4.93    0.37
  -8  -1  -1    4.70    0.37
  -8  -1  -1    4.59    0.62
   8  -1   1    4.21    0.48
  -8  -1  -1    4.93    0.40
   8  -1   1    5.34    0.46
  -8  -1  -1    4.58    0.60
  -8   1  -1    4.75    0.45
  -8   1  -1    5.61    0.68
   8   1   1    4.74    0.32
  -8   1  -1    4.96    0.67
   8   1   1    4.77    0.39
  -8   1  -1    4.64    0.70
  -8   1  -1    4.56    0.40
  -8   1  -1    4.77    0.40
   8   1   1    4.87    0.39
  -9  -1  -1    9.93    0.45
  -9  -1  -1    9.42    0.61
  -9  -1  -1    9.60    0.48
  -9  -1  -1    9.16    0.58
   9  -1   1    8.22    0.68
  -9  -1  -1    9.06    0.45
  -9   1  -1    9.05    0.63
   9   1   1    8.93    0.49
  -9   1  -1    9.65    0.51
  -9   1  -1    9.17    0.48
  -9   1  -1    9.06    0.67
  -9   1  -1    9.37    0.48
  -9  -2   1    0.37    0.16
  -9  -2   1    0.56    0.24
  -9  -2   1    0.21    0.16
  -9  -2   1    0.16    0.15
  -9   2   1    0.32    0.20
  -9   2   1    0.75    0.22
  -9   2   1    0.45    0.36
   9   2  -1    0.38    0.14
  -9   2   1    0.43    0.21
  -9   2   1    0.23    0.33
   9   2  -1    0.39    0.12
   8  -2  -1    2.59    0.31
  -8  -2   1    2.93    0.41
  -8  -2   1    2.54    0.44
  -8  -2   1    2.47    0.31
  -8  -2   1    2.57    0.31
  -8  -2   1    2.30    0.33
  -8  -2   1    2.96    0.41
  -8   2   1    2.90    0.53
  -8   2   1    2.85    0.33
  -8   2   1    2.15    0.29
  -8   2   1    2.53    0.58
   8   2  -1    2.39    0.33
  -8   2   1    1.92    0.29
  -8   2   1    1.96    0.50
  -7  -2   1    4.34    0.38
  -7  -2   1    4.89    0.60
  -7  -2   1    4.66    0.48
   7  -2  -1    6.27    0.71
  -7  -2   1    5.11    0.39
   7  -2  -1    4.15    0.42
  -7  -2   1    4.74    0.59
  -7  -2   1    4.93    0.38
  -7  -2   1    5.55    0.80
  -7   2   1    4.56    0.46
   7   2  -1    4.86    0.40
  -7   2   1    4.25    0.47
  -7   2   1    4.77    0.75
  -7   2   1    4.15    0.67
  -7   2   1    4.62    0.79
   7   2  -1    4.38    0.42
  -7   2   1    4.76    0.48
  -7   2   1    4.22    0.45
   7   2  -1    4.29    0.65
  -6  -2   1    7.72    0.44
   6  -2  -1    6.82    0.42
  -6  -2   1    7.18    0.43
  -6  -2   1    7.79    0.64
  -6  -2   1    7.17    0.54
  -6  -2   1    7.12    0.53
  -6  -2   1    6.87    0.46
   6  -2  -1    5.75    0.47
  -6  -2   1    7.38    0.47
  -6   2   1    7.03    0.49
  -6   2   1    7.04    0.45
  -6   2   1    7.15    0.51
  -6   2   1    6.80    0.77
  -6   2   1    7.10    0.51
  -6   2   1    7.76    0.70
  -6   2   1    7.27    0.77
  -6   2   1    7.01    0.53
   6   2  -1    7.25    0.47
   6   2  -1    7.46    0.51
   6   2  -1    7.23    0.44
  -5  -2   1   14.43    0.67
  -5  -2   1   14.15    0.80
  -5  -2   1   14.24    0.73
   5  -2  -1   16.16    1.05
   5  -2  -1   14.08    0.70
   5  -2  -1   13.92    0.62
   5  -2  -1   16.42    1.10
  -5  -2   1   15.55    0.67
  -5  -2   1   14.89    0.75
  -5   2   1   15.69    0.98
  -5   2   1   15.12    0.80
   5   2  -1   14.80    0.92
  -5   2   1   14.89    0.71
  -5   2   1   15.32    0.70
   5   2  -1   15.37    0.71
   5   2  -1   14.19    0.71
  -5   2   1   14.45    0.92
  -5   2   1   15.18    1.20
  -5   2   1   12.92    0.73
   5   2  -1   14.40    1.11
  -5   2   1   15.52    0.70
   5   2  -1   13.94    0.63
   5   2  -1   15.74    1.29
  -5   2   1   15.41    0.89
  -5   2   1   15.04    0.67
   5   2  -1   15.46    0.69
   4  -2  -1    0.71    0.17
  -4  -2   1    1.02    0.20
   4  -2  -1    1.00    0.40
  -4  -2   1    0.60    0.21
  -4  -2   1    1.10    0.18
  -4  -2   1    0.69    0.18
   4   2  -1    0.63    0.37
   4   2  -1    0.55    0.30
  -4   2   1    0.67    0.31
  -4   2   1    0.64    0.39
  -4   2   1    0.50    0.47
  -4   2   1    0.87    0.19
   4   2  -1    1.01    0.19
  -4   2   1    0.73    0.18
   4   2  -1    0.89    0.15
  -4   2   1    0.52    0.31
   4   2  -1    0.81    0.18
   4   2  -1    0.92    0.18
   3  -2  -1    1.79    0.31
  -3  -2   1    2.11    0.24
   3  -2  -1    2.22    0.22
  -3  -2   1    2.12    0.22
  -3   2   1    1.87    0.46
   3   2  -1    2.21    0.24
   3   2  -1    1.85    0.31
  -3   2   1    1.69    0.25
  -3   2   1    2.29    0.40
   3   2  -1    1.66    0.25
   3   2  -1    1.43    0.40
   3   2  -1    1.86    0.26
   3   2  -1    2.22    0.37
   3   2  -1    1.98    0.24
   2  -2  -1    7.00    0.51
   2  -2  -1    6.77    0.39
  -2  -2   1    6.36    0.34
   2  -2  -1    6.79    0.36
  -2  -2   1    6.52    0.44
  -2  -2   1    6.87    0.33
   2   2  -1    6.54    0.36
  -2   2   1    6.56    0.32
  -2   2   1    6.87    0.69
   2   2  -1    6.16    0.61
   2   2  -1    6.56    0.51
   2   2  -1    6.56    0.66
  -2   2   1    6.71    0.33
   2   2  -1    6.14    0.50
   1  -2  -1    4.32    0.29
  -1  -2   1    4.35    0.45
   1  -2  -1    4.34    0.43
  -1  -2   1    4.48    0.35
  -1  -2   1    4.28    0.47
   1  -2  -1    4.82    0.34
  -1  -2   1    4.19    0.31
  -1   2   1    4.09    0.40
  -1   2   1    4.47    0.25
   1   2  -1    3.96    0.45
   1   2  -1    4.59    0.43
   1   2  -1    4.15    0.27
  -1   2   1    4.00    0.56
   1   2  -1    4.07    0.54
   1   2  -1    4.15    0.43
   1   2  -1    4.23    0.28
   1   2  -1    4.10    0.44
   0  -2  -1   35.74    1.56
   0  -2   1   34.85    1.57
   0  -2   1   38.06    1.54
   0  -2   1   36.48    1.44
   0  -2  -1   37.42    1.40
   0   2  -1   36.31    1.50
   0   2  -1   34.80    1.43
   0   2  -1   36.13    1.40
   0   2  -1   35.47    1.55
   0   2   1   37.50    1.40
   0   2   1   35.65    1.53
   0   2  -1   33.99    1.42
   0   2  -1   35.65    1.48
  -1  -2  -1   73.55    2.67
   1  -2   1   66.88    2.76
  -1  -2  -1   72.65    2.65
  -1  -2  -1   66.27    2.84
  -1  -2  -1   71.09    2.85
   1  -2   1   74.46    2.67
  -1  -2  -1   69.83    2.73
   1  -2   1   69.37    2.69
   1  -2   1   71.87    2.76
   1   2   1   71.72    2.85
  -1   2  -1   69.25    2.67
   1   2   1   65.03    2.67
   1   2   1   71.71    2.75
   1   2   1   71.80    2.66
  -1   2  -1   69.54    2.77
  -1   2  -1   72.94    2.79
   1   2   1   64.77    2.86
   1   2   1   67.87    2.78
   2  -2   1   39.88    1.73
  -2  -2  -1   40.22    1.60
   2  -2   1   41.52    1.58
  -2  -2  -1   41.99    1.59
   2  -2   1   39.78    1.82
  -2  -2  -1   41.60    1.59
  -2  -2  -1   41.51    1.67
   2  -2   1   39.12    1.57
  -2  -2  -1   40.91    1.81
  -2   2  -1   39.92    1.69
  -2   2  -1   41.12    1.63
   2   2   1   40.19    1.75
  -2   2  -1   41.20    1.78
   2   2   1   40.56    1.70
  -2   2  -1   40.59    1.58
   2   2   1   39.99    1.83
   2   2   1   41.49    1.60
   3  -2   1   49.68    2.16
  -3  -2  -1   50.13    2.15
  -3  -2  -1   51.12    1.93
  -3  -2  -1   49.76    1.99
   3  -2   1   47.68    2.12
   3  -2   1   46.69    1.91
  -3  -2  -1   49.20    1.91
  -3  -2  -1   49.29    1.92
  -3   2  -1   48.04    1.92
  -3   2  -1   47.55    2.00
   3   2   1   49.58    1.91
  -3   2  -1   47.64    1.95
   3   2   1   46.49    1.87
  -3   2  -1   49.59    1.94
   3   2   1   48.77    1.90
  -3   2  -1   50.92    2.15
   3   2   1   50.17    1.89
   3   2   1   45.23    2.18
   3   2   1   48.64    2.04
  -4  -2  -1   85.60    3.37
   4  -2   1   89.59    3.64
  -4  -2  -1   90.30    3.42
  -4  -2  -1   79.95    3.46
   4  -2   1   88.91    3.44
   4  -2   1   87.68    3.34
  -4   2  -1   97.33    3.59
   4   2   1   79.95    3.32
   4   2   1   87.66    3.37
   4   2   1   88.14    3.54
  -4   2  -1   85.87    3.38
   4   2   1   81.28    3.73
  -4   2  -1   90.68    3.63
  -4   2  -1   88.47    3.50
  -4   2  -1   86.14    3.35
   4   2   1   90.34    3.35
  -4   2  -1   89.59    3.41
  -4   2  -1   92.43    3.49
  -4   2  -1   85.86    3.41
  -5  -2  -1   31.21    1.27
  -5  -2  -1   31.33    1.29
   5  -2   1   32.14    1.83
  -5  -2  -1   30.49    1.34
   5  -2   1   31.81    1.66
  -5  -2  -1   29.74    1.39
   5  -2   1   31.45    1.29
  -5  -2  -1   33.89    1.40
   5  -2   1   31.12    1.34
  -5  -2  -1   29.79    1.33
   5   2   1   31.29    1.30
  -5   2  -1   32.82    1.54
  -5   2  -1   34.21    1.55
  -5   2  -1   32.03    1.34
   5   2   1   32.72    1.31
   5   2   1   29.71    1.79
  -5   2  -1   32.23    1.31
   5   2   1   30.94    1.57
  -5   2  -1   30.73    1.38
  -5   2  -1   31.66    1.47
  -5   2  -1   33.57    1.31
   5   2   1   31.96    1.28
  -6  -2  -1   30.76    1.36
  -6  -2  -1   30.90    1.37
   6  -2   1   29.12    1.32
  -6  -2  -1   29.27    1.22
  -6  -2  -1   29.49    1.21
   6  -2   1   24.49    1.29
  -6  -2  -1   30.10    1.21
   6  -2   1   29.15    1.25
  -6   2  -1   30.39    1.25
  -6   2  -1   30.18    1.26
  -6   2  -1   28.91    1.37
   6   2   1   30.93    1.22
  -6   2  -1   30.21    1.37
   6   2   1   28.05    1.57
   6   2   1   30.72    1.24
  -6   2  -1   28.35    1.47
  -6   2  -1   30.49    1.57
   6   2   1   27.55    1.35
  -6   2  -1   29.60    1.28
  -7  -2  -1    3.43    0.36
  -7  -2  -1    3.09    0.34
  -7  -2  -1    3.14    0.36
   7  -2   1    3.56    0.43
  -7  -2  -1    3.29    0.53
  -7  -2  -1    4.12    0.49
   7  -2   1    4.78    0.53
  -7  -2  -1    3.33    0.41
   7   2   1    3.27    0.36
   7   2   1    3.26    0.36
  -7   2  -1    3.46    0.48
  -7   2  -1    2.24    0.52
  -7   2  -1    3.54    0.37
  -7   2  -1    3.44    0.46
  -7   2  -1    3.31    0.44
  -7   2  -1    3.31    0.53
  -7   2  -1    3.34    0.71
  -8  -2  -1    1.69    0.22
  -8  -2  -1    2.00    0.38
  -8  -2  -1    1.53    0.40
   8  -2   1    0.74    0.24
  -8  -2  -1    1.61    0.22
  -8  -2  -1    1.68    0.22
  -8   2  -1    1.07    0.41
   8   2   1    1.76    0.33
   8   2   1    1.37    0.19
   8   2   1    1.36    0.22
  -8   2  -1    1.65    0.29
  -8   2  -1    1.02    0.46
  -8   2  -1    1.62    0.57
   8   2   1    1.62    0.23
  -8   2  -1    1.10    0.25
  -8   2  -1    1.22    0.26
  -9  -2  -1    3.57    0.24
  -9  -2  -1    3.53    0.37
  -9  -2  -1    3.67    0.25
   9   2   1    2.98    0.37
  -9   2  -1    3.56    0.41
  -9   2  -1    4.08    0.37
  -9   2  -1    3.72    0.30
  -9   2  -1    3.74    0.55
  -9   2  -1    3.81    0.33
  -9  -3   1    2.72    0.19
  -9  -3   1    2.99    0.20
  -9   3   1    2.52    0.36
  -9   3   1    2.48    0.24
  -9   3   1    2.55    0.24
  -8  -3   1    0.58    0.33
  -8  -3   1    0.76    0.20
  -8  -3   1    0.56    0.19
  -8  -3   1    0.64    0.18
  -8  -3   1    1.00    0.30
  -8  -3   1    1.01    0.55
  -8   3   1    0.36    0.25
  -8   3   1    0.57    0.68
   8   3  -1    0.54    0.19
  -8   3   1    0.53    0.23
  -8   3   1    0.51    0.28
   8   3  -1    0.46    0.17
  -8   3   1    0.21    0.39
  -8   3   1    0.43    0.43
   8   3  -1    0.81    0.17
  -7  -3   1   10.95    0.55
  -7  -3   1   11.43    0.73
  -7  -3   1   11.04    0.72
  -7  -3   1   12.02    0.57
  -7  -3   1   11.22    0.55
  -7   3   1   13.73    1.53
  -7   3   1   10.82    0.91
  -7   3   1   10.67    0.89
  -7   3   1   11.60    0.66
  -7   3   1   11.26    0.65
  -7   3   1    9.16    1.09
  -7   3   1   10.48    0.64
   7   3  -1   11.09    0.59
   7   3  -1   11.46    0.59
  -6  -3   1    1.87    0.24
  -6  -3   1    1.34    0.30
  -6  -3   1    1.69    0.25
  -6  -3   1    1.11    0.31
   6   3  -1    1.08    0.25
  -6   3   1    0.99    0.53
  -6   3   1    1.25    0.29
  -6   3   1    1.14    0.30
   6   3  -1    1.50    0.40
  -6   3   1    1.02    0.44
  -6   3   1    1.22    0.65
  -6   3   1    1.08    0.53
  -6   3   1    1.53    0.33
  -5  -3   1   22.71    1.06
  -5  -3   1   22.17    1.13
   5  -3  -1   22.67    1.00
   5  -3  -1   25.48    1.50
  -5   3   1   23.77    1.31
   5   3  -1   23.03    1.03
  -5   3   1   22.32    1.14
   5   3  -1   21.91    0.96
   5   3  -1   22.50    1.04
   5   3  -1   21.96    1.29
  -5   3   1   23.75    1.26
  -5   3   1   25.32    1.65
   5   3  -1   22.81    1.00
  -5   3   1   23.26    1.04
  -5   3   1   25.30    1.23
  -5   3   1   20.93    1.03
  -5   3   1   26.31    1.39
   4  -3  -1    5.00    0.37
  -4  -3   1    3.23    0.32
  -4  -3   1    3.67    0.48
   4  -3  -1    5.91    0.91
  -4  -3   1    4.16    0.31
  -4  -3   1    3.57    0.32
  -4  -3   1    4.49    0.33
   4  -3  -1    4.21    0.38
  -4  -3   1    4.31    0.37
  -4   3   1    4.20    0.42
   4   3  -1    4.56    0.77
   4   3  -1    3.70    0.37
   4   3  -1    4.30    0.32
   4   3  -1    4.04    0.42
  -4   3   1    4.54    0.39
  -4   3   1    4.86    0.73
   4   3  -1    3.87    0.36
   4   3  -1    4.63    0.76
   4   3  -1    4.48    0.38
   4   3  -1    3.06    0.48
  -4   3   1    4.38    0.61
  -4   3   1    3.46    0.36
  -4   3   1    5.19    0.73
  -4   3   1    3.95    0.52
   3  -3  -1   34.76    1.41
  -3  -3   1   32.42    1.37
   3  -3  -1   35.53    1.52
  -3  -3   1   37.73    1.51
  -3  -3   1   31.90    1.57
  -3  -3   1   32.14    1.36
  -3  -3   1   35.44    1.39
  -3  -3   1   31.80    1.49
   3  -3  -1   36.01    1.38
  -3   3   1   34.16    1.45
  -3   3   1   33.67    1.53
   3   3  -1   33.34    1.40
  -3   3   1   33.77    1.57
   3   3  -1   36.76    1.43
   3   3  -1   33.52    1.75
  -3   3   1   37.13    1.72
   3   3  -1   33.71    1.80
   3   3  -1   33.29    1.37
   3   3  -1   34.26    1.56
  -3   3   1   35.50    1.72
  -3   3   1   33.19    1.38
   2  -3  -1   36.37    1.56
   2  -3  -1   33.81    1.45
  -2  -3   1   38.19    1.51
  -2  -3   1   36.27    1.57
   2  -3  -1   38.93    1.49
  -2  -3   1   36.23    1.46
   2  -3  -1   37.27    1.53
  -2  -3   1   40.93    1.50
  -2  -3   1   38.27    1.48
   2  -3  -1   36.95    1.68
   2   3  -1   35.70    1.57
  -2   3   1   36.47    1.52
  -2   3   1   37.04    1.60
   2   3  -1   36.57    1.77
   2   3  -1   37.14    1.49
  -2   3   1   37.75    1.73
  -2   3   1   37.19    1.44
   2   3  -1   36.45    1.45
   2   3  -1   37.94    1.63
   2   3  -1   36.09    1.47
   2   3  -1   35.64    1.46
  -1  -3   1    5.04    0.39
  -1  -3   1    5.60    0.59
  -1  -3   1    5.97    0.45
  -1  -3   1    5.90    0.46
   1  -3  -1    5.59    0.45
  -1  -3   1    5.51    0.45
   1  -3  -1    5.55    0.40
  -1  -3   1    5.83    0.36
   1  -3  -1    6.92    0.73
   1  -3  -1    6.22    0.62
   1   3  -1    5.92    0.33
   1   3  -1    6.00    0.36
  -1   3   1    5.59    0.46
  -1   3   1    6.14    0.33
   1   3  -1    5.44    0.31
  -1   3   1    5.52    0.57
  -1   3   1    6.12    0.33
   1   3  -1    5.75    0.49
  -1   3   1    5.71    0.70
   0  -3   1   49.22    1.84
   0  -3   1   45.57    1.81
   0  -3  -1   46.46    1.85
   0  -3  -1   45.99    1.91
   0  -3   1   49.67    2.06
   0  -3  -1   48.16    2.10
   0  -3   1   48.49    1.90
   0  -3   1   47.82    1.89
   0  -3  -1   46.72    1.83
   0   3  -1   46.60    1.82
   0   3  -1   44.78    1.86
   0   3   1   46.10    2.02
   0   3   1   46.89    1.80
   0   3   1   48.08    1.83
   0   3  -1   47.06    1.98
   0   3  -1   43.58    1.88
   0   3  -1   48.61    1.81
   0   3   1   43.69    1.86
   0   3   1   43.08    1.91
  -1  -3  -1   42.46    1.80
  -1  -3  -1   46.29    1.72
   1  -3   1   41.67    1.98
  -1  -3  -1   41.77    1.99
  -1  -3  -1   46.66    1.73
   1  -3   1   42.92    1.75
   1  -3   1   44.87    1.75
   1  -3   1   42.71    1.69
   1  -3   1   45.67    1.89
  -1  -3  -1   45.81    1.75
  -1   3  -1   43.09    1.80
  -1   3  -1   44.06    1.68
   1   3   1   42.48    1.68
  -1   3  -1   41.18    1.73
   1   3   1   36.75    1.74
   1   3   1   43.24    1.84
   1   3   1   41.65    1.89
   1   3   1   43.62    1.71
  -1   3  -1   44.97    1.90
   2  -3   1   30.40    1.22
  -2  -3  -1   31.82    1.23
   2  -3   1   29.70    1.25
   2  -3   1   32.67    1.23
  -2  -3  -1   26.12    1.28
  -2  -3  -1   29.62    1.22
   2  -3   1   29.14    1.54
  -2  -3  -1   30.11    1.24
  -2  -3  -1   30.73    1.33
  -2  -3  -1   27.82    1.21
  -2  -3  -1   28.11    1.16
   2   3   1   29.57    1.18
   2   3   1   30.40    1.50
  -2   3  -1   29.65    1.36
  -2   3  -1   29.87    1.17
   2   3   1   27.92    1.41
   2   3   1   28.79    1.17
  -2   3  -1   29.60    1.26
   2   3   1   28.38    1.17
   2   3   1   30.07    1.21
  -2   3  -1   29.96    1.48
   2   3   1   29.11    1.37
  -3  -3  -1    2.63    0.29
   3  -3   1    2.55    0.30
  -3  -3  -1    2.86    0.41
  -3  -3  -1    2.17    0.21
   3  -3   1    2.48    0.28
  -3  -3  -1    2.25    0.31
  -3  -3  -1    3.17    0.30
  -3  -3  -1    2.76    0.22
   3  -3   1    2.26    0.56
  -3   3  -1    2.70    0.33
   3   3   1    2.22    0.28
   3   3   1    2.09    0.27
  -3   3  -1    2.78    0.29
  -3   3  -1    2.20    0.33
  -3   3  -1    2.03    0.38
  -3   3  -1    2.34    0.27
   3   3   1    2.51    0.53
   3   3   1    1.99    0.24
   3   3   1    1.64    0.43
  -3   3  -1    2.75    0.53
   3   3   1    1.59    0.34
  -3   3  -1    2.00    0.59
   3   3   1    2.33    0.25
  -3   3  -1    2.57    0.50
   3   3   1    1.99    0.73
   4  -3   1    8.41    0.57
  -4  -3  -1    8.83    0.56
   4  -3   1    8.45    1.02
  -4  -3  -1    9.04    0.55
   4  -3   1    8.66    0.55
  -4  -3  -1    9.11    0.49
  -4  -3  -1    8.08    0.48
  -4  -3  -1    8.77    0.61
  -4   3  -1    9.02    0.76
   4   3   1    9.31    0.59
  -4   3  -1    9.54    1.16
   4   3   1    9.73    0.52
   4   3   1   10.12    1.03
  -4   3  -1    9.67    0.67
  -4   3  -1    8.38    0.91
  -4   3  -1    9.68    0.56
   4   3   1    8.57    0.79
  -4   3  -1    9.66    0.88
   4   3   1    9.02    0.44
   4   3   1    6.91    0.77
   4   3   1    8.71    0.94
   4   3   1    9.08    0.49
  -4   3  -1    8.37    0.54
  -4   3  -1   10.16    0.56
  -4   3  -1    9.07    0.48
   4   3   1    9.06    0.47
   5  -3   1    7.02    0.58
  -5  -3  -1    7.87    0.57
  -5  -3  -1    8.44    0.63
  -5  -3  -1    8.43    0.51
   5  -3   1    7.55    0.55
  -5  -3  -1    7.97    0.47
   5   3   1    8.25    0.49
   5   3   1    8.04    0.39
  -5   3  -1    9.13    0.99
  -5   3  -1    8.18    0.59
   5   3   1    7.69    0.46
  -5   3  -1    7.17    0.70
  -5   3  -1    7.27    0.95
  -5   3  -1    8.38    0.82
  -5   3  -1    8.60    0.57
   5   3   1    7.85    0.84
  -5   3  -1    8.01    0.56
  -6  -3  -1    2.69    0.28
  -6  -3  -1    2.27    0.24
  -6  -3  -1    2.10    0.32
   6  -3   1    2.00    0.38
   6  -3   1    2.09    0.35
  -6  -3  -1    2.72    0.41
   6   3   1    3.64    0.99
  -6   3  -1    2.33    0.71
   6   3   1    2.09    0.30
   6   3   1    1.85    0.26
  -6   3  -1    2.21    0.37
  -6   3  -1    2.24    0.59
  -6   3  -1    1.65    0.60
  -6   3  -1    1.80    0.32
  -6   3  -1    1.82    0.48
   6   3   1    1.99    0.26
  -6   3  -1    1.56    0.31
  -7  -3  -1    4.34    0.53
  -7  -3  -1    4.69    0.33
   7  -3   1    3.84    0.52
  -7  -3  -1    4.91    0.56
  -7  -3  -1    4.44    0.33
  -7  -3  -1    4.17    0.33
   7  -3   1    4.19    0.47
  -7   3  -1    3.49    0.52
  -7   3  -1    4.18    0.72
  -7   3  -1    4.23    0.47
   7   3   1    4.70    0.53
  -7   3  -1    3.89    0.47
   7   3   1    4.58    0.39
  -7   3  -1    4.35    0.62
  -7   3  -1    3.49    0.52
  -7   3  -1    4.12    0.46
   7   3   1    4.16    0.34
  -8  -3  -1    1.18    0.30
  -8  -3  -1    1.40    0.18
  -8  -3  -1    1.83    0.35
  -8  -3  -1    1.01    0.17
  -8   3  -1    1.26    0.39
  -8   3  -1    1.29    0.27
   8   3   1    1.28    0.20
   8   3   1    0.85    0.18
  -8   3  -1    1.02    0.42
  -8   3  -1    1.06    0.53
  -8   3  -1    1.23    0.25
  -8   3  -1    0.98    0.24
  -8  -4   1    0.33    0.13
  -8  -4   1    0.07    0.12
  -8   4   1    0.04    0.18
   8   4  -1    0.10    0.14
  -8   4   1    0.55    0.31
  -8   4   1    0.24    0.23
  -8   4   1    0.14    0.39
  -7  -4   1    1.20    0.23
  -7  -4   1    1.10    0.30
   7  -4  -1    0.23    0.23
  -7  -4   1    1.25    0.20
  -7   4   1    0.87    0.34
   7   4  -1    0.87    0.19
   7   4  -1    0.92    0.18
  -7   4   1    1.02    0.48
  -7   4   1    0.70    0.43
  -7   4   1    1.38    0.60
  -7   4   1    1.12    0.48
  -6  -4   1    1.75    0.28
  -6  -4   1    2.02    0.24
  -6  -4   1    2.84    0.40
   6  -4  -1    1.70    0.33
   6   4  -1    1.89    0.24
  -6   4   1    2.27    0.35
  -6   4   1    2.01    1.10
  -6   4   1    2.19    0.55
  -6   4   1    1.59    0.51
  -6   4   1    2.25    0.57
  -6   4   1    1.89    0.34
   6   4  -1    1.88    0.25
   6   4  -1    2.26    0.28
   5  -4  -1    9.45    0.65
  -5  -4   1    8.70    0.62
  -5  -4   1    9.19    0.67
  -5   4   1    8.63    1.22
   5   4  -1    9.47    0.87
  -5   4   1   10.22    0.95
  -5   4   1    8.91    0.78
  -5   4   1    9.09    0.99
  -5   4   1    9.35    0.65
   5   4  -1    9.62    0.66
   5   4  -1    8.77    0.51
  -5   4   1    8.97    0.62
   5   4  -1    8.61    0.52
   5   4  -1    9.71    0.58
   5   4  -1    9.18    0.48
  -5   4   1    9.23    0.88
   4  -4  -1   64.98    2.51
  -4  -4   1   60.37    2.50
  -4  -4   1   58.38    2.47
   4  -4  -1   61.42    2.44
   4  -4  -1   67.77    3.02
  -4  -4   1   57.59    2.42
   4   4  -1   62.24    2.72
   4   4  -1   62.01    2.42
  -4   4   1   59.64    2.46
  -4   4   1   68.80    2.72
   4   4  -1   55.84    2.49
   4   4  -1   62.66    2.49
  -4   4   1   65.19    2.65
  -4   4   1   62.83    2.63
   4   4  -1   63.63    2.55
  -4   4   1   61.15    2.45
  -4   4   1   63.14    2.56
  -3  -4   1   27.01    1.20
  -3  -4   1   29.72    1.18
  -3  -4   1   30.31    1.23
   3  -4  -1   25.87    1.65
   3  -4  -1   29.75    1.20
   3  -4  -1   28.60    1.19
   3  -4  -1   27.37    1.23
   3  -4  -1   24.71    1.11
  -3  -4   1   25.56    1.11
  -3  -4   1   28.28    1.10
  -3   4   1   26.33    1.17
  -3   4   1   26.94    1.27
  -3   4   1   24.62    1.13
   3   4  -1   25.17    1.12
   3   4  -1   26.95    1.41
  -3   4   1   29.54    1.67
  -3   4   1   25.95    1.36
   3   4  -1   25.70    1.17
  -3   4   1   26.01    1.35
   3   4  -1   26.98    1.12
  -2  -4   1   21.85    0.95
   2  -4  -1   22.31    1.24
  -2  -4   1   23.04    0.99
   2  -4  -1   20.53    0.98
  -2  -4   1   24.38    0.95
  -2  -4   1   22.92    0.99
   2  -4  -1   25.15    1.07
   2  -4  -1   22.35    1.00
   2  -4  -1   19.74    0.93
   2  -4  -1   22.46    1.01
  -2  -4   1   24.79    1.03
   2  -4  -1   23.22    1.09
  -2  -4   1   20.93    1.11
  -2  -4   1   22.17    1.03
   2   4  -1   22.73    0.94
  -2   4   1   22.15    0.97
  -2   4   1   20.43    0.98
  -2   4   1   21.99    1.07
   2   4  -1   20.39    0.98
  -2   4   1   21.07    0.92
  -2   4   1   22.23    1.39
  -2   4   1   21.92    0.96
  -2   4   1   20.66    1.21
  -2   4   1   21.47    1.19
   2   4  -1   23.26    1.13
  -2   4   1   21.71    1.14
  -1  -4   1    1.02    0.25
  -1  -4   1    1.42    0.50
   1  -4  -1    0.90    0.32
   1  -4  -1    0.94    0.26
  -1  -4   1    1.08    0.28
  -1  -4   1    1.36    0.32
  -1  -4   1    1.11    0.24
   1  -4  -1    0.96    0.36
   1  -4  -1    1.33    0.23
   1  -4  -1    1.48    0.20
  -1  -4   1    1.38    0.23
  -1  -4   1    0.97    0.28
  -1  -4   1    0.99    0.29
   1  -4  -1    1.23    0.26
   1   4  -1    1.32    0.22
  -1   4   1    1.40    0.21
  -1   4   1    1.17    0.25
  -1   4   1    1.43    0.25
  -1   4   1    1.55    0.41
  -1   4   1    1.56    0.41
   1   4  -1    1.47    0.37
   1   4  -1    0.84    0.19
  -1   4   1    0.66    0.47
  -1   4   1    1.27    0.21
  -1   4   1    1.24    0.41
   1   4  -1    1.29    0.34
  -1   4   1    1.10    0.23
  -1   4   1    1.58    0.34
   1   4  -1    1.39    0.40
   0  -4   1    0.77    0.21
   0  -4   1    1.04    0.34
   0  -4   1    0.47    0.27
   0  -4  -1    0.66    0.39
   0  -4  -1    0.29    0.27
   0  -4   1    0.61    0.26
   0  -4  -1    0.47    0.25
   0  -4   1    1.26    0.55
   0  -4   1    0.77    0.24
   0  -4   1    0.77    0.28
   0  -4  -1    0.56    0.23
   0  -4  -1    0.60    0.29
   0  -4   1    0.85    0.24
   0  -4  -1    0.66    0.24
   0  -4  -1    0.28    0.30
   0   4  -1    0.56    0.27
   0   4   1    0.44    0.25
   0   4  -1    0.96    0.23
   0   4   1    0.94    0.25
   0   4   1    1.33    0.36
   0   4   1    0.70    0.44
   0   4  -1    1.23    0.33
   0   4   1    0.48    0.16
   0   4  -1    1.32    0.43
   0   4   1    1.05    0.38
   0   4  -1    0.63    0.18
   0   4   1    0.82    0.37
   0   4  -1    0.99    0.39
   0   4  -1    0.51    0.18
   0   4  -1    0.76    0.22
   0   4  -1    0.76    0.36
   0   4   1    1.33    0.35
   0   4  -1    1.07    0.52
  -1  -4  -1    9.53    0.61
   1  -4   1    8.67    1.01
   1  -4   1   10.16    0.60
   1  -4   1    8.62    0.50
  -1  -4  -1    8.65    0.65
  -1  -4  -1    9.06    0.60
   1  -4   1    9.17    0.56
  -1  -4  -1    8.45    0.45
  -1  -4  -1    8.32    0.85
   1  -4   1    8.66    0.57
   1  -4   1   10.12    0.71
   1  -4   1    8.54    0.58
  -1  -4  -1    8.71    0.53
  -1  -4  -1    8.49    0.68
  -1   4  -1    8.44    0.53
   1   4   1    8.31    0.82
  -1   4  -1    9.15    0.83
  -1   4  -1    7.53    0.71
  -1   4  -1    8.40    0.54
   1   4   1    9.00    0.47
  -1   4  -1    8.63    0.45
  -1   4  -1    8.63    0.47
  -1   4  -1    9.01    0.74
   1   4   1    8.79    0.61
   1   4   1    8.41    0.70
   1   4   1    8.60    0.60
  -1   4  -1    8.78    0.66
  -1   4  -1    8.85    0.61
  -2  -4  -1   46.44    1.85
   2  -4   1   44.82    1.82
  -2  -4  -1   44.92    1.80
  -2  -4  -1   42.84    1.77
  -2  -4  -1   46.80    1.86
   2  -4   1   45.88    1.85
   2  -4   1   45.56    2.31
  -2  -4  -1   46.65    1.87
   2  -4   1   47.83    1.85
  -2  -4  -1   46.41    1.83
   2  -4   1   49.72    1.87
   2  -4   1   48.35    1.92
  -2  -4  -1   45.16    1.99
   2   4   1   46.15    1.90
  -2   4  -1   45.40    2.06
   2   4   1   37.95    2.24
  -2   4  -1   43.36    1.86
  -2   4  -1   44.42    1.83
  -2   4  -1   46.32    1.84
  -2   4  -1   45.56    2.15
   2   4   1   45.51    2.05
  -2   4  -1   45.71    1.78
  -2   4  -1   43.76    1.97
  -2   4  -1   45.56    1.90
   2   4   1   46.04    1.79
  -2   4  -1   45.36    1.97
   2   4   1   45.74    1.85
  -3  -4  -1    0.35    0.28
   3  -4   1    0.83    0.68
   3  -4   1    0.71    0.29
  -3  -4  -1    0.30    0.22
   3  -4   1    0.65    0.34
   3  -4   1    0.91    0.25
  -3  -4  -1    0.63    0.25
   3  -4   1    0.83    0.27
  -3  -4  -1    0.49    0.40
   3   4   1    0.23    0.24
   3   4   1    0.37    0.15
  -3   4  -1    0.50    0.48
  -3   4  -1    0.18    0.10
  -3   4  -1    0.45    0.38
  -3   4  -1    0.48    0.37
  -3   4  -1    1.69    0.67
  -3   4  -1    0.71    0.28
  -3   4  -1    0.01    0.54
  -3   4  -1    0.37    0.53
  -3   4  -1    0.79    0.28
   3   4   1    0.47    0.19
   3   4   1    0.53    0.22
   3   4   1    0.65    0.44
   4  -4   1    0.85    0.28
   4  -4   1    0.28    0.34
   4  -4   1    0.41    0.55
  -4  -4  -1    0.81    0.22
   4  -4   1    0.59    0.32
  -4  -4  -1    0.38    0.25
   4  -4   1    0.38    0.35
  -4  -4  -1    0.45    0.28
   4   4   1    0.51    0.19
   4   4   1    0.68    0.46
  -4   4  -1   -0.05    0.56
  -4   4  -1    0.69    0.34
   4   4   1    0.69    0.29
   4   4   1    0.33    0.20
  -4   4  -1    0.74    0.28
  -4   4  -1    0.77    0.53
  -4   4  -1    0.58    0.60
   4   4   1    0.49    0.18
  -4   4  -1    0.27    0.22
  -4   4  -1   -0.08    0.89
  -4   4  -1    0.34    0.41
   5  -4   1    2.94    0.40
   5  -4   1    2.73    0.34
   5  -4   1    2.39    0.40
  -5  -4  -1    2.99    0.37
   5  -4   1    2.80    0.43
  -5   4  -1    2.38    0.90
   5   4   1    1.83    0.28
  -5   4  -1    2.28    0.36
  -5   4  -1    2.59    0.64
  -5   4  -1    1.82    0.47
  -5   4  -1    2.96    0.39
   5   4   1    2.49    0.33
   5   4   1    2.53    0.26
   5   4   1    2.22    0.30
   5   4   1    2.81    0.35
   5   4   1    1.84    0.55
   5   4   1    2.72    0.35
  -5   4  -1    2.02    0.59
  -5   4  -1    2.27    0.49
   6  -4   1    6.09    0.63
  -6  -4  -1    5.35    0.34
   6  -4   1    5.52    0.47
  -6  -4  -1    5.63    0.50
   6  -4   1    6.01    0.55
  -6  -4  -1    5.64    0.36
   6   4   1    4.81    0.38
   6   4   1    5.33    0.35
  -6   4  -1    5.11    0.79
  -6   4  -1    5.73    0.94
  -6   4  -1    5.75    0.50
  -6   4  -1    5.02    0.71
   6   4   1    5.55    0.40
  -6   4  -1    5.56    0.52
   6   4   1    5.61    0.39
  -6   4  -1    5.14    0.88
  -6   4  -1    4.87    0.47
  -7  -4  -1    0.98    0.31
  -7  -4  -1    0.80    0.16
  -7  -4  -1    0.66    0.16
   7  -4   1    0.94    0.26
   7   4   1    0.75    0.21
  -7   4  -1    0.44    0.20
  -7   4  -1    0.91    0.57
  -7   4  -1    0.87    0.28
  -7   4  -1    0.76    0.43
   7   4   1    0.39    0.18
  -7   4  -1    0.67    0.43
  -7   4  -1    0.39    0.25
  -7   4  -1    0.72    0.41
  -8   4  -1    1.83    0.23
  -8   4  -1    1.39    0.19
  -8   4  -1    2.17    0.38
  -7  -5   1    3.96    0.22
  -7  -5   1    3.74    0.22
  -7   5   1    4.04    0.46
  -7   5   1    4.74    0.49
  -7   5   1    3.67    0.29
  -7   5   1    3.86    0.32
  -6  -5   1   -0.07    0.23
   6  -5  -1    0.58    0.26
  -6  -5   1    0.18    0.16
  -6  -5   1    0.25    0.15
  -6   5   1    0.40    0.25
  -6   5   1    0.38    0.24
  -6   5   1    0.48    0.43
  -6   5   1    0.26    0.42
   6   5  -1    0.16    0.12
  -6   5   1    0.13    0.52
  -6   5   1    0.49    0.43
  -5  -5   1    2.98    0.37
   5  -5  -1    3.80    0.52
  -5   5   1    3.50    0.44
  -5   5   1    3.38    0.54
  -5   5   1    3.19    0.44
  -5   5   1    4.15    0.74
  -5   5   1    3.58    0.64
   5   5  -1    3.49    0.44
   5   5  -1    2.95    0.28
  -5   5   1    3.59    0.61
   5   5  -1    3.21    0.36
   4  -5  -1   11.53    0.71
   4  -5  -1   11.96    0.74
  -4  -5   1    9.96    0.58
  -4  -5   1   11.18    0.67
  -4   5   1   12.22    0.95
  -4   5   1   11.73    1.03
  -4   5   1    9.05    1.26
  -4   5   1   12.42    0.85
  -4   5   1   11.30    0.66
   4   5  -1   11.42    0.73
   4   5  -1   12.03    0.66
   4   5  -1   11.07    0.57
  -4   5   1   10.62    0.65
  -4   5   1   12.64    1.01
  -3  -5   1   20.13    1.00
   3  -5  -1   21.71    1.03
   3  -5  -1   20.28    0.99
   3  -5  -1   20.38    1.00
  -3  -5   1   19.26    0.88
  -3  -5   1   20.17    0.94
  -3   5   1   18.92    1.51
  -3   5   1   21.78    1.23
  -3   5   1   21.31    1.14
  -3   5   1   19.66    0.96
   3   5  -1   21.07    0.97
  -3   5   1   19.88    1.24
  -3   5   1   21.82    1.26
   3   5  -1   21.76    1.06
  -3   5   1   19.37    0.95
   3   5  -1   20.48    0.90
  -2  -5   1    4.61    0.52
   2  -5  -1    3.25    0.46
  -2  -5   1    4.38    0.51
   2  -5  -1    2.82    0.44
  -2  -5   1    3.65    0.43
   2  -5  -1    3.16    0.49
   2  -5  -1    4.57    0.89
   2  -5  -1    3.48    0.41
  -2  -5   1    4.53    0.43
  -2  -5   1    3.33    0.36
   2  -5  -1    3.15    0.36
  -2  -5   1    3.23    0.36
   2   5  -1    3.42    0.43
  -2   5   1    2.96    0.43
  -2   5   1    3.16    0.61
  -2   5   1    3.46    0.38
   2   5  -1    3.41    0.37
  -2   5   1    3.35    0.61
  -2   5   1    4.07    0.66
  -2   5   1    3.20    0.35
  -2   5   1    3.93    0.81
   2   5  -1    3.22    0.41
  -2   5   1    4.19    0.68
  -1  -5   1    6.08    0.53
   1  -5  -1    4.59    0.53
  -1  -5   1    5.73    0.60
   1  -5  -1    4.43    0.49
  -1  -5   1    6.43    0.62
   1  -5  -1    5.04    0.64
  -1  -5   1    5.44    0.43
  -1  -5   1    5.35    0.54
   1  -5  -1    4.20    0.59
   1  -5  -1    6.86    0.72
  -1  -5   1    6.23    0.62
   1  -5  -1    6.75    1.02
   1  -5  -1    4.74    0.59
  -1   5   1    4.90    0.40
  -1   5   1    6.57    1.37
  -1   5   1    7.05    0.73
   1   5  -1    5.53    0.61
  -1   5   1    4.55    0.54
   1   5  -1    5.40    0.46
  -1   5   1    6.84    0.85
   1   5  -1    7.14    0.76
  -1   5   1    4.97    0.47
  -1   5   1    5.37    0.81
  -1   5   1    5.42    0.81
   1   5  -1    6.52    0.51
  -1   5   1    5.09    0.40
   0  -5  -1    0.39    0.35
   0  -5   1   -0.13    0.34
   0  -5  -1    1.07    0.57
   0  -5   1   -0.23    0.29
   0  -5   1    0.23    0.38
   0  -5   1    0.16    0.22
   0  -5   1    1.72    0.70
   0  -5  -1   -0.03    0.34
   0  -5  -1    0.02    0.25
   0  -5   1    0.26    0.34
   0  -5  -1   -0.21    0.35
   0  -5   1   -0.29    0.29
   0  -5  -1    0.02    0.19
   0  -5  -1    0.17    0.38
   0  -5  -1    0.01    0.28
   0   5  -1    0.25    0.29
   0   5  -1    0.96    0.45
   0   5   1    0.80    0.55
   0   5   1    0.30    0.20
   0   5   1    0.11    0.40
   0   5  -1    0.32    0.21
   0   5   1    0.19    0.19
   0   5   1    0.65    0.45
   0   5  -1    0.48    0.50
   0   5  -1    0.04    0.41
   0   5  -1    0.28    0.22
   0   5   1    0.41    0.28
   0   5   1    0.97    0.55
   1  -5   1    6.62    0.47
   1  -5   1    8.43    1.14
  -1  -5  -1    6.84    0.52
  -1  -5  -1    6.90    0.60
   1  -5   1    6.25    0.71
  -1  -5  -1    5.90    0.66
   1  -5   1    6.44    0.67
  -1  -5  -1    6.65    0.64
   1  -5   1    6.74    0.63
   1  -5   1    7.41    0.66
  -1  -5  -1    6.51    0.38
  -1  -5  -1    6.22    0.56
   1  -5   1    7.39    0.61
  -1  -5  -1    6.42    0.66
   1   5   1    6.83    0.88
  -1   5  -1    6.76    0.82
  -1   5  -1    8.70    0.87
   1   5   1    6.84    0.46
  -1   5  -1    6.63    0.57
  -1   5  -1    6.45    0.62
  -1   5  -1    6.99    0.88
  -1   5  -1    7.86    0.75
   1   5   1    6.14    0.61
   1   5   1    8.87    0.81
  -1   5  -1    7.30    0.46
   1   5   1    6.83    0.48
  -1   5  -1    6.84    0.55
  -2  -5  -1   15.80    0.86
   2  -5   1   16.54    0.85
  -2  -5  -1   15.45    0.98
  -2  -5  -1   15.56    0.77
   2  -5   1   15.81    0.75
   2  -5   1   17.19    1.46
  -2  -5  -1   15.50    0.85
   2  -5   1   18.68    0.98
  -2  -5  -1   15.22    0.86
   2  -5   1   17.40    0.88
  -2  -5  -1   15.46    0.81
  -2   5  -1   16.29    1.12
  -2   5  -1   15.37    0.85
  -2   5  -1   17.04    1.10
  -2   5  -1   16.03    0.99
  -2   5  -1   15.29    0.73
   2   5   1   15.85    0.74
  -2   5  -1   16.69    1.27
   2   5   1   15.87    0.89
  -2   5  -1   16.65    1.12
   2   5   1   17.13    0.81
  -2   5  -1   14.81    0.81
  -2   5  -1   15.41    0.85
  -3  -5  -1    5.87    0.53
  -3  -5  -1    5.92    0.61
   3  -5   1    6.69    0.67
   3  -5   1    8.54    1.11
   3  -5   1    7.74    0.75
   3  -5   1    6.86    0.48
  -3  -5  -1    5.55    0.58
   3  -5   1    5.71    0.61
  -3   5  -1    6.07    0.63
  -3   5  -1    6.51    0.90
  -3   5  -1    7.90    1.16
  -3   5  -1    8.02    1.02
  -3   5  -1    6.43    0.92
  -3   5  -1    7.13    0.76
   3   5   1    4.75    0.56
   3   5   1    6.09    0.42
  -3   5  -1    5.77    0.56
   3   5   1    6.07    0.47
  -4  -5  -1    1.34    0.33
   4  -5   1    1.71    0.29
   4  -5   1    1.06    0.38
   4  -5   1    1.43    0.37
  -4  -5  -1    1.69    0.31
  -4  -5  -1    1.67    0.25
   4  -5   1    1.96    0.46
  -4   5  -1    2.04    0.35
   4   5   1    1.62    0.32
  -4   5  -1    1.46    0.35
  -4   5  -1    1.59    0.78
  -4   5  -1    1.74    0.53
  -4   5  -1    2.03    0.52
   4   5   1    2.02    0.27
  -4   5  -1    1.21    0.54
   5  -5   1    0.29    0.33
   5  -5   1    0.70    0.33
  -5  -5  -1    0.64    0.28
  -5  -5  -1    0.74    0.17
   5  -5   1    0.93    0.39
   5   5   1    0.65    0.20
  -5   5  -1    1.01    0.50
  -5   5  -1    1.01    0.47
   5   5   1    0.53    0.23
  -5   5  -1    0.31    0.30
  -5   5  -1    1.33    0.58
  -5   5  -1    0.85    0.30
  -5   5  -1    0.49    0.61
  -6  -5  -1    2.47    0.30
  -6  -5  -1    1.74    0.20
  -6  -5  -1    1.76    0.21
  -6   5  -1    2.29    0.47
  -6   5  -1    1.96    0.41
  -6   5  -1    2.64    0.36
  -6   5  -1    2.53    0.48
   6   5   1    2.04    0.21
  -6   5  -1    1.61    0.27
  -6   5  -1    2.42    0.58
  -7   5  -1   10.61    0.59
  -7   5  -1   10.74    0.51
  -7   5  -1   12.18    0.52
   5  -6  -1    1.05    0.42
  -5  -6   1    0.25    0.13
  -5  -6   1    0.22    0.12
   5  -6  -1    0.47    0.18
  -5  -6   1    0.00    0.21
   5   6  -1    0.08    0.15
  -5   6   1    1.01    0.41
  -5   6   1    0.76    0.40
  -5   6   1    1.18    0.51
  -4  -6   1    0.15    0.27
   4  -6  -1    0.67    0.27
  -4  -6   1   -0.22    0.15
   4  -6  -1    0.12    0.28
   4  -6  -1    0.77    0.44
   4  -6  -1   -0.27    0.23
   4   6  -1   -0.01    0.23
   4   6  -1    0.09    0.17
   4   6  -1    0.18    0.15
  -4   6   1    0.21    0.51
  -4   6   1    0.80    0.44
  -4   6   1    0.69    0.44
   3  -6  -1    1.20    0.33
   3  -6  -1    1.45    0.35
  -3  -6   1    1.08    0.22
  -3  -6   1    0.94    0.32
   3  -6  -1    1.20    0.35
   3  -6  -1    1.01    0.28
   3   6  -1    1.00    0.20
   3   6  -1    1.29    0.31
  -3   6   1    1.69    0.53
   3   6  -1    1.00    0.23
  -3   6   1    2.01    0.44
  -2  -6   1    1.76    0.22
   2  -6  -1    1.46    0.37
  -2  -6   1    2.18    0.37
   2  -6  -1    2.13    0.49
  -2  -6   1    1.66    0.33
   2  -6  -1    1.47    0.38
   2  -6  -1    1.54    0.30
   2  -6  -1    1.63    0.26
  -2  -6   1    1.49    0.27
   2   6  -1    1.59    0.24
   2   6  -1    1.84    0.29
   2   6  -1    1.75    0.35
  -2   6   1    1.89    0.53
  -2   6   1    1.64    0.25
  -2   6   1    3.20    0.58
  -2   6   1    2.12    0.46
   1  -6  -1    2.21    0.29
   1  -6  -1    1.76    0.31
  -1  -6   1    2.32    0.28
   1  -6  -1    1.93    0.40
  -1  -6   1    2.08    0.26
   1  -6  -1    1.01    0.54
  -1  -6   1    3.08    0.37
  -1  -6   1    2.78    0.38
   1  -6  -1    1.91    0.38
  -1  -6   1    1.81    0.28
   1   6  -1    2.03    0.35
   1   6  -1    2.50    0.44
  -1   6   1    3.01    0.55
  -1   6   1    1.83    0.28
   1   6  -1    2.27    0.26
  -1   6   1    2.21    0.47
   0  -6   1    0.39    0.40
   0  -6  -1    0.26    0.24
   0  -6  -1    0.06    0.32
   0  -6   1    0.31    0.50
   0  -6   1   -0.05    0.34
   0  -6   1   -0.09    0.25
   0  -6   1    0.17    0.26
   0  -6  -1    0.10    0.23
   0  -6  -1    0.18    0.32
   0   6   1    0.00    0.32
   0   6  -1    0.00    0.28
   0   6   1    0.05    0.22
   0   6  -1    0.26    0.19
   0   6  -1    0.40    0.49
   0   6   1    0.21    0.20
   0   6  -1   -0.15    0.14
   1  -6   1    1.54    0.31
   1  -6   1    1.21    0.42
  -1  -6  -1    1.48    0.38
   1  -6   1    1.39    0.45
   1  -6   1    1.07    0.27
  -1  -6  -1    1.62    0.27
  -1  -6  -1    1.22    0.35
  -1  -6  -1    2.03    0.38
   1  -6   1    1.89    0.39
  -1  -6  -1    1.28    0.27
   1   6   1    1.57    0.36
   1   6   1    1.27    0.30
   1   6   1    1.45    0.22
  -1   6  -1    1.01    0.27
  -1   6  -1    2.52    0.54
   2  -6   1    5.55    0.59
   2  -6   1    4.92    0.61
   2  -6   1    5.11    0.71
   2  -6   1    6.00    0.49
   2  -6   1    5.34    0.57
  -2  -6  -1    6.77    0.56
  -2  -6  -1    5.54    0.48
  -2  -6  -1    5.70    0.45
  -2  -6  -1    6.03    0.40
  -2   6  -1    4.20    0.66
  -2   6  -1    5.42    0.43
  -2   6  -1    6.64    0.77
   2   6   1    5.77    0.41
  -2   6  -1    7.50    0.75
   2   6   1    5.26    0.49
   2   6   1    5.50    0.37
   3  -6   1    7.25    0.57
   3  -6   1    7.40    0.62
  -3  -6  -1    8.16    0.54
   3  -6   1    7.67    0.63
   3  -6   1    7.76    0.48
  -3  -6  -1    6.79    0.45
   3  -6   1    6.29    0.61
  -3  -6  -1    7.17    0.51
  -3   6  -1    7.29    0.74
  -3   6  -1    5.12    0.75
  -3   6  -1    9.43    0.94
   3   6   1    6.70    0.43
   3   6   1    6.82    0.52
  -4  -6  -1    0.72    0.16
  -4  -6  -1    0.68    0.35
   4  -6   1    0.24    0.26
   4  -6   1    0.54    0.28
   4  -6   1    0.91    0.21
   4  -6   1    0.45    0.32
   4  -6   1   -0.07    0.34
  -4  -6  -1    0.50    0.20
  -4   6  -1    0.99    0.43
   4   6   1    0.89    0.23
   4   6   1    0.20    0.16
  -4   6  -1    0.71    0.44
  -4   6  -1    0.61    0.24
   5  -6   1    0.54    0.18
   5  -6   1    0.20    0.21
  -5  -6  -1    0.54    0.24
   5   6   1    0.49    0.21
  -5   6  -1    0.65    0.34
  -5   6  -1    1.09    0.50
   3   7  -1    1.39    0.16
  -2  -7   1    3.06    0.28
  -2  -7   1    3.49    0.31
   2  -7  -1    3.16    0.37
   2  -7  -1    3.89    0.47
   2   7  -1    3.00    0.35
  -1  -7   1    1.01    0.22
   1  -7  -1    1.18    0.20
   1  -7  -1    1.23    0.28
  -1  -7   1    0.75    0.18
   1  -7  -1    0.70    0.22
   1   7  -1    0.98    0.19
   0  -7  -1    0.57    0.17
   0  -7  -1    0.90    0.25
   0  -7   1    0.49    0.18
   0  -7   1    0.81    0.21
   0  -7  -1    0.41    0.24
   0  -7   1    0.70    0.16
   0  -7  -1    0.51    0.24
   0   7   1    0.58    0.19
   0   7  -1    0.67    0.17
  -1  -7  -1    1.87    0.21
   1  -7   1    2.94    0.35
   1  -7   1    2.15    0.33
  -1  -7  -1    2.54    0.32
   1   7   1    2.11    0.26
  -2  -7  -1    7.67    0.40
   2  -7   1    9.35    0.43
   2  -7   1    8.23    0.44
   2   7   1    7.53    0.42
   3   7   1    5.21    0.28
 -10   0   2    0.26    0.13
 -10   0   2    0.33    0.14
 -10   0   2    0.07    0.12
  -9   0   2   -0.10    0.41
  -9   0   2    0.07    0.21
  -9   0   2    0.04    0.23
  -9   0   2    0.01    0.35
   9   0  -2   -0.16    0.15
  -9   0   2    0.12    0.30
  -9   0   2    0.21    0.23
  -8   0   2    5.45    0.40
   8   0  -2    6.10    0.37
  -8   0   2    5.06    0.66
   8   0  -2    4.99    0.53
  -8   0   2    5.27    0.42
  -8   0   2    5.88    0.66
  -8   0   2    4.79    0.42
  -8   0   2    5.71    0.68
  -8   0   2    5.41    0.44
   7   0  -2    2.01    0.39
  -7   0   2    1.82    0.38
  -7   0   2    2.40    0.30
  -7   0   2    1.92    0.45
  -7   0   2    1.90    0.24
   7   0  -2    1.58    0.45
  -7   0   2    2.01    0.41
  -7   0   2    1.99    0.26
   7   0  -2    2.58    0.25
  -7   0   2    1.99    0.42
  -7   0   2    1.70    0.25
  -6   0   2   40.80    1.77
   6   0  -2   50.62    1.78
  -6   0   2   40.78    1.85
  -6   0   2   37.90    1.81
   6   0  -2   42.74    1.69
   6   0  -2   48.10    1.94
   6   0  -2   46.24    2.15
  -6   0   2   40.93    1.80
  -6   0   2   42.50    1.70
  -6   0   2   40.50    1.72
   5   0  -2    5.71    0.54
  -5   0   2    4.98    0.34
   5   0  -2    5.53    0.30
  -5   0   2    5.38    0.69
  -5   0   2    5.31    0.41
  -5   0   2    4.79    0.35
  -5   0   2    5.69    0.36
  -5   0   2    5.43    0.43
  -5   0   2    4.98    0.45
  -5   0   2    5.98    0.49
   5   0  -2    5.46    0.66
   5   0  -2    5.03    0.31
   4   0  -2   36.17    1.69
  -4   0   2   37.84    1.58
   4   0  -2   41.93    1.72
   4   0  -2   40.04    1.60
   3   0  -2   11.30    0.63
  -3   0   2   11.97    0.70
   3   0  -2   10.88    0.55
  -3   0   2   10.80    0.53
  -2   0   2  189.56    7.30
   2   0  -2  205.32    7.31
   2   0  -2  184.04    7.27
  -2   0   2  195.50    7.29
  -1   0   2    2.29    0.34
  -1   0   2    2.03    0.27
   1   0  -2    2.16    0.31
   0   0  -2   10.98    0.47
   0   0   2   10.60    0.52
   0   0  -2   11.14    0.51
  -1   0  -2   30.75    1.19
   1   0   2   30.21    1.25
  -1   0  -2   29.30    1.21
   1   0   2   29.53    1.27
   1   0   2   31.72    1.28
  -1   0  -2   30.56    1.20
   2   0   2    8.51    0.54
   2   0   2    8.55    0.55
  -2   0  -2    8.86    0.42
   2   0   2    8.88    0.59
   2   0   2    8.88    0.37
  -3   0  -2   20.92    0.90
   3   0   2   20.16    0.82
   3   0   2   19.68    1.05
  -3   0  -2   22.48    0.95
  -3   0  -2   21.98    0.90
  -3   0  -2   19.35    0.92
   3   0   2   20.32    1.03
  -4   0  -2    2.64    0.30
  -4   0  -2    2.29    0.36
   4   0   2    2.54    0.21
   4   0   2    3.01    0.48
  -4   0  -2    3.31    0.39
  -4   0  -2    2.60    0.20
   4   0   2    3.30    0.45
   4   0   2    3.02    0.36
   4   0   2    2.49    0.25
   5   0   2    1.43    0.18
  -5   0  -2    1.56    0.21
   5   0   2    1.52    0.24
  -5   0  -2    1.58    0.30
  -5   0  -2    1.11    0.23
  -5   0  -2    2.20    0.35
  -5   0  -2    1.64    0.20
   5   0   2    0.88    0.47
  -5   0  -2    1.87    0.45
  -5   0  -2    1.75    0.20
   5   0   2    1.26    0.36
  -5   0  -2    1.15    0.28
  -5   0  -2    1.30    0.19
   6   0   2    0.11    0.48
   6   0   2    0.37    0.19
  -6   0  -2    0.32    0.21
  -6   0  -2    0.45    0.22
  -6   0  -2    0.07    0.20
   6   0   2    0.19    0.18
  -6   0  -2    0.24    0.26
  -6   0  -2    0.03    0.57
  -6   0  -2    0.44    0.40
  -6   0  -2    0.38    0.32
  -6   0  -2    0.41    0.34
   6   0   2    0.13    0.17
  -7   0  -2    0.93    0.42
  -7   0  -2    1.57    0.30
   7   0   2    1.21    0.33
  -7   0  -2    1.66    0.46
   7   0   2    1.36    0.26
  -7   0  -2    1.19    0.23
  -7   0  -2    0.91    0.22
  -7   0  -2    0.92    0.29
  -7   0  -2    1.17    0.59
   7   0   2    1.29    0.25
   7   0   2    1.01    0.19
  -7   0  -2    1.55    0.48
  -8   0  -2   30.19    1.24
  -8   0  -2   30.68    1.24
   8   0   2   32.70    1.42
  -8   0  -2   29.29    1.42
   8   0   2   28.30    1.20
  -8   0  -2   29.03    1.28
   8   0   2   29.96    1.27
   8   0   2   30.42    1.36
  -8   0  -2   32.69    1.40
  -9   0  -2    1.86    0.20
   9   0   2    1.73    0.31
  -9   0  -2    2.45    0.39
  -9   0  -2    1.69    0.20
  -9   0  -2    2.00    0.30
  -9   0  -2    2.08    0.30
   9   0   2    2.35    0.28
 -10  -1   2    3.42    0.21
 -10   1   2    3.10    0.27
 -10   1   2    3.65    0.28
 -10   1   2    3.44    0.22
  -9  -1   2    3.57    0.35
  -9  -1   2    3.88    0.52
  -9  -1   2    3.51    0.47
  -9  -1   2    3.65    0.32
  -9  -1   2    4.20    0.50
  -9  -1   2    4.00    0.32
  -9   1   2    3.31    0.34
  -9   1   2    3.94    0.38
  -9   1   2    3.32    0.35
   9   1  -2    3.63    0.42
  -9   1   2    3.95    0.65
   9   1  -2    3.43    0.25
  -9   1   2    3.73    0.60
  -8  -1   2    3.24    0.37
  -8  -1   2    3.43    0.43
   8  -1  -2    3.20    0.27
   8  -1  -2    2.82    0.32
  -8  -1   2    3.64    0.47
  -8  -1   2    3.17    0.36
  -8  -1   2    3.04    0.36
   8  -1  -2    3.52    0.48
  -8  -1   2    3.15    0.58
  -8   1   2    3.00    0.38
  -8   1   2    3.64    0.57
  -8   1   2    3.49    0.40
   8   1  -2    3.33    0.37
  -8   1   2    3.16    0.39
   8   1  -2    3.52    0.33
   7  -1  -2    2.50    0.27
  -7  -1   2    2.63    0.40
   7  -1  -2    2.20    0.49
  -7  -1   2    2.81    0.53
  -7  -1   2    2.52    0.28
  -7  -1   2    2.60    0.36
  -7  -1   2    2.35    0.25
  -7  -1   2    2.67    0.29
  -7  -1   2    3.22    0.44
  -7  -1   2    1.66    0.35
  -7   1   2    2.43    0.42
   7   1  -2    2.30    0.47
   7   1  -2    2.57    0.31
  -7   1   2    1.99    0.49
  -7   1   2    1.88    0.26
  -7   1   2    2.07    0.35
  -7   1   2    2.29    0.29
  -7   1   2    2.58    0.46
  -7   1   2    1.78    0.52
   7   1  -2    2.54    0.28
  -7   1   2    1.87    0.27
  -7   1   2    2.17    0.26
  -6  -1   2   18.27    0.83
  -6  -1   2   19.01    0.83
  -6  -1   2   20.10    0.82
  -6  -1   2   19.13    0.81
  -6  -1   2   17.69    0.92
   6  -1  -2   19.26    1.59
   6  -1  -2   21.42    1.08
  -6  -1   2   17.67    0.90
  -6  -1   2   18.11    0.95
   6  -1  -2   19.34    1.38
   6   1  -2   17.53    1.45
  -6   1   2   18.32    0.82
  -6   1   2   17.09    0.92
   6   1  -2   17.04    0.84
  -6   1   2   17.73    0.83
  -6   1   2   18.23    1.01
  -6   1   2   18.99    0.83
  -6   1   2   17.64    0.83
  -6   1   2   17.85    0.94
   6   1  -2   17.66    0.81
   6   1  -2   19.10    0.82
   6   1  -2   19.98    1.32
  -6   1   2   18.40    1.01
   6   1  -2   18.55    1.09
  -6   1   2   19.14    1.13
  -5  -1   2   37.10    1.59
  -5  -1   2   37.75    1.60
   5  -1  -2   40.45    1.65
  -5  -1   2   38.77    1.50
  -5  -1   2   38.84    1.54
  -5   1   2   38.01    1.51
   5   1  -2   36.20    1.75
   5   1  -2   39.77    1.51
  -5   1   2   35.50    1.59
  -5   1   2   39.30    1.58
  -5   1   2   39.09    1.67
   5   1  -2   35.32    1.53
   5   1  -2   37.35    1.84
   5   1  -2   39.25    1.53
  -5   1   2   38.03    1.65
   4  -1  -2   43.82    1.76
  -4  -1   2   42.32    1.74
   4  -1  -2   45.25    1.85
   4  -1  -2   45.12    1.88
   4   1  -2   45.65    1.79
   4   1  -2   41.95    1.68
  -4   1   2   40.75    1.78
  -4   1   2   43.25    1.72
   4   1  -2   42.59    1.91
   4   1  -2   42.38    1.69
  -4   1   2   41.51    1.73
  -4   1   2   43.14    1.91
  -3  -1   2   21.10    0.88
  -3  -1   2   21.11    1.01
   3  -1  -2   21.61    0.92
   3   1  -2   21.59    1.04
   3   1  -2   19.10    0.83
   3   1  -2   20.35    0.85
  -3   1   2   21.28    1.08
   3   1  -2   21.63    0.94
   3   1  -2   19.54    1.05
  -3   1   2   20.58    0.88
  -2  -1   2  158.18    5.77
   2  -1  -2  145.58    5.84
  -2  -1   2  160.76    5.85
   2  -1  -2  158.30    5.82
   2   1  -2  145.48    5.84
   2   1  -2  151.01    5.96
   2   1  -2  158.47    5.79
   2   1  -2  156.88    5.90
   2   1  -2  136.23    5.78
  -2   1   2  159.74    5.77
  -2   1   2  151.11    5.83
   1  -1  -2  164.93    6.20
  -1  -1   2  165.36    6.19
   1  -1  -2  148.23    6.15
   1  -1  -2  173.38    6.23
   1   1  -2  164.12    6.18
  -1   1   2  164.49    6.22
   1   1  -2  169.36    6.25
   1   1  -2  163.06    6.22
   1   1  -2  160.92    6.29
   0  -1   2  363.63   13.88
   0  -1  -2  377.86   13.90
   0  -1  -2  363.05   13.86
   0  -1   2  389.43   13.98
   0   1   2  360.32   13.88
   0   1   2  356.64   13.87
   0   1  -2  365.55   13.87
   0   1  -2  358.88   13.83
   0   1   2  356.90   13.83
   0   1   2  389.64   13.85
   0   1   2  375.25   13.87
   1  -1   2   15.60    0.78
  -1  -1  -2   15.93    0.78
  -1  -1  -2   15.99    0.69
  -1  -1  -2   16.23    0.65
   1  -1   2   15.04    0.84
   1  -1   2   15.26    0.65
  -1  -1  -2   15.47    0.75
  -1   1  -2   14.90    0.65
   1   1   2   16.20    0.80
  -1   1  -2   17.46    0.76
   1   1   2   15.82    0.76
  -1   1  -2   16.04    0.81
   1   1   2   16.13    0.72
  -1   1  -2   15.90    0.69
   1   1   2   15.52    0.63
  -1   1  -2   16.32    0.69
  -2  -1  -2    7.62    0.39
  -2  -1  -2    7.74    0.38
   2  -1   2    7.84    0.54
   2  -1   2    7.92    0.35
  -2  -1  -2    7.47    0.43
   2  -1   2    7.94    0.39
  -2  -1  -2    8.10    0.55
  -2  -1  -2    7.44    0.53
   2   1   2    7.82    0.51
   2   1   2    7.11    0.35
   2   1   2    8.26    0.61
   2   1   2    7.38    0.34
  -2   1  -2    7.70    0.39
  -2   1  -2    8.45    0.68
  -2   1  -2    7.88    0.44
   2   1   2    6.95    0.50
  -2   1  -2    7.53    0.39
   3  -1   2    0.88    0.31
   3  -1   2    0.91    0.12
  -3  -1  -2    0.87    0.19
  -3  -1  -2    0.74    0.18
  -3  -1  -2    0.85    0.21
   3  -1   2    0.57    0.35
  -3  -1  -2    0.68    0.12
   3   1   2    0.84    0.12
   3   1   2    0.92    0.27
  -3   1  -2    0.71    0.19
   3   1   2    1.10    0.18
   3   1   2    1.03    0.38
  -3   1  -2    0.86    0.19
  -3   1  -2    1.14    0.26
   3   1   2    0.63    0.23
  -3   1  -2    0.59    0.16
  -4  -1  -2    2.83    0.31
   4  -1   2    1.98    0.24
   4  -1   2    2.08    0.22
  -4  -1  -2    2.12    0.28
  -4  -1  -2    2.24    0.35
   4  -1   2    1.83    0.39
  -4   1  -2    2.94    0.34
   4   1   2    1.94    0.21
   4   1   2    1.71    0.80
  -4   1  -2    2.28    0.28
  -4   1  -2    2.15    0.27
   4   1   2    1.98    0.27
   4   1   2    2.23    0.35
   4   1   2    1.66    0.18
   5  -1   2    2.84    0.56
   5  -1   2    2.80    0.24
  -5  -1  -2    3.32    0.34
  -5  -1  -2    3.59    0.40
  -5  -1  -2    2.65    0.29
  -5  -1  -2    2.84    0.30
  -5  -1  -2    2.89    0.37
   5  -1   2    3.08    0.52
   5  -1   2    3.63    0.41
  -5  -1  -2    2.61    0.27
  -5   1  -2    3.23    0.39
  -5   1  -2    3.06    0.34
   5   1   2    2.99    0.48
   5   1   2    2.59    0.30
  -5   1  -2    3.24    0.60
   5   1   2    3.01    0.27
  -5   1  -2    2.74    0.32
  -5   1  -2    2.83    0.37
  -5   1  -2    2.68    0.30
  -5   1  -2    3.40    0.54
   5   1   2    2.89    0.62
  -6  -1  -2   11.73    0.62
   6  -1   2   11.25    0.54
   6  -1   2   12.57    0.63
  -6  -1  -2   11.23    0.75
  -6  -1  -2   11.87    0.60
   6  -1   2   12.58    0.62
  -6  -1  -2   12.04    0.75
   6  -1   2   11.72    1.01
   6  -1   2   12.56    0.72
  -6  -1  -2   11.89    0.75
  -6  -1  -2   11.87    0.59
  -6  -1  -2   12.41    0.75
  -6   1  -2   12.47    0.74
  -6   1  -2   11.89    0.62
  -6   1  -2   15.43    1.62
   6   1   2   12.51    0.59
   6   1   2   12.30    0.62
  -6   1  -2   11.94    0.86
  -6   1  -2   12.34    0.66
   6   1   2   10.71    0.98
  -6   1  -2   11.79    0.62
  -6   1  -2   11.77    0.79
   7  -1   2    1.16    0.27
  -7  -1  -2    1.38    0.24
  -7  -1  -2    1.40    0.65
   7  -1   2    0.32    0.48
   7  -1   2    1.68    0.30
  -7  -1  -2    1.75    0.84
   7  -1   2    0.91    0.31
  -7  -1  -2    0.83    0.34
  -7  -1  -2    1.30    0.30
  -7   1  -2    1.20    0.44
   7   1   2    1.62    0.26
  -7   1  -2    1.89    0.80
  -7   1  -2    1.68    0.37
  -7   1  -2    1.12    0.30
   7   1   2    1.34    0.24
  -7   1  -2    0.74    0.34
   7   1   2    1.61    0.51
  -7   1  -2    1.04    0.25
  -7   1  -2    1.16    0.63
   7   1   2    1.26    0.21
  -8  -1  -2   13.44    0.69
   8  -1   2   13.76    0.77
  -8  -1  -2   14.50    0.66
  -8  -1  -2   14.45    0.87
   8  -1   2   13.39    0.72
  -8  -1  -2   14.36    0.85
   8  -1   2   13.60    0.75
   8  -1   2   14.47    0.76
  -8  -1  -2   14.54    0.66
   8   1   2   14.41    0.79
  -8   1  -2   14.52    0.73
  -8   1  -2   14.57    0.69
  -8   1  -2   14.08    1.00
   8   1   2   15.26    0.70
  -8   1  -2   15.02    0.94
   8   1   2   15.28    0.71
  -8   1  -2   14.46    0.87
   8   1   2   14.46    0.63
  -8   1  -2   14.67    0.69
  -9  -1  -2    6.99    0.52
  -9  -1  -2    6.20    0.36
   9  -1   2    5.41    0.52
  -9  -1  -2    6.37    0.40
  -9  -1  -2    7.53    0.44
  -9   1  -2    7.00    0.41
  -9   1  -2    6.75    0.56
  -9   1  -2    6.79    0.51
   9   1   2    5.41    0.43
   9   1   2    5.80    0.41
  -9   1  -2    6.63    0.38
  -9   1  -2    6.44    0.37
  -9  -2   2    2.64    0.27
  -9  -2   2    2.41    0.26
  -9  -2   2    2.29    0.27
  -9   2   2    2.98    0.33
   9   2  -2    2.72    0.27
  -9   2   2    3.24    0.47
  -9   2   2    3.07    0.54
  -9   2   2    2.72    0.31
  -9   2   2    2.78    0.34
   9   2  -2    2.21    0.21
  -8  -2   2    9.81    0.66
   8  -2  -2    9.26    0.51
  -8  -2   2    9.30    0.72
  -8  -2   2    9.81    0.53
  -8  -2   2    9.86    0.51
  -8  -2   2    9.87    0.68
  -8  -2   2    9.51    0.50
   8   2  -2   10.25    0.55
  -8   2   2    9.97    0.91
  -8   2   2   10.12    0.85
   8   2  -2   10.19    0.53
  -8   2   2    9.97    0.57
  -8   2   2   10.51    0.88
  -8   2   2    9.66    0.59
  -8   2   2   10.00    0.58
  -7  -2   2    4.25    0.58
   7  -2  -2    2.67    0.36
  -7  -2   2    3.20    0.34
  -7  -2   2    3.01    0.36
  -7  -2   2    3.00    0.36
  -7  -2   2    3.65    0.45
  -7  -2   2    3.04    0.35
  -7  -2   2    4.56    0.65
   7   2  -2    3.48    0.43
  -7   2   2    3.07    0.35
  -7   2   2    2.91    0.42
  -7   2   2    3.67    0.61
  -7   2   2    3.68    0.43
   7   2  -2    2.55    0.64
   7   2  -2    3.36    0.38
  -7   2   2    4.41    0.71
  -7   2   2    2.40    0.47
  -7   2   2    2.32    0.31
  -6  -2   2    7.75    0.48
  -6  -2   2    7.91    0.57
  -6  -2   2    7.89    0.47
  -6  -2   2    7.97    0.55
  -6  -2   2    7.82    0.46
  -6  -2   2    8.09    0.68
  -6  -2   2    7.94    0.47
   6   2  -2    7.43    0.54
   6   2  -2    7.06    0.77
  -6   2   2    7.62    0.77
   6   2  -2    8.37    0.50
  -6   2   2    8.08    0.52
  -6   2   2    7.80    0.48
  -6   2   2   10.20    0.99
  -6   2   2    8.37    0.78
  -6   2   2    6.86    0.55
   6   2  -2    7.54    0.49
  -6   2   2    7.23    0.51
  -6   2   2    7.97    0.52
  -5  -2   2    0.52    0.26
  -5  -2   2    0.66    0.31
   5  -2  -2    1.00    0.33
   5  -2  -2    1.09    0.27
  -5  -2   2    0.96    0.22
  -5  -2   2    0.50    0.16
  -5  -2   2    0.66    0.18
   5   2  -2    0.37    0.34
   5   2  -2    0.65    0.20
  -5   2   2    0.52    0.28
  -5   2   2    0.76    0.22
  -5   2   2    0.69    0.31
   5   2  -2    0.47    0.20
  -5   2   2    0.73    0.34
   5   2  -2    0.76    0.41
   5   2  -2    0.62    0.20
   5   2  -2    0.59    0.35
  -5   2   2    0.66    0.43
  -5   2   2    2.09    0.63
  -5   2   2    0.58    0.18
  -5   2   2    0.66    0.17
  -5   2   2    0.87    0.40
  -5   2   2    0.96    0.20
  -4  -2   2    2.06    0.26
   4  -2  -2    2.37    0.51
   4  -2  -2    2.16    0.24
  -4  -2   2    2.05    0.29
  -4  -2   2    2.21    0.23
  -4  -2   2    2.75    0.25
   4   2  -2    2.23    0.25
   4   2  -2    2.05    0.28
  -4   2   2    2.58    0.42
   4   2  -2    2.42    0.38
   4   2  -2    1.75    0.40
   4   2  -2    1.93    0.48
   4   2  -2    2.07    0.22
  -4   2   2    2.01    0.26
  -4   2   2    2.19    0.56
  -4   2   2    1.66    0.30
  -4   2   2    2.19    0.29
   4   2  -2    1.84    0.27
  -3  -2   2   11.25    0.59
  -3  -2   2   10.17    0.46
   3  -2  -2    9.82    0.54
   3  -2  -2    9.32    0.62
   3   2  -2    9.92    0.50
  -3   2   2    9.92    0.69
   3   2  -2    9.90    0.52
   3   2  -2   10.19    0.80
   3   2  -2    9.73    0.48
   3   2  -2    9.21    0.46
  -3   2   2   10.51    0.57
   3   2  -2    9.32    0.84
  -3   2   2   10.05    0.87
   3   2  -2   10.51    0.64
   2  -2  -2   38.46    1.64
  -2  -2   2   38.09    1.49
  -2  -2   2   40.88    1.49
  -2  -2   2   35.52    1.57
  -2  -2   2   41.07    1.57
   2  -2  -2   35.53    1.68
  -2   2   2   37.98    1.68
   2   2  -2   39.06    1.71
   2   2  -2   37.02    1.48
   2   2  -2   39.44    1.59
   2   2  -2   36.96    1.76
  -2   2   2   38.38    1.49
  -1  -2   2   29.17    1.15
   1  -2  -2   29.01    1.13
  -1  -2   2   30.44    1.20
   1  -2  -2   29.31    1.32
   1  -2  -2   28.03    1.31
  -1  -2   2   28.90    1.29
   1  -2  -2   27.97    1.20
   1   2  -2   28.51    1.14
   1   2  -2   31.76    1.24
  -1   2   2   29.29    1.32
   1   2  -2   28.45    1.15
   1   2  -2   27.69    1.33
   1   2  -2   29.65    1.20
   1   2  -2   28.63    1.20
   1   2  -2   29.07    1.34
   1   2  -2   26.48    1.23
  -1   2   2   28.38    1.33
  -1   2   2   30.48    1.14
   0  -2   2  140.08    5.38
   0  -2   2  144.47    5.21
   0  -2  -2  141.82    5.37
   0  -2   2  126.38    5.36
   0  -2  -2  136.97    5.20
   0  -2   2  141.16    5.23
   0  -2  -2  138.87    5.26
   0  -2   2  143.86    5.35
   0   2   2  134.78    5.32
   0   2  -2  129.82    5.24
   0   2   2  131.15    5.35
   0   2   2  142.85    5.21
   0   2  -2  141.07    5.23
   0   2   2  145.10    5.22
   0   2   2  120.26    5.36
   0   2  -2  144.03    5.21
   0   2  -2  130.85    5.31
   0   2  -2  146.98    5.27
   0   2  -2  138.91    5.35
  -1  -2  -2   17.22    0.74
   1  -2   2   18.06    0.74
   1  -2   2   17.34    1.00
   1  -2   2   16.51    0.89
  -1  -2  -2   17.53    0.94
  -1  -2  -2   17.51    0.70
  -1  -2  -2   17.41    0.70
  -1  -2  -2   17.29    0.80
  -1   2  -2   17.30    0.83
  -1   2  -2   17.49    0.74
   1   2   2   17.86    0.98
   1   2   2   16.87    0.95
  -1   2  -2   17.11    0.93
  -1   2  -2   17.64    0.81
   1   2   2   17.33    0.69
  -1   2  -2   17.18    0.70
  -1   2  -2   16.47    0.69
   1   2   2   17.77    0.84
  -2  -2  -2    7.31    0.43
  -2  -2  -2    7.32    0.50
   2  -2   2    6.88    0.78
  -2  -2  -2    7.70    0.45
   2  -2   2    8.05    0.43
  -2  -2  -2    7.63    0.68
   2  -2   2    6.73    0.41
  -2  -2  -2    7.58    0.38
  -2  -2  -2    7.12    0.38
   2  -2   2    7.61    0.57
   2   2   2    7.73    0.60
   2   2   2    7.12    0.75
   2   2   2    7.34    0.38
   2   2   2    7.25    0.36
  -2   2  -2    7.92    0.79
  -2   2  -2    6.84    0.37
  -2   2  -2    7.50    0.38
   2   2   2    7.09    0.39
  -3  -2  -2   21.69    0.91
  -3  -2  -2   21.69    0.92
   3  -2   2   19.36    0.89
   3  -2   2   21.33    0.92
  -3  -2  -2   21.89    0.90
  -3  -2  -2   21.83    1.15
  -3  -2  -2   21.65    0.99
   3  -2   2   21.50    0.88
   3  -2   2   21.14    1.19
  -3   2  -2   21.68    0.96
  -3   2  -2   21.09    0.95
   3   2   2   19.23    0.84
   3   2   2   20.39    1.22
  -3   2  -2   20.97    1.05
   3   2   2   21.34    1.07
  -3   2  -2   20.45    0.90
  -3   2  -2   23.12    1.25
   3   2   2   21.13    0.88
   3   2   2   21.16    0.86
   3   2   2   20.78    0.88
   4  -2   2    1.16    0.21
  -4  -2  -2    1.60    0.25
   4  -2   2    1.23    0.22
   4  -2   2    0.87    0.36
  -4  -2  -2    1.28    0.34
  -4  -2  -2    1.38    0.28
  -4  -2  -2    1.51    0.25
  -4  -2  -2    0.99    0.17
  -4  -2  -2    2.31    0.33
   4  -2   2    0.84    0.21
  -4   2  -2    1.23    0.33
  -4   2  -2    1.14    0.20
   4   2   2    1.10    0.18
  -4   2  -2    1.37    0.23
   4   2   2    1.19    0.14
   4   2   2    1.06    0.16
  -4   2  -2    1.44    0.39
  -4   2  -2    1.67    0.47
   4   2   2    1.49    0.40
  -4   2  -2    1.30    0.22
   4   2   2    0.93    0.42
  -4   2  -2    1.02    0.26
  -4   2  -2    1.39    0.22
   4   2   2    1.18    0.18
   5  -2   2    1.58    0.56
   5  -2   2    0.55    0.25
  -5  -2  -2    1.03    0.29
   5  -2   2    0.51    0.48
  -5  -2  -2    1.37    0.22
  -5  -2  -2    0.92    0.18
  -5  -2  -2    1.02    0.18
  -5  -2  -2    0.90    0.21
   5  -2   2    1.08    0.25
  -5  -2  -2    1.17    0.24
  -5  -2  -2    1.14    0.34
   5   2   2    0.98    0.19
  -5   2  -2    1.11    0.26
  -5   2  -2    1.15    0.31
  -5   2  -2    0.67    0.32
   5   2   2    1.02    0.20
  -5   2  -2    0.89    0.58
   5   2   2    0.66    0.51
  -5   2  -2    0.83    0.34
  -5   2  -2    0.97    0.25
  -5   2  -2    0.85    0.56
   5   2   2    0.89    0.17
  -5   2  -2    1.15    0.52
   5   2   2    0.91    0.42
  -6  -2  -2   18.49    0.79
  -6  -2  -2   17.83    0.94
  -6  -2  -2   17.33    0.81
  -6  -2  -2   17.67    0.91
  -6  -2  -2   19.50    0.95
   6  -2   2   18.25    0.87
   6  -2   2   16.24    0.89
   6  -2   2   15.73    0.90
   6  -2   2   17.50    0.94
  -6  -2  -2   18.43    0.79
  -6   2  -2   17.28    0.92
   6   2   2   18.60    0.82
   6   2   2   17.04    1.20
  -6   2  -2   17.45    1.09
  -6   2  -2   17.88    0.88
  -6   2  -2   16.84    0.99
  -6   2  -2   18.11    0.85
  -6   2  -2   18.06    0.85
   6   2   2   18.91    0.81
  -6   2  -2   17.84    1.26
   7  -2   2    7.16    0.54
  -7  -2  -2    7.61    0.47
  -7  -2  -2    8.47    0.66
  -7  -2  -2    7.56    0.44
  -7  -2  -2    8.15    0.46
  -7  -2  -2    7.25    0.67
   7  -2   2    9.19    0.66
  -7  -2  -2    8.23    0.76
   7  -2   2    7.34    0.55
  -7   2  -2    8.19    0.53
  -7   2  -2    7.26    0.52
  -7   2  -2    7.87    0.57
  -7   2  -2    7.67    1.02
  -7   2  -2    7.19    0.72
   7   2   2    7.83    0.45
   7   2   2    8.03    0.49
   7   2   2    7.36    0.49
  -7   2  -2    7.01    0.83
  -8  -2  -2    0.63    0.19
   8  -2   2    0.15    0.42
  -8  -2  -2    0.68    0.18
  -8  -2  -2    0.50    0.18
  -8  -2  -2    0.86    0.34
  -8  -2  -2    0.30    0.42
   8  -2   2    0.52    0.38
   8   2   2    0.47    0.19
  -8   2  -2    0.65    0.24
  -8   2  -2    0.57    0.24
  -8   2  -2    0.24    0.37
  -8   2  -2    0.65    0.44
   8   2   2    0.39    0.26
   8   2   2    0.67    0.16
  -8   2  -2    0.52    0.55
  -8   2  -2    0.68    0.26
   8   2   2    0.31    0.20
  -9  -2  -2    2.35    0.30
  -9   2  -2    2.18    0.36
  -9   2  -2    2.83    0.26
  -9   2  -2    2.59    0.25
  -9   2  -2    2.57    0.24
  -9  -3   2    2.84    0.21
  -9   3   2    2.86    0.25
  -9   3   2    2.73    0.40
  -9   3   2    2.67    0.23
  -8  -3   2    3.30    0.51
  -8  -3   2    3.21    0.29
  -8  -3   2    3.16    0.33
  -8  -3   2    2.47    0.36
  -8  -3   2    3.45    0.31
  -8  -3   2    2.91    0.30
   8   3  -2    3.10    0.31
  -8   3   2    3.81    0.44
  -8   3   2    2.62    0.36
   8   3  -2    2.98    0.30
  -8   3   2    3.53    0.41
  -8   3   2    3.01    0.52
   8   3  -2    2.62    0.27
  -8   3   2    4.22    0.81
  -7  -3   2    3.62    0.52
  -7  -3   2    3.85    0.53
  -7  -3   2    4.03    0.36
  -7  -3   2    3.76    0.33
  -7  -3   2    3.70    0.34
  -7   3   2    4.11    0.45
   7   3  -2    4.25    0.37
  -7   3   2    4.54    1.17
  -7   3   2    3.81    0.58
   7   3  -2    4.35    0.39
  -7   3   2    3.63    0.46
  -7   3   2    4.04    0.48
  -7   3   2    4.18    0.73
  -7   3   2    4.41    0.76
  -6  -3   2    5.74    0.51
  -6  -3   2    5.49    0.40
   6  -3  -2    6.89    0.51
  -6  -3   2    5.33    0.62
  -6   3   2    6.71    0.93
   6   3  -2    6.61    0.73
   6   3  -2    5.53    0.50
  -6   3   2    5.78    0.52
   6   3  -2    5.50    0.35
  -6   3   2    5.38    0.71
  -6   3   2    6.00    0.53
   6   3  -2    5.92    0.48
  -6   3   2    8.23    0.84
  -6   3   2    5.66    0.50
  -6   3   2    5.67    0.80
   6   3  -2    6.37    0.50
  -5  -3   2   18.08    0.98
   5  -3  -2   19.67    0.83
   5  -3  -2   20.06    1.30
  -5  -3   2   17.86    0.80
  -5  -3   2   18.70    0.90
   5   3  -2   18.63    0.89
  -5   3   2   18.71    0.92
   5   3  -2   18.26    0.86
   5   3  -2   18.73    0.90
  -5   3   2   20.37    1.13
  -5   3   2   19.04    1.01
  -5   3   2   19.66    1.18
   5   3  -2   18.52    0.82
  -5   3   2   18.70    0.89
   5   3  -2   18.45    1.13
  -5   3   2   19.03    1.09
  -4  -3   2   15.18    0.85
  -4  -3   2   16.23    0.72
  -4  -3   2   16.02    0.73
   4  -3  -2   16.38    1.16
  -4  -3   2   16.18    0.72
   4  -3  -2   17.00    0.73
   4   3  -2   16.45    0.99
  -4   3   2   17.14    0.88
  -4   3   2   17.11    1.03
  -4   3   2   16.73    1.01
   4   3  -2   18.28    1.29
   4   3  -2   16.30    0.77
   4   3  -2   16.07    0.75
   4   3  -2   16.76    1.16
   4   3  -2   16.37    0.73
  -4   3   2   15.89    0.76
   4   3  -2   16.54    0.79
  -4   3   2   17.39    0.95
  -4   3   2   16.06    0.77
   4   3  -2   17.67    0.85
  -4   3   2   16.83    1.23
   3  -3  -2   10.95    0.59
   3  -3  -2   10.75    0.71
   3  -3  -2   10.68    0.53
  -3  -3   2   10.48    0.52
  -3  -3   2   11.24    0.54
   3  -3  -2   10.33    0.52
  -3  -3   2   10.03    0.52
  -3  -3   2   10.89    0.62
  -3   3   2    9.57    0.74
   3   3  -2   10.47    0.51
   3   3  -2   10.43    0.97
   3   3  -2    9.16    0.65
   3   3  -2   10.72    0.90
  -3   3   2    8.54    0.92
   3   3  -2   10.04    0.73
  -3   3   2   10.93    0.54
   3   3  -2   10.40    0.52
   3   3  -2   10.44    0.55
  -3   3   2   13.36    1.06
  -3   3   2    9.90    0.94
  -2  -3   2   39.18    1.56
   2  -3  -2   37.75    1.59
  -2  -3   2   41.93    1.59
  -2  -3   2   37.73    1.73
  -2  -3   2   40.73    1.60
   2  -3  -2   39.31    1.81
   2  -3  -2   38.87    1.64
  -2  -3   2   43.97    1.59
  -2  -3   2   41.83    1.68
  -2   3   2   39.86    1.54
   2   3  -2   40.39    1.71
   2   3  -2   39.25    1.56
  -2   3   2   38.99    1.68
   2   3  -2   38.82    1.59
   2   3  -2   39.55    1.57
   2   3  -2   39.38    1.88
   2   3  -2   35.77    1.71
  -2   3   2   38.26    1.82
  -2   3   2   39.73    1.62
   2   3  -2   40.23    1.55
  -1  -3   2    2.96    0.33
  -1  -3   2    3.11    0.40
   1  -3  -2    3.11    0.33
  -1  -3   2    2.89    0.34
  -1  -3   2    3.10    0.47
  -1  -3   2    3.38    0.38
   1  -3  -2    3.42    0.40
   1  -3  -2    3.71    0.43
   1  -3  -2    3.06    0.45
  -1  -3   2    3.42    0.37
   1   3  -2    3.45    0.28
  -1   3   2    4.74    0.55
  -1   3   2    3.56    0.26
   1   3  -2    3.27    0.27
   1   3  -2    3.33    0.34
  -1   3   2    3.64    0.26
   1   3  -2    3.40    0.44
   1   3  -2    3.94    0.50
  -1   3   2    2.74    0.48
   1   3  -2    3.33    0.29
   1   3  -2    3.86    0.31
  -1   3   2    3.22    0.53
   1   3  -2    2.98    0.39
   0  -3   2   62.61    2.41
   0  -3  -2   63.13    2.35
   0  -3   2   65.15    2.36
   0  -3  -2   62.30    2.38
   0  -3   2   59.55    2.59
   0  -3  -2   62.16    2.38
   0  -3  -2   61.05    2.64
   0  -3   2   64.14    2.40
   0  -3  -2   59.52    2.44
   0  -3   2   57.25    2.34
   0   3  -2   62.64    2.33
   0   3   2   57.35    2.54
   0   3   2   57.13    2.40
   0   3  -2   64.02    2.48
   0   3   2   62.71    2.35
   0   3   2   56.63    2.37
   0   3  -2   63.08    2.35
   0   3  -2   56.73    2.37
   0   3  -2   55.84    2.39
  -1  -3  -2   27.19    1.43
   1  -3   2   29.10    1.14
  -1  -3  -2   26.75    1.21
  -1  -3  -2   26.63    1.12
  -1  -3  -2   23.94    1.05
   1  -3   2   26.53    1.11
   1  -3   2   26.54    1.17
   1  -3   2   26.99    1.45
  -1  -3  -2   28.57    1.14
   1  -3   2   27.38    1.14
  -1  -3  -2   26.91    1.14
  -1   3  -2   25.77    1.15
   1   3   2   26.81    1.07
   1   3   2   27.06    1.26
   1   3   2   25.34    1.35
  -1   3  -2   28.91    1.08
   1   3   2   27.22    1.10
   1   3   2   27.15    1.44
  -1   3  -2   31.10    1.13
  -1   3  -2   26.91    1.22
   1   3   2   22.35    1.16
  -1   3  -2   26.72    1.31
  -2  -3  -2    0.98    0.23
  -2  -3  -2    1.08    0.23
  -2  -3  -2    1.03    0.22
  -2  -3  -2    1.00    0.19
  -2  -3  -2    1.24    0.43
   2  -3   2    0.99    0.26
  -2  -3  -2    1.07    0.31
   2  -3   2    0.91    0.23
  -2  -3  -2    1.16    0.24
  -2  -3  -2    1.19    0.19
  -2  -3  -2    1.01    0.13
   2  -3   2    0.84    0.62
   2   3   2    0.89    0.17
   2   3   2    1.28    0.41
   2   3   2    0.91    0.42
   2   3   2    0.96    0.14
  -2   3  -2    1.04    0.15
  -2   3  -2    1.16    0.29
  -2   3  -2    0.81    0.32
   2   3   2    0.73    0.39
   2   3   2    1.00    0.16
  -2   3  -2    1.08    0.39
  -2   3  -2    1.02    0.48
   2   3   2    1.02    0.15
  -2   3  -2    1.29    0.25
   3  -3   2    8.00    0.92
  -3  -3  -2    7.73    0.54
  -3  -3  -2    8.03    0.47
  -3  -3  -2    8.10    0.61
   3  -3   2    7.84    0.55
  -3  -3  -2    8.52    0.41
   3  -3   2    7.41    0.51
  -3  -3  -2    7.45    0.79
  -3  -3  -2    7.55    0.44
  -3  -3  -2    7.28    0.44
  -3  -3  -2    7.83    0.53
  -3   3  -2    8.44    0.51
  -3   3  -2    8.24    0.77
   3   3   2    7.94    0.45
  -3   3  -2    7.51    0.64
  -3   3  -2    7.50    0.58
   3   3   2    7.50    0.40
   3   3   2    7.08    0.82
  -3   3  -2    6.31    0.49
   3   3   2    7.92    0.42
   3   3   2    7.48    0.40
   3   3   2    8.08    0.90
  -3   3  -2    8.36    1.02
   3   3   2    7.40    0.70
  -3   3  -2    7.08    0.47
  -3   3  -2    8.50    0.49
  -4  -3  -2    3.17    0.28
   4  -3   2    2.64    0.36
  -4  -3  -2    2.48    0.31
  -4  -3  -2    3.14    0.27
   4  -3   2    2.28    0.63
  -4  -3  -2    4.63    0.60
  -4  -3  -2    2.90    0.43
  -4  -3  -2    4.16    0.48
   4  -3   2    2.67    0.33
   4   3   2    1.86    0.42
  -4   3  -2    2.90    0.41
  -4   3  -2    2.95    0.41
   4   3   2    2.83    0.32
  -4   3  -2    2.48    0.31
  -4   3  -2    2.75    0.61
  -4   3  -2    2.71    0.56
  -4   3  -2    3.30    0.46
  -4   3  -2    2.71    0.51
   4   3   2    2.59    0.30
  -4   3  -2    2.25    0.29
   4   3   2    3.77    0.40
   4   3   2    3.15    0.55
   4   3   2    2.38    0.24
   4   3   2    2.19    0.29
   4   3   2    3.11    0.63
   5  -3   2    2.12    0.34
  -5  -3  -2    2.22    0.42
  -5  -3  -2    2.18    0.38
  -5  -3  -2    2.35    0.24
  -5  -3  -2    2.34    0.29
  -5  -3  -2    1.65    0.34
   5  -3   2    2.08    0.72
  -5   3  -2    1.35    0.28
   5   3   2    2.03    0.30
   5   3   2    1.44    0.23
   5   3   2    1.29    0.22
  -5   3  -2    1.27    0.62
   5   3   2    2.33    0.60
  -5   3  -2    1.27    0.46
  -5   3  -2    1.50    0.51
  -5   3  -2    1.83    0.34
  -5   3  -2    1.03    0.63
  -5   3  -2    1.46    0.30
   5   3   2    0.05    0.52
   5   3   2    1.59    0.23
  -6  -3  -2    1.20    0.29
  -6  -3  -2    1.15    0.21
   6  -3   2    0.93    0.34
  -6  -3  -2    1.04    0.42
  -6  -3  -2    1.58    0.27
   6  -3   2    1.36    0.36
   6   3   2    0.96    0.22
   6   3   2    1.20    0.32
   6   3   2    1.18    0.24
  -6   3  -2    1.31    0.33
  -6   3  -2    1.07    0.59
  -6   3  -2    1.17    0.47
  -6   3  -2    1.37    0.66
   6   3   2    1.15    0.20
  -6   3  -2    1.32    0.48
  -6   3  -2    1.92    0.83
   6   3   2    1.22    0.24
  -6   3  -2    0.85    0.30
   7  -3   2    3.34    0.42
   7  -3   2    3.43    0.47
  -7  -3  -2    3.47    0.30
  -7  -3  -2    3.41    0.31
  -7  -3  -2    3.82    0.51
  -7   3  -2    3.55    0.45
  -7   3  -2    2.60    0.51
   7   3   2    3.23    0.41
  -7   3  -2    4.22    0.44
   7   3   2    3.45    0.37
  -7   3  -2    3.75    0.44
   7   3   2    3.64    0.30
  -7   3  -2    3.25    0.65
  -7   3  -2    3.25    0.49
  -8  -3  -2    1.42    0.24
  -8  -3  -2    1.36    0.28
   8  -3   2    1.28    0.31
  -8  -3  -2    1.35    0.27
  -8  -3  -2    1.44    0.33
  -8   3  -2    1.18    0.23
  -8   3  -2    1.04    0.36
  -8   3  -2    1.29    0.25
  -8   3  -2    1.36    0.41
   8   3   2    1.32    0.18
   8   3   2    1.60    0.22
  -8   3  -2    1.27    0.24
  -8   3  -2    1.05    0.49
  -8  -4   2    1.26    0.16
  -8  -4   2    0.88    0.14
  -8   4   2    1.02    0.21
  -8   4   2    0.83    0.20
  -8   4   2    1.44    0.41
  -8   4   2    0.93    0.34
   8   4  -2    1.07    0.12
  -7  -4   2    0.94    0.19
  -7  -4   2    0.70    0.17
  -7   4   2    0.85    0.45
   7   4  -2    0.53    0.18
   7   4  -2    0.60    0.24
  -7   4   2    1.09    0.50
  -7   4   2    0.85    0.56
  -7   4   2    1.03    0.49
  -7   4   2    0.39    0.35
   7   4  -2    0.54    0.17
  -7   4   2    0.64    0.44
  -6  -4   2    1.37    0.20
  -6  -4   2    1.46    0.35
  -6  -4   2    1.58    0.33
   6  -4  -2    2.15    0.30
  -6   4   2    1.42    0.51
   6   4  -2    1.82    0.20
  -6   4   2    1.44    0.65
  -6   4   2    1.30    0.29
   6   4  -2    1.11    0.22
   6   4  -2    0.97    0.22
  -6   4   2    1.14    0.31
  -6   4   2    0.89    0.41
   6   4  -2    1.17    0.22
  -6   4   2    1.51    0.52
   5  -4  -2    1.64    0.30
   5  -4  -2    1.32    0.30
  -5  -4   2    0.45    0.28
  -5  -4   2    0.87    0.30
  -5   4   2    0.82    0.32
   5   4  -2    0.77    0.23
   5   4  -2    0.29    0.23
   5   4  -2    0.68    0.28
  -5   4   2    0.71    0.45
   5   4  -2    0.72    0.21
  -5   4   2    0.92    0.32
  -5   4   2    0.86    0.55
   5   4  -2    0.24    0.20
  -5   4   2    0.90    0.50
   5   4  -2    1.24    0.47
  -5   4   2    3.26    0.84
   4  -4  -2   64.37    2.40
  -4  -4   2   59.12    2.43
  -4  -4   2   57.17    2.34
  -4  -4   2   66.08    2.46
   4  -4  -2   56.86    2.41
  -4  -4   2   58.58    2.35
   4  -4  -2   55.80    2.88
  -4  -4   2   58.14    2.34
   4   4  -2   62.70    2.48
  -4   4   2   58.89    2.47
   4   4  -2   61.02    2.64
   4   4  -2   63.40    2.36
  -4   4   2   60.17    2.58
  -4   4   2   61.33    2.59
  -4   4   2   59.48    2.38
  -4   4   2   60.48    2.85
   4   4  -2   59.80    2.36
  -4   4   2   60.48    2.39
  -4   4   2   60.99    2.56
  -3  -4   2   24.09    1.09
   3  -4  -2   25.80    1.10
  -3  -4   2   26.76    1.01
   3  -4  -2   21.87    1.53
   3  -4  -2   24.14    1.11
  -3  -4   2   24.54    1.03
   3  -4  -2   24.92    1.13
  -3  -4   2   25.58    1.12
  -3  -4   2   22.17    1.01
  -3   4   2   23.16    1.06
  -3   4   2   22.99    1.56
  -3   4   2   25.60    1.32
  -3   4   2   25.28    1.34
   3   4  -2   27.36    1.21
   3   4  -2   25.87    1.05
  -3   4   2   24.19    1.26
  -3   4   2   21.61    1.02
   3   4  -2   24.57    1.04
  -3   4   2   24.91    1.07
   2  -4  -2    1.50    0.30
  -2  -4   2    2.50    0.31
   2  -4  -2    1.27    0.38
  -2  -4   2    2.32    0.26
  -2  -4   2    2.40    0.32
  -2  -4   2    1.61    0.26
   2  -4  -2    2.21    0.37
  -2  -4   2    3.29    0.45
   2  -4  -2    2.72    0.40
  -2   4   2    1.94    0.46
  -2   4   2    1.62    0.24
  -2   4   2    1.77    0.21
  -2   4   2    2.27    0.60
   2   4  -2    1.57    0.24
   2   4  -2    2.28    0.35
  -2   4   2    1.70    0.25
  -2   4   2    2.44    0.49
  -2   4   2    1.70    0.26
  -2   4   2    2.21    0.39
   2   4  -2    1.41    0.25
  -2   4   2    2.09    0.45
   2   4  -2    1.76    0.22
  -2   4   2    1.79    0.27
   1  -4  -2   -0.18    0.26
  -1  -4   2   -0.10    0.21
   1  -4  -2   -0.08    0.29
   1  -4  -2    0.39    0.23
  -1  -4   2    0.52    0.50
  -1  -4   2   -0.05    0.26
  -1  -4   2    0.08    0.23
  -1  -4   2    0.17    0.19
  -1  -4   2    0.07    0.36
  -1  -4   2    0.07    0.28
   1  -4  -2    0.14    0.20
   1  -4  -2   -0.25    0.25
   1  -4  -2    0.06    0.24
   1  -4  -2    0.25    0.33
   1   4  -2    0.10    0.34
  -1   4   2    0.26    0.16
  -1   4   2    0.40    0.31
  -1   4   2    0.04    0.21
  -1   4   2   -0.13    0.47
  -1   4   2    0.45    0.37
   1   4  -2    0.20    0.18
  -1   4   2    0.67    0.41
  -1   4   2   -0.01    0.19
   1   4  -2    0.07    0.17
   1   4  -2    0.95    0.34
  -1   4   2   -0.05    0.34
   1   4  -2    0.07    0.29
  -1   4   2    0.08    0.15
   0  -4   2   11.23    0.62
   0  -4  -2   10.30    0.66
   0  -4  -2   10.10    0.61
   0  -4  -2    9.60    0.48
   0  -4  -2   10.91    0.93
   0  -4   2   10.51    0.57
   0  -4  -2   10.11    0.70
   0  -4  -2   10.31    0.61
   0  -4   2   11.10    0.63
   0  -4   2   10.04    1.07
   0  -4  -2   10.56    0.64
   0  -4  -2   10.07    0.59
   0  -4   2    9.89    0.61
   0   4   2   10.14    0.74
   0   4  -2   10.46    0.58
   0   4   2   11.67    1.12
   0   4   2   10.44    0.76
   0   4  -2    9.71    0.70
   0   4  -2   11.07    0.56
   0   4   2    9.08    1.06
   0   4  -2    9.47    0.70
   0   4   2   10.17    0.62
   0   4   2   11.19    0.55
   0   4  -2   10.18    0.56
   0   4  -2   12.51    0.81
   0   4   2   10.78    0.52
   0   4  -2   10.71    0.53
   0   4  -2   10.82    0.83
   0   4  -2   10.54    0.68
   0   4  -2    9.98    0.68
  -1  -4  -2    7.94    0.56
   1  -4   2    7.42    0.56
  -1  -4  -2    7.48    0.64
  -1  -4  -2    7.85    0.51
   1  -4   2    7.76    0.52
  -1  -4  -2    6.38    0.79
   1  -4   2    8.42    0.57
  -1  -4  -2    8.06    0.58
  -1  -4  -2    7.82    0.51
   1  -4   2    8.52    0.65
  -1  -4  -2    8.25    0.60
  -1  -4  -2    6.73    0.41
   1  -4   2    8.26    0.59
   1  -4   2    7.22    1.03
   1   4   2    7.50    0.44
   1   4   2    6.80    0.56
   1   4   2    7.52    0.95
   1   4   2    7.04    0.65
  -1   4  -2    7.36    0.52
  -1   4  -2    8.33    0.73
  -1   4  -2    6.90    0.69
  -1   4  -2    7.59    0.79
   1   4   2    7.44    0.45
  -1   4  -2    8.01    0.63
  -1   4  -2    6.99    0.57
   1   4   2    8.34    0.69
  -1   4  -2    8.16    0.44
  -1   4  -2    7.08    0.51
  -2  -4  -2    4.30    0.52
  -2  -4  -2    4.76    0.43
  -2  -4  -2    4.01    0.43
   2  -4   2    4.43    0.52
   2  -4   2    4.53    0.58
  -2  -4  -2    4.70    0.46
  -2  -4  -2    4.85    0.79
   2  -4   2    4.14    0.75
   2  -4   2    5.47    0.51
  -2  -4  -2    4.58    0.57
  -2  -4  -2    4.24    0.52
   2  -4   2    4.28    0.50
  -2  -4  -2    4.91    0.51
  -2   4  -2    4.70    0.46
  -2   4  -2    4.53    0.70
   2   4   2    4.46    0.35
   2   4   2    4.77    0.38
  -2   4  -2    5.59    0.50
  -2   4  -2    4.22    0.57
  -2   4  -2    4.53    0.33
  -2   4  -2    3.93    0.49
  -2   4  -2    5.70    0.73
   2   4   2    6.04    0.69
  -2   4  -2    4.50    0.67
   2   4   2    4.59    0.49
   2   4   2    3.89    0.59
  -2   4  -2    4.82    0.74
   3  -4   2    8.20    0.71
  -3  -4  -2    8.12    0.52
  -3  -4  -2    7.15    0.48
  -3  -4  -2    7.95    0.54
  -3  -4  -2    8.09    0.72
   3  -4   2   11.70    1.59
   3  -4   2    8.34    0.58
   3  -4   2    7.86    0.86
  -3  -4  -2    7.69    0.62
   3  -4   2    8.36    0.65
   3   4   2    8.43    0.52
  -3   4  -2    8.92    0.59
  -3   4  -2    7.92    0.60
  -3   4  -2    8.22    0.94
  -3   4  -2    7.63    0.56
  -3   4  -2    7.40    0.69
   3   4   2    9.86    0.95
   3   4   2    8.16    0.63
  -3   4  -2    7.14    0.98
   3   4   2    7.15    0.76
  -3   4  -2    8.72    0.61
  -3   4  -2    8.03    0.79
   3   4   2    7.64    0.43
  -3   4  -2    6.83    1.13
   3   4   2    7.99    0.45
   4  -4   2    1.11    0.31
   4  -4   2    1.37    0.64
  -4  -4  -2    1.76    0.34
   4  -4   2    1.68    0.35
   4  -4   2    1.55    0.40
   4  -4   2    1.58    0.39
  -4  -4  -2    1.37    0.32
  -4  -4  -2    1.59    0.25
   4  -4   2    1.87    0.29
  -4   4  -2    1.51    0.34
  -4   4  -2    2.04    0.38
  -4   4  -2    1.68    0.67
  -4   4  -2    1.08    0.48
  -4   4  -2    1.81    0.33
  -4   4  -2    1.46    0.26
  -4   4  -2    1.09    0.61
   4   4   2    1.60    0.21
   4   4   2    1.84    0.29
  -4   4  -2    1.30    0.45
   4   4   2    1.86    0.23
   4   4   2    1.81    0.56
   4   4   2    1.94    0.23
   4   4   2    1.73    0.35
  -5  -4  -2    9.64    0.63
   5  -4   2    9.55    0.76
   5  -4   2    9.72    0.71
  -5  -4  -2   10.80    0.51
   5  -4   2   11.48    0.70
  -5  -4  -2   10.29    0.63
   5  -4   2    9.81    0.66
  -5   4  -2    9.12    0.64
   5   4   2   10.30    0.55
  -5   4  -2    8.17    0.74
  -5   4  -2    9.59    0.82
   5   4   2   10.69    0.98
  -5   4  -2   10.92    0.65
   5   4   2    9.82    0.63
  -5   4  -2   10.92    1.10
   5   4   2    9.84    0.56
   5   4   2    9.89    0.51
  -5   4  -2   10.58    1.08
  -5   4  -2   10.12    0.90
   6  -4   2    2.94    0.38
  -6  -4  -2    3.21    0.41
  -6  -4  -2    3.18    0.27
   6  -4   2    2.84    0.36
  -6  -4  -2    3.22    0.28
   6  -4   2    4.12    0.53
   6   4   2    3.16    0.28
  -6   4  -2    3.37    0.46
  -6   4  -2    2.34    0.33
   6   4   2    2.24    0.30
   6   4   2    3.17    0.34
  -6   4  -2    3.06    0.56
  -6   4  -2    2.88    0.58
   6   4   2    3.45    0.29
  -6   4  -2    3.25    0.42
  -6   4  -2    2.64    0.49
   7  -4   2    1.35    0.27
  -7  -4  -2    0.79    0.15
   7  -4   2    1.04    0.26
  -7  -4  -2    0.84    0.29
  -7  -4  -2    0.83    0.16
  -7   4  -2    0.80    0.55
  -7   4  -2    0.63    0.37
  -7   4  -2    0.67    0.25
   7   4   2    0.14    0.25
  -7   4  -2    0.86    0.22
   7   4   2    0.71    0.13
  -7   4  -2    0.61    0.25
  -7   4  -2    0.54    0.41
  -7   4  -2    0.89    0.42
  -8   4  -2    0.21    0.24
  -8   4  -2    0.31    0.13
  -8   4  -2    0.17    0.13
  -7  -5   2    0.75    0.12
  -7  -5   2    0.67    0.13
  -7   5   2    0.82    0.33
  -7   5   2    0.81    0.44
  -7   5   2    0.27    0.43
  -7   5   2    0.48    0.38
  -6  -5   2    0.20    0.17
   6  -5  -2    0.90    0.25
  -6  -5   2    0.22    0.15
  -6  -5   2    0.13    0.24
  -6   5   2    1.13    0.48
   6   5  -2   -0.10    0.11
  -6   5   2    0.21    0.23
  -6   5   2    0.26    0.23
  -6   5   2    0.65    0.43
  -6   5   2    0.63    0.45
   6   5  -2    0.04    0.14
  -6   5   2    0.30    0.51
  -5  -5   2    2.01    0.33
   5  -5  -2    1.91    0.36
   5  -5  -2    2.39    0.35
   5  -5  -2    1.96    0.37
  -5   5   2    2.50    0.51
   5   5  -2    2.47    0.47
  -5   5   2    2.14    0.54
  -5   5   2    1.67    0.45
   5   5  -2    2.38    0.45
   5   5  -2    2.25    0.27
  -5   5   2    2.74    0.65
  -5   5   2    1.65    0.30
  -5   5   2    1.81    0.30
   4  -5  -2    3.20    0.42
  -4  -5   2    3.61    0.39
  -4  -5   2    3.69    0.46
   4  -5  -2    3.84    0.47
   4  -5  -2    3.06    0.45
   4  -5  -2    4.32    0.55
  -4   5   2    5.32    0.84
  -4   5   2    5.78    0.79
  -4   5   2    5.35    0.79
   4   5  -2    4.35    0.36
  -4   5   2    3.69    0.44
   4   5  -2    4.15    0.53
  -4   5   2    4.62    0.69
  -4   5   2    3.34    0.37
   4   5  -2    3.88    0.42
  -4   5   2    3.41    0.90
   3  -5  -2    5.81    0.61
   3  -5  -2    7.06    0.63
   3  -5  -2    4.98    0.60
   3  -5  -2    4.44    0.64
   3  -5  -2    8.40    1.43
   3  -5  -2    5.56    0.63
  -3  -5   2    5.58    0.42
  -3  -5   2    5.82    0.50
  -3  -5   2    7.22    0.57
  -3   5   2    5.76    0.84
  -3   5   2    6.58    1.07
   3   5  -2    5.90    0.50
  -3   5   2    6.69    0.88
  -3   5   2    6.72    0.86
   3   5  -2    5.72    0.43
  -3   5   2    6.08    0.52
  -3   5   2    6.95    0.75
  -3   5   2    5.31    0.48
   3   5  -2    6.69    0.64
  -2  -5   2    0.10    0.25
  -2  -5   2    0.19    0.34
   2  -5  -2   -0.38    0.34
  -2  -5   2    0.10    0.28
  -2  -5   2   -0.02    0.22
   2  -5  -2    0.35    0.35
  -2  -5   2   -0.12    0.21
   2  -5  -2   -0.17    0.31
   2  -5  -2    0.75    0.62
   2  -5  -2    0.00    0.23
   2  -5  -2   -0.17    0.33
  -2  -5   2   -0.14    0.25
   2   5  -2    0.00    0.20
  -2   5   2    0.35    0.49
  -2   5   2    0.17    0.63
   2   5  -2    0.03    0.23
  -2   5   2    0.81    0.58
  -2   5   2   -0.11    0.22
  -2   5   2    0.27    0.26
  -2   5   2    0.14    0.28
  -2   5   2    0.53    0.43
  -2   5   2    0.38    0.48
   2   5  -2   -0.05    0.32
   1  -5  -2    1.01    0.37
   1  -5  -2    2.71    0.50
  -1  -5   2    1.79    0.36
  -1  -5   2    1.53    0.33
   1  -5  -2    1.56    0.34
   1  -5  -2    1.22    0.55
  -1  -5   2    1.59    0.36
   1  -5  -2    1.65    0.30
  -1  -5   2    1.47    0.27
  -1  -5   2    1.74    0.41
   1  -5  -2    0.88    0.34
   1  -5  -2    1.12    0.38
  -1  -5   2    1.19    0.28
  -1   5   2    1.74    0.89
  -1   5   2    1.79    0.27
  -1   5   2    1.04    0.26
   1   5  -2    1.69    0.29
   1   5  -2    1.24    0.37
   1   5  -2    1.73    0.49
  -1   5   2    1.49    0.48
  -1   5   2    1.45    0.24
  -1   5   2    2.32    0.56
   1   5  -2    1.36    0.26
  -1   5   2    2.82    0.60
   0  -5  -2    7.33    0.57
   0  -5  -2    7.68    0.59
   0  -5   2    6.36    0.68
   0  -5   2    7.09    0.70
   0  -5   2    6.65    0.49
   0  -5  -2    7.05    1.02
   0  -5  -2    7.12    0.68
   0  -5  -2    7.46    0.68
   0  -5  -2    7.35    0.69
   0  -5   2    6.95    0.63
   0  -5   2    8.81    1.17
   0  -5  -2    7.57    0.63
   0  -5   2    7.12    0.63
   0  -5   2    7.35    0.66
   0   5  -2    7.41    0.49
   0   5  -2    7.28    0.65
   0   5  -2    7.15    0.48
   0   5   2    7.08    0.80
   0   5  -2    8.36    0.78
   0   5   2    7.21    0.48
   0   5  -2    7.86    0.79
   0   5   2    6.85    0.44
   0   5   2    7.31    0.57
  -1  -5  -2   28.90    1.47
   1  -5   2   29.91    1.38
  -1  -5  -2   30.21    1.34
   1  -5   2   30.14    1.36
   1  -5   2   31.25    1.88
  -1  -5  -2   28.07    1.66
   1  -5   2   31.79    1.32
   1  -5   2   30.97    1.33
  -1  -5  -2   28.94    1.25
  -1  -5  -2   28.03    1.32
   1  -5   2   29.45    1.25
  -1  -5  -2   29.71    1.28
   1  -5   2   30.80    1.42
  -1  -5  -2   28.12    1.33
  -1  -5  -2   29.34    1.32
  -1   5  -2   29.86    1.36
   1   5   2   28.97    1.22
  -1   5  -2   29.68    1.27
  -1   5  -2   26.85    1.45
   1   5   2   28.93    1.27
   1   5   2   30.56    1.34
   1   5   2   31.79    1.83
  -1   5  -2   29.08    1.47
  -1   5  -2   29.65    1.22
  -1   5  -2   27.31    1.51
  -1   5  -2   29.98    1.41
  -1   5  -2   28.73    1.28
   2  -5   2    9.74    1.25
  -2  -5  -2    7.56    0.56
  -2  -5  -2    7.76    0.60
  -2  -5  -2    6.41    0.69
  -2  -5  -2    7.71    0.54
   2  -5   2    8.17    0.57
  -2  -5  -2    7.41    0.65
   2  -5   2    7.47    0.63
  -2  -5  -2    6.96    0.63
   2  -5   2    6.61    0.97
   2  -5   2    8.07    0.66
  -2   5  -2    5.45    0.92
   2   5   2    8.56    0.58
  -2   5  -2    8.61    0.78
  -2   5  -2    8.19    0.85
  -2   5  -2    7.58    0.60
  -2   5  -2    8.43    0.92
   2   5   2    7.77    0.46
  -2   5  -2    8.20    0.97
   2   5   2    7.73    0.63
  -2   5  -2    7.34    0.62
  -2   5  -2    7.68    0.58
  -3  -5  -2    6.48    0.53
   3  -5   2    8.90    1.05
   3  -5   2    6.80    0.67
   3  -5   2    7.44    0.78
  -3  -5  -2    6.94    0.54
   3  -5   2    6.20    0.57
   3  -5   2    7.07    0.68
   3  -5   2    6.41    0.51
  -3  -5  -2    6.51    0.61
  -3   5  -2    7.18    0.61
  -3   5  -2    6.98    0.73
   3   5   2    7.41    0.60
  -3   5  -2    6.95    0.95
   3   5   2    6.58    0.48
  -3   5  -2    6.51    0.53
  -3   5  -2    7.08    0.82
  -3   5  -2    7.96    0.62
   3   5   2    6.97    0.42
  -3   5  -2    7.59    0.96
   4  -5   2    0.52    0.28
   4  -5   2    0.10    0.34
   4  -5   2    0.11    0.58
  -4  -5  -2    0.45    0.21
   4  -5   2    0.42    0.26
   4  -5   2    0.39    0.37
  -4  -5  -2    0.25    0.27
  -4  -5  -2    0.18    0.27
  -4   5  -2    0.69    0.55
  -4   5  -2    0.25    0.49
   4   5   2    0.19    0.17
  -4   5  -2    0.67    0.61
   4   5   2    0.45    0.28
   4   5   2    0.26    0.21
  -4   5  -2    0.67    0.49
  -4   5  -2    0.29    0.30
  -4   5  -2    0.23    0.27
   5  -5   2   17.44    0.95
  -5  -5  -2   16.45    0.72
  -5  -5  -2   15.94    0.82
   5  -5   2   17.74    0.90
   5  -5   2   20.07    0.91
  -5  -5  -2   16.16    0.71
  -5   5  -2   18.51    0.83
   5   5   2   16.81    0.82
  -5   5  -2   18.00    1.13
  -5   5  -2   17.27    0.84
  -5   5  -2   16.79    1.12
   5   5   2   17.60    0.78
  -5   5  -2   17.14    1.02
  -5   5  -2   17.11    0.97
  -6  -5  -2   11.27    0.49
  -6  -5  -2   10.71    0.49
   6  -5   2   11.28    0.61
  -6   5  -2   10.50    0.84
  -6   5  -2   11.35    0.80
  -6   5  -2   11.45    0.56
  -6   5  -2   11.41    0.57
  -6   5  -2   11.37    0.75
  -6   5  -2   11.56    0.74
  -6   6   2    0.23    0.25
  -6   6   2    0.10    0.23
   5  -6  -2    2.95    0.40
  -5  -6   2    3.01    0.23
   5  -6  -2    3.19    0.31
  -5  -6   2    2.73    0.32
  -5   6   2    4.42    0.57
  -5   6   2    2.50    0.70
   5   6  -2    3.58    0.29
   4  -6  -2    1.78    0.26
   4  -6  -2    1.03    0.32
  -4  -6   2    1.15    0.25
  -4  -6   2    1.05    0.16
   4  -6  -2    0.95    0.24
   4   6  -2    1.40    0.24
   4   6  -2    1.29    0.28
  -4   6   2    1.39    0.39
  -4   6   2    2.32    0.61
   4   6  -2    1.39    0.24
   3  -6  -2    7.11    0.43
   3  -6  -2    5.86    0.51
  -3  -6   2    6.75    0.50
  -3  -6   2    6.06    0.44
   3  -6  -2    6.02    0.59
   3  -6  -2    6.45    0.58
   3  -6  -2    5.61    0.50
  -3   6   2    7.09    0.72
   3   6  -2    6.48    0.40
  -3   6   2    6.35    0.80
  -3   6   2    8.15    0.80
   3   6  -2    6.64    0.44
   3   6  -2    6.55    0.53
   2  -6  -2    3.09    0.41
  -2  -6   2    3.15    0.42
   2  -6  -2    2.84    0.38
  -2  -6   2    2.82    0.39
   2  -6  -2    2.76    0.32
   2  -6  -2    2.98    0.39
   2   6  -2    3.07    0.33
   2   6  -2    2.32    0.32
  -2   6   2    3.67    0.53
  -2   6   2    3.26    0.57
   2   6  -2    3.10    0.35
  -2   6   2    2.74    0.31
  -2   6   2    4.74    0.78
  -1  -6   2    0.10    0.24
  -1  -6   2    0.70    0.48
  -1  -6   2    0.72    0.24
  -1  -6   2    1.03    0.31
   1  -6  -2    0.17    0.38
   1  -6  -2    0.31    0.26
  -1  -6   2    0.45    0.19
   1  -6  -2    0.20    0.23
   1  -6  -2    0.55    0.33
   1  -6  -2    0.22    0.31
  -1  -6   2    0.72    0.31
  -1   6   2    0.03    0.48
   1   6  -2    0.31    0.22
  -1   6   2    0.41    0.23
  -1   6   2    1.11    0.52
  -1   6   2    0.08    0.38
   1   6  -2    0.24    0.21
   1   6  -2    0.31    0.28
   0  -6   2    3.47    0.48
   0  -6   2    4.50    0.58
   0  -6   2    3.93    0.34
   0  -6  -2    4.27    0.48
   0  -6   2    2.85    0.52
   0  -6  -2    4.41    0.47
   0  -6  -2    4.41    0.54
   0  -6  -2    3.64    0.44
   0  -6  -2    4.15    0.62
   0  -6   2    3.78    0.47
   0  -6  -2    4.85    0.56
   0   6  -2    3.52    0.49
   0   6   2    4.03    0.43
   0   6  -2    4.23    0.35
   0   6   2    3.78    0.41
   1  -6   2    1.93    0.33
  -1  -6  -2    2.50    0.35
  -1  -6  -2    2.20    0.28
  -1  -6  -2    2.06    0.37
  -1  -6  -2    2.23    0.28
   1  -6   2    2.19    0.67
   1  -6   2    1.96    0.40
   1  -6   2    2.36    0.42
  -1  -6  -2    2.22    0.36
   1  -6   2    1.80    0.30
  -1   6  -2    2.74    0.50
  -1   6  -2    1.86    0.31
  -1   6  -2    2.19    0.29
   1   6   2    2.45    0.34
   1   6   2    2.98    0.39
  -1   6  -2    2.64    0.51
  -2  -6  -2    7.89    0.60
  -2  -6  -2    8.39    0.56
  -2  -6  -2    8.03    0.53
   2  -6   2    8.12    0.55
   2  -6   2    7.94    0.67
   2  -6   2    8.93    0.69
   2  -6   2    8.36    0.69
  -2  -6  -2    8.48    0.51
   2  -6   2    9.04    0.63
  -2   6  -2    7.93    0.51
   2   6   2    8.68    0.57
   2   6   2    7.92    0.48
  -2   6  -2    8.74    0.81
  -2   6  -2    8.28    0.76
   3  -6   2    2.21    0.37
   3  -6   2    1.97    0.41
  -3  -6  -2    2.13    0.35
  -3  -6  -2    2.84    0.33
  -3  -6  -2    1.94    0.34
   3  -6   2    1.90    0.27
   3  -6   2    1.93    0.38
  -3   6  -2    2.68    0.58
   3   6   2    1.66    0.21
  -3   6  -2    2.76    0.40
  -3   6  -2    2.44    0.50
  -4  -6  -2    0.18    0.19
   4  -6   2   -0.15    0.26
   4  -6   2    0.20    0.33
   4  -6   2    0.16    0.28
   4  -6   2    0.36    0.21
  -4  -6  -2   -0.03    0.23
  -4   6  -2    0.24    0.25
   4   6   2    0.10    0.19
  -4   6  -2    0.42    0.42
  -4   6  -2    0.64    0.38
   5  -6   2    0.53    0.17
  -5   6  -2    0.80    0.29
  -5   6  -2    0.76    0.32
   3   7  -2    4.32    0.29
   2  -7  -2    2.65    0.28
  -2  -7   2    3.62    0.27
   2  -7  -2    2.72    0.35
  -2  -7   2    3.14    0.30
   2   7  -2    3.42    0.32
   1  -7  -2    2.82    0.31
   1  -7  -2    2.54    0.29
  -1  -7   2    2.79    0.34
  -1  -7   2    2.86    0.30
   1  -7  -2    2.64    0.39
   1   7  -2    2.38    0.31
   0  -7   2    3.11    0.33
   0  -7  -2    3.49    0.30
   0  -7   2    2.99    0.34
   0  -7  -2    2.98    0.30
   0  -7  -2    2.44    0.34
   0   7   2    2.73    0.23
   0   7  -2    2.77    0.38
   1  -7   2    1.76    0.26
   1  -7   2    1.61    0.29
   1  -7   2    1.52    0.20
  -1  -7  -2    1.59    0.20
   1   7   2    1.54    0.24
   2  -7   2    1.14    0.20
   2  -7   2    1.32    0.17
  -2  -7  -2    1.56    0.22
   2   7   2    1.46    0.17
 -10   0   3    3.25    0.23
 -10   0   3    3.48    0.25
 -10   0   3    3.45    0.27
  -9   0   3    3.20    0.33
  -9   0   3    3.45    0.52
  -9   0   3    3.38    0.36
  -9   0   3    3.48    0.33
   9   0  -3    2.65    0.28
  -9   0   3    3.47    0.53
   8   0  -3   19.57    0.78
   8   0  -3   17.56    0.87
  -8   0   3   17.26    0.98
  -8   0   3   17.40    0.82
  -8   0   3   17.20    1.03
  -8   0   3   18.53    0.82
  -8   0   3   18.00    0.98
  -8   0   3   17.63    0.84
  -8   0   3   17.84    0.81
  -7   0   3    0.64    0.22
  -7   0   3    0.99    0.23
  -7   0   3    0.60    0.33
  -7   0   3    0.82    0.43
   7   0  -3    0.55    0.42
  -7   0   3    0.76    0.21
  -7   0   3    0.12    0.31
  -7   0   3    0.38    0.37
  -7   0   3    1.12    0.26
   7   0  -3    1.20    0.21
  -6   0   3   60.15    2.52
  -6   0   3   63.19    2.44
  -6   0   3   62.71    2.46
  -6   0   3   63.10    2.44
   6   0  -3   62.68    2.82
  -6   0   3   64.24    2.46
  -6   0   3   59.64    2.55
   6   0  -3   69.13    3.43
   6   0  -3   68.92    2.63
  -6   0   3   59.11    2.49
  -6   0   3   60.10    2.55
  -5   0   3    9.37    0.49
  -5   0   3    9.03    0.47
   5   0  -3    7.93    0.42
   5   0  -3    9.34    0.91
  -5   0   3    8.98    0.62
  -5   0   3    8.78    0.46
  -5   0   3    8.51    0.52
  -5   0   3    9.70    0.49
  -5   0   3    8.33    0.54
  -5   0   3    9.76    0.53
   5   0  -3    9.61    0.74
   5   0  -3   10.10    0.61
   4   0  -3    2.40    0.28
   4   0  -3    2.40    0.45
  -4   0   3    2.32    0.29
   4   0  -3    2.38    0.35
  -3   0   3   12.57    0.70
  -3   0   3   14.33    0.63
   3   0  -3   12.98    0.67
   3   0  -3   12.21    0.82
   3   0  -3   12.72    0.59
  -2   0   3 1000.00   37.47
   1   0  -3   35.60    1.49
  -1   0   3   35.05    1.51
  -1   0   3   36.31    1.41
   1   0  -3   34.81    1.43
   0   0  -3  192.68    7.03
   0   0   3  194.68    7.02
   0   0   3  175.07    7.05
   0   0   3  176.98    6.95
   1   0   3   33.32    1.41
  -1   0  -3   35.03    1.38
   1   0   3   32.70    1.32
  -1   0  -3   35.87    1.36
   1   0   3   33.89    1.46
   1   0   3   36.91    1.48
  -1   0  -3   34.38    1.34
  -2   0  -3   31.30    1.25
   2   0   3   32.21    1.42
   2   0   3   31.59    1.40
   2   0   3   34.48    1.45
  -2   0  -3   31.33    1.28
  -2   0  -3   33.12    1.30
   2   0   3   32.28    1.24
  -3   0  -3   12.05    0.61
  -3   0  -3   12.28    0.60
   3   0   3   11.72    0.79
   3   0   3   11.22    0.81
   3   0   3   12.04    0.50
  -3   0  -3   12.41    0.60
   3   0   3   11.65    0.53
  -3   0  -3   11.10    0.56
  -4   0  -3   25.16    1.09
   4   0   3   23.89    1.34
   4   0   3   24.23    0.98
   4   0   3   25.27    1.00
   4   0   3   22.09    1.24
  -4   0  -3   25.20    1.07
   4   0   3   24.60    1.18
  -4   0  -3   25.09    1.09
  -4   0  -3   24.99    1.06
  -5   0  -3    0.30    0.16
   5   0   3    0.22    0.37
  -5   0  -3    0.24    0.18
  -5   0  -3    0.27    0.25
  -5   0  -3    0.27    0.19
  -5   0  -3    0.36    0.24
   5   0   3    0.37    0.41
   5   0   3    0.24    0.16
  -5   0  -3    0.07    0.27
  -5   0  -3   -0.04    0.24
  -5   0  -3    0.49    0.40
   5   0   3    0.08    0.14
   5   0   3    0.30    0.16
   6   0   3    9.47    0.52
  -6   0  -3   10.23    1.03
  -6   0  -3    9.52    0.71
  -6   0  -3    9.51    0.53
  -6   0  -3    9.61    0.67
   6   0   3    9.26    0.94
  -6   0  -3    9.23    0.54
   6   0   3   10.28    0.68
  -6   0  -3    9.59    0.79
   6   0   3   10.35    0.56
  -6   0  -3    9.18    0.58
  -6   0  -3    9.63    0.77
   6   0   3   12.18    0.81
  -7   0  -3    5.15    0.75
   7   0   3    3.73    0.29
  -7   0  -3    5.84    0.65
   7   0   3    3.60    0.48
  -7   0  -3    3.24    0.38
   7   0   3    3.41    0.42
  -7   0  -3    4.38    0.53
  -7   0  -3    4.07    0.45
  -7   0  -3    3.37    0.64
   7   0   3    2.80    0.62
   7   0   3    3.99    0.42
  -7   0  -3    3.71    0.43
   8   0   3   12.76    0.69
   8   0   3   13.28    0.70
  -8   0  -3   13.13    0.80
   8   0   3   12.91    0.58
  -8   0  -3   13.66    0.87
  -8   0  -3   13.35    0.62
  -8   0  -3   13.19    0.62
  -8   0  -3   13.33    0.68
   8   0   3   13.16    0.76
  -9   0  -3    0.24    0.16
  -9   0  -3    0.38    0.24
  -9   0  -3    0.17    0.14
  -9   0  -3    0.16    0.14
  -9   0  -3    0.11    0.30
   9   0   3    0.15    0.22
 -10  -1   3    1.92    0.17
 -10  -1   3    2.17    0.24
 -10  -1   3    2.28    0.19
 -10   1   3    2.15    0.26
 -10   1   3    1.87    0.22
 -10   1   3    1.80    0.21
  -9  -1   3    3.18    0.48
  -9  -1   3    1.64    0.31
  -9  -1   3    3.85    0.42
  -9  -1   3    2.00    0.31
  -9   1   3    2.95    0.56
  -9   1   3    3.50    0.37
  -9   1   3    4.10    0.63
   9   1  -3    2.53    0.31
   9   1  -3    2.85    0.24
   9   1  -3    2.66    0.27
  -9   1   3    3.68    0.44
  -9   1   3    2.96    0.34
  -8  -1   3   10.69    0.55
  -8  -1   3    9.98    0.54
  -8  -1   3    9.37    0.72
  -8  -1   3    9.53    0.55
  -8  -1   3   10.30    0.77
   8  -1  -3    9.19    0.48
   8  -1  -3    9.06    0.66
  -8  -1   3    9.56    0.74
  -8  -1   3   10.26    0.54
  -8   1   3    9.67    0.87
   8   1  -3   10.70    0.57
  -8   1   3    9.79    0.54
  -8   1   3   10.15    0.57
  -8   1   3   13.67    1.64
   8   1  -3   10.61    0.52
  -8   1   3    9.51    0.57
  -8   1   3    9.95    0.56
  -7  -1   3   16.00    0.95
  -7  -1   3   16.95    0.77
   7  -1  -3   18.96    1.05
   7  -1  -3   18.52    0.72
  -7  -1   3   15.54    0.89
  -7  -1   3   16.51    1.02
  -7  -1   3   16.85    0.80
  -7  -1   3   16.34    0.93
  -7  -1   3   16.71    0.78
  -7  -1   3   17.45    0.80
  -7   1   3   17.43    0.98
  -7   1   3   16.59    0.79
  -7   1   3   16.67    0.79
  -7   1   3   16.50    0.81
  -7   1   3   17.08    0.80
   7   1  -3   18.88    1.07
  -7   1   3   15.89    0.91
   7   1  -3   17.26    0.79
  -7   1   3   15.92    0.99
   7   1  -3   16.65    0.82
  -7   1   3   16.94    1.04
   6  -1  -3   19.86    1.02
  -6  -1   3   19.64    0.84
   6  -1  -3   21.29    1.39
   6  -1  -3   17.59    1.16
  -6  -1   3   18.32    0.84
  -6  -1   3   18.82    0.81
  -6  -1   3   17.67    0.90
  -6  -1   3   17.31    1.00
  -6  -1   3   19.15    0.82
  -6  -1   3   17.64    0.93
  -6  -1   3   18.61    0.96
  -6   1   3   18.29    1.00
  -6   1   3   18.56    0.83
  -6   1   3   18.94    0.94
  -6   1   3   19.49    1.10
  -6   1   3   18.13    0.84
   6   1  -3   19.15    0.84
  -6   1   3   19.18    0.84
  -6   1   3   17.78    0.96
   6   1  -3   18.45    1.23
  -6   1   3   17.80    0.82
   6   1  -3   18.41    1.46
   6   1  -3   18.06    0.86
   6   1  -3   19.26    1.07
  -6   1   3   17.88    0.93
   6   1  -3   19.23    0.84
   5  -1  -3   13.02    1.00
   5  -1  -3   12.80    0.72
   5  -1  -3   13.55    0.74
  -5  -1   3   12.95    0.62
   5  -1  -3   13.88    0.87
  -5  -1   3   13.13    0.72
  -5  -1   3   13.39    0.68
   5  -1  -3   14.43    0.75
  -5  -1   3   12.45    0.66
  -5  -1   3   14.36    0.63
  -5   1   3   12.51    0.81
  -5   1   3   12.92    0.67
   5   1  -3   13.53    1.14
   5   1  -3   13.65    1.18
   5   1  -3   12.14    0.63
  -5   1   3   13.07    0.99
  -5   1   3   11.90    0.66
  -5   1   3   11.58    0.65
  -5   1   3   13.14    0.62
   5   1  -3   12.10    0.56
  -5   1   3   13.37    0.72
   5   1  -3   13.74    0.62
   5   1  -3   13.57    0.78
  -5   1   3   14.74    0.66
   5   1  -3   12.85    0.61
  -4  -1   3   17.07    0.79
   4  -1  -3   18.00    0.90
   4  -1  -3   17.48    0.87
   4  -1  -3   17.11    1.04
   4   1  -3   16.38    1.15
   4   1  -3   17.52    0.86
   4   1  -3   19.35    0.79
  -4   1   3   17.27    0.80
  -4   1   3   16.97    0.88
  -4   1   3   19.62    1.03
   4   1  -3   16.47    0.74
   4   1  -3   17.08    0.98
  -4   1   3   17.38    0.79
   3  -1  -3  138.19    5.00
  -3  -1   3  134.22    4.92
   3  -1  -3  133.37    5.02
   3  -1  -3  124.83    5.10
   3   1  -3  124.47    4.98
   3   1  -3  127.07    5.05
   3   1  -3  125.77    4.90
  -3   1   3  134.79    5.08
   3   1  -3  128.66    5.23
  -3   1   3  130.07    5.04
   2  -1  -3  500.02   20.05
   2  -1  -3  534.62   20.04
  -2  -1   3  551.86   19.97
  -2  -1   3  556.53   20.04
  -2   1   3  530.10   20.03
   2   1  -3  545.83   20.11
   2   1  -3  527.34   19.94
   2   1  -3  529.06   19.98
   2   1  -3  519.12   20.17
   1  -1  -3   22.81    0.91
   1  -1  -3   24.23    1.01
  -1  -1   3   22.72    1.01
  -1  -1   3   22.61    1.01
  -1  -1   3   22.23    1.11
   1  -1  -3   23.08    0.95
   1  -1  -3   23.16    0.95
  -1   1   3   22.45    0.98
   1   1  -3   20.86    0.98
   1   1  -3   22.78    1.08
   1   1  -3   22.81    0.90
  -1   1   3   22.95    1.05
   0  -1   3   13.19    0.76
   0  -1   3   12.84    0.76
   0  -1  -3   14.46    0.63
   0  -1   3   13.70    0.60
   0  -1  -3   14.64    0.60
   0  -1  -3   13.69    0.59
   0  -1  -3   15.20    0.72
   0   1  -3   13.39    0.64
   0   1  -3   13.52    0.62
   0   1  -3   13.39    0.71
   0   1   3   15.07    0.78
   0   1   3   14.37    0.63
   0   1   3   14.94    0.71
   0   1   3   13.73    0.68
   0   1   3   14.58    0.67
   1  -1   3   19.44    1.01
  -1  -1  -3   19.76    0.93
   1  -1   3   19.45    0.85
   1  -1   3   19.96    0.83
  -1  -1  -3   20.82    0.88
  -1  -1  -3   21.71    0.98
   1  -1   3   19.30    1.00
  -1  -1  -3   20.59    0.88
   1   1   3   22.08    0.81
   1   1   3   19.58    0.93
   1   1   3   23.15    0.96
  -1   1  -3   21.79    0.96
  -1   1  -3   21.43    0.89
   1   1   3   20.57    0.98
   1   1   3   19.94    0.90
   1   1   3   19.95    0.82
  -2  -1  -3   80.46    3.11
   2  -1   3   81.48    3.13
   2  -1   3   78.13    2.95
  -2  -1  -3   79.95    3.01
  -2  -1  -3   74.46    2.97
   2  -1   3   78.81    2.99
  -2  -1  -3   79.32    2.97
  -2  -1  -3   80.03    3.00
   2  -1   3   72.45    3.17
   2   1   3   73.53    3.08
   2   1   3   78.12    2.95
   2   1   3   73.07    2.96
   2   1   3   77.79    3.04
   2   1   3   79.00    3.14
  -2   1  -3   78.84    3.00
  -2   1  -3   80.76    3.00
  -3  -1  -3   36.72    1.55
  -3  -1  -3   41.82    1.61
  -3  -1  -3   40.13    1.58
  -3  -1  -3   41.42    1.58
   3  -1   3   42.16    1.59
  -3  -1  -3   40.96    1.61
   3  -1   3   40.97    1.53
  -3  -1  -3   38.91    1.59
   3  -1   3   40.05    1.79
   3  -1   3   37.54    1.77
  -3  -1  -3   40.62    1.71
   3   1   3   36.18    1.69
  -3   1  -3   40.18    1.60
   3   1   3   38.21    1.68
   3   1   3   40.42    1.55
   3   1   3   37.59    1.53
   3   1   3   37.52    1.82
  -3   1  -3   39.37    1.59
  -3   1  -3   39.19    1.61
  -4  -1  -3   20.85    0.93
   4  -1   3   20.32    0.81
   4  -1   3   19.68    0.84
   4  -1   3   21.92    0.92
   4  -1   3   20.72    0.83
  -4  -1  -3   20.67    0.93
  -4  -1  -3   18.65    0.92
  -4  -1  -3   20.41    0.88
   4  -1   3   19.82    1.17
   4  -1   3   20.29    1.16
  -4  -1  -3   20.95    0.91
  -4   1  -3   20.94    0.93
  -4   1  -3   19.14    0.92
  -4   1  -3   20.86    0.88
  -4   1  -3   19.09    0.92
   4   1   3   18.34    0.81
  -4   1  -3   19.68    0.99
  -4   1  -3   19.75    0.84
   4   1   3   20.62    0.84
   4   1   3   18.61    1.23
   4   1   3   19.30    1.06
  -4   1  -3   18.78    0.91
   4   1   3   20.13    0.82
  -5  -1  -3    0.76    0.25
  -5  -1  -3    1.24    0.19
  -5  -1  -3    1.11    0.21
  -5  -1  -3    0.80    0.16
   5  -1   3    0.01    0.35
   5  -1   3    1.41    0.23
   5  -1   3    1.00    0.21
   5  -1   3    0.74    0.46
  -5  -1  -3    0.70    0.27
  -5  -1  -3    1.28    0.29
   5  -1   3    1.10    0.16
   5  -1   3    1.00    0.25
   5   1   3    0.52    0.35
  -5   1  -3    1.08    0.20
   5   1   3    0.91    0.53
  -5   1  -3    1.08    0.34
  -5   1  -3    0.79    0.22
  -5   1  -3    0.87    0.20
   5   1   3    0.99    0.19
  -5   1  -3    1.18    0.40
   5   1   3    1.10    0.18
  -5   1  -3    1.05    0.27
  -5   1  -3    0.98    0.50
   6  -1   3    8.93    0.58
   6  -1   3    8.95    0.54
  -6  -1  -3    8.41    0.67
  -6  -1  -3    7.77    0.63
  -6  -1  -3    7.75    0.48
  -6  -1  -3    7.41    0.63
  -6  -1  -3    8.25    0.65
   6  -1   3    8.21    0.61
  -6  -1  -3    7.86    0.51
  -6  -1  -3    8.07    0.47
   6  -1   3    9.55    0.89
  -6   1  -3    8.50    1.01
  -6   1  -3    8.58    0.57
  -6   1  -3    7.87    0.51
  -6   1  -3    7.86    0.50
  -6   1  -3    8.06    0.73
  -6   1  -3    8.20    0.66
   6   1   3    7.70    0.45
   6   1   3    8.60    0.50
   6   1   3    8.23    0.51
  -6   1  -3    8.02    0.77
   6   1   3    6.58    0.87
  -7  -1  -3   11.99    0.59
  -7  -1  -3   11.91    0.60
   7  -1   3   12.19    0.75
   7  -1   3   12.18    0.69
  -7  -1  -3   11.50    0.76
  -7  -1  -3   11.74    0.84
  -7  -1  -3   11.73    0.64
  -7  -1  -3   13.06    0.80
   7  -1   3   12.02    0.70
   7   1   3   11.65    0.57
  -7   1  -3   11.34    0.62
  -7   1  -3   11.44    0.67
   7   1   3   12.21    0.63
   7   1   3   12.10    0.73
  -7   1  -3   12.01    0.91
  -7   1  -3   11.33    0.83
   7   1   3   11.75    0.63
  -7   1  -3   10.73    1.09
  -7   1  -3   11.95    0.62
   8  -1   3   13.43    0.70
   8  -1   3   13.72    0.75
   8  -1   3   13.44    0.75
  -8  -1  -3   13.98    0.66
   8  -1   3   12.36    0.71
  -8  -1  -3   13.98    0.67
  -8  -1  -3   13.94    0.79
  -8  -1  -3   13.68    0.83
   8   1   3   13.90    0.69
  -8   1  -3   13.96    0.65
   8   1   3   14.76    0.77
   8   1   3   13.74    0.60
  -8   1  -3   13.46    0.69
  -8   1  -3   13.78    0.65
   8   1   3   13.06    0.68
  -8   1  -3   13.57    0.83
  -8   1  -3   14.02    0.87
  -8   1  -3   10.61    1.44
  -9  -1  -3    1.01    0.16
  -9  -1  -3    1.04    0.26
  -9  -1  -3    1.15    0.18
   9   1   3    1.19    0.22
  -9   1  -3    1.02    0.16
  -9   1  -3    1.33    0.18
  -9   1  -3    1.07    0.28
  -9   1  -3    1.20    0.19
  -9  -2   3    1.56    0.19
  -9  -2   3    2.59    0.35
  -9  -2   3    2.04    0.21
  -9  -2   3    2.06    0.23
   9   2  -3    1.64    0.20
  -9   2   3    2.47    0.42
  -9   2   3    2.41    0.45
   9   2  -3    2.01    0.25
  -9   2   3    2.09    0.26
  -9   2   3    1.76    0.25
  -9   2   3    2.47    0.29
  -8  -2   3    2.26    0.25
  -8  -2   3    2.32    0.41
  -8  -2   3    2.58    0.32
  -8  -2   3    2.17    0.24
  -8   2   3    1.68    0.28
   8   2  -3    2.23    0.31
   8   2  -3    2.61    0.28
  -8   2   3    2.66    0.32
  -8   2   3    1.97    0.30
  -8   2   3    2.01    0.52
  -8   2   3    2.63    0.56
  -7  -2   3    4.55    0.53
  -7  -2   3    5.21    0.40
  -7  -2   3    4.95    0.42
  -7  -2   3    4.90    0.67
  -7  -2   3    4.80    0.38
  -7  -2   3    4.67    0.63
  -7  -2   3    5.37    0.38
  -7   2   3    4.45    0.79
   7   2  -3    5.35    0.43
  -7   2   3    5.08    0.89
  -7   2   3    5.30    0.47
  -7   2   3    4.85    0.69
   7   2  -3    5.39    0.41
  -7   2   3    4.89    0.46
  -7   2   3    4.64    0.45
  -7   2   3    5.03    0.41
   7   2  -3    4.78    0.47
  -6  -2   3    1.47    0.23
  -6  -2   3    1.68    0.38
  -6  -2   3    1.38    0.21
  -6  -2   3    1.68    0.29
   6  -2  -3    1.37    0.40
   6   2  -3    1.51    0.26
  -6   2   3    1.28    0.39
  -6   2   3    1.24    0.26
   6   2  -3    1.87    0.30
  -6   2   3    1.82    0.28
  -6   2   3    1.32    0.46
  -6   2   3    1.68    0.24
   6   2  -3    2.07    0.45
   6   2  -3    1.90    0.27
  -6   2   3    2.10    0.55
  -6   2   3    1.94    0.29
  -6   2   3    2.14    0.46
  -5  -2   3   17.65    0.84
   5  -2  -3   19.66    1.06
  -5  -2   3   18.86    0.80
  -5  -2   3   18.38    0.81
   5  -2  -3   19.97    1.13
  -5  -2   3   17.52    0.93
   5  -2  -3   17.00    1.22
  -5   2   3   17.49    0.81
   5   2  -3   19.71    0.84
  -5   2   3   20.88    1.29
  -5   2   3   18.31    0.80
   5   2  -3   18.49    1.00
  -5   2   3   18.02    0.81
  -5   2   3   18.12    0.91
   5   2  -3   17.79    0.85
  -5   2   3   19.10    1.04
  -5   2   3   18.92    0.98
  -5   2   3   19.03    1.05
  -5   2   3   16.03    0.82
  -5   2   3   17.43    0.81
   5   2  -3   17.74    1.40
   5   2  -3   18.79    0.78
  -5   2   3   19.29    1.03
   5   2  -3   19.19    0.85
   5   2  -3   18.06    1.18
   4  -2  -3    3.65    0.34
  -4  -2   3    4.31    0.45
   4  -2  -3    3.32    0.41
  -4  -2   3    3.88    0.33
   4  -2  -3    4.41    0.40
  -4   2   3    4.65    0.57
   4   2  -3    4.14    0.63
  -4   2   3    5.15    0.75
   4   2  -3    4.02    0.33
  -4   2   3    4.37    0.43
   4   2  -3    3.60    0.67
   4   2  -3    3.81    0.28
   4   2  -3    3.43    0.35
   4   2  -3    4.25    0.49
   4   2  -3    3.52    0.32
   3  -2  -3   21.37    0.94
   3  -2  -3   21.26    1.07
  -3  -2   3   22.63    0.93
  -3  -2   3   21.24    0.88
  -3   2   3   20.50    1.03
   3   2  -3   21.19    1.15
   3   2  -3   22.03    0.88
   3   2  -3   21.59    0.90
   3   2  -3   21.59    1.28
   3   2  -3   21.58    0.91
  -3   2   3   21.79    0.94
   3   2  -3   21.58    1.01
  -3   2   3   21.12    1.17
   3   2  -3   21.44    0.92
   2  -2  -3   67.21    2.72
   2  -2  -3   67.17    2.60
  -2  -2   3   68.65    2.53
  -2  -2   3   65.06    2.63
   2  -2  -3   62.45    2.51
   2   2  -3   66.44    2.62
  -2   2   3   66.87    2.72
   2   2  -3   68.13    2.53
  -2   2   3   68.54    2.53
   2   2  -3   66.79    2.73
   2   2  -3   61.73    2.81
   1  -2  -3    6.78    0.44
   1  -2  -3    6.53    0.36
  -1  -2   3    6.26    0.58
   1  -2  -3    6.44    0.54
  -1  -2   3    6.43    0.42
  -1  -2   3    6.68    0.38
  -1  -2   3    6.55    0.69
   1  -2  -3    6.71    0.55
   1   2  -3    6.86    0.57
   1   2  -3    6.40    0.36
  -1   2   3    6.84    0.67
   1   2  -3    6.20    0.41
   1   2  -3    6.30    0.35
   1   2  -3    6.17    0.46
   1   2  -3    5.81    0.82
  -1   2   3    7.17    0.33
   0  -2  -3    1.36    0.25
   0  -2   3    0.99    0.17
   0  -2  -3    1.18    0.36
   0  -2   3    1.42    0.20
   0  -2  -3    1.16    0.34
   0  -2   3    1.01    0.35
   0  -2   3    1.11    0.27
   0   2   3    1.04    0.32
   0   2  -3    1.34    0.21
   0   2  -3    1.09    0.16
   0   2   3    1.05    0.25
   0   2  -3    1.29    0.22
   0   2  -3    0.87    0.23
   0   2  -3    1.10    0.18
   0   2  -3    1.38    0.29
   0   2  -3    1.16    0.26
   1  -2   3    8.88    0.80
  -1  -2  -3    9.59    0.49
  -1  -2  -3    9.65    0.70
   1  -2   3    8.59    0.49
  -1  -2  -3    9.84    0.44
  -1  -2  -3    9.46    0.56
   1  -2   3    8.82    0.66
   1   2   3    9.31    0.60
   1   2   3    9.36    0.55
  -1   2  -3    8.96    0.43
  -1   2  -3    9.57    0.57
   1   2   3    9.41    0.75
   1   2   3    9.58    0.45
   1   2   3    9.29    0.41
  -1   2  -3    9.31    0.50
  -1   2  -3    9.92    0.59
  -1   2  -3    9.57    0.73
   1   2   3    9.62    0.80
   1   2   3   10.22    0.44
  -2  -2  -3   46.12    1.86
  -2  -2  -3   50.80    2.13
  -2  -2  -3   47.14    1.86
  -2  -2  -3   46.56    1.87
  -2  -2  -3   48.85    1.94
  -2  -2  -3   48.61    1.87
   2  -2   3   47.86    2.10
   2  -2   3   42.79    1.87
  -2  -2  -3   50.46    1.88
   2  -2   3   46.13    1.89
  -2  -2  -3   46.39    1.87
   2  -2   3   49.83    1.86
   2   2   3   48.00    2.14
   2   2   3   48.22    1.98
  -2   2  -3   46.18    1.89
  -2   2  -3   45.88    2.05
  -2   2  -3   47.82    1.96
  -2   2  -3   51.45    1.92
   2   2   3   44.20    1.81
  -2   2  -3   47.53    1.90
   2   2   3   47.05    1.83
   2   2   3   47.86    1.85
  -2   2  -3   45.68    1.88
  -3  -2  -3   45.86    1.83
  -3  -2  -3   48.21    2.09
   3  -2   3   46.62    1.80
  -3  -2  -3   45.92    1.83
   3  -2   3   46.90    2.10
   3  -2   3   49.49    1.98
  -3  -2  -3   46.13    1.89
  -3  -2  -3   46.22    1.82
   3  -2   3   41.93    1.81
  -3  -2  -3   48.89    1.87
  -3  -2  -3   46.39    1.82
  -3   2  -3   45.03    1.83
   3   2   3   43.96    1.79
   3   2   3   44.95    1.78
   3   2   3   45.03    1.77
   3   2   3   43.94    1.96
  -3   2  -3   42.69    1.82
  -3   2  -3   43.63    1.84
  -3   2  -3   46.85    1.94
  -3   2  -3   45.60    1.86
   4  -2   3   15.16    0.71
   4  -2   3   13.61    1.05
  -4  -2  -3   14.79    0.76
  -4  -2  -3   14.83    0.72
   4  -2   3   13.76    0.92
  -4  -2  -3   13.93    0.65
   4  -2   3   13.81    0.74
   4  -2   3   14.19    0.75
  -4  -2  -3   15.72    0.73
   4  -2   3   14.91    1.13
  -4  -2  -3   15.72    0.74
  -4   2  -3   13.95    0.72
  -4   2  -3   14.53    0.85
  -4   2  -3   15.11    0.97
   4   2   3   13.76    0.94
  -4   2  -3   14.36    0.79
   4   2   3   15.15    0.67
  -4   2  -3   15.45    0.69
   4   2   3   14.45    0.65
   4   2   3   13.73    1.14
  -4   2  -3   14.94    0.69
  -4   2  -3   15.35    0.83
  -4   2  -3   14.72    0.72
   5  -2   3   15.46    0.86
   5  -2   3   15.93    0.84
  -5  -2  -3   16.75    0.72
  -5  -2  -3   17.04    0.87
  -5  -2  -3   16.20    0.74
   5  -2   3   15.55    0.83
  -5  -2  -3   15.91    0.83
  -5  -2  -3   17.31    0.85
   5  -2   3   14.81    1.20
  -5  -2  -3   16.44    0.82
  -5  -2  -3   14.60    0.83
   5  -2   3   16.70    0.80
   5   2   3   15.45    0.71
  -5   2  -3   16.88    0.83
   5   2   3   16.60    0.74
  -5   2  -3   16.56    1.14
   5   2   3   15.19    1.08
  -5   2  -3   16.20    0.84
  -5   2  -3   17.32    0.91
  -5   2  -3   16.35    0.78
  -5   2  -3   17.15    1.02
   5   2   3   16.17    0.73
  -6  -2  -3    8.02    0.57
  -6  -2  -3    7.44    0.64
  -6  -2  -3    7.13    0.63
  -6  -2  -3    7.03    0.43
   6  -2   3    8.00    0.86
  -6  -2  -3    7.45    0.44
   6  -2   3    6.70    0.63
   6  -2   3    6.77    0.58
  -6  -2  -3    7.30    0.45
   6   2   3    7.29    0.45
   6   2   3    7.90    0.48
  -6   2  -3    6.93    1.04
  -6   2  -3    7.34    0.52
  -6   2  -3    6.78    0.71
  -6   2  -3    7.10    0.52
  -6   2  -3    6.77    0.54
  -6   2  -3    8.08    0.58
   6   2   3    6.90    0.84
  -6   2  -3    6.75    0.80
  -7  -2  -3    7.83    0.47
  -7  -2  -3    7.54    0.44
  -7  -2  -3    7.79    0.73
  -7  -2  -3    8.03    0.68
   7  -2   3    7.41    0.55
   7  -2   3    7.59    0.64
   7  -2   3    7.01    0.57
  -7  -2  -3    7.83    0.45
   7   2   3    8.04    0.44
   7   2   3    8.13    0.50
   7   2   3    8.18    0.50
  -7   2  -3    7.67    0.82
  -7   2  -3    8.67    1.09
   7   2   3    8.21    0.59
  -7   2  -3    6.68    0.81
  -7   2  -3    8.04    0.52
  -7   2  -3    7.83    0.53
  -7   2  -3    7.65    0.55
   8  -2   3    0.75    0.24
   8  -2   3    1.36    0.31
  -8  -2  -3    0.83    0.35
  -8  -2  -3    0.90    0.17
  -8  -2  -3    0.88    0.34
  -8  -2  -3    1.02    0.18
  -8   2  -3    0.67    0.36
  -8   2  -3    1.42    0.50
  -8   2  -3    0.83    0.24
  -8   2  -3    1.04    0.41
   8   2   3    1.22    0.17
   8   2   3    1.11    0.23
  -8   2  -3    1.30    0.28
   8   2   3    0.91    0.27
   8   2   3    0.82    0.24
  -8   2  -3    0.79    0.23
  -9   2  -3    0.37    0.29
  -9   2  -3    0.44    0.14
  -9   2  -3    0.50    0.16
  -9  -3   3    3.53    0.28
  -9  -3   3    3.23    0.24
  -9   3   3    2.82    0.30
  -9   3   3    2.54    0.45
  -9   3   3    2.66    0.31
  -8  -3   3    6.01    0.38
  -8  -3   3    6.66    0.38
  -8  -3   3    6.53    0.39
  -8  -3   3    7.11    0.59
  -8   3   3    6.67    0.46
  -8   3   3    7.69    0.81
  -8   3   3    6.38    0.46
  -8   3   3    5.54    0.42
   8   3  -3    6.43    0.39
   8   3  -3    6.79    0.42
  -8   3   3    8.57    0.75
  -7  -3   3    1.09    0.34
  -7  -3   3    1.70    0.25
  -7  -3   3    1.46    0.23
  -7  -3   3    1.50    0.24
  -7   3   3    1.58    0.52
  -7   3   3    1.62    0.30
  -7   3   3    1.44    0.30
  -7   3   3    2.07    0.82
   7   3  -3    1.33    0.24
  -7   3   3    1.47    0.31
   7   3  -3    1.64    0.26
  -7   3   3    2.54    0.51
  -7   3   3    1.43    0.50
  -6  -3   3    8.56    0.56
  -6  -3   3    8.03    0.70
   6  -3  -3    9.28    0.48
  -6  -3   3    6.85    0.47
  -6  -3   3    6.13    0.41
  -6   3   3    7.91    0.78
  -6   3   3    9.02    0.94
   6   3  -3    8.06    0.55
   6   3  -3    7.99    0.42
  -6   3   3    7.76    0.56
   6   3  -3    9.41    0.80
   6   3  -3    7.77    0.55
  -6   3   3    7.57    0.81
  -6   3   3    7.35    0.54
   6   3  -3    7.06    0.55
   5  -3  -3   21.64    1.38
  -5  -3   3   22.07    0.95
  -5  -3   3   20.50    1.06
  -5  -3   3   19.51    0.89
  -5  -3   3   20.60    0.98
   5  -3  -3   20.24    1.33
   5  -3  -3   23.21    0.91
   5   3  -3   20.66    0.91
  -5   3   3   20.88    0.96
   5   3  -3   20.52    0.95
   5   3  -3   21.48    0.99
  -5   3   3   23.20    1.22
  -5   3   3   25.66    1.53
  -5   3   3   21.30    1.18
  -5   3   3   20.43    0.96
  -5   3   3   21.30    1.09
   5   3  -3   20.80    0.97
  -5   3   3   22.33    1.21
   5   3  -3   21.03    1.20
  -4  -3   3    5.33    0.42
  -4  -3   3    4.45    0.52
  -4  -3   3    5.15    0.34
   4  -3  -3    4.84    0.35
   4  -3  -3    5.32    0.39
   4  -3  -3    3.95    0.52
  -4  -3   3    5.64    0.36
  -4   3   3    5.26    0.73
   4   3  -3    4.65    0.41
   4   3  -3    4.27    0.39
   4   3  -3    6.12    0.77
   4   3  -3    4.42    0.60
  -4   3   3    5.22    0.67
  -4   3   3    4.72    0.67
   4   3  -3    4.61    0.35
  -4   3   3    4.88    0.61
   4   3  -3    4.13    0.40
   4   3  -3    5.20    0.76
  -4   3   3    4.25    0.37
  -4   3   3    4.63    0.53
  -4   3   3    4.75    0.41
   3  -3  -3    5.40    0.36
  -3  -3   3    5.03    0.35
  -3  -3   3    5.10    0.37
   3  -3  -3    4.69    0.44
  -3  -3   3    6.29    0.46
   3  -3  -3    5.60    0.57
   3   3  -3    4.76    0.37
  -3   3   3    5.69    0.54
   3   3  -3    4.94    0.36
  -3   3   3    5.26    0.59
   3   3  -3    4.71    0.39
   3   3  -3    5.22    0.34
   3   3  -3    5.50    0.67
  -3   3   3    4.49    0.59
  -3   3   3    5.10    0.49
  -3   3   3    5.24    0.56
   3   3  -3    5.12    0.58
  -3   3   3    3.84    0.59
   3   3  -3    4.88    0.57
   2  -3  -3    3.47    0.53
  -2  -3   3    3.84    0.56
  -2  -3   3    4.02    0.37
  -2  -3   3    2.83    0.37
   2  -3  -3    3.35    0.41
   2  -3  -3    3.35    0.33
  -2  -3   3    3.34    0.33
  -2  -3   3    4.25    0.37
  -2   3   3    3.53    0.26
   2   3  -3    3.52    0.29
   2   3  -3    3.43    0.32
   2   3  -3    3.04    0.43
  -2   3   3    3.47    0.56
   2   3  -3    3.54    0.55
   2   3  -3    3.31    0.32
   2   3  -3    3.22    0.31
  -2   3   3    3.84    0.43
  -2   3   3    3.74    0.26
  -2   3   3    3.43    0.53
  -1  -3   3   14.38    0.67
   1  -3  -3   14.49    0.95
  -1  -3   3   14.41    0.99
   1  -3  -3   14.59    0.67
   1  -3  -3   14.97    0.69
   1  -3  -3   13.66    0.69
  -1  -3   3   14.09    0.68
   1  -3  -3   14.73    0.77
   1   3  -3   15.18    0.66
   1   3  -3   13.74    0.70
   1   3  -3   14.21    0.66
   1   3  -3   14.95    0.64
   1   3  -3   13.92    0.75
  -1   3   3   15.29    0.63
   1   3  -3   14.80    0.87
  -1   3   3   15.52    0.64
  -1   3   3   15.40    0.74
  -1   3   3   14.25    0.99
  -1   3   3   14.18    0.80
   0  -3  -3    0.23    0.27
   0  -3  -3    0.09    0.22
   0  -3   3   -0.02    0.41
   0  -3   3    0.31    0.24
   0  -3   3    0.00    0.16
   0  -3  -3    0.19    0.28
   0  -3   3    0.03    0.20
   0  -3  -3    0.28    0.20
   0  -3   3    0.05    0.18
   0  -3  -3    0.10    0.17
   0   3   3    0.52    0.29
   0   3  -3    0.06    0.27
   0   3   3    0.24    0.39
   0   3  -3    0.16    0.31
   0   3   3    0.31    0.14
   0   3  -3    0.05    0.16
   0   3   3    0.31    0.13
   0   3  -3    0.08    0.14
   0   3  -3    0.10    0.16
   0   3  -3    0.29    0.25
   0   3  -3    0.36    0.16
   0   3   3    0.43    0.26
   0   3  -3    0.21    0.23
   1  -3   3    3.96    0.42
  -1  -3  -3    3.95    0.41
   1  -3   3    3.88    0.32
  -1  -3  -3    3.29    0.42
  -1  -3  -3    3.93    0.37
  -1  -3  -3    4.50    0.68
   1  -3   3    3.23    0.55
   1  -3   3    3.16    0.46
  -1  -3  -3    4.10    0.47
   1  -3   3    4.84    0.47
   1  -3   3    3.73    0.39
  -1   3  -3    3.52    0.50
   1   3   3    3.73    0.50
  -1   3  -3    3.67    0.41
  -1   3  -3    5.57    0.63
   1   3   3    4.27    0.48
   1   3   3    3.95    0.29
   1   3   3    3.68    0.28
  -1   3  -3    3.65    0.28
  -1   3  -3    4.16    0.56
   1   3   3    3.94    0.23
   1   3   3    4.39    0.60
   1   3   3    4.17    0.69
  -1   3  -3    3.85    0.26
   2  -3   3   10.46    0.59
   2  -3   3    9.94    0.94
   2  -3   3   10.51    0.66
  -2  -3  -3   10.63    0.59
  -2  -3  -3   10.63    0.60
   2  -3   3    9.39    0.54
  -2  -3  -3   10.59    0.68
  -2  -3  -3   10.26    0.59
  -2  -3  -3   10.89    0.90
  -2  -3  -3   10.73    0.56
  -2   3  -3    9.06    0.73
   2   3   3   10.25    0.93
   2   3   3   11.23    0.76
   2   3   3   10.20    0.47
  -2   3  -3   10.66    0.54
  -2   3  -3    9.81    0.65
  -2   3  -3    9.08    0.54
   2   3   3   11.54    0.97
   2   3   3   10.52    0.47
  -2   3  -3   10.50    0.46
  -2   3  -3   12.94    0.73
  -2   3  -3   10.27    0.94
   2   3   3   10.72    0.49
  -2   3  -3    9.06    0.60
   2   3   3   10.97    0.60
   2   3   3   10.98    0.52
   2   3   3   10.23    0.49
   3  -3   3    1.92    0.54
   3  -3   3    2.07    0.30
  -3  -3  -3    2.35    0.40
  -3  -3  -3    2.79    0.26
  -3  -3  -3    2.51    0.32
   3  -3   3    2.30    0.34
  -3  -3  -3    2.93    0.31
  -3  -3  -3    2.17    0.49
  -3  -3  -3    2.20    0.30
  -3  -3  -3    2.75    0.24
  -3   3  -3    1.87    0.26
   3   3   3    2.16    0.24
  -3   3  -3    2.50    0.45
   3   3   3    2.45    0.31
   3   3   3    2.18    0.26
  -3   3  -3    3.25    0.32
   3   3   3    2.25    0.25
   3   3   3    2.04    0.60
   3   3   3    2.40    0.29
  -3   3  -3    2.13    0.30
  -3   3  -3    1.61    0.26
  -3   3  -3    2.73    0.47
   3   3   3    1.91    0.45
   3   3   3    2.21    0.55
  -3   3  -3    2.40    0.39
  -3   3  -3    2.43    0.53
   4  -3   3    6.92    0.60
  -4  -3  -3    6.63    0.66
   4  -3   3    6.29    0.54
  -4  -3  -3    7.16    0.53
   4  -3   3    5.80    1.05
  -4  -3  -3    6.83    0.58
  -4  -3  -3    7.23    0.43
  -4  -3  -3    6.41    0.54
  -4   3  -3    7.75    0.56
   4   3   3    6.04    0.35
  -4   3  -3    5.90    0.52
  -4   3  -3    7.55    0.53
   4   3   3    6.90    0.41
   4   3   3    6.57    0.41
  -4   3  -3    7.10    0.53
   4   3   3    6.58    0.78
  -4   3  -3    6.43    0.63
   4   3   3    5.85    0.89
   4   3   3    6.83    0.43
   4   3   3    7.41    0.55
  -4   3  -3    7.10    0.88
  -4   3  -3    6.45    0.74
   4   3   3    6.61    0.40
  -5  -3  -3    3.78    0.33
   5  -3   3    3.56    0.53
  -5  -3  -3    3.69    0.51
  -5  -3  -3    3.76    0.47
   5  -3   3    3.91    0.46
  -5  -3  -3    3.62    0.32
   5  -3   3    3.99    0.75
   5   3   3    4.01    0.38
   5   3   3    3.83    0.39
   5   3   3    3.85    0.33
  -5   3  -3    3.26    0.71
   5   3   3    2.34    0.47
   5   3   3    4.21    0.34
   5   3   3    3.42    0.81
  -5   3  -3    3.96    0.49
   5   3   3    3.70    0.45
  -5   3  -3    4.21    0.49
  -5   3  -3    4.23    0.51
  -5   3  -3    3.49    0.75
  -5   3  -3    4.50    0.64
  -5   3  -3    3.82    0.54
   6  -3   3   21.95    1.10
  -6  -3  -3   23.09    1.09
  -6  -3  -3   22.84    0.96
   6  -3   3   24.28    1.16
  -6  -3  -3   23.29    0.97
   6   3   3   23.75    1.02
  -6   3  -3   21.05    1.37
   6   3   3   24.10    0.98
  -6   3  -3   22.51    1.45
  -6   3  -3   24.28    1.06
  -6   3  -3   23.81    1.30
  -6   3  -3   22.63    1.19
   6   3   3   24.92    1.11
  -6   3  -3   24.22    1.07
  -6   3  -3   21.10    1.07
   6   3   3   23.00    1.01
   7  -3   3    2.19    0.38
  -7  -3  -3    2.84    0.49
   7  -3   3    2.47    0.35
  -7  -3  -3    2.37    0.28
  -7  -3  -3    2.91    0.29
  -7   3  -3    2.76    0.34
   7   3   3    2.57    0.34
  -7   3  -3    2.58    0.60
  -7   3  -3    2.30    0.30
   7   3   3    2.44    0.26
   7   3   3    3.19    0.35
  -7   3  -3    3.01    0.41
   7   3   3    2.27    0.37
  -7   3  -3    1.54    0.45
  -7   3  -3    1.72    0.43
  -8  -3  -3    3.42    0.44
  -8  -3  -3    3.41    0.41
   8   3   3    3.03    0.23
  -8   3  -3    3.00    0.49
  -8   3  -3    3.18    0.30
  -8   3  -3    3.17    0.36
  -8   3  -3    2.96    0.32
   8   3   3    2.89    0.34
  -8   3  -3    3.28    0.59
  -8   3  -3    3.44    0.47
  -8  -4   3    5.61    0.30
  -8  -4   3    5.63    0.29
  -8   4   3    6.15    0.85
  -8   4   3    6.24    0.66
  -8   4   3    4.96    0.51
   8   4  -3    4.82    0.33
   8   4  -3    5.08    0.34
  -8   4   3    4.51    0.31
  -8   4   3    4.68    0.31
  -7  -4   3    0.83    0.34
  -7  -4   3    0.52    0.17
  -7  -4   3    0.77    0.18
  -7  -4   3    0.74    0.17
  -7   4   3    0.88    0.58
  -7   4   3    0.45    0.45
  -7   4   3    0.52    0.27
   7   4  -3    0.68    0.19
  -7   4   3    0.75    0.27
   7   4  -3    0.44    0.17
  -7   4   3    0.96    0.43
  -7   4   3    1.07    1.01
   7   4  -3    0.53    0.19
  -6  -4   3    7.18    0.54
  -6  -4   3    8.31    0.62
   6  -4  -3    9.07    0.54
   6  -4  -3    6.14    0.72
  -6  -4   3    7.65    0.44
   6   4  -3    7.15    0.46
  -6   4   3    7.79    0.82
   6   4  -3    8.07    0.53
  -6   4   3    7.91    0.74
  -6   4   3    8.23    0.95
   6   4  -3    7.67    0.42
  -6   4   3    7.37    0.53
  -6   4   3    9.00    1.45
   6   4  -3    7.66    0.49
  -6   4   3    8.19    0.57
  -5  -4   3   21.77    1.03
   5  -4  -3   25.25    1.49
  -5  -4   3   21.33    1.07
  -5  -4   3   21.13    0.94
   5  -4  -3   23.16    1.01
   5  -4  -3   21.58    1.03
  -5   4   3   21.39    1.01
  -5   4   3   20.86    0.99
  -5   4   3   23.11    1.29
  -5   4   3   22.35    1.16
  -5   4   3   23.06    1.33
   5   4  -3   22.14    0.95
   5   4  -3   21.76    1.28
   5   4  -3   20.55    1.06
  -5   4   3   23.23    1.25
   5   4  -3   21.46    0.98
   5   4  -3   22.72    0.99
  -5   4   3   22.56    1.63
   5   4  -3   21.76    1.04
   4  -4  -3   13.27    0.72
  -4  -4   3   13.71    0.65
  -4  -4   3   13.83    0.75
  -4  -4   3   14.05    0.75
  -4  -4   3   13.15    0.64
   4  -4  -3   11.83    0.74
   4  -4  -3   12.49    1.20
  -4  -4   3   12.48    0.63
   4   4  -3   12.53    0.66
  -4   4   3   13.51    1.01
  -4   4   3   14.02    1.31
  -4   4   3   13.40    0.70
   4   4  -3   15.13    0.83
  -4   4   3   11.92    0.69
  -4   4   3   13.41    0.86
  -4   4   3   12.82    0.95
   4   4  -3   12.92    0.71
   4   4  -3   12.50    0.73
   4   4  -3   13.09    0.66
  -4   4   3   13.25    1.01
  -3  -4   3    3.25    0.42
  -3  -4   3    1.87    0.28
  -3  -4   3    2.87    0.37
   3  -4  -3    2.68    0.35
   3  -4  -3    3.03    0.41
  -3  -4   3    3.19    0.37
   3  -4  -3    2.13    0.58
   3  -4  -3    3.67    0.51
   3   4  -3    2.47    0.36
  -3   4   3    2.74    0.50
  -3   4   3    2.59    0.31
   3   4  -3    2.65    0.28
   3   4  -3    2.78    0.33
  -3   4   3    2.91    0.53
   3   4  -3    2.82    0.37
  -3   4   3    2.65    0.31
   3   4  -3    2.47    0.30
  -3   4   3    2.84    0.38
  -3   4   3    3.35    0.56
  -3   4   3    2.73    0.74
  -3   4   3    3.05    0.44
   3   4  -3    2.72    0.22
   2  -4  -3   12.17    0.93
   2  -4  -3   10.27    0.63
  -2  -4   3   11.42    0.60
   2  -4  -3   11.95    0.63
  -2  -4   3   12.28    0.66
   2  -4  -3   11.13    0.68
  -2  -4   3   11.41    0.68
   2  -4  -3   11.14    0.72
  -2  -4   3   11.40    0.60
   2  -4  -3   11.12    0.59
  -2  -4   3   11.46    0.65
   2  -4  -3   10.15    0.69
  -2   4   3    9.84    0.58
   2   4  -3   11.43    0.55
  -2   4   3   10.35    0.85
  -2   4   3   11.31    0.86
  -2   4   3   10.90    0.57
  -2   4   3   11.56    0.72
  -2   4   3    9.91    1.10
   2   4  -3   11.43    0.62
  -2   4   3   11.23    0.82
  -2   4   3   10.26    0.57
   2   4  -3   11.36    0.57
   2   4  -3   11.19    0.75
   1  -4  -3    3.02    0.55
   1  -4  -3    3.50    0.53
   1  -4  -3    3.08    0.38
  -1  -4   3    3.29    0.43
  -1  -4   3    3.91    0.69
  -1  -4   3    3.21    0.37
  -1  -4   3    2.92    0.38
  -1  -4   3    3.01    0.33
   1  -4  -3    3.26    0.37
   1  -4  -3    3.76    0.38
   1  -4  -3    2.92    0.34
  -1  -4   3    3.14    0.39
   1  -4  -3    3.56    0.45
   1   4  -3    3.03    0.40
  -1   4   3    3.64    0.65
  -1   4   3    3.31    0.31
  -1   4   3    3.94    0.34
  -1   4   3    4.15    0.62
  -1   4   3    3.93    0.65
  -1   4   3    2.56    0.38
   1   4  -3    3.32    0.34
  -1   4   3    3.79    0.49
  -1   4   3    3.31    0.32
  -1   4   3    3.97    0.52
   1   4  -3    2.71    0.42
   0  -4  -3    7.19    0.52
   0  -4  -3    6.18    0.53
   0  -4  -3    6.32    0.47
   0  -4   3    6.32    0.53
   0  -4  -3    6.06    0.49
   0  -4  -3    6.20    0.56
   0  -4   3    5.83    0.95
   0  -4   3    6.19    0.51
   0  -4  -3    6.23    0.59
   0  -4  -3    6.04    0.80
   0  -4   3    6.22    0.47
   0  -4   3    6.17    0.53
   0   4   3    6.04    0.38
   0   4  -3    6.22    0.46
   0   4   3    5.96    0.94
   0   4  -3    6.02    0.56
   0   4   3    6.51    0.49
   0   4   3    6.95    0.70
   0   4  -3    6.32    0.42
   0   4  -3    5.80    0.68
   0   4  -3    5.29    0.61
   0   4  -3    6.16    0.47
   0   4  -3    6.30    0.62
   0   4   3    6.37    0.40
   0   4  -3    6.67    0.41
   0   4   3    5.72    0.65
   0   4  -3    6.09    0.57
   0   4   3    6.55    0.67
  -1  -4  -3   18.71    0.93
  -1  -4  -3   18.28    1.04
  -1  -4  -3   19.92    0.92
  -1  -4  -3   20.69    1.41
  -1  -4  -3   18.71    0.87
  -1  -4  -3   19.05    0.87
   1  -4   3   17.69    1.36
   1  -4   3   19.58    0.90
   1  -4   3   21.22    1.03
   1  -4   3   20.91    0.95
   1  -4   3   20.80    0.94
   1  -4   3   19.25    0.94
  -1  -4  -3   20.81    0.96
  -1   4  -3   20.44    0.98
   1   4   3   16.41    1.02
  -1   4  -3   19.38    0.83
   1   4   3   19.11    0.86
  -1   4  -3   19.32    0.99
   1   4   3   20.00    0.83
   1   4   3   19.78    0.94
  -1   4  -3   17.51    1.15
   1   4   3   18.04    1.04
  -1   4  -3   17.89    1.05
   1   4   3   17.47    1.26
  -1   4  -3   19.94    0.88
  -1   4  -3   19.30    0.89
  -1   4  -3   18.30    1.00
  -2  -4  -3    4.57    0.54
  -2  -4  -3    5.20    0.48
   2  -4   3    4.71    0.52
   2  -4   3    4.83    0.83
  -2  -4  -3    5.05    0.55
   2  -4   3    5.71    0.64
  -2  -4  -3    4.68    0.57
   2  -4   3    4.95    0.54
   2  -4   3    4.78    0.56
  -2  -4  -3    5.20    0.54
  -2  -4  -3    5.21    0.61
  -2  -4  -3    5.29    0.53
  -2   4  -3    5.04    0.58
  -2   4  -3    5.31    0.50
   2   4   3    5.30    0.41
  -2   4  -3    6.46    0.54
   2   4   3    6.79    0.75
   2   4   3    4.96    0.36
  -2   4  -3    5.46    0.68
  -2   4  -3    4.47    0.70
  -2   4  -3    4.92    0.80
   2   4   3    4.80    0.69
  -3  -4  -3    1.55    0.26
  -3  -4  -3    2.43    0.52
   3  -4   3    1.38    0.62
  -3  -4  -3    1.89    0.25
  -3  -4  -3    1.54    0.43
   3  -4   3    1.37    0.46
   3  -4   3    1.64    0.33
  -3  -4  -3    1.80    0.35
   3  -4   3    1.83    0.32
   3  -4   3    2.55    0.59
   3  -4   3    1.75    0.39
   3   4   3    2.38    0.26
   3   4   3    1.10    0.28
   3   4   3    1.84    0.57
  -3   4  -3    2.38    0.38
  -3   4  -3    1.37    0.59
   3   4   3    1.63    0.50
  -3   4  -3    1.81    0.33
   3   4   3    1.31    0.24
  -3   4  -3    1.45    0.33
  -3   4  -3    0.65    0.63
  -3   4  -3    1.81    0.34
  -3   4  -3    1.68    0.51
  -3   4  -3    1.38    0.42
   4  -4   3    0.94    0.40
  -4  -4  -3    1.13    0.29
  -4  -4  -3    1.40    0.25
   4  -4   3    1.35    0.30
   4  -4   3    2.29    0.70
  -4  -4  -3    1.55    0.32
   4  -4   3    1.63    0.39
   4  -4   3    1.22    0.33
  -4   4  -3    1.47    0.51
  -4   4  -3    1.65    0.31
   4   4   3    0.69    0.33
  -4   4  -3    1.44    0.61
   4   4   3    1.89    0.28
  -4   4  -3    1.72    0.35
  -4   4  -3    2.04    0.38
   4   4   3    1.76    0.21
  -4   4  -3    0.71    0.58
  -4   4  -3    1.82    0.46
   4   4   3    0.50    0.38
   4   4   3    1.55    0.32
  -4   4  -3    1.70    0.29
   5  -4   3    6.13    0.59
   5  -4   3    5.81    0.67
  -5  -4  -3    6.10    0.37
   5  -4   3    6.21    0.52
  -5  -4  -3    6.53    0.59
   5  -4   3    6.02    0.63
   5  -4   3    6.02    0.61
  -5  -4  -3    6.26    0.53
  -5  -4  -3    6.08    0.36
  -5   4  -3    7.04    1.00
  -5   4  -3    6.11    0.55
  -5   4  -3    6.17    0.68
  -5   4  -3    5.61    0.77
   5   4   3    6.73    0.43
   5   4   3    6.71    0.43
  -5   4  -3    7.78    0.54
  -5   4  -3    7.42    0.57
  -5   4  -3    5.80    0.97
   5   4   3    6.21    0.50
   5   4   3    6.39    0.39
  -6  -4  -3    4.81    0.29
   6  -4   3    4.06    0.56
   6  -4   3    4.31    0.47
  -6  -4  -3    4.95    0.30
   6  -4   3    4.58    0.58
  -6   4  -3    4.20    0.44
  -6   4  -3    3.82    0.63
  -6   4  -3    4.92    0.47
  -6   4  -3    4.52    0.80
   6   4   3    4.41    0.37
   6   4   3    4.48    0.30
  -6   4  -3    4.16    0.68
  -6   4  -3    4.73    0.70
  -6   4  -3    4.48    0.44
   7  -4   3    0.75    0.26
   7  -4   3    1.37    0.27
  -7  -4  -3    0.98    0.26
  -7  -4  -3    1.42    0.34
  -7   4  -3    0.93    0.32
  -7   4  -3    0.99    0.39
   7   4   3    1.28    0.16
  -7   4  -3    0.60    0.49
  -7   4  -3    1.04    0.25
  -7   4  -3    0.97    0.34
  -7   4  -3    0.82    0.24
  -7  -5   3    0.50    0.20
  -7   5   3    1.12    0.47
  -7   5   3   -0.19    0.45
  -7   5   3    0.70    0.34
  -6  -5   3    1.60    0.27
  -6  -5   3    2.03    0.24
   6   5  -3    1.47    0.22
  -6   5   3    1.53    0.22
  -6   5   3    2.76    0.52
   6   5  -3    1.76    0.20
  -6   5   3    2.35    0.54
   6   5  -3    1.10    0.16
  -6   5   3    2.03    0.44
   5  -5  -3    9.80    0.65
   5  -5  -3   10.79    0.64
   5  -5  -3   11.48    0.59
  -5  -5   3    9.94    0.61
  -5   5   3   10.15    0.85
   5   5  -3    7.87    0.73
   5   5  -3    9.59    0.49
  -5   5   3   11.04    0.97
  -5   5   3    9.06    0.53
   5   5  -3    7.85    0.65
  -5   5   3    8.68    0.52
  -5   5   3   10.59    0.79
  -5   5   3   10.57    0.83
   4  -5  -3   -0.20    0.33
   4  -5  -3    0.49    0.30
  -4  -5   3    0.15    0.20
  -4  -5   3    0.30    0.30
   4  -5  -3    0.67    0.35
   4  -5  -3    0.22    0.32
  -4   5   3    0.93    0.53
   4   5  -3    0.41    0.29
  -4   5   3    0.19    0.26
   4   5  -3    0.13    0.19
  -4   5   3   -0.01    0.24
  -4   5   3    0.96    0.55
  -4   5   3    0.26    0.47
   4   5  -3    0.26    0.21
  -4   5   3    0.57    0.66
  -4   5   3    0.66    0.50
  -3  -5   3    3.17    0.38
  -3  -5   3    2.45    0.30
  -3  -5   3    2.41    0.38
   3  -5  -3    2.68    0.41
   3  -5  -3    3.71    0.53
   3  -5  -3    2.63    1.08
   3  -5  -3    2.43    0.43
   3  -5  -3    2.82    0.42
  -3   5   3    3.52    0.50
  -3   5   3    3.30    0.59
  -3   5   3    3.02    0.78
  -3   5   3    3.35    0.54
   3   5  -3    2.92    0.37
  -3   5   3    2.55    0.32
   3   5  -3    3.15    0.32
   3   5  -3    2.40    0.41
  -3   5   3    3.81    0.65
  -3   5   3    2.97    0.60
   2  -5  -3    2.95    0.41
   2  -5  -3    3.90    0.88
   2  -5  -3    4.58    0.51
  -2  -5   3    3.31    0.41
  -2  -5   3    3.47    0.42
  -2  -5   3    2.68    0.34
   2  -5  -3    3.24    0.39
   2  -5  -3    3.00    0.47
   2  -5  -3    3.34    0.44
  -2  -5   3    2.84    0.41
   2  -5  -3    3.14    0.44
   2   5  -3    3.68    0.47
  -2   5   3    3.07    0.55
   2   5  -3    2.67    0.41
  -2   5   3    4.95    0.85
  -2   5   3    3.90    0.77
  -2   5   3    4.83    0.83
   2   5  -3    3.38    0.40
  -2   5   3    3.26    0.41
  -2   5   3    3.20    0.35
   1  -5  -3    7.61    0.72
  -1  -5   3    8.11    0.66
  -1  -5   3    8.31    0.67
   1  -5  -3    7.77    0.63
   1  -5  -3    8.17    0.68
  -1  -5   3    7.99    0.65
   1  -5  -3    7.50    0.69
  -1  -5   3    8.12    0.54
   1  -5  -3    8.71    0.58
  -1  -5   3    8.38    0.67
   1  -5  -3    7.29    0.61
  -1  -5   3    9.47    0.94
   1   5  -3    7.88    0.55
   1   5  -3    7.48    0.75
  -1   5   3    7.61    0.49
  -1   5   3   10.40    0.97
   1   5  -3    8.50    0.52
   1   5  -3    7.96    0.71
  -1   5   3    7.76    0.78
  -1   5   3    7.70    0.57
  -1   5   3    8.04    1.10
  -1   5   3    8.69    0.88
   0  -5  -3   30.48    1.30
   0  -5   3   31.25    1.38
   0  -5   3   32.60    1.86
   0  -5  -3   29.40    1.34
   0  -5   3   32.97    1.33
   0  -5   3   32.70    1.36
   0  -5   3   30.35    1.41
   0  -5  -3   29.91    1.37
   0  -5   3   30.99    1.38
   0  -5   3   30.00    1.28
   0  -5  -3   30.41    1.37
   0  -5  -3   29.18    1.50
   0  -5  -3   29.20    1.29
   0   5  -3   28.48    1.45
   0   5  -3   29.72    1.25
   0   5  -3   31.62    1.41
   0   5   3   28.52    1.28
   0   5  -3   29.64    1.50
   0   5   3   32.45    1.79
   0   5   3   27.43    1.45
   0   5   3   29.73    1.33
   0   5   3   25.64    1.39
   0   5   3   29.93    1.54
   1  -5   3   34.03    1.42
   1  -5   3   37.02    2.08
  -1  -5  -3   33.49    1.42
  -1  -5  -3   33.39    1.65
   1  -5   3   35.42    1.53
   1  -5   3   34.93    1.55
  -1  -5  -3   34.46    1.43
   1  -5   3   32.91    1.56
  -1  -5  -3   33.36    1.48
   1  -5   3   35.33    1.47
  -1  -5  -3   33.22    1.50
   1  -5   3   35.98    1.50
  -1  -5  -3   33.56    1.46
  -1  -5  -3   33.60    1.50
  -1   5  -3   35.14    1.54
  -1   5  -3   34.03    1.54
   1   5   3   33.07    1.43
  -1   5  -3   34.77    1.44
  -1   5  -3   33.59    1.38
  -1   5  -3   32.76    1.69
  -1   5  -3   34.08    1.44
   1   5   3   34.01    1.48
  -1   5  -3   30.23    1.58
   1   5   3   34.65    1.84
  -1   5  -3   33.05    1.59
   1   5   3   32.46    1.37
   2  -5   3    2.78    0.88
  -2  -5  -3    1.68    0.29
  -2  -5  -3    1.88    0.38
  -2  -5  -3    2.09    0.35
  -2  -5  -3    1.76    0.28
   2  -5   3    1.19    0.36
  -2  -5  -3    0.94    0.42
   2  -5   3    2.24    0.52
   2  -5   3    1.29    0.42
  -2  -5  -3    1.73    0.35
   2  -5   3    1.17    0.35
   2  -5   3    0.96    0.31
  -2   5  -3    1.22    0.36
  -2   5  -3    2.30    0.49
  -2   5  -3    1.40    0.36
  -2   5  -3    1.55    0.60
   2   5   3    2.25    0.56
   2   5   3    1.23    0.22
  -2   5  -3    1.42    0.53
  -2   5  -3    2.23    0.38
  -2   5  -3    1.54    0.57
   2   5   3    1.46    0.31
   2   5   3    1.49    0.23
  -3  -5  -3    5.86    0.56
   3  -5   3    5.18    0.67
  -3  -5  -3    6.48    0.52
   3  -5   3    5.46    0.67
  -3  -5  -3    6.20    0.47
   3  -5   3    5.41    0.50
   3  -5   3    7.01    0.76
   3  -5   3    6.51    0.58
  -3   5  -3    5.40    0.53
   3   5   3    6.30    0.56
  -3   5  -3    6.93    0.56
  -3   5  -3    6.26    0.78
  -3   5  -3    6.45    0.72
   3   5   3    5.94    0.38
  -3   5  -3    5.94    0.54
  -3   5  -3    6.51    0.92
  -3   5  -3    5.89    0.90
   3   5   3    5.82    0.44
  -4  -5  -3    3.86    0.48
  -4  -5  -3    4.46    0.39
   4  -5   3    3.30    0.44
   4  -5   3    4.19    0.45
   4  -5   3    3.69    0.48
   4  -5   3    4.50    0.54
   4  -5   3    4.66    0.51
  -4  -5  -3    4.18    0.46
  -4   5  -3    4.38    0.68
  -4   5  -3    5.94    0.88
   4   5   3    4.24    0.47
  -4   5  -3    4.48    0.50
  -4   5  -3    4.05    0.65
  -4   5  -3    4.42    0.45
  -4   5  -3    3.90    0.72
   4   5   3    5.44    0.41
  -5  -5  -3    8.87    0.43
   5  -5   3    9.00    0.64
  -5  -5  -3    9.07    0.56
   5  -5   3    8.64    0.71
  -5  -5  -3    8.66    0.42
   5  -5   3    9.83    0.67
   5  -5   3   10.66    0.63
  -5  -5  -3    9.87    0.54
  -5   5  -3    9.55    0.56
  -5   5  -3    9.55    0.91
  -5   5  -3   10.28    0.90
   5   5   3   10.85    0.56
  -5   5  -3    9.11    0.89
  -5   5  -3    9.46    0.55
  -5   5  -3    9.74    0.72
   5   5   3    8.90    0.56
   5   5   3    8.33    0.42
   6  -5   3    3.94    0.40
  -6  -5  -3    1.78    0.34
  -6   5  -3    3.43    0.58
  -6   5  -3    2.43    0.73
  -6   5  -3    2.87    0.33
  -6   5  -3    1.97    0.39
  -6   5  -3    2.81    0.32
  -6   5  -3    3.13    0.49
  -6   6   3   -0.07    0.35
  -6   6   3   -0.25    0.35
   5  -6  -3    2.48    0.32
  -5  -6   3    1.81    0.26
   5  -6  -3    1.39    0.19
  -5   6   3    1.80    0.52
   5   6  -3    2.41    0.32
  -4  -6   3    2.58    0.32
   4  -6  -3    2.78    0.45
  -4  -6   3    2.66    0.31
   4  -6  -3    3.09    0.53
   4  -6  -3    2.30    0.27
   4   6  -3    3.38    0.32
   4   6  -3    2.46    0.30
  -4   6   3    4.24    0.74
   4   6  -3    2.84    0.34
  -4   6   3    3.97    0.64
   3  -6  -3    0.30    0.20
   3  -6  -3    0.57    0.33
   3  -6  -3    0.00    0.30
  -3  -6   3    0.12    0.20
   3  -6  -3   -0.02    0.29
  -3  -6   3    1.02    0.33
   3  -6  -3   -0.04    0.30
   3   6  -3    0.23    0.16
   3   6  -3    0.38    0.20
  -3   6   3    0.71    0.50
   3   6  -3    0.31    0.26
  -3   6   3    1.04    0.49
  -3   6   3    0.61    0.45
   2  -6  -3    0.36    0.48
   2  -6  -3    0.36    0.25
  -2  -6   3   -0.02    0.25
  -2  -6   3    0.40    0.24
   2  -6  -3    0.54    0.34
   2  -6  -3    0.73    0.29
   2  -6  -3    0.56    0.23
  -2  -6   3    0.75    0.20
  -2  -6   3    0.66    0.33
   2   6  -3    0.30    0.26
  -2   6   3    1.14    0.52
  -2   6   3    0.82    0.44
   2   6  -3    0.73    0.22
   2   6  -3    0.55    0.23
  -2   6   3    0.46    0.18
  -2   6   3    0.58    0.51
  -1  -6   3   13.53    0.70
  -1  -6   3   12.98    0.77
   1  -6  -3   11.99    0.68
   1  -6  -3   12.18    0.66
  -1  -6   3   13.86    0.65
   1  -6  -3   12.83    0.78
   1  -6  -3   12.76    0.69
   1  -6  -3   13.11    0.81
  -1  -6   3   12.84    0.71
   1  -6  -3   12.59    0.76
  -1  -6   3   11.70    0.60
  -1   6   3   10.13    0.94
   1   6  -3   11.47    0.62
   1   6  -3   12.41    0.76
  -1   6   3   12.17    0.63
  -1   6   3   13.61    0.95
   1   6  -3   12.71    0.62
   0  -6   3   25.81    1.15
   0  -6  -3   24.54    1.15
   0  -6   3   26.73    1.07
   0  -6   3   23.79    1.02
   0  -6  -3   20.00    1.24
   0  -6   3   24.57    1.14
   0  -6  -3   24.43    1.09
   0  -6  -3   24.16    1.06
   0  -6  -3   23.47    1.14
   0  -6  -3   23.96    1.06
   0  -6   3   25.11    1.18
   0  -6   3   26.30    1.10
   0   6  -3   24.29    1.02
   0   6  -3   24.00    1.14
   0   6   3   23.04    1.05
   0   6   3   23.41    1.07
  -1  -6  -3    2.07    0.28
   1  -6   3    1.89    0.32
   1  -6   3    2.00    0.39
  -1  -6  -3    2.76    0.37
  -1  -6  -3    2.18    0.28
   1  -6   3    2.18    0.43
   1  -6   3    1.69    0.39
  -1  -6  -3    2.18    0.37
   1  -6   3    1.28    0.30
  -1  -6  -3    2.02    0.31
   1  -6   3    2.01    0.26
  -1   6  -3    1.63    0.31
   1   6   3    2.32    0.27
  -1   6  -3    2.63    0.55
   1   6   3    2.65    0.33
  -1   6  -3    2.44    0.47
  -1   6  -3    2.10    0.27
   2  -6   3    1.33    0.29
   2  -6   3    1.21    0.38
  -2  -6  -3    1.75    0.34
  -2  -6  -3    1.59    0.25
   2  -6   3    1.56    0.38
   2  -6   3    1.40    0.32
  -2  -6  -3    1.62    0.30
   2  -6   3    1.42    0.40
  -2   6  -3    2.26    0.62
   2   6   3    1.62    0.28
  -2   6  -3    1.95    0.62
  -2   6  -3    1.51    0.26
   2   6   3    1.08    0.20
   3  -6   3    4.52    0.49
   3  -6   3    4.35    0.43
  -3  -6  -3    4.31    0.42
   3  -6   3    4.81    0.60
  -3  -6  -3    4.52    0.44
  -3  -6  -3    4.88    0.37
   3  -6   3    3.79    0.51
   3  -6   3    3.92    0.53
  -3   6  -3    4.97    0.57
  -3   6  -3    5.36    0.72
   3   6   3    5.01    0.42
   3   6   3    4.50    0.41
   4  -6   3    4.03    0.37
  -4  -6  -3    4.14    0.33
   4  -6   3    3.55    0.45
  -4  -6  -3    4.12    0.24
   4  -6   3    3.20    0.43
   4  -6   3    4.07    0.47
   4   6   3    3.89    0.36
  -4   6  -3    4.22    0.61
  -4   6  -3    3.62    0.62
  -5   6  -3    0.45    0.24
   3   7  -3    0.74    0.19
   2  -7  -3    0.85    0.18
  -2  -7   3    0.96    0.15
  -2  -7   3    2.13    0.38
   2   7  -3    0.83    0.18
  -1  -7   3   -0.19    0.18
   1  -7  -3   -0.09    0.16
   1  -7  -3    0.20    0.26
   1  -7  -3    0.38    0.21
  -1  -7   3    0.24    0.30
   1   7  -3   -0.12    0.19
   0  -7   3    0.72    0.19
   0  -7  -3    0.83    0.26
   0  -7  -3    0.76    0.21
   0  -7  -3    0.79    0.16
   0  -7   3    1.32    0.29
   0   7  -3    0.78    0.18
   1  -7   3    0.20    0.16
   1  -7   3    0.32    0.23
   1  -7   3    0.16    0.16
  -1  -7  -3    0.12    0.15
   1   7   3    0.20    0.13
  -2  -7  -3    0.72    0.15
   2   7   3    0.96    0.14
 -10   0   4    0.85    0.15
 -10   0   4    0.84    0.15
 -10   0   4    0.98    0.17
  -9   0   4   12.83    0.61
  -9   0   4   13.52    0.79
  -9   0   4   12.94    0.59
   9   0  -4   10.43    0.66
  -9   0   4   12.15    0.62
   9   0  -4   12.33    0.56
  -8   0   4    0.41    0.22
  -8   0   4    1.01    0.60
  -8   0   4    0.38    0.18
  -8   0   4    0.29    0.38
  -8   0   4    0.60    0.23
  -8   0   4    0.25    0.32
  -8   0   4    0.26    0.21
   8   0  -4    0.39    0.16
  -7   0   4    0.09    0.22
  -7   0   4    0.40    0.37
   7   0  -4    0.54    0.19
  -7   0   4    0.31    0.21
  -7   0   4    0.28    0.24
   7   0  -4    0.19    0.19
  -7   0   4    0.21    0.21
   7   0  -4    0.33    0.36
  -7   0   4   -0.23    0.32
  -7   0   4    0.28    0.39
  -6   0   4    0.80    0.20
  -6   0   4    1.04    0.22
  -6   0   4    0.77    0.32
  -6   0   4    0.41    0.27
   6   0  -4    0.54    0.15
  -6   0   4    1.10    0.20
   6   0  -4    0.46    0.27
   6   0  -4    1.23    0.59
  -6   0   4    0.50    0.23
   6   0  -4    0.91    0.30
  -6   0   4    0.69    0.18
   6   0  -4    0.00    0.31
  -6   0   4    0.46    0.32
  -5   0   4    0.24    0.21
  -5   0   4    0.08    0.18
  -5   0   4   -0.05    0.19
  -5   0   4    0.19    0.15
  -5   0   4    0.01    0.20
  -5   0   4    0.10    0.21
   5   0  -4   -0.04    0.28
   5   0  -4    0.19    0.12
   5   0  -4    0.13    0.25
   5   0  -4   -0.06    0.21
  -5   0   4    0.01    0.16
   4   0  -4    3.13    0.36
   4   0  -4    3.47    0.62
  -4   0   4    3.79    0.34
   3   0  -4   54.07    2.31
  -3   0   4   52.93    2.09
   3   0  -4   52.75    2.08
   3   0  -4   50.79    2.03
   2   0  -4   19.90    0.98
   2   0  -4   18.77    0.87
  -2   0   4   19.06    0.83
  -2   0   4   16.73    0.80
  -1   0   4   28.35    1.21
  -1   0   4   27.97    1.15
  -1   0   4   25.57    1.25
   1   0  -4   27.12    1.15
   1   0  -4   28.77    1.09
   1   0  -4   27.16    1.23
   0   0   4  172.43    6.51
   0   0  -4  173.79    6.53
   0   0   4  161.29    6.57
   0   0  -4  180.04    6.43
   0   0  -4  168.25    6.41
   0   0   4  162.21    6.44
   0   0  -4  176.20    6.47
   1   0   4    0.06    0.13
  -1   0  -4    0.05    0.15
   1   0   4    0.22    0.29
   1   0   4    0.25    0.12
   1   0   4    0.23    0.19
  -1   0  -4    0.29    0.13
  -1   0  -4    0.06    0.13
  -1   0  -4    0.14    0.15
  -2   0  -4   51.29    1.90
  -2   0  -4   48.22    1.85
   2   0   4   45.82    2.03
   2   0   4   44.71    1.99
  -2   0  -4   50.00    1.89
   3   0   4    3.13    0.49
   3   0   4    3.41    0.26
  -3   0  -4    3.09    0.33
   3   0   4    3.16    0.24
  -3   0  -4    3.29    0.33
   3   0   4    3.68    0.28
   3   0   4    3.46    0.57
  -3   0  -4    3.18    0.40
  -4   0  -4   27.10    1.13
  -4   0  -4   29.03    1.21
   4   0   4   25.57    1.18
   4   0   4   27.92    1.52
   4   0   4   25.67    1.43
  -4   0  -4   28.77    1.24
   4   0   4   29.02    1.15
  -4   0  -4   28.79    1.25
   4   0   4   29.90    1.14
   4   0   4   27.71    1.33
  -4   0  -4   27.36    1.19
  -4   0  -4   28.15    1.17
   4   0   4   31.41    1.23
  -4   0  -4   28.36    1.21
   5   0   4    2.53    0.35
   5   0   4    2.50    0.26
  -5   0  -4    1.70    0.27
  -5   0  -4    2.72    0.40
  -5   0  -4    1.24    0.30
   5   0   4    2.32    0.46
  -5   0  -4    1.69    0.25
  -5   0  -4    2.66    0.49
  -5   0  -4    1.47    0.29
   5   0   4    1.87    0.25
   5   0   4    1.42    0.55
  -5   0  -4    1.84    0.22
   5   0   4    2.21    0.24
  -5   0  -4    2.69    0.26
   6   0   4   97.12    3.66
  -6   0  -4   93.08    3.52
   6   0   4   92.67    3.51
  -6   0  -4   90.55    3.56
   6   0   4   93.05    3.54
  -6   0  -4   88.76    3.62
  -6   0  -4   90.57    3.68
   6   0   4   84.29    3.83
   6   0   4   94.38    3.55
  -6   0  -4   90.26    3.52
  -6   0  -4   91.21    3.70
  -6   0  -4   91.45    3.76
   7   0   4    0.41    0.26
  -7   0  -4    0.08    0.33
  -7   0  -4   -0.02    0.20
  -7   0  -4    0.12    0.22
   7   0   4    0.28    0.28
  -7   0  -4   -0.04    0.22
  -7   0  -4   -0.10    0.37
   7   0   4    0.06    0.16
   7   0   4    0.31    0.26
  -7   0  -4    0.26    0.25
  -8   0  -4   24.49    1.16
   8   0   4   23.67    1.11
  -8   0  -4   28.09    1.26
   8   0   4   27.95    1.30
  -8   0  -4   24.74    1.03
   8   0   4   24.06    1.10
  -8   0  -4   24.59    1.07
   8   0   4   23.55    1.12
  -8   0  -4   25.23    1.03
  -9   0  -4    0.10    0.22
 -10  -1   4    0.38    0.12
 -10  -1   4    0.52    0.14
 -10  -1   4    0.54    0.13
 -10   1   4    0.64    0.15
  -9  -1   4    1.05    0.40
  -9  -1   4    0.61    0.34
  -9  -1   4    0.32    0.22
  -9   1   4    0.94    0.37
  -9   1   4    1.24    0.36
  -9   1   4    0.48    0.22
  -9   1   4    0.44    0.22
  -9   1   4    1.35    0.40
  -8  -1   4    1.17    0.23
  -8  -1   4    0.96    0.23
  -8  -1   4    1.01    0.23
   8  -1  -4    1.03    0.19
  -8  -1   4    0.71    0.32
  -8  -1   4    0.71    0.19
   8   1  -4    0.89    0.22
  -8   1   4    0.95    0.21
  -8   1   4    0.80    0.39
  -8   1   4    0.69    0.25
  -8   1   4    1.46    0.70
   8   1  -4    1.18    0.24
  -8   1   4    0.95    0.48
  -8   1   4    0.93    0.27
  -8   1   4    0.50    0.23
  -7  -1   4    1.47    0.41
  -7  -1   4    1.19    0.23
  -7  -1   4    1.52    0.24
  -7  -1   4    1.47    0.25
  -7  -1   4    1.61    0.25
   7   1  -4    1.14    0.26
  -7   1   4    0.98    0.22
   7   1  -4    1.26    0.27
  -7   1   4    1.19    0.42
  -7   1   4    1.59    0.27
   7   1  -4    1.19    0.24
  -7   1   4    1.29    0.48
   7   1  -4    1.32    0.39
  -7   1   4    0.85    0.24
  -7   1   4    1.78    0.45
  -7   1   4    1.35    0.24
  -6  -1   4    2.43    0.26
  -6  -1   4    3.12    0.34
  -6  -1   4    2.15    0.35
   6  -1  -4    2.29    0.39
   6  -1  -4    4.30    0.61
  -6  -1   4    2.65    0.32
  -6  -1   4    2.83    0.32
  -6  -1   4    3.05    0.44
  -6  -1   4    2.62    0.40
  -6   1   4    2.68    0.46
   6   1  -4    3.01    0.32
  -6   1   4    3.04    0.34
  -6   1   4    3.11    0.39
   6   1  -4    2.73    0.42
  -6   1   4    3.61    0.43
  -6   1   4    2.85    0.33
   6   1  -4    2.89    0.46
   6   1  -4    2.56    0.67
  -6   1   4    3.01    0.44
   6   1  -4    2.84    0.36
   6   1  -4    3.97    0.59
  -6   1   4    2.79    0.35
  -6   1   4    2.60    0.34
   5  -1  -4    1.83    0.36
   5  -1  -4    2.09    0.33
  -5  -1   4    2.27    0.27
  -5  -1   4    2.59    0.33
   5  -1  -4    1.78    0.29
  -5  -1   4    2.78    0.32
  -5  -1   4    2.39    0.27
  -5  -1   4    2.28    0.31
  -5  -1   4    1.93    0.28
  -5  -1   4    2.33    0.29
   5  -1  -4    1.55    0.41
   5   1  -4    2.93    0.65
  -5   1   4    2.62    0.33
  -5   1   4    2.23    0.27
   5   1  -4    2.28    0.41
  -5   1   4    2.76    0.32
  -5   1   4    2.27    0.30
   5   1  -4    2.08    0.29
  -5   1   4    2.60    0.42
  -5   1   4    3.37    0.55
  -5   1   4    2.22    0.35
  -5   1   4    2.03    0.25
   5   1  -4    2.24    0.29
  -5   1   4    2.74    0.40
   5   1  -4    2.30    0.23
   5   1  -4    2.36    0.31
  -5   1   4    2.27    0.39
   5   1  -4    2.12    0.35
   4  -1  -4   97.75    3.84
   4  -1  -4  102.14    3.80
   4  -1  -4   92.76    3.98
  -4  -1   4  100.39    3.65
  -4  -1   4   99.34    3.74
  -4   1   4   92.39    3.81
  -4   1   4   96.67    3.73
   4   1  -4   92.03    3.84
   4   1  -4   97.84    3.74
   4   1  -4   94.39    3.66
  -4   1   4   91.32    3.72
  -4   1   4   97.38    3.69
   4   1  -4   98.61    4.15
   3  -1  -4  228.32    8.61
   3  -1  -4  222.61    8.68
   3  -1  -4  236.07    8.53
  -3  -1   4  221.51    8.46
  -3  -1   4  232.46    8.59
  -3   1   4  244.15    8.83
   3   1  -4  220.13    8.51
   3   1  -4  209.21    8.58
   3   1  -4  211.95    8.79
   3   1  -4  226.49    8.46
  -2  -1   4  232.52    9.68
   2  -1  -4  241.77    9.68
  -2  -1   4  277.66    9.72
   2  -1  -4  263.41    9.76
   2  -1  -4  258.93    9.66
  -2  -1   4  272.67    9.69
   2  -1  -4  248.33    9.75
   2   1  -4  262.12    9.63
   2   1  -4  252.40    9.71
  -2   1   4  256.50    9.72
   2   1  -4  260.93    9.89
   2   1  -4  252.00    9.65
   1  -1  -4   60.21    2.37
  -1  -1   4   57.70    2.34
   1  -1  -4   58.49    2.26
  -1  -1   4   54.99    2.47
   1  -1  -4   61.22    2.33
  -1  -1   4   51.74    2.28
   1  -1  -4   55.73    2.22
  -1  -1   4   58.24    2.33
   1  -1  -4   61.23    2.27
  -1   1   4   60.43    2.24
  -1   1   4   60.64    2.37
   1   1  -4   61.53    2.45
   1   1  -4   61.85    2.24
   1   1  -4   58.39    2.34
  -1   1   4   56.20    2.36
   1   1  -4   61.00    2.26
   0  -1   4   10.62    0.73
   0  -1  -4   11.94    0.66
   0  -1  -4   12.68    0.56
   0  -1   4   11.65    0.57
   0  -1   4   11.03    0.57
   0  -1  -4   12.00    0.58
   0  -1  -4   11.39    0.58
   0  -1  -4   12.39    0.53
   0  -1   4   11.44    0.73
   0   1   4   12.55    0.65
   0   1  -4   12.15    0.60
   0   1  -4   12.49    0.58
   0   1  -4   12.32    0.68
   0   1  -4   11.66    0.52
   0   1   4   12.36    0.57
   0   1   4   12.21    0.50
   0   1   4   11.66    0.65
  -1  -1  -4   16.62    0.85
   1  -1   4   16.73    0.70
   1  -1   4   15.24    0.91
  -1  -1  -4   17.12    0.74
   1  -1   4   16.08    0.73
   1  -1   4   17.06    0.92
  -1  -1  -4   16.35    0.71
  -1  -1  -4   15.25    0.80
   1   1   4   16.84    0.86
  -1   1  -4   17.01    0.76
   1   1   4   16.21    0.77
   1   1   4   16.10    0.67
   1   1   4   16.56    0.85
  -1   1  -4   16.91    0.73
   1   1   4   15.58    0.79
  -2  -1  -4  105.49    4.05
  -2  -1  -4  101.19    4.02
  -2  -1  -4  107.39    4.02
  -2  -1  -4  105.20    4.06
  -2  -1  -4  114.90    4.31
   2  -1   4  109.28    4.05
   2  -1   4  110.45    4.21
  -2   1  -4  105.02    4.05
   2   1   4  104.78    4.00
   2   1   4  102.74    4.09
  -2   1  -4  109.15    4.06
   2   1   4   94.68    4.13
   2   1   4  105.64    4.21
  -3  -1  -4   78.53    3.02
  -3  -1  -4   79.18    3.02
  -3  -1  -4   75.17    3.00
   3  -1   4   80.55    3.00
   3  -1   4   77.71    2.95
  -3  -1  -4   79.25    3.13
   3  -1   4   75.28    2.93
  -3  -1  -4   78.62    2.98
   3  -1   4   77.11    3.20
   3  -1   4   78.87    3.21
  -3  -1  -4   67.24    2.99
   3  -1   4   75.62    2.96
  -3  -1  -4   79.84    2.98
  -3   1  -4   79.63    2.99
  -3   1  -4   77.87    3.01
   3   1   4   75.50    2.93
  -3   1  -4   76.71    3.01
   3   1   4   78.22    2.95
   3   1   4   76.01    3.24
   3   1   4   74.10    3.07
  -3   1  -4   78.63    3.02
   3   1   4   77.10    2.93
  -4  -1  -4   21.43    0.96
   4  -1   4   21.38    0.95
   4  -1   4   18.62    1.19
  -4  -1  -4   20.97    0.95
  -4  -1  -4   20.57    0.83
   4  -1   4   19.16    0.91
   4  -1   4   21.24    0.87
  -4  -1  -4   20.36    0.92
   4  -1   4   18.23    1.21
  -4  -1  -4   18.78    0.92
  -4  -1  -4   19.01    0.85
   4  -1   4   19.89    0.82
  -4   1  -4   20.64    0.90
  -4   1  -4   20.04    0.94
   4   1   4   20.12    0.85
   4   1   4   20.58    0.84
  -4   1  -4   20.82    0.95
  -4   1  -4   20.28    0.85
  -4   1  -4   20.03    1.01
  -4   1  -4   20.71    0.95
  -4   1  -4   19.87    0.95
   4   1   4   18.92    1.28
  -4   1  -4   20.24    0.85
   4   1   4   19.49    1.09
   4   1   4   19.80    0.83
   5  -1   4    2.41    0.42
  -5  -1  -4    1.91    0.30
   5  -1   4    1.95    0.21
  -5  -1  -4    2.77    0.25
   5  -1   4    2.42    0.29
  -5  -1  -4    1.83    0.24
   5  -1   4    2.14    0.59
  -5  -1  -4    2.02    0.33
   5  -1   4    2.68    0.31
   5  -1   4    2.23    0.50
  -5  -1  -4    2.23    0.28
  -5  -1  -4    1.53    0.26
  -5   1  -4    2.33    0.39
   5   1   4    1.95    0.27
  -5   1  -4    1.66    0.30
  -5   1  -4    1.52    0.20
   5   1   4    2.18    0.25
   5   1   4    2.54    0.32
  -5   1  -4    1.71    0.25
  -5   1  -4    2.07    0.62
   5   1   4    2.28    0.54
  -5   1  -4    1.99    0.26
  -6  -1  -4    8.93    0.69
   6  -1   4    8.91    0.91
   6  -1   4   10.22    0.63
  -6  -1  -4    8.91    0.65
   6  -1   4    7.80    0.44
  -6  -1  -4    8.74    0.50
  -6  -1  -4    9.08    0.49
  -6  -1  -4    9.24    0.69
  -6  -1  -4    9.51    0.56
  -6  -1  -4    9.54    0.69
   6  -1   4    9.46    0.68
   6  -1   4    9.69    0.62
   6   1   4    7.84    0.89
  -6   1  -4    8.84    0.54
  -6   1  -4    8.90    0.80
  -6   1  -4    8.67    0.53
   6   1   4    9.94    0.68
   6   1   4    9.40    0.55
   6   1   4    9.34    0.49
  -6   1  -4    8.70    0.75
   6   1   4   10.11    0.56
  -6   1  -4    8.68    0.64
  -6   1  -4    8.96    1.07
  -6   1  -4    9.16    0.60
  -7  -1  -4   19.11    0.88
   7  -1   4   18.50    1.01
  -7  -1  -4   19.14    0.84
   7  -1   4   21.13    1.11
  -7  -1  -4   19.58    0.84
  -7  -1  -4   19.84    1.02
  -7  -1  -4   18.58    1.07
   7  -1   4   19.42    0.98
   7  -1   4   18.26    0.93
   7   1   4   18.97    0.90
   7   1   4   19.50    0.99
   7   1   4   19.68    0.90
  -7   1  -4   19.09    0.87
  -7   1  -4   19.11    1.03
  -7   1  -4   18.51    1.10
  -7   1  -4   19.48    0.87
   7   1   4   20.16    0.92
  -7   1  -4   19.40    0.93
  -8  -1  -4    6.62    0.42
   8  -1   4    6.98    0.48
   8  -1   4    7.00    0.57
  -8  -1  -4    7.06    0.61
   8  -1   4    6.34    0.51
  -8  -1  -4    6.89    0.38
  -8  -1  -4    7.17    0.38
  -8  -1  -4    6.87    0.58
  -8   1  -4    7.17    0.65
   8   1   4    6.51    0.36
  -8   1  -4    6.87    0.42
  -8   1  -4    6.37    0.77
   8   1   4    6.54    0.49
   8   1   4    6.17    0.50
  -8   1  -4    7.58    0.49
  -8   1  -4    7.16    0.61
  -8   1  -4    6.58    0.42
   8   1   4    7.92    0.54
   8   1   4    6.53    0.63
  -9  -1  -4    0.03    0.19
  -9   1  -4    0.02    0.13
  -9   1  -4    0.04    0.18
  -9  -2   4    0.13    0.17
  -9  -2   4   -0.05    0.17
  -9  -2   4    0.00    0.23
  -9  -2   4    0.19    0.17
  -9   2   4    0.03    0.38
   9   2  -4    0.08    0.15
  -9   2   4    0.10    0.41
  -9   2   4   -0.14    0.20
  -9   2   4    0.24    0.21
  -9   2   4    0.17    0.20
  -8  -2   4    2.46    0.26
  -8  -2   4    1.82    0.36
  -8  -2   4    1.47    0.22
  -8  -2   4    2.07    0.23
  -8  -2   4    1.74    0.24
   8   2  -4    2.06    0.31
  -8   2   4    2.20    0.25
  -8   2   4    1.77    0.27
  -8   2   4    1.70    0.28
   8   2  -4    2.52    0.29
  -8   2   4    2.22    0.31
  -8   2   4    2.92    0.55
  -8   2   4    2.65    0.53
  -7  -2   4    1.62    0.26
  -7  -2   4    1.72    0.24
  -7  -2   4    1.49    0.41
  -7  -2   4    1.96    0.25
  -7  -2   4    1.15    0.23
   7   2  -4    1.72    0.28
  -7   2   4    1.80    0.59
  -7   2   4    1.63    0.24
  -7   2   4    1.93    0.54
   7   2  -4    1.89    0.29
  -7   2   4    1.57    0.30
  -7   2   4    1.15    0.27
  -7   2   4    1.78    0.29
  -7   2   4    1.69    0.50
   7   2  -4    1.71    0.30
   6  -2  -4   16.78    0.90
  -6  -2   4   14.78    0.73
  -6  -2   4   15.56    0.72
  -6  -2   4   14.99    0.76
  -6  -2   4   15.14    0.88
  -6   2   4   16.27    1.02
   6   2  -4   15.44    0.77
   6   2  -4   15.39    0.69
  -6   2   4   15.60    0.75
   6   2  -4   16.18    0.77
  -6   2   4   15.48    0.73
  -6   2   4   14.12    1.27
  -6   2   4   15.24    0.95
  -6   2   4   15.08    0.74
   6   2  -4   15.62    0.80
  -6   2   4   15.40    0.96
   6   2  -4   15.55    0.97
  -6   2   4   16.92    0.91
  -5  -2   4   26.10    1.24
   5  -2  -4   30.60    1.47
   5  -2  -4   26.46    1.17
   5  -2  -4   27.57    1.24
  -5  -2   4   26.75    1.15
   5  -2  -4   27.00    1.34
   5  -2  -4   26.86    1.54
  -5  -2   4   27.72    1.13
  -5  -2   4   26.55    1.16
   5   2  -4   26.91    1.18
  -5   2   4   29.19    1.23
  -5   2   4   26.34    1.12
  -5   2   4   27.57    1.13
  -5   2   4   28.35    1.28
  -5   2   4   26.94    1.30
   5   2  -4   27.30    1.48
  -5   2   4   27.47    1.14
  -5   2   4   27.40    1.52
  -5   2   4   27.20    1.13
   5   2  -4   27.02    1.76
  -5   2   4   26.41    1.18
  -5   2   4   27.15    1.31
   5   2  -4   26.66    1.11
   5   2  -4   27.76    1.31
   5   2  -4   27.32    1.16
   5   2  -4   30.46    1.35
   4  -2  -4  109.52    4.35
  -4  -2   4  107.95    4.12
   4  -2  -4  122.83    4.31
   4  -2  -4   96.16    4.16
  -4  -2   4  100.22    4.16
  -4  -2   4  112.63    4.11
   4  -2  -4  110.44    4.18
  -4   2   4  105.18    4.33
   4   2  -4  110.06    4.10
  -4   2   4  101.76    4.22
  -4   2   4  110.27    4.25
   4   2  -4  108.47    4.12
   4   2  -4  106.27    4.14
  -4   2   4  112.09    4.15
   4   2  -4  111.42    4.14
   4   2  -4  103.43    4.37
   4   2  -4  106.56    4.22
   3  -2  -4   75.23    2.76
   3  -2  -4   70.96    2.91
  -3  -2   4   70.84    2.70
   3  -2  -4   66.13    2.85
  -3  -2   4   71.02    2.68
  -3   2   4   67.18    2.75
   3   2  -4   70.03    2.77
  -3   2   4   68.50    2.88
   3   2  -4   66.45    3.07
  -3   2   4   70.50    2.71
   3   2  -4   68.86    2.90
   3   2  -4   69.92    2.71
   3   2  -4   70.93    2.69
   3   2  -4   71.51    2.68
   2  -2  -4   22.03    0.89
  -2  -2   4   21.65    0.97
  -2  -2   4   23.38    1.08
  -2  -2   4   20.86    0.92
   2  -2  -4   22.42    1.13
   2  -2  -4   22.19    1.06
   2  -2  -4   23.60    1.01
  -2   2   4   22.14    1.20
   2   2  -4   22.76    1.02
  -2   2   4   22.38    1.04
   2   2  -4   23.65    0.93
   2   2  -4   22.43    0.93
   2   2  -4   23.39    1.25
   2   2  -4   21.93    0.94
   2   2  -4   20.72    1.08
  -1  -2   4   15.68    0.93
   1  -2  -4   15.93    0.82
  -1  -2   4   15.04    0.76
   1  -2  -4   16.78    0.78
  -1  -2   4   16.10    0.70
   1  -2  -4   17.04    0.93
   1  -2  -4   16.24    0.68
  -1   2   4   16.37    0.98
   1   2  -4   15.58    0.73
   1   2  -4   16.29    0.94
   1   2  -4   15.95    0.69
   1   2  -4   15.69    0.82
   1   2  -4   16.13    0.69
   0  -2   4   32.08    1.52
   0  -2  -4   34.95    1.39
   0  -2  -4   30.14    1.44
   0  -2   4   31.78    1.35
   0  -2  -4   33.33    1.53
   0  -2   4   31.08    1.58
   0   2   4   31.69    1.38
   0   2  -4   33.32    1.48
   0   2   4   33.80    1.56
   0   2   4   31.99    1.39
   0   2  -4   32.57    1.53
   0   2   4   33.46    1.27
   0   2  -4   30.73    1.29
   0   2   4   33.88    1.38
   0   2  -4   34.28    1.39
   0   2  -4   34.07    1.35
   0   2  -4   33.93    1.29
  -1  -2  -4  140.21    5.32
   1  -2   4  129.95    5.25
  -1  -2  -4  138.86    5.15
   1  -2   4  128.82    5.10
  -1  -2  -4  138.88    5.08
   1  -2   4  133.76    5.11
  -1   2  -4  129.02    5.16
   1   2   4  139.11    5.28
   1   2   4  130.74    5.23
  -1   2  -4  131.99    5.07
  -1   2  -4  122.99    5.11
   1   2   4  127.29    5.04
  -1   2  -4  136.58    5.14
   1   2   4  137.49    5.06
   1   2   4  133.14    5.04
   1   2   4  134.34    5.26
  -1   2  -4  140.64    5.24
   1   2   4  134.91    5.07
   1   2   4  133.42    5.14
  -2  -2  -4  107.84    4.22
   2  -2   4  117.14    4.48
  -2  -2  -4  111.87    4.31
   2  -2   4  103.84    4.24
  -2  -2  -4  109.02    4.22
  -2  -2  -4  111.27    4.50
  -2  -2  -4  115.04    4.25
   2  -2   4  113.68    4.23
   2  -2   4  107.85    4.26
  -2  -2  -4  111.96    4.23
   2  -2   4  107.85    4.25
   2   2   4  109.82    4.33
  -2   2  -4  109.90    4.24
  -2   2  -4  111.56    4.27
   2   2   4  108.98    4.19
   2   2   4  111.71    4.20
   2   2   4  116.39    4.23
   2   2   4  109.09    4.49
  -2   2  -4  107.26    4.30
  -2   2  -4  110.90    4.24
   2   2   4  113.34    4.19
   2   2   4  110.94    4.21
  -3  -2  -4   16.48    0.76
   3  -2   4   15.67    0.77
  -3  -2  -4   16.40    0.76
  -3  -2  -4   16.33    1.01
  -3  -2  -4   16.02    0.81
  -3  -2  -4   16.32    0.75
   3  -2   4   16.44    0.74
  -3  -2  -4   14.85    0.70
  -3  -2  -4   16.07    0.75
   3  -2   4   15.90    0.79
   3  -2   4   15.73    0.77
  -3  -2  -4   15.87    0.83
  -3   2  -4   16.51    0.82
  -3   2  -4   16.10    0.76
   3   2   4   16.33    0.69
  -3   2  -4   15.70    0.75
   3   2   4   16.62    0.70
  -3   2  -4   16.50    0.84
  -3   2  -4   16.35    0.96
   3   2   4   14.30    1.10
  -3   2  -4   16.42    0.85
  -3   2  -4   16.58    0.72
   3   2   4   15.33    0.94
   3   2   4   15.62    0.69
   3   2   4   15.84    0.68
  -3   2  -4   15.35    0.79
   4  -2   4    9.77    0.57
  -4  -2  -4    8.47    0.49
   4  -2   4    9.81    1.05
   4  -2   4   11.02    1.03
  -4  -2  -4    9.91    0.60
   4  -2   4    9.84    0.63
  -4  -2  -4    9.44    0.47
  -4  -2  -4    9.72    0.57
   4  -2   4   10.02    0.63
  -4  -2  -4   10.26    0.57
  -4  -2  -4    9.86    0.63
   4  -2   4   10.03    0.63
  -4   2  -4    9.89    0.72
   4   2   4    9.55    0.48
   4   2   4    9.60    0.83
  -4   2  -4    9.33    0.89
  -4   2  -4   10.58    0.54
  -4   2  -4   10.72    0.59
   4   2   4    9.66    0.49
  -4   2  -4   10.73    0.55
   4   2   4    9.96    0.49
   4   2   4    9.64    0.49
  -4   2  -4    9.53    0.71
   4   2   4    8.33    0.79
  -4   2  -4    9.66    0.66
  -4   2  -4   10.35    0.58
   4   2   4   10.83    1.11
  -5  -2  -4    3.28    0.31
   5  -2   4    3.31    0.46
   5  -2   4    2.30    0.62
  -5  -2  -4    3.84    0.37
   5  -2   4    3.13    0.40
  -5  -2  -4    3.63    0.42
   5  -2   4    3.15    0.50
  -5  -2  -4    3.84    0.53
   5  -2   4    4.45    0.44
  -5  -2  -4    3.05    0.46
  -5   2  -4    2.89    0.39
  -5   2  -4    3.72    0.48
   5   2   4    3.47    0.37
   5   2   4    2.71    0.34
  -5   2  -4    3.38    0.57
  -5   2  -4    3.29    0.42
   5   2   4    3.57    0.32
  -5   2  -4    4.01    0.77
  -5   2  -4    3.40    0.40
   5   2   4    3.96    0.68
   5   2   4    3.50    0.39
  -5   2  -4    3.32    0.46
   6  -2   4    5.71    0.62
   6  -2   4    5.37    0.55
   6  -2   4    6.24    0.60
   6  -2   4    5.66    0.58
  -6  -2  -4    5.73    0.38
  -6  -2  -4    5.53    0.39
  -6  -2  -4    5.11    0.49
   6   2   4    5.66    0.39
  -6   2  -4    5.31    0.76
   6   2   4    3.45    1.03
   6   2   4    6.15    0.46
  -6   2  -4    4.76    0.66
   6   2   4    6.07    0.46
  -6   2  -4    5.06    0.48
   6   2   4    6.34    0.54
  -6   2  -4    5.42    0.49
  -6   2  -4    5.73    0.47
  -6   2  -4    5.92    1.03
  -6   2  -4    5.63    0.51
  -7  -2  -4   -0.04    0.18
  -7  -2  -4   -0.17    0.18
   7  -2   4    0.31    0.33
   7  -2   4    0.01    0.36
  -7  -2  -4    0.21    0.18
  -7  -2  -4    0.51    0.42
   7  -2   4    0.29    0.25
  -7  -2  -4    0.32    0.36
   7   2   4    0.08    0.22
  -7   2  -4   -0.16    0.61
   7   2   4   -0.12    0.28
  -7   2  -4    0.09    0.24
  -7   2  -4    0.19    0.39
  -7   2  -4    0.53    0.30
  -7   2  -4    0.04    0.25
   7   2   4    0.05    0.32
   7   2   4    0.21    0.16
  -7   2  -4   -0.28    0.43
   8  -2   4   -0.09    0.26
  -8  -2  -4    0.03    0.13
  -8  -2  -4    0.25    0.29
  -8  -2  -4    0.24    0.14
  -8  -2  -4    0.11    0.28
   8   2   4    0.13    0.13
  -8   2  -4    0.20    0.23
   8   2   4    0.19    0.22
  -8   2  -4    0.35    0.43
  -8   2  -4    0.20    0.32
  -8   2  -4    0.32    0.21
  -8   2  -4    0.57    0.23
   8   2   4    0.44    0.28
  -8   2  -4    0.06    0.34
  -9  -3   4    9.74    0.43
   9   3  -4    8.17    0.40
  -8  -3   4    3.12    0.31
  -8  -3   4    3.27    0.29
  -8  -3   4    3.04    0.30
  -8  -3   4    3.73    0.50
  -8   3   4    3.42    0.37
  -8   3   4    3.24    0.63
   8   3  -4    3.16    0.33
  -8   3   4    3.84    0.66
  -8   3   4    3.45    0.62
  -8   3   4    2.67    0.36
  -7  -3   4   11.16    0.57
  -7  -3   4   10.90    0.75
  -7  -3   4   10.94    0.58
  -7  -3   4   10.93    0.55
  -7   3   4   12.59    1.26
   7   3  -4   11.41    0.61
   7   3  -4   11.49    0.62
  -7   3   4   12.68    0.90
  -7   3   4   11.19    0.90
  -7   3   4   10.77    0.63
   7   3  -4   11.17    0.64
  -7   3   4   10.74    0.62
  -6  -3   4   48.39    2.09
  -6  -3   4   51.18    2.18
  -6  -3   4   50.49    2.06
  -6  -3   4   48.64    2.02
  -6   3   4   53.83    2.30
  -6   3   4   51.90    2.26
   6   3  -4   55.43    2.15
  -6   3   4   50.94    2.07
   6   3  -4   53.68    2.12
  -6   3   4   51.23    2.56
   6   3  -4   52.07    2.04
   6   3  -4   51.66    2.30
   6   3  -4   51.66    2.60
  -6   3   4   53.91    2.27
  -6   3   4   50.85    2.08
  -6   3   4   51.28    2.20
   6   3  -4   58.41    2.18
  -5  -3   4   21.91    1.00
  -5  -3   4   22.93    1.04
  -5  -3   4   22.27    1.13
   5  -3  -4   22.56    1.39
  -5  -3   4   23.27    1.00
  -5  -3   4   21.59    0.96
  -5   3   4   25.02    1.35
  -5   3   4   23.58    1.21
  -5   3   4   23.76    1.26
   5   3  -4   23.78    0.99
  -5   3   4   22.66    1.01
  -5   3   4   23.94    1.15
  -5   3   4   22.18    1.00
   5   3  -4   23.36    1.05
   5   3  -4   23.56    1.07
   5   3  -4   23.17    1.03
   5   3  -4   22.22    1.43
  -5   3   4   24.61    1.52
   5   3  -4   23.28    1.25
   4  -3  -4    7.80    0.57
  -4  -3   4    8.32    0.47
   4  -3  -4    7.29    0.73
  -4  -3   4    8.63    0.45
  -4  -3   4    8.18    0.61
  -4  -3   4    9.41    0.53
   4   3  -4    8.71    0.52
   4   3  -4    9.92    0.96
   4   3  -4    8.66    0.48
   4   3  -4    8.46    0.81
  -4   3   4    8.28    0.50
  -4   3   4    8.57    0.77
   4   3  -4    8.82    0.54
  -4   3   4    8.53    0.69
   4   3  -4    8.39    0.72
  -4   3   4    9.08    1.05
  -4   3   4    9.34    0.65
  -4   3   4    9.25    0.79
   4   3  -4    8.59    0.53
  -4   3   4    9.00    0.49
   3  -3  -4    7.25    0.70
  -3  -3   4    8.22    0.58
   3  -3  -4    7.94    0.55
  -3  -3   4    6.90    0.65
   3  -3  -4    6.89    0.43
   3   3  -4    7.22    0.42
   3   3  -4    6.78    0.64
  -3   3   4    7.50    0.54
   3   3  -4    7.36    0.47
  -3   3   4    6.79    0.67
   3   3  -4    7.02    0.44
   3   3  -4    7.48    0.46
   3   3  -4    6.72    0.63
  -3   3   4    7.84    0.60
   3   3  -4    7.41    0.79
  -3   3   4    7.48    0.69
   2  -3  -4   37.08    1.45
   2  -3  -4   36.01    1.57
  -2  -3   4   36.91    1.55
   2  -3  -4   37.06    1.79
  -2  -3   4   34.47    1.63
  -2  -3   4   38.43    1.50
  -2  -3   4   40.10    1.48
  -2  -3   4   36.81    1.48
  -2   3   4   36.74    1.51
  -2   3   4   37.05    1.77
  -2   3   4   32.81    1.58
   2   3  -4   37.44    1.48
   2   3  -4   36.16    1.48
   2   3  -4   36.05    1.81
  -2   3   4   34.11    1.54
   2   3  -4   36.64    1.46
   2   3  -4   36.22    1.65
  -2   3   4   36.83    1.45
   1  -3  -4   19.17    0.87
  -1  -3   4   18.92    1.14
   1  -3  -4   19.97    0.85
   1  -3  -4   19.06    0.96
   1  -3  -4   19.41    0.85
  -1  -3   4   19.64    0.86
  -1  -3   4   19.12    0.85
   1  -3  -4   20.23    1.17
   1   3  -4   20.72    0.85
  -1   3   4   20.55    0.83
   1   3  -4   17.88    0.94
  -1   3   4   20.64    0.91
   1   3  -4   19.70    0.89
   1   3  -4   20.22    0.82
  -1   3   4   20.86    1.20
  -1   3   4   19.89    0.80
  -1   3   4   19.51    0.96
   1   3  -4   16.35    0.85
   1   3  -4   19.19    1.08
   1   3  -4   19.68    0.84
   0  -3   4   51.12    2.11
   0  -3   4   54.18    2.12
   0  -3  -4   54.31    2.19
   0  -3   4   55.12    2.07
   0  -3   4   49.10    2.11
   0  -3  -4   50.81    2.06
   0  -3  -4   54.09    2.08
   0  -3  -4   56.50    2.58
   0  -3   4   49.69    2.31
   0  -3  -4   54.24    2.07
   0  -3   4   54.33    2.07
   0   3  -4   49.54    2.11
   0   3   4   54.15    2.17
   0   3  -4   46.59    2.16
   0   3  -4   50.28    2.07
   0   3  -4   54.12    2.25
   0   3  -4   53.14    2.13
   0   3   4   53.27    2.34
   0   3  -4   54.75    2.04
   0   3   4   53.81    2.06
   0   3  -4   55.32    2.12
   0   3   4   53.06    2.03
   0   3   4   48.97    2.12
   0   3  -4   53.29    2.08
  -1  -3  -4   43.02    1.70
   1  -3   4   42.32    1.75
  -1  -3  -4   41.70    1.67
  -1  -3  -4   44.31    2.08
   1  -3   4   46.74    1.73
   1  -3   4   38.17    1.69
  -1  -3  -4   41.02    1.66
  -1  -3  -4   46.53    1.72
  -1  -3  -4   42.99    1.69
  -1  -3  -4   38.13    1.76
   1  -3   4   40.18    1.72
   1   3   4   43.88    1.64
   1   3   4   44.52    1.83
  -1   3  -4   42.62    1.75
   1   3   4   44.47    1.64
  -1   3  -4   40.80    1.70
   1   3   4   37.05    1.74
   1   3   4   36.74    1.73
  -1   3  -4   45.75    1.69
   1   3   4   43.57    2.01
  -1   3  -4   42.33    1.77
   1   3   4   43.84    1.73
  -1   3  -4   35.74    1.84
  -1   3  -4   45.60    1.65
   1   3   4   45.80    2.05
  -1   3  -4   39.29    1.73
   1   3   4   44.09    1.68
  -2  -3  -4   22.37    1.09
  -2  -3  -4   21.09    0.93
  -2  -3  -4   22.26    0.92
  -2  -3  -4   20.42    0.92
  -2  -3  -4   21.66    0.90
   2  -3   4   19.53    1.29
   2  -3   4   20.59    1.05
   2  -3   4   21.34    0.98
  -2  -3  -4   23.26    0.99
  -2  -3  -4   19.79    0.96
   2  -3   4   21.41    0.95
  -2  -3  -4   21.88    1.35
  -2  -3  -4   21.98    0.98
   2  -3   4   21.55    1.03
   2   3   4   21.54    0.92
  -2   3  -4   22.77    1.13
  -2   3  -4   19.80    0.95
   2   3   4   20.90    0.89
   2   3   4   21.77    1.35
   2   3   4   20.84    1.35
  -2   3  -4   23.41    0.95
   2   3   4   21.91    0.88
   2   3   4   22.43    1.00
   2   3   4   20.89    0.88
  -2   3  -4   21.69    1.04
  -2   3  -4   21.29    0.99
   2   3   4   21.72    1.13
  -2   3  -4   20.65    0.95
  -3  -3  -4    1.49    0.30
  -3  -3  -4    0.91    0.36
  -3  -3  -4    1.23    0.21
   3  -3   4    1.40    0.26
  -3  -3  -4    1.67    0.26
   3  -3   4    1.03    0.29
   3  -3   4    1.09    0.63
   3  -3   4    1.16    0.35
  -3  -3  -4    1.34    0.45
  -3  -3  -4    1.30    0.19
  -3  -3  -4    1.08    0.21
   3   3   4    0.95    0.18
   3   3   4    1.54    0.59
  -3   3  -4    0.93    0.25
  -3   3  -4    0.96    0.33
  -3   3  -4    1.25    0.25
  -3   3  -4    1.20    0.40
   3   3   4    1.20    0.27
   3   3   4    0.75    0.33
   3   3   4    1.15    0.17
   3   3   4    1.32    0.20
   3   3   4    1.30    0.22
  -3   3  -4    0.95    0.47
  -3   3  -4    1.52    0.30
   3   3   4    1.14    0.16
  -3   3  -4    1.06    0.34
  -4  -3  -4    3.53    0.41
   4  -3   4    3.08    0.39
  -4  -3  -4    3.65    0.37
  -4  -3  -4    3.70    0.31
  -4  -3  -4    3.93    0.58
   4  -3   4    3.66    0.84
   4  -3   4    3.12    0.42
  -4  -3  -4    3.07    0.29
  -4  -3  -4    3.04    0.38
   4   3   4    2.44    0.70
  -4   3  -4    2.83    0.38
   4   3   4    3.16    0.32
   4   3   4    3.61    0.46
   4   3   4    3.73    0.44
  -4   3  -4    3.66    0.47
   4   3   4    3.56    0.37
  -4   3  -4    3.22    0.35
  -4   3  -4    3.23    0.52
  -4   3  -4    3.55    0.45
  -4   3  -4    3.18    0.55
   4   3   4    3.66    0.37
   4   3   4    2.70    0.41
   5  -3   4   10.88    1.12
   5  -3   4    9.67    0.77
  -5  -3  -4    9.62    0.49
  -5  -3  -4    9.93    0.64
  -5  -3  -4    9.80    0.61
  -5  -3  -4    9.10    0.66
  -5  -3  -4    9.78    0.49
  -5   3  -4    9.17    0.77
  -5   3  -4    9.45    1.09
  -5   3  -4   10.06    0.63
  -5   3  -4    9.97    0.66
  -5   3  -4    9.04    1.05
  -5   3  -4    9.33    0.62
   5   3   4   10.13    0.77
   5   3   4   10.05    0.52
   5   3   4   10.27    0.57
   5   3   4   10.14    0.63
  -5   3  -4    9.62    0.86
   5   3   4    8.07    0.88
  -6  -3  -4    4.19    0.31
  -6  -3  -4    3.49    0.51
   6  -3   4    5.24    0.67
  -6  -3  -4    3.97    0.31
   6  -3   4    3.68    0.55
   6  -3   4    4.28    0.51
  -6   3  -4    4.26    0.47
  -6   3  -4    2.74    0.66
   6   3   4    3.76    0.45
  -6   3  -4    4.54    0.82
   6   3   4    3.45    0.41
  -6   3  -4    4.39    0.49
   6   3   4    4.38    0.34
   6   3   4    4.32    0.40
  -6   3  -4    3.83    0.57
  -6   3  -4    4.69    0.51
  -6   3  -4    4.56    0.72
  -7  -3  -4    4.01    0.66
  -7  -3  -4    2.40    0.24
  -7  -3  -4    2.64    0.25
  -7  -3  -4    2.87    0.48
   7  -3   4    3.00    0.43
   7  -3   4    3.11    0.41
  -7   3  -4    3.64    0.50
  -7   3  -4    2.68    0.65
  -7   3  -4    2.01    0.41
  -7   3  -4    1.53    0.37
  -7   3  -4    1.24    0.69
   7   3   4    2.68    0.25
   7   3   4    2.84    0.36
   7   3   4    3.26    0.45
  -7   3  -4    2.93    0.57
  -8  -3  -4    7.28    0.46
  -8   3  -4    6.70    0.48
  -8   3  -4    6.49    0.39
  -8   3  -4    7.36    0.37
  -8   3  -4    7.48    0.38
  -8  -4   4    1.61    0.20
  -8  -4   4    1.76    0.21
   8   4  -4    1.37    0.21
   8   4  -4    1.13    0.20
  -8   4   4    1.39    0.36
  -7  -4   4    0.97    0.18
  -7  -4   4    0.87    0.19
  -7  -4   4    0.54    0.37
  -7  -4   4    0.58    0.19
   7   4  -4    0.66    0.19
  -7   4   4    1.12    0.69
  -7   4   4    0.98    0.56
  -7   4   4    0.98    0.51
  -7   4   4    0.98    0.24
  -7   4   4    0.51    0.23
   7   4  -4    0.83    0.23
  -7   4   4    0.73    0.42
   7   4  -4    0.63    0.17
  -6  -4   4   16.24    0.74
  -6  -4   4   17.47    0.86
   6  -4  -4   18.19    0.94
  -6  -4   4   15.98    0.87
  -6   4   4   19.41    1.19
   6   4  -4   16.38    0.82
  -6   4   4   17.25    1.05
   6   4  -4   16.01    0.78
  -6   4   4   15.87    1.03
  -6   4   4   14.66    0.77
  -6   4   4   13.04    1.20
   6   4  -4   16.10    0.76
   6   4  -4   16.85    0.72
  -6   4   4   14.89    0.77
  -5  -4   4    6.07    0.59
  -5  -4   4    6.26    0.53
  -5  -4   4    5.54    0.41
   5  -4  -4    6.38    0.51
  -5   4   4    5.31    0.48
   5   4  -4    6.36    0.43
   5   4  -4    6.52    0.54
  -5   4   4    5.44    0.48
   5   4  -4    5.97    0.48
  -5   4   4    6.31    0.80
   5   4  -4    6.02    0.46
  -5   4   4    6.70    0.71
  -5   4   4    6.42    0.84
   5   4  -4    8.06    0.63
  -5   4   4    6.25    0.88
  -5   4   4    5.34    0.86
  -4  -4   4   32.94    1.45
  -4  -4   4   32.05    1.37
  -4  -4   4   33.55    1.44
   4  -4  -4   34.73    1.41
  -4  -4   4   32.82    1.37
   4  -4  -4   30.67    1.87
  -4  -4   4   33.87    1.37
   4   4  -4   33.73    1.41
   4   4  -4   34.28    1.39
  -4   4   4   30.27    1.37
  -4   4   4   34.31    2.43
  -4   4   4   29.81    1.37
  -4   4   4   34.07    1.63
  -4   4   4   35.10    1.53
   4   4  -4   32.09    1.69
  -4   4   4   34.14    1.66
   4   4  -4   34.70    1.40
   4   4  -4   38.40    1.56
   4   4  -4   34.52    1.46
  -4   4   4   35.99    1.63
  -3  -4   4    4.54    0.44
   3  -4  -4    4.50    0.47
   3  -4  -4    3.56    0.54
  -3  -4   4    4.72    0.51
   3  -4  -4    4.03    0.46
   3  -4  -4    5.07    0.52
  -3  -4   4    4.80    0.43
   3  -4  -4    3.87    0.50
   3   4  -4    4.77    0.41
  -3   4   4    5.09    0.71
  -3   4   4    3.52    0.72
  -3   4   4    5.19    0.77
  -3   4   4    5.59    0.64
   3   4  -4    4.49    0.39
  -3   4   4    3.26    0.37
  -3   4   4    4.15    0.73
   3   4  -4    4.46    0.37
   3   4  -4    3.99    0.43
   2  -4  -4    3.52    0.37
   2  -4  -4    3.38    0.51
   2  -4  -4    2.80    0.34
   2  -4  -4    4.05    0.45
   2  -4  -4    3.23    0.47
  -2  -4   4    3.19    0.33
   2  -4  -4    3.27    0.36
  -2  -4   4    2.89    0.27
   2  -4  -4    3.42    0.79
  -2  -4   4    3.02    0.40
  -2  -4   4    2.90    0.32
  -2  -4   4    3.37    0.45
  -2   4   4    4.22    0.58
  -2   4   4    2.70    0.47
  -2   4   4    3.05    0.30
  -2   4   4    2.85    0.31
   2   4  -4    3.61    0.33
  -2   4   4    3.64    0.68
  -2   4   4    2.27    0.69
  -2   4   4    3.64    0.66
   2   4  -4    2.93    0.33
   2   4  -4    2.95    0.41
   2   4  -4    2.92    0.38
   1  -4  -4    5.42    0.49
   1  -4  -4    5.19    0.52
  -1  -4   4    5.72    0.56
  -1  -4   4    5.40    0.52
  -1  -4   4    5.76    0.96
  -1  -4   4    5.25    0.49
   1  -4  -4    5.54    0.61
  -1  -4   4    5.11    0.43
   1  -4  -4    5.29    0.54
   1  -4  -4    5.24    0.42
  -1  -4   4    4.80    0.48
  -1  -4   4    4.63    0.56
   1  -4  -4    5.36    0.49
   1  -4  -4    5.51    0.89
  -1   4   4    6.02    0.73
   1   4  -4    5.41    0.40
  -1   4   4    5.64    0.67
  -1   4   4    6.48    0.70
   1   4  -4    5.38    0.60
   1   4  -4    3.94    0.53
  -1   4   4    5.12    0.80
   1   4  -4    4.99    0.42
  -1   4   4    5.51    0.38
  -1   4   4    5.66    0.36
  -1   4   4    5.37    0.45
  -1   4   4    6.96    0.63
   0  -4   4    2.25    0.34
   0  -4  -4    3.39    0.82
   0  -4   4    2.92    0.34
   0  -4  -4    3.17    0.37
   0  -4   4    2.97    0.33
   0  -4  -4    2.80    0.29
   0  -4   4    2.65    0.34
   0  -4  -4    2.60    0.45
   0  -4  -4    2.92    0.44
   0  -4  -4    3.11    0.33
   0  -4   4    1.74    0.61
   0  -4  -4    2.70    0.36
   0  -4   4    2.98    0.43
   0   4  -4    2.46    0.31
   0   4  -4    3.29    0.33
   0   4  -4    2.52    0.44
   0   4   4    2.78    0.31
   0   4   4    3.22    0.45
   0   4   4    2.04    0.26
   0   4   4    2.72    0.29
   0   4   4    3.76    0.65
   0   4   4    3.68    0.52
   0   4   4    2.52    0.62
   0   4  -4    2.28    0.42
   0   4  -4    3.15    0.44
   0   4  -4    3.07    0.33
   0   4  -4    2.72    0.38
   0   4  -4    3.21    0.34
  -1  -4  -4    1.92    0.42
   1  -4   4    0.94    0.31
   1  -4   4    1.28    0.37
  -1  -4  -4    1.36    0.32
  -1  -4  -4    1.43    0.49
   1  -4   4    0.93    0.27
  -1  -4  -4    1.27    0.28
  -1  -4  -4    1.16    0.25
  -1  -4  -4    1.29    0.26
  -1  -4  -4    0.83    0.38
  -1  -4  -4    0.72    0.31
   1  -4   4    1.04    0.31
   1  -4   4    0.80    0.62
   1  -4   4    1.11    0.31
   1   4   4    1.30    0.20
  -1   4  -4    0.82    0.24
   1   4   4    1.24    0.23
  -1   4  -4    0.73    0.34
   1   4   4    1.19    0.59
   1   4   4    0.78    0.25
  -1   4  -4    1.46    0.46
  -1   4  -4    1.28    0.37
  -1   4  -4    0.94    0.30
  -1   4  -4    1.17    0.23
  -1   4  -4    0.84    0.40
  -2  -4  -4    4.06    0.55
  -2  -4  -4    3.97    0.44
   2  -4   4    3.44    0.46
  -2  -4  -4    3.95    0.43
  -2  -4  -4    3.94    0.41
   2  -4   4    4.08    0.54
   2  -4   4    3.34    0.40
  -2  -4  -4    5.05    0.61
   2  -4   4    3.85    0.80
   2  -4   4    3.77    0.57
  -2  -4  -4    3.73    0.41
  -2  -4  -4    3.69    0.55
   2   4   4    3.70    0.32
  -2   4  -4    4.08    0.47
  -2   4  -4    3.69    0.61
   2   4   4    3.51    0.55
   2   4   4    3.99    0.36
  -2   4  -4    4.19    0.47
  -2   4  -4    4.21    0.61
  -2   4  -4    4.06    0.59
   2   4   4    3.62    0.70
  -2   4  -4    3.66    0.44
   2   4   4    3.87    0.49
   3  -4   4    4.67    0.95
  -3  -4  -4    4.87    0.57
  -3  -4  -4    4.52    0.41
   3  -4   4    4.08    0.62
   3  -4   4    4.41    0.45
  -3  -4  -4    4.78    0.44
  -3  -4  -4    4.72    0.49
  -3  -4  -4    4.95    0.66
   3  -4   4    5.02    0.55
   3  -4   4    4.99    0.58
   3  -4   4    4.33    0.56
  -3   4  -4    5.12    0.55
   3   4   4    6.25    0.96
  -3   4  -4    5.34    0.53
  -3   4  -4    5.29    0.60
  -3   4  -4    4.67    0.65
   3   4   4    4.66    0.34
  -3   4  -4    4.62    0.86
  -3   4  -4    4.62    0.70
   3   4   4    4.15    0.58
   3   4   4    4.90    0.40
   3   4   4    5.21    0.54
   3   4   4    4.66    0.33
  -3   4  -4    5.18    0.75
  -3   4  -4    4.54    0.53
  -4  -4  -4   13.33    0.78
  -4  -4  -4   14.00    0.76
   4  -4   4   13.10    0.80
   4  -4   4   13.79    0.87
   4  -4   4   13.67    0.82
  -4  -4  -4   13.93    0.62
   4  -4   4   12.82    1.77
  -4  -4  -4   12.65    0.68
   4  -4   4   16.18    0.91
   4  -4   4   12.72    0.90
  -4   4  -4   14.17    1.14
  -4   4  -4   14.68    0.78
   4   4   4   13.76    0.78
   4   4   4   14.26    0.64
   4   4   4   16.70    1.45
  -4   4  -4   13.60    1.00
  -4   4  -4   12.60    1.21
  -4   4  -4   13.41    0.75
   4   4   4   15.82    1.21
  -4   4  -4   13.36    0.88
  -4   4  -4   15.03    0.78
   4   4   4   14.32    0.69
  -4   4  -4   13.46    0.79
   5  -4   4    1.67    0.35
  -5  -4  -4    1.63    0.32
  -5  -4  -4    1.48    0.20
  -5  -4  -4    1.72    0.24
   5  -4   4    1.34    0.38
   5  -4   4    1.35    0.45
  -5  -4  -4    1.49    0.30
   5  -4   4    0.98    0.38
   5  -4   4    1.75    0.32
  -5   4  -4    1.51    0.50
   5   4   4    1.70    0.33
  -5   4  -4    1.29    0.30
   5   4   4    1.48    0.25
  -5   4  -4    1.50    0.34
  -5   4  -4    2.15    0.64
   5   4   4    1.63    0.21
  -5   4  -4    1.63    0.45
  -5   4  -4    1.14    0.32
  -6  -4  -4    2.62    0.27
   6  -4   4    2.56    0.48
   6  -4   4    3.01    0.37
   6  -4   4    2.52    0.39
  -6  -4  -4    3.36    0.28
  -6  -4  -4    3.47    0.45
  -6   4  -4    2.77    0.36
  -6   4  -4    2.71    0.64
  -6   4  -4    4.85    0.90
  -6   4  -4    2.87    0.61
  -6   4  -4    2.19    0.41
   6   4   4    2.98    0.25
  -6   4  -4    2.83    0.33
  -6   4  -4    3.08    0.39
  -7  -4  -4    0.56    0.27
  -7  -4  -4    0.56    0.29
   7  -4   4    0.15    0.22
   7  -4   4    0.56    0.23
  -7   4  -4    0.89    0.49
  -7   4  -4    0.04    0.37
   7   4   4    0.39    0.12
  -7   4  -4    0.64    0.21
  -7   4  -4    0.60    0.61
  -7  -5   4    1.75    0.23
  -7  -5   4    1.64    0.20
  -7   5   4    2.52    0.44
  -7   5   4    2.28    0.39
  -7   5   4    1.24    0.45
  -6  -5   4    1.33    0.23
  -6   5   4    1.76    0.57
  -6   5   4    2.31    0.47
   6   5  -4    1.40    0.17
   6   5  -4    1.82    0.32
  -6   5   4    1.96    0.45
  -6   5   4    1.67    0.47
  -6   5   4    1.00    0.14
   6   5  -4    0.90    0.14
   5  -5  -4    2.77    0.38
   5  -5  -4    2.19    0.34
  -5  -5   4    3.62    0.43
   5   5  -4    3.24    0.39
  -5   5   4    3.08    0.59
  -5   5   4    3.08    0.54
   5   5  -4    3.29    0.43
  -5   5   4    3.80    0.73
   5   5  -4    3.47    0.31
  -5   5   4    2.78    0.47
  -4  -5   4    0.34    0.21
   4  -5  -4    1.03    0.30
  -4  -5   4    0.03    0.29
   4  -5  -4   -0.21    0.32
   4  -5  -4   -0.09    0.31
  -4  -5   4    0.12    0.20
   4  -5  -4    0.50    0.29
  -4   5   4    0.18    0.07
  -4   5   4    0.64    0.59
  -4   5   4    0.59    0.46
   4   5  -4    0.03    0.21
  -4   5   4    0.65    0.45
   4   5  -4    0.19    0.26
  -4   5   4    0.06    0.61
  -4   5   4    0.36    0.09
  -4   5   4    1.24    0.55
   4   5  -4    0.19    0.30
   3  -5  -4    1.69    0.36
  -3  -5   4    2.84    0.41
   3  -5  -4    1.45    0.38
  -3  -5   4    1.87    0.35
   3  -5  -4    1.37    0.25
  -3  -5   4    1.99    0.28
   3  -5  -4    3.23    0.71
   3  -5  -4    2.51    0.39
  -3  -5   4    1.76    0.22
   3  -5  -4    1.79    0.39
   3   5  -4    1.89    0.28
  -3   5   4    3.11    0.79
  -3   5   4    2.06    0.54
  -3   5   4    2.14    0.67
   3   5  -4    1.67    0.32
  -3   5   4    2.53    0.49
  -3   5   4    2.37    0.81
   2  -5  -4    1.89    0.33
   2  -5  -4    2.13    0.36
  -2  -5   4    1.50    0.24
  -2  -5   4    0.95    0.28
   2  -5  -4    2.08    0.54
  -2  -5   4    2.09    0.31
   2  -5  -4    1.91    0.28
   2  -5  -4    1.40    0.38
   2  -5  -4    2.25    0.46
  -2  -5   4    2.31    0.40
  -2   5   4    3.05    0.51
   2   5  -4    1.42    0.39
  -2   5   4    1.97    0.27
  -2   5   4    2.75    0.54
  -2   5   4    1.14    0.69
   2   5  -4    1.72    0.29
   2   5  -4    2.49    0.37
  -2   5   4    3.07    0.63
  -2   5   4    2.96    0.59
  -1  -5   4   12.44    0.82
   1  -5  -4   13.07    0.90
  -1  -5   4   13.61    0.73
  -1  -5   4   12.70    0.70
   1  -5  -4   12.61    0.83
   1  -5  -4   13.11    0.74
  -1  -5   4   13.44    0.77
  -1  -5   4   13.32    0.79
   1  -5  -4   12.02    0.73
   1  -5  -4   12.67    0.70
  -1   5   4   12.55    0.70
   1   5  -4   12.00    0.82
  -1   5   4   14.39    1.08
  -1   5   4   11.48    0.91
  -1   5   4   13.75    1.00
   1   5  -4   13.39    0.67
  -1   5   4   12.54    0.66
  -1   5   4   13.17    1.29
   1   5  -4   12.75    0.89
   1   5  -4   14.27    1.03
   1   5  -4   13.35    0.70
   0  -5   4    2.96    0.41
   0  -5  -4    3.90    0.59
   0  -5  -4    3.29    0.35
   0  -5  -4    3.39    0.44
   0  -5  -4    3.29    0.43
   0  -5   4    2.51    0.44
   0  -5  -4    3.92    0.45
   0  -5   4    3.09    0.39
   0  -5   4    3.28    0.50
   0  -5  -4    3.40    0.47
   0  -5  -4    3.70    0.41
   0  -5   4    3.72    0.47
   0  -5   4    2.51    0.42
   0   5  -4    2.68    0.44
   0   5   4    2.76    0.44
   0   5   4    2.85    0.35
   0   5   4    5.08    0.86
   0   5   4    4.21    0.60
   0   5  -4    2.88    0.51
   0   5  -4    3.56    0.38
   0   5  -4    4.02    0.62
   0   5   4    3.73    0.83
   0   5   4    3.24    0.36
  -1  -5  -4    2.34    0.42
   1  -5   4    2.17    0.36
  -1  -5  -4    1.81    0.44
  -1  -5  -4    1.47    0.32
  -1  -5  -4    1.68    0.38
  -1  -5  -4    2.02    0.30
   1  -5   4    1.14    0.34
   1  -5   4    1.18    0.34
   1  -5   4    1.07    0.40
  -1  -5  -4    1.83    0.42
  -1  -5  -4    1.93    0.30
   1  -5   4    2.18    0.77
  -1   5  -4    2.18    0.37
  -1   5  -4    1.93    0.46
  -1   5  -4    1.66    0.27
   1   5   4    1.95    0.28
  -1   5  -4    1.56    0.40
  -1   5  -4    1.52    0.34
  -1   5  -4    1.16    0.51
   1   5   4    2.71    0.64
  -1   5  -4    2.09    0.50
   1   5   4    2.01    0.34
  -1   5  -4    1.71    0.62
  -2  -5  -4    2.70    0.34
   2  -5   4    2.11    0.46
  -2  -5  -4    2.72    0.38
   2  -5   4    2.59    0.38
   2  -5   4    3.02    0.54
  -2  -5  -4    2.72    0.41
   2  -5   4    1.55    0.56
  -2  -5  -4    2.21    0.49
  -2  -5  -4    2.36    0.40
   2  -5   4    2.75    0.69
  -2   5  -4    3.06    0.65
  -2   5  -4    1.96    0.60
  -2   5  -4    2.57    0.73
   2   5   4    2.68    0.33
  -2   5  -4    2.35    0.37
  -2   5  -4    2.30    0.49
   3  -5   4    7.17    0.69
   3  -5   4    7.59    0.68
  -3  -5  -4    6.96    0.51
   3  -5   4    7.33    0.78
  -3  -5  -4    6.69    0.55
   3  -5   4    6.52    0.71
   3  -5   4    7.42    0.61
  -3  -5  -4    6.70    0.61
  -3   5  -4    7.68    0.57
  -3   5  -4    7.05    0.97
  -3   5  -4    7.35    0.57
  -3   5  -4    7.23    0.80
  -3   5  -4    5.28    0.89
   3   5   4    7.35    0.48
  -3   5  -4    9.05    1.27
   3   5   4    9.71    0.70
  -3   5  -4    7.00    0.57
  -4  -5  -4    9.09    0.51
   4  -5   4    9.31    0.76
  -4  -5  -4    8.83    0.47
   4  -5   4    8.59    0.84
   4  -5   4    9.43    0.58
  -4  -5  -4    9.64    0.58
   4  -5   4    9.21    0.70
  -4  -5  -4    8.86    0.60
   4   5   4    9.27    0.59
  -4   5  -4    9.37    0.77
  -4   5  -4    9.13    0.58
  -4   5  -4    8.74    0.90
  -4   5  -4    9.56    0.57
   4   5   4    9.28    0.51
  -4   5  -4    8.92    0.72
  -4   5  -4    9.41    1.02
  -5  -5  -4   17.54    0.79
   5  -5   4   17.05    0.91
  -5  -5  -4   17.38    0.79
   5  -5   4   18.85    0.87
   5  -5   4   17.23    0.76
   5  -5   4   16.15    0.89
  -5   5  -4   16.61    1.06
  -5   5  -4   16.47    0.91
  -5   5  -4   16.25    1.03
  -5   5  -4   18.85    0.80
   5   5   4   16.57    0.81
  -5   5  -4   17.15    0.79
  -5   5  -4   16.13    0.92
   5   5   4   17.27    0.74
   6  -5   4    0.80    0.21
  -6   5  -4    0.92    0.33
  -6   5  -4    0.43    0.29
  -6   5  -4    0.81    0.29
  -6   5  -4    0.82    0.25
  -6   6   4    0.22    0.25
   5   6  -4    3.50    0.29
  -5   6   4    4.29    0.54
  -5   6   4    4.95    0.58
  -5   6   4    4.55    0.75
   4  -6  -4    5.31    0.48
   4  -6  -4    5.07    0.42
  -4  -6   4    6.00    0.50
   4  -6  -4    4.53    0.52
  -4   6   4    6.87    0.68
  -4   6   4    6.57    0.69
   4   6  -4    6.29    0.48
   4   6  -4    5.85    0.35
  -4   6   4    6.47    0.72
   4   6  -4    4.71    0.36
  -3  -6   4    0.29    0.27
  -3  -6   4    0.55    0.26
   3  -6  -4    0.46    0.31
   3  -6  -4    0.40    0.24
   3  -6  -4    0.43    0.29
  -3   6   4    0.93    0.58
   3   6  -4    0.74    0.22
   3   6  -4    0.56    0.40
  -3   6   4    0.77    0.48
  -3   6   4    0.81    0.51
   3   6  -4    0.49    0.22
  -2  -6   4    2.50    0.32
  -2  -6   4    1.83    0.28
   2  -6  -4    2.86    0.43
   2  -6  -4    2.81    0.32
   2  -6  -4    3.49    0.43
   2  -6  -4    2.85    0.38
   2  -6  -4    2.70    0.37
   2  -6  -4    2.48    0.39
  -2  -6   4    2.65    0.39
  -2   6   4    3.64    0.72
   2   6  -4    3.53    0.47
  -2   6   4    3.98    0.67
   2   6  -4    2.88    0.32
  -2   6   4    2.71    0.53
   2   6  -4    2.08    0.31
   1  -6  -4    4.41    0.48
  -1  -6   4    4.23    0.47
   1  -6  -4    4.43    0.41
   1  -6  -4    4.71    0.57
  -1  -6   4    4.41    0.38
   1  -6  -4    4.88    0.58
  -1  -6   4    4.51    0.42
  -1  -6   4    5.44    0.55
   1  -6  -4    3.99    0.41
   1  -6  -4    4.50    0.56
  -1   6   4    4.62    0.51
   1   6  -4    3.13    0.41
  -1   6   4    3.52    0.37
   1   6  -4    4.46    0.37
   0  -6   4   24.21    1.10
   0  -6  -4   23.36    1.10
   0  -6   4   24.77    1.07
   0  -6  -4   21.55    1.10
   0  -6  -4   22.43    1.11
   0  -6   4   24.39    1.03
   0  -6  -4   23.41    1.01
   0  -6   4   23.51    1.13
   0  -6   4   22.74    0.99
   0  -6  -4   22.95    1.03
   0  -6  -4   24.22    1.03
   0   6  -4   23.88    1.11
   0   6  -4   22.74    1.22
   0   6  -4   23.91    0.98
   0   6   4   22.28    1.01
   0   6   4   22.30    1.02
   1  -6   4    8.11    0.59
  -1  -6  -4    8.06    0.49
   1  -6   4    7.36    0.48
   1  -6   4    8.33    0.66
   1  -6   4    7.55    0.63
  -1  -6  -4    8.01    0.51
  -1  -6  -4    7.64    0.57
  -1  -6  -4    8.35    0.52
   1  -6   4    7.96    0.65
   1  -6   4    7.68    0.59
  -1  -6  -4    8.24    0.63
  -1   6  -4    7.22    0.87
   1   6   4    7.34    0.45
  -1   6  -4    7.11    0.70
  -1   6  -4    6.46    0.38
   1   6   4    6.96    0.50
  -1   6  -4    8.02    0.58
  -2  -6  -4    0.70    0.22
  -2  -6  -4    0.38    0.15
   2  -6   4    0.31    0.34
   2  -6   4    0.42    0.20
   2  -6   4    0.27    0.33
   2  -6   4    0.18    0.40
  -2  -6  -4    0.64    0.31
   2  -6   4    0.03    0.29
  -2  -6  -4    0.47    0.24
   2  -6   4    0.42    0.33
  -2   6  -4    0.40    0.37
   2   6   4    0.43    0.18
  -2   6  -4    0.20    0.48
  -2   6  -4    0.12    0.37
   2   6   4    0.43    0.21
   3  -6   4    0.16    0.23
  -3  -6  -4    0.81    0.23
   3  -6   4   -0.12    0.37
  -3  -6  -4    0.38    0.25
   3  -6   4   -0.20    0.30
  -3  -6  -4    0.55    0.19
   3  -6   4    1.04    0.42
   3  -6   4   -0.02    0.27
  -3   6  -4    0.45    0.47
  -3   6  -4    0.62    0.34
   3   6   4    0.48    0.22
   3   6   4    0.29    0.16
   4  -6   4    4.52    0.43
   4  -6   4    4.41    0.41
   4  -6   4    4.01    0.41
  -4  -6  -4    4.36    0.30
  -4   6  -4    4.27    0.55
   4   6   4    4.96    0.38
   2  -7  -4    0.27    0.16
  -2  -7   4    0.21    0.14
   2   7  -4    0.27    0.17
   1  -7  -4    1.87    0.24
  -1  -7   4    2.23    0.26
  -1  -7   4    1.86    0.26
   1  -7  -4    2.37    0.27
   1   7  -4    1.80    0.22
   0  -7   4   -0.01    0.17
   0  -7  -4    0.18    0.15
   0  -7   4   -0.06    0.23
   0   7  -4    0.08    0.15
   1  -7   4    1.21    0.17
  -1  -7  -4    1.46    0.17
   1   7   4    1.67    0.21
 -10   0   5    2.05    0.25
 -10   0   5    1.89    0.23
 -10   0   5    2.07    0.20
  -9   0   5    7.26    0.68
  -9   0   5    8.78    0.58
   9   0  -5    9.45    0.44
  -9   0   5   10.19    0.53
  -9   0   5    9.90    0.49
  -8   0   5   33.46    1.36
   8   0  -5   34.73    1.33
  -8   0   5   32.99    1.49
  -8   0   5   33.80    1.37
  -8   0   5   32.29    1.37
  -8   0   5   32.43    1.38
  -7   0   5    7.19    0.67
  -7   0   5    7.42    0.50
   7   0  -5    7.74    0.47
  -7   0   5    7.10    0.50
  -7   0   5    7.84    0.50
  -7   0   5    7.76    0.49
  -6   0   5    0.21    0.18
   6   0  -5   -0.03    0.24
  -6   0   5    0.54    0.23
  -6   0   5    0.32    0.19
   6   0  -5    0.17    0.15
  -6   0   5    0.55    0.21
  -6   0   5    0.39    0.18
  -6   0   5    0.13    0.19
  -6   0   5    0.11    0.29
   6   0  -5   -0.46    0.29
   6   0  -5    1.16    0.47
  -6   0   5    0.50    0.19
   5   0  -5    1.89    0.22
   5   0  -5    2.09    0.51
   5   0  -5    1.99    0.29
   5   0  -5    1.65    0.30
  -5   0   5    2.53    0.24
  -5   0   5    2.44    0.25
  -5   0   5    1.79    0.20
  -5   0   5    2.06    0.33
  -5   0   5    2.35    0.38
   4   0  -5   26.85    1.15
   4   0  -5   24.47    1.01
   4   0  -5   25.64    1.07
   4   0  -5   26.77    1.45
  -3   0   5   30.58    1.25
   3   0  -5   29.81    1.48
   3   0  -5   26.16    1.15
   3   0  -5   30.19    1.34
   3   0  -5   31.46    1.18
   2   0  -5    7.91    0.61
  -2   0   5    6.98    0.48
   2   0  -5    8.01    0.39
   2   0  -5    7.00    0.36
   2   0  -5    7.38    0.49
  -2   0   5    6.68    0.44
   1   0  -5   15.83    0.64
   1   0  -5   16.38    0.67
   1   0  -5   15.20    0.73
  -1   0   5   14.58    0.87
  -1   0   5   14.20    0.68
   1   0  -5   15.17    0.83
  -1   0   5   15.22    0.86
   0   0   5   20.47    0.90
   0   0  -5   22.56    1.02
   0   0  -5   22.02    0.86
   0   0  -5   22.59    0.88
   0   0   5   19.89    1.16
   0   0   5   20.13    0.86
   0   0  -5   20.74    0.94
   0   0   5   19.67    1.07
   0   0  -5   20.37    1.00
   1   0   5    0.56    0.16
  -1   0  -5    0.73    0.29
  -1   0  -5    0.27    0.17
  -1   0  -5    0.42    0.18
   1   0   5    0.77    0.38
  -1   0  -5    0.39    0.15
   1   0   5    0.35    0.23
   1   0   5    0.45    0.17
   2   0   5   35.65    1.73
   2   0   5   32.38    1.54
  -2   0  -5   40.70    1.54
  -2   0  -5   37.47    1.51
  -2   0  -5   39.07    1.56
   2   0   5   38.27    1.69
  -2   0  -5   38.74    1.58
   2   0   5   43.01    1.61
   2   0   5   39.66    1.50
   3   0   5   13.28    0.60
  -3   0  -5   12.34    0.64
   3   0   5   12.40    0.54
   3   0   5   13.42    0.65
  -3   0  -5   11.75    0.63
   3   0   5   11.26    0.89
   3   0   5   11.76    0.86
  -3   0  -5   12.67    0.65
   3   0   5   12.53    0.57
   3   0   5   12.70    0.76
  -4   0  -5   15.50    0.78
   4   0   5   14.62    0.70
   4   0   5   13.88    0.89
  -4   0  -5   14.93    0.77
   4   0   5   13.04    1.09
   4   0   5   15.62    0.65
   4   0   5   16.02    0.78
  -4   0  -5   14.03    0.75
  -4   0  -5   14.83    0.76
  -4   0  -5   14.56    0.76
  -4   0  -5   14.79    0.70
   4   0   5   13.77    1.10
  -4   0  -5   14.93    0.65
   5   0   5    9.98    0.50
   5   0   5   10.66    0.60
  -5   0  -5   10.21    0.76
   5   0   5   10.67    0.58
  -5   0  -5   10.01    0.69
   5   0   5   10.10    0.90
  -5   0  -5    9.68    0.65
  -5   0  -5   10.29    0.52
   5   0   5   10.67    0.67
  -5   0  -5   10.42    0.60
  -5   0  -5    9.84    0.50
  -5   0  -5    9.47    0.66
   6   0   5  134.67    5.12
  -6   0  -5  134.82    5.24
   6   0   5  132.46    5.06
  -6   0  -5  133.90    5.07
  -6   0  -5  129.12    5.17
  -6   0  -5  132.82    5.30
  -6   0  -5  132.89    5.07
  -6   0  -5  133.90    5.26
  -6   0  -5  134.06    5.12
   7   0   5    2.62    0.27
  -7   0  -5    2.85    0.32
   7   0   5    2.75    0.49
  -7   0  -5    3.03    0.40
  -7   0  -5    3.16    0.65
  -7   0  -5    2.43    0.44
   7   0   5    2.05    0.62
  -7   0  -5    3.23    0.45
  -7   0  -5    2.55    0.32
   7   0   5    2.93    0.67
   7   0   5    3.39    0.47
  -8   0  -5    0.29    0.16
  -8   0  -5    0.13    0.17
   8   0   5    0.39    0.24
  -8   0  -5    0.06    0.33
   8   0   5    0.24    0.31
   8   0   5    0.23    0.27
  -8   0  -5    0.42    0.21
 -10  -1   5    0.94    0.15
 -10  -1   5    1.04    0.17
 -10  -1   5    0.76    0.13
 -10  -1   5    1.40    0.30
 -10   1   5    1.29    0.24
  -9  -1   5    1.90    0.32
  -9  -1   5    2.39    0.30
  -9  -1   5    2.29    0.27
  -9   1   5    1.78    0.33
  -9   1   5    1.75    0.25
  -9   1   5    1.34    0.23
   9   1  -5    2.11    0.33
  -9   1   5    1.27    0.24
  -8  -1   5    5.85    0.41
  -8  -1   5    5.65    0.42
  -8  -1   5    5.42    0.60
  -8  -1   5    5.74    0.42
  -8  -1   5    5.41    0.40
  -8   1   5    5.26    0.42
  -8   1   5    5.81    0.45
  -8   1   5    6.08    0.66
   8   1  -5    5.38    0.65
  -8   1   5    5.56    0.41
   8   1  -5    5.72    0.41
  -8   1   5    5.59    0.44
  -7  -1   5    5.60    0.63
  -7  -1   5    5.43    0.44
  -7  -1   5    6.12    0.41
  -7  -1   5    5.90    0.43
  -7  -1   5    6.09    0.43
  -7   1   5    5.46    0.44
  -7   1   5    5.67    0.43
   7   1  -5    5.73    0.48
  -7   1   5    5.02    0.71
   7   1  -5    5.67    0.46
  -7   1   5    5.11    0.66
  -7   1   5    5.75    0.44
  -7   1   5    5.89    0.43
  -7   1   5    5.81    0.73
   7   1  -5    5.89    0.43
   6  -1  -5    3.79    0.49
  -6  -1   5    4.38    0.35
  -6  -1   5    4.94    0.43
  -6  -1   5    4.83    0.51
  -6  -1   5    4.88    0.44
  -6   1   5    4.44    0.62
  -6   1   5    4.60    0.56
  -6   1   5    5.26    0.57
   6   1  -5    4.71    0.50
  -6   1   5    4.12    0.35
  -6   1   5    3.84    0.37
   6   1  -5    3.71    0.50
  -6   1   5    3.82    0.50
   6   1  -5    4.40    0.42
  -6   1   5    4.80    0.39
   6   1  -5    4.02    0.38
  -6   1   5    4.20    0.50
   6   1  -5    4.27    0.31
   6   1  -5    4.14    0.42
   5  -1  -5   10.00    0.83
  -5  -1   5    9.92    0.61
   5  -1  -5    8.68    0.61
  -5  -1   5    9.58    0.51
   5  -1  -5    9.37    0.54
   5  -1  -5    8.37    0.68
  -5  -1   5   10.12    0.51
  -5  -1   5   10.11    0.51
  -5   1   5    8.88    0.47
   5   1  -5   10.40    0.96
   5   1  -5    9.58    0.49
  -5   1   5    8.95    0.50
  -5   1   5    9.36    0.56
  -5   1   5    9.00    0.65
   5   1  -5    9.96    0.72
  -5   1   5   10.12    0.62
   5   1  -5    9.02    0.51
  -5   1   5    8.84    0.79
   5   1  -5   10.23    0.61
  -5   1   5    9.10    0.67
  -5   1   5    9.38    0.50
   4  -1  -5   65.15    2.68
   4  -1  -5   65.19    2.79
   4  -1  -5   64.02    2.47
   4  -1  -5   65.31    2.54
   4  -1  -5   60.79    2.62
  -4  -1   5   66.88    2.45
   4   1  -5   66.26    2.46
  -4   1   5   61.80    2.62
  -4   1   5   61.50    2.52
   4   1  -5   64.54    2.63
   4   1  -5   63.51    2.53
   4   1  -5   62.67    2.48
   4   1  -5   63.20    2.93
  -4   1   5   66.06    2.61
   3  -1  -5   12.95    0.75
  -3  -1   5   12.40    0.67
   3  -1  -5   11.77    0.65
   3  -1  -5   12.26    0.87
   3   1  -5   10.57    0.74
   3   1  -5   11.30    0.67
   3   1  -5   12.65    0.69
   3   1  -5   11.63    0.60
  -3   1   5   12.58    0.80
   3   1  -5   12.16    0.90
  -3   1   5   11.63    0.70
  -2  -1   5   81.82    3.13
   2  -1  -5   67.88    3.02
   2  -1  -5   78.00    3.19
  -2  -1   5   83.71    3.15
   2  -1  -5   82.57    3.20
   2  -1  -5   77.10    3.11
   2   1  -5   77.51    3.32
   2   1  -5   77.51    3.18
   2   1  -5   86.82    3.05
   2   1  -5   84.43    3.04
  -2   1   5   82.72    3.17
   1  -1  -5    7.42    0.39
  -1  -1   5    6.47    0.44
  -1  -1   5    6.01    0.60
   1  -1  -5    7.42    0.53
   1  -1  -5    6.65    0.36
  -1  -1   5    6.73    0.64
   1  -1  -5    7.32    0.48
  -1  -1   5    6.57    0.52
  -1   1   5    6.31    0.62
   1   1  -5    7.12    0.59
  -1   1   5    6.50    0.52
   1   1  -5    6.66    0.41
   1   1  -5    6.56    0.48
   1   1  -5    6.64    0.35
   0  -1  -5   13.37    0.62
   0  -1  -5   12.72    0.63
   0  -1   5   11.10    0.81
   0  -1  -5   13.68    0.59
   0  -1  -5   12.63    0.73
   0  -1   5   12.30    0.64
   0  -1   5   12.68    0.60
   0  -1  -5   11.98    0.63
   0  -1   5   11.83    0.81
   0   1  -5   13.65    0.66
   0   1   5   13.13    0.61
   0   1  -5   13.10    0.62
   0   1   5   14.09    0.70
   0   1   5   13.45    0.55
   0   1  -5   13.19    0.57
   0   1   5   12.39    0.59
   0   1   5   12.97    0.75
   0   1  -5   13.44    0.76
  -1  -1  -5    4.94    0.36
  -1  -1  -5    4.89    0.50
   1  -1   5    5.62    0.37
  -1  -1  -5    5.07    0.40
   1  -1   5    4.76    0.41
  -1  -1  -5    4.53    0.40
  -1  -1  -5    4.85    0.35
   1  -1   5    4.63    0.66
  -1   1  -5    4.42    0.31
   1   1   5    4.89    0.32
   1   1   5    4.94    0.27
   1   1   5    4.62    0.45
  -1   1  -5    5.42    0.50
  -1   1  -5    5.07    0.40
   1   1   5    5.09    0.34
   2  -1   5   70.47    2.81
  -2  -1  -5   75.59    2.81
   2  -1   5   73.12    2.80
  -2  -1  -5   71.77    2.79
   2  -1   5   79.26    2.86
  -2  -1  -5   73.90    2.84
  -2  -1  -5   72.95    2.80
   2  -1   5   70.71    2.98
   2  -1   5   69.21    2.77
  -2  -1  -5   72.86    2.85
  -2  -1  -5   72.64    2.98
   2  -1   5   70.55    3.03
  -2   1  -5   73.58    2.81
  -2   1  -5   71.13    2.83
  -2   1  -5   71.97    2.82
   2   1   5   73.23    2.78
   2   1   5   71.17    2.88
   2   1   5   75.45    2.77
   2   1   5   71.96    3.01
  -2   1  -5   72.39    2.84
   2   1   5   74.37    2.77
  -3  -1  -5   22.04    0.97
   3  -1   5   21.33    0.97
  -3  -1  -5   21.37    0.92
  -3  -1  -5   21.57    0.94
   3  -1   5   20.18    1.25
   3  -1   5   22.15    1.25
  -3  -1  -5   20.39    0.92
   3  -1   5   20.09    0.85
   3  -1   5   21.95    0.91
   3  -1   5   20.55    0.93
  -3  -1  -5   21.18    0.96
  -3   1  -5   21.36    0.96
  -3   1  -5   20.81    0.98
   3   1   5   23.36    0.96
  -3   1  -5   21.69    0.95
   3   1   5   21.38    0.89
  -3   1  -5   20.30    0.95
   3   1   5   20.19    1.07
   3   1   5   21.90    0.87
   3   1   5   21.74    0.88
   3   1   5   20.50    0.85
  -3   1  -5   21.38    0.93
   3   1   5   20.38    1.51
   4  -1   5   45.34    1.77
  -4  -1  -5   41.88    1.90
  -4  -1  -5   45.54    1.85
  -4  -1  -5   46.29    1.86
   4  -1   5   39.92    2.15
  -4  -1  -5   44.95    1.80
  -4  -1  -5   47.19    1.91
   4  -1   5   43.25    2.18
  -4  -1  -5   45.42    1.77
   4  -1   5   47.65    1.90
   4  -1   5   46.91    1.84
   4  -1   5   47.91    1.82
  -4  -1  -5   47.72    1.91
  -4  -1  -5   40.58    1.79
   4   1   5   47.75    1.78
  -4   1  -5   45.28    1.78
  -4   1  -5   47.36    1.84
   4   1   5   47.37    1.80
   4   1   5   44.63    2.02
  -4   1  -5   44.80    1.90
  -4   1  -5   45.31    1.78
  -4   1  -5   45.51    1.89
   4   1   5   46.53    1.79
  -4   1  -5   45.38    1.86
   4   1   5   43.83    2.26
  -4   1  -5   45.50    1.92
  -4   1  -5   45.54    1.90
   5  -1   5    7.34    0.55
   5  -1   5    9.71    1.26
  -5  -1  -5    6.97    0.42
  -5  -1  -5    7.76    0.49
  -5  -1  -5    7.08    0.42
   5  -1   5    6.81    0.39
   5  -1   5    7.38    0.61
   5  -1   5    7.70    0.57
  -5  -1  -5    6.96    0.56
   5  -1   5    6.59    1.00
  -5  -1  -5    7.02    0.61
  -5   1  -5    6.81    0.45
  -5   1  -5    8.31    1.44
   5   1   5   10.13    1.37
   5   1   5    7.53    0.49
   5   1   5    7.32    0.49
  -5   1  -5    7.31    0.56
  -5   1  -5    7.39    0.55
  -5   1  -5    7.71    0.71
  -5   1  -5    7.55    0.67
   5   1   5    7.88    0.45
   5   1   5    7.90    0.58
  -6  -1  -5   19.75    1.11
  -6  -1  -5   19.41    0.84
   6  -1   5   19.45    0.99
   6  -1   5   19.44    1.03
   6  -1   5   18.93    0.82
   6  -1   5   19.15    0.96
   6  -1   5   18.82    1.04
  -6  -1  -5   18.83    0.89
  -6  -1  -5   19.55    0.85
  -6  -1  -5   19.09    1.02
  -6  -1  -5   19.66    1.01
  -6  -1  -5   20.32    1.03
   6  -1   5   19.13    1.24
  -6   1  -5   19.91    0.89
   6   1   5   17.97    1.27
   6   1   5   20.06    0.92
  -6   1  -5   19.10    1.05
   6   1   5   20.20    0.91
  -6   1  -5   19.94    1.12
  -6   1  -5   18.22    1.35
  -6   1  -5   19.24    1.01
   6   1   5   19.92    0.85
  -6   1  -5   19.89    0.88
  -6   1  -5   19.92    0.95
   6   1   5   20.87    1.03
   7  -1   5   11.68    0.71
  -7  -1  -5   11.11    0.74
  -7  -1  -5   10.93    0.81
  -7  -1  -5   10.76    0.54
   7  -1   5   10.96    0.68
   7  -1   5   11.67    0.74
  -7  -1  -5   11.21    0.59
  -7  -1  -5   11.20    0.55
  -7  -1  -5    9.91    0.87
   7  -1   5   11.21    0.74
  -7   1  -5   10.65    0.75
   7   1   5   11.97    0.74
  -7   1  -5   11.00    0.59
  -7   1  -5   11.55    0.59
  -7   1  -5   10.51    0.84
   7   1   5   11.67    0.54
  -7   1  -5   10.98    1.04
   7   1   5   11.77    0.65
   7   1   5   12.07    0.66
  -7   1  -5   11.89    0.66
  -8  -1  -5    1.52    0.18
  -8  -1  -5    2.07    0.23
   8  -1   5    2.28    0.33
  -8  -1  -5    1.33    0.34
   8  -1   5    1.74    0.32
  -8  -1  -5    1.69    0.35
  -8   1  -5    1.61    0.38
  -8   1  -5    1.74    0.22
   8   1   5    1.60    0.31
  -8   1  -5    1.61    0.24
   8   1   5    1.50    0.22
  -8   1  -5    1.67    0.45
   8   1   5    2.13    0.32
  -8   1  -5    1.42    0.35
  -8   1  -5    1.41    0.20
  -9  -2   5    0.47    0.18
  -9  -2   5    0.10    0.17
  -9  -2   5    0.37    0.25
  -9  -2   5    0.13    0.17
  -9   2   5    0.27    0.22
  -9   2   5    0.23    0.19
  -9   2   5    0.20    0.21
   9   2  -5    0.28    0.16
  -9   2   5    0.65    0.19
  -8  -2   5    6.03    0.40
  -8  -2   5    5.91    0.39
  -8  -2   5    6.11    0.40
  -8  -2   5    5.62    0.61
  -8  -2   5    5.92    0.41
  -8   2   5    5.94    0.45
   8   2  -5    5.99    0.42
  -8   2   5    6.11    0.44
  -8   2   5    5.61    0.73
   8   2  -5    5.87    0.47
  -8   2   5    5.49    0.38
  -8   2   5    5.88    0.47
  -8   2   5    7.21    0.76
  -7  -2   5    3.73    0.38
  -7  -2   5    3.49    0.36
  -7  -2   5    4.25    0.25
  -7  -2   5    3.85    0.37
  -7  -2   5    3.70    0.49
  -7  -2   5    3.26    0.37
   7   2  -5    3.35    0.43
  -7   2   5    4.62    0.78
  -7   2   5    3.43    0.41
  -7   2   5    4.19    0.63
   7   2  -5    5.96    1.01
   7   2  -5    3.77    0.40
  -7   2   5    5.14    0.78
   7   2  -5    3.17    0.41
  -7   2   5    3.12    0.41
  -7   2   5    3.44    0.41
  -7   2   5    3.93    0.39
  -6  -2   5    6.44    0.46
  -6  -2   5    6.69    0.45
  -6  -2   5    6.35    0.66
   6   2  -5    6.79    0.50
  -6   2   5    6.28    0.69
  -6   2   5    8.25    0.87
  -6   2   5    7.72    0.53
  -6   2   5    7.69    0.91
  -6   2   5    6.44    0.46
   6   2  -5    6.85    0.50
  -6   2   5    5.77    0.60
  -6   2   5    7.32    0.80
   6   2  -5    7.40    0.53
  -6   2   5    8.04    1.08
   6   2  -5    7.61    0.65
  -6   2   5    6.74    0.45
   6   2  -5    6.68    0.41
  -6   2   5    6.56    0.46
   5  -2  -5    9.42    0.72
   5  -2  -5    9.85    0.61
  -5  -2   5    9.56    0.68
  -5  -2   5   10.05    0.51
  -5  -2   5   10.44    0.50
  -5  -2   5   10.18    0.52
  -5  -2   5    9.87    0.52
  -5  -2   5    9.48    0.54
  -5   2   5    9.58    0.78
  -5   2   5    9.96    0.51
   5   2  -5    9.39    0.68
   5   2  -5   10.52    0.58
  -5   2   5    9.92    0.97
   5   2  -5   11.17    0.58
  -5   2   5    9.95    0.51
  -5   2   5    9.97    0.51
  -5   2   5   10.46    0.69
  -5   2   5    9.03    0.57
   5   2  -5    9.92    0.59
  -5   2   5   10.05    0.71
  -5   2   5    9.73    0.52
   5   2  -5   10.36    0.51
  -5   2   5   10.17    0.51
   5   2  -5    7.86    1.34
  -5   2   5    9.96    0.73
   5   2  -5    9.36    0.79
   5   2  -5    9.30    0.56
  -4  -2   5    2.45    0.27
  -4  -2   5    2.74    0.41
   4  -2  -5    3.07    0.38
  -4  -2   5    2.62    0.29
   4  -2  -5    3.28    0.38
   4  -2  -5    2.33    0.26
   4  -2  -5    2.02    0.38
   4   2  -5    2.39    0.36
   4   2  -5    3.35    0.63
  -4   2   5    2.57    0.40
   4   2  -5    1.99    0.29
   4   2  -5    3.19    0.67
   4   2  -5    2.27    0.30
  -4   2   5    1.88    0.40
  -4   2   5    2.04    0.50
   4   2  -5    2.93    0.36
  -4   2   5    3.75    0.72
   4   2  -5    2.39    0.42
  -3  -2   5   87.39    3.31
  -3  -2   5   81.10    3.32
   3  -2  -5   91.96    3.41
   3  -2  -5   82.07    3.43
   3  -2  -5   89.87    3.59
   3   2  -5   87.74    3.39
  -3   2   5   87.02    3.52
  -3   2   5   85.81    3.38
  -3   2   5   84.49    3.33
   3   2  -5   79.59    3.52
   3   2  -5   92.50    3.33
   3   2  -5   88.93    3.34
   3   2  -5   85.32    3.74
   3   2  -5   90.10    3.34
   2  -2  -5  269.60   10.49
  -2  -2   5  293.74   10.57
  -2  -2   5  265.67   10.38
   2  -2  -5  277.83   10.37
  -2  -2   5  280.22   10.51
   2  -2  -5  273.96   10.64
   2  -2  -5  281.28   10.47
   2   2  -5  281.65   10.41
  -2   2   5  260.81   10.43
   2   2  -5  278.45   10.39
  -2   2   5  287.47   10.57
   2   2  -5  277.63   10.57
   2   2  -5  262.54   10.72
   2   2  -5  277.80   10.40
  -1  -2   5    7.79    0.52
  -1  -2   5    8.14    0.49
  -1  -2   5    8.44    0.56
   1  -2  -5    8.39    0.69
  -1  -2   5    8.18    0.46
  -1  -2   5    7.95    0.80
   1  -2  -5    8.72    0.56
   1  -2  -5    8.21    0.56
   1   2  -5    8.69    0.72
  -1   2   5    9.38    0.42
  -1   2   5    8.91    0.84
   1   2  -5    8.79    0.49
   1   2  -5    8.83    0.53
   1   2  -5    9.19    0.62
   0  -2  -5   33.47    1.40
   0  -2   5   33.73    1.63
   0  -2  -5   36.46    1.48
   0  -2  -5   36.09    1.39
   0  -2   5   34.88    1.45
   0  -2  -5   33.33    1.51
   0  -2   5   35.93    1.39
   0   2   5   34.09    1.52
   0   2  -5   35.66    1.37
   0   2   5   37.84    1.68
   0   2  -5   33.31    1.37
   0   2   5   33.47    1.46
   0   2   5   35.20    1.57
   0   2  -5   35.33    1.48
   0   2  -5   34.99    1.59
   0   2   5   35.84    1.45
   0   2   5   32.62    1.35
   0   2  -5   33.37    1.56
   0   2   5   32.75    1.43
   0   2   5   32.80    1.37
   0   2  -5   35.77    1.44
   1  -2   5   16.58    0.84
   1  -2   5   16.55    0.78
  -1  -2  -5   17.88    0.79
   1  -2   5   16.61    1.08
  -1  -2  -5   17.03    0.85
  -1  -2  -5   17.34    0.80
   1  -2   5   16.40    0.80
  -1  -2  -5   17.86    1.05
  -1  -2  -5   17.10    0.79
  -1  -2  -5   16.52    0.73
   1  -2   5   15.93    0.83
  -1   2  -5   17.48    0.94
   1   2   5   17.95    0.70
   1   2   5   16.03    0.71
  -1   2  -5   15.57    0.79
   1   2   5   17.28    0.75
  -1   2  -5   17.30    0.83
  -1   2  -5   16.21    0.83
   1   2   5   17.69    0.88
   1   2   5   17.23    0.72
  -1   2  -5   16.82    0.82
   1   2   5   18.88    1.15
  -1   2  -5   19.08    0.77
   1   2   5   18.41    1.05
   2  -2   5   17.05    0.84
  -2  -2  -5   16.64    0.87
  -2  -2  -5   16.83    1.06
   2  -2   5   16.73    0.81
  -2  -2  -5   16.14    0.77
  -2  -2  -5   16.14    0.77
  -2  -2  -5   17.10    0.78
  -2  -2  -5   17.63    0.81
   2  -2   5   17.85    0.79
   2  -2   5   16.16    1.13
  -2  -2  -5   18.07    0.77
   2  -2   5   16.88    0.84
  -2  -2  -5   17.03    0.80
   2   2   5   17.93    0.72
   2   2   5   18.69    0.79
   2   2   5   17.35    0.74
   2   2   5   16.87    0.73
  -2   2  -5   17.66    0.79
  -2   2  -5   17.43    0.78
   2   2   5   17.35    0.73
  -2   2  -5   16.95    0.85
   2   2   5   17.22    0.93
   2   2   5   17.26    1.11
  -3  -2  -5    4.75    0.34
   3  -2   5    5.01    0.49
   3  -2   5    5.06    0.48
  -3  -2  -5    5.52    0.54
  -3  -2  -5    5.11    0.45
  -3  -2  -5    3.94    0.34
  -3  -2  -5    5.22    0.41
   3  -2   5    5.11    0.45
  -3  -2  -5    5.02    0.38
   3  -2   5    4.92    0.88
  -3  -2  -5    5.36    0.41
   3  -2   5    5.52    0.47
  -3  -2  -5    5.00    0.39
  -3  -2  -5    5.03    0.62
  -3   2  -5    5.10    0.41
  -3   2  -5    4.94    0.40
   3   2   5    5.09    0.65
  -3   2  -5    5.27    0.38
   3   2   5    5.81    0.37
   3   2   5    5.39    0.74
  -3   2  -5    4.64    0.54
  -3   2  -5    5.42    0.39
  -3   2  -5    4.16    0.76
   3   2   5    5.83    0.43
  -3   2  -5    4.62    0.41
   3   2   5    4.82    0.31
   3   2   5    5.57    0.36
  -3   2  -5    4.82    0.47
   3   2   5    5.28    0.43
   3   2   5    5.40    0.32
   4  -2   5    2.10    0.35
  -4  -2  -5    1.37    0.27
   4  -2   5    1.87    0.33
   4  -2   5    1.77    0.60
  -4  -2  -5    1.75    0.24
  -4  -2  -5    2.34    0.29
  -4  -2  -5    1.83    0.27
   4  -2   5    1.67    0.48
   4  -2   5    1.69    0.34
  -4  -2  -5    2.10    0.20
  -4  -2  -5    1.63    0.21
   4  -2   5    1.77    0.31
   4   2   5    2.30    0.25
   4   2   5    1.46    0.43
   4   2   5    1.60    0.57
  -4   2  -5    1.71    0.40
  -4   2  -5    1.48    0.39
  -4   2  -5    1.84    0.25
  -4   2  -5    1.79    0.53
   4   2   5    2.23    0.32
  -4   2  -5    2.06    0.32
  -4   2  -5    1.30    0.32
   4   2   5    2.48    0.32
  -4   2  -5    2.45    0.29
  -4   2  -5    2.23    0.33
   4   2   5    2.08    0.27
   4   2   5    2.29    0.33
   4   2   5    1.50    0.18
   5  -2   5    4.99    0.55
  -5  -2  -5    5.22    0.58
   5  -2   5    5.20    0.56
   5  -2   5    5.31    0.59
   5  -2   5    5.41    0.97
  -5  -2  -5    4.78    0.44
   5  -2   5    5.76    0.62
  -5  -2  -5    5.16    0.35
  -5  -2  -5    5.43    0.69
  -5  -2  -5    5.10    0.35
  -5   2  -5    5.56    0.51
   5   2   5    4.88    0.37
  -5   2  -5    4.99    0.47
  -5   2  -5    4.93    0.64
  -5   2  -5    4.57    0.70
   5   2   5    5.10    0.52
  -5   2  -5    4.66    0.58
   5   2   5    5.25    0.45
  -5   2  -5    4.95    0.47
   5   2   5    5.96    0.79
  -5   2  -5    5.60    0.85
   5   2   5    5.40    0.44
  -5   2  -5    4.72    0.58
   6  -2   5    1.50    0.37
  -6  -2  -5    1.74    0.33
  -6  -2  -5    1.63    0.40
  -6  -2  -5    1.21    0.22
   6  -2   5    1.56    0.37
   6  -2   5    1.34    0.38
  -6  -2  -5    1.20    0.36
  -6  -2  -5    1.71    0.22
   6  -2   5    1.47    0.36
  -6  -2  -5    1.42    0.21
   6   2   5    1.91    0.28
  -6   2  -5    2.21    0.38
  -6   2  -5    1.35    0.71
  -6   2  -5    1.12    0.27
  -6   2  -5    1.24    0.30
  -6   2  -5    1.49    0.44
   6   2   5    1.82    0.23
  -6   2  -5    1.60    0.33
   6   2   5    1.54    0.33
  -6   2  -5    1.55    0.51
   7  -2   5    0.37    0.33
   7  -2   5    0.87    0.28
  -7  -2  -5    0.55    0.35
  -7  -2  -5    0.61    0.39
   7  -2   5    0.42    0.30
  -7  -2  -5    0.20    0.17
  -7  -2  -5    0.33    0.16
  -7   2  -5    0.14    0.35
   7   2   5   -0.06    0.25
   7   2   5    0.15    0.23
  -7   2  -5    0.52    0.29
   7   2   5    0.49    0.17
  -7   2  -5   -0.02    0.25
  -7   2  -5    0.51    0.25
  -7   2  -5    0.28    0.61
  -7   2  -5    0.63    0.44
   7   2   5    0.51    0.25
  -8  -2  -5    1.30    0.29
   8  -2   5    0.88    0.26
  -8  -2  -5    1.06    0.29
  -8   2  -5    1.24    0.31
   8   2   5    1.53    0.35
   8   2   5    0.96    0.15
  -8   2  -5    1.23    0.24
  -8   2  -5    0.81    0.38
  -8   2  -5    1.22    0.43
  -8   2  -5    1.41    0.23
   8   2   5    1.17    0.23
  -8   2  -5    1.40    0.21
  -9  -3   5    0.86    0.15
  -9  -3   5    0.77    0.20
  -9  -3   5    1.55    0.27
  -9  -3   5    0.89    0.15
   9   3  -5    1.05    0.15
   9   3  -5    1.09    0.16
  -8  -3   5    5.65    0.56
  -8  -3   5    5.99    0.36
  -8  -3   5    4.63    0.35
  -8  -3   5    4.86    0.34
  -8   3   5    5.01    0.36
  -8   3   5    5.20    0.60
   8   3  -5    5.33    0.35
  -8   3   5    4.99    0.37
  -8   3   5    4.55    0.61
  -8   3   5    4.92    0.63
   8   3  -5    5.48    0.40
  -7  -3   5   15.68    0.93
  -7  -3   5   16.47    0.74
  -7  -3   5   16.05    0.77
  -7  -3   5   16.94    0.76
   7   3  -5   17.77    0.81
  -7   3   5   16.66    1.04
  -7   3   5   17.56    1.05
  -7   3   5   15.91    0.78
  -7   3   5   19.16    1.07
   7   3  -5   17.59    0.84
  -7   3   5   15.12    0.79
  -7   3   5   19.95    1.50
   7   3  -5   16.79    0.83
  -6  -3   5   15.94    0.79
  -6  -3   5   16.30    0.77
  -6  -3   5   16.28    0.94
  -6  -3   5   15.88    0.72
  -6   3   5   17.41    1.11
   6   3  -5   17.27    0.84
  -6   3   5   15.58    0.78
   6   3  -5   16.18    1.22
  -6   3   5   14.27    1.35
  -6   3   5   16.05    0.77
  -6   3   5   16.97    1.00
   6   3  -5   14.91    1.07
  -6   3   5   16.25    1.02
   6   3  -5   17.39    0.98
  -6   3   5   17.19    1.10
   6   3  -5   16.98    0.75
  -5  -3   5    4.99    0.33
  -5  -3   5    5.24    0.59
  -5  -3   5    4.89    0.44
  -5  -3   5    4.90    0.47
  -5  -3   5    4.45    0.40
   5  -3  -5    5.80    0.81
  -5   3   5    4.23    0.38
  -5   3   5    5.55    0.75
  -5   3   5    4.79    0.76
   5   3  -5    4.53    0.47
   5   3  -5    4.35    0.39
   5   3  -5    4.39    0.61
   5   3  -5    4.66    0.45
   5   3  -5    4.51    0.45
  -5   3   5    4.23    0.38
  -5   3   5    4.42    0.72
   4  -3  -5    6.94    0.54
  -4  -3   5    6.33    0.47
  -4  -3   5    6.72    0.39
  -4  -3   5    5.92    0.42
  -4  -3   5    6.11    0.56
   4  -3  -5    5.31    0.70
   4  -3  -5    6.16    0.41
  -4   3   5    6.23    0.57
   4   3  -5    6.53    0.42
   4   3  -5    6.28    0.64
   4   3  -5    6.46    1.20
   4   3  -5    6.47    0.48
   4   3  -5    6.61    0.72
  -4   3   5    6.26    0.71
   4   3  -5    6.35    0.46
  -4   3   5    6.90    0.72
  -4   3   5    6.50    0.68
  -4   3   5    7.21    1.01
   4   3  -5    5.72    0.45
   3  -3  -5    6.72    0.73
  -3  -3   5    7.01    0.45
   3  -3  -5    7.23    0.57
  -3  -3   5    7.72    0.44
   3  -3  -5    6.26    0.42
  -3  -3   5    7.34    0.53
  -3   3   5    5.99    0.40
   3   3  -5    7.33    0.60
   3   3  -5    7.00    0.47
  -3   3   5    6.14    0.90
   3   3  -5    7.08    0.55
   3   3  -5    6.63    0.46
   3   3  -5    6.96    0.67
  -3   3   5    6.79    0.61
   3   3  -5    6.98    0.42
  -3   3   5    6.83    0.54
  -3   3   5    6.13    0.64
   3   3  -5    6.76    0.45
   3   3  -5    7.32    0.79
  -3   3   5    7.13    0.66
   2  -3  -5    9.31    0.90
   2  -3  -5    8.42    0.51
   2  -3  -5    9.33    0.81
  -2  -3   5    9.28    0.48
   2  -3  -5    9.49    0.47
  -2  -3   5    9.71    0.60
  -2  -3   5    8.94    0.49
  -2  -3   5    9.75    0.50
   2  -3  -5    8.79    0.49
  -2  -3   5    9.14    0.53
   2   3  -5    8.86    0.68
  -2   3   5    8.70    0.61
   2   3  -5   10.54    0.96
   2   3  -5    9.20    0.47
  -2   3   5    8.68    0.93
  -2   3   5    9.42    0.67
  -2   3   5    9.16    0.46
   2   3  -5    8.54    0.64
  -2   3   5    7.49    0.81
   2   3  -5    9.15    0.50
   2   3  -5    8.36    0.49
  -2   3   5    8.89    0.46
   2   3  -5    9.89    0.52
   1  -3  -5   30.71    1.36
  -1  -3   5   28.89    1.28
   1  -3  -5   30.08    1.19
  -1  -3   5   27.91    1.22
  -1  -3   5   30.30    1.26
   1  -3  -5   28.60    1.21
  -1  -3   5   28.86    1.20
   1  -3  -5   27.13    1.17
  -1  -3   5   28.88    1.21
  -1  -3   5   28.53    1.49
  -1  -3   5   28.49    1.18
   1  -3  -5   30.48    1.58
   1   3  -5   28.21    1.18
   1   3  -5   29.65    1.19
   1   3  -5   28.80    1.47
   1   3  -5   29.96    1.36
   1   3  -5   27.46    1.32
  -1   3   5   27.58    1.52
   1   3  -5   29.44    1.17
  -1   3   5   28.15    1.23
   1   3  -5   28.00    1.24
  -1   3   5   29.13    1.17
   1   3  -5   31.49    1.21
  -1   3   5   26.23    1.27
   1   3  -5   28.56    1.19
  -1   3   5   27.71    1.19
   0  -3   5    3.24    0.55
   0  -3   5    3.44    0.40
   0  -3  -5    4.16    0.41
   0  -3  -5    3.48    0.43
   0  -3   5    3.76    0.49
   0  -3   5    4.48    0.48
   0  -3   5    3.68    0.43
   0  -3   5    4.16    0.39
   0  -3  -5    2.66    0.48
   0  -3   5    3.54    0.42
   0  -3  -5    4.74    0.58
   0  -3  -5    3.92    0.23
   0  -3  -5    3.81    0.32
   0   3  -5    3.81    0.47
   0   3  -5    3.98    0.38
   0   3   5    2.79    0.45
   0   3  -5    3.66    0.30
   0   3  -5    3.76    0.34
   0   3   5    3.57    0.38
   0   3   5    3.61    0.23
   0   3   5    4.27    0.69
   0   3   5    4.26    0.28
   0   3   5    4.02    0.29
   0   3  -5    3.38    0.46
   0   3  -5    3.84    0.29
   0   3  -5    2.65    0.39
   0   3   5    3.84    0.43
   0   3  -5    3.14    0.46
   1  -3   5   33.54    1.39
   1  -3   5   30.89    1.73
  -1  -3  -5   33.51    1.38
  -1  -3  -5   33.69    1.79
  -1  -3  -5   34.96    1.42
   1  -3   5   31.84    1.44
  -1  -3  -5   34.98    1.41
   1  -3   5   34.72    1.43
   1  -3   5   32.79    1.41
  -1  -3  -5   35.79    1.41
  -1  -3  -5   34.04    1.53
  -1  -3  -5   33.89    1.37
   1  -3   5   32.73    1.45
  -1  -3  -5   33.91    1.41
  -1  -3  -5   32.02    1.35
   1   3   5   33.37    1.36
   1   3   5   33.74    1.41
  -1   3  -5   33.95    1.47
  -1   3  -5   32.66    1.48
   1   3   5   33.76    1.77
  -1   3  -5   36.33    1.34
   1   3   5   32.52    1.32
  -1   3  -5   33.70    1.37
   1   3   5   34.88    1.74
  -1   3  -5   34.31    1.41
   1   3   5   33.96    1.32
   1   3   5   33.37    1.54
  -1   3  -5   32.09    1.39
  -2  -3  -5    2.05    0.24
  -2  -3  -5    2.42    0.43
  -2  -3  -5    2.63    0.33
   2  -3   5    2.42    0.42
  -2  -3  -5    3.82    0.67
   2  -3   5    1.76    0.56
  -2  -3  -5    2.12    0.24
   2  -3   5    1.98    0.32
  -2  -3  -5    2.31    0.33
   2  -3   5    2.53    0.38
  -2  -3  -5    2.97    0.44
  -2  -3  -5    2.51    0.27
  -2  -3  -5    2.43    0.37
   2   3   5    2.25    0.53
  -2   3  -5    2.74    0.31
   2   3   5    2.12    0.60
   2   3   5    2.82    0.48
   2   3   5    2.38    0.24
   2   3   5    2.05    0.27
   2   3   5    2.21    0.26
  -2   3  -5    2.36    0.45
  -2   3  -5    2.46    0.48
   2   3   5    1.64    0.21
  -2   3  -5    2.88    0.44
  -2   3  -5    1.97    0.25
  -2   3  -5    2.63    0.50
  -2   3  -5    1.63    0.25
   3  -3   5   13.19    0.74
  -3  -3  -5   12.81    0.73
  -3  -3  -5   13.21    0.88
   3  -3   5   11.86    1.23
   3  -3   5   12.78    0.75
  -3  -3  -5   12.19    0.63
  -3  -3  -5   13.23    0.69
   3  -3   5   12.88    0.75
   3  -3   5   12.57    0.83
  -3  -3  -5   16.51    0.92
  -3  -3  -5   12.29    1.10
   3   3   5   12.32    0.93
   3   3   5   11.16    1.23
  -3   3  -5   12.58    0.82
  -3   3  -5   13.09    0.80
   3   3   5   12.77    0.63
  -3   3  -5   12.90    1.00
   3   3   5   13.84    1.17
  -3   3  -5   13.96    0.69
   3   3   5   13.37    0.60
   3   3   5   13.21    0.69
  -3   3  -5   13.06    0.77
   3   3   5   12.52    0.73
  -3   3  -5   16.05    0.77
   3   3   5   13.21    0.64
  -3   3  -5   12.89    0.87
  -4  -3  -5    0.56    0.16
   4  -3   5    1.25    0.28
  -4  -3  -5    0.85    0.29
   4  -3   5    0.81    0.66
  -4  -3  -5    0.04    0.57
  -4  -3  -5    0.52    0.20
  -4  -3  -5    0.71    0.29
  -4  -3  -5    0.90    0.15
   4  -3   5    0.55    0.37
   4  -3   5    1.05    0.30
  -4  -3  -5    0.74    0.23
   4  -3   5    0.65    0.34
   4   3   5    0.89    0.28
  -4   3  -5    0.64    0.35
   4   3   5    0.48    0.40
  -4   3  -5    0.47    0.60
   4   3   5    0.48    0.17
   4   3   5    0.85    0.66
   4   3   5    0.73    0.23
  -4   3  -5    1.36    0.35
  -4   3  -5    0.40    0.28
  -4   3  -5    0.49    0.41
   4   3   5    0.48    0.18
   4   3   5    0.73    0.29
  -4   3  -5    0.60    0.30
  -4   3  -5    0.74    0.39
   4   3   5    0.21    0.18
   5  -3   5    0.93    0.68
  -5  -3  -5    1.31    0.28
  -5  -3  -5    0.96    0.18
   5  -3   5    1.11    0.38
  -5  -3  -5    1.43    0.27
   5  -3   5    0.92    0.40
  -5   3  -5    0.10    0.76
   5   3   5    1.19    0.30
   5   3   5    1.97    0.55
  -5   3  -5    1.07    0.54
  -5   3  -5    1.08    0.67
   5   3   5    1.37    0.27
   5   3   5    0.07    0.57
  -5   3  -5    1.02    0.39
  -5   3  -5    1.07    0.30
   5   3   5    0.82    0.19
   5   3   5    1.27    0.21
  -5   3  -5    1.17    0.33
  -5   3  -5    0.96    0.30
   5   3   5    0.44    0.26
   5   3   5    1.30    0.26
  -6  -3  -5    2.93    0.33
   6  -3   5    2.34    0.40
   6  -3   5    2.55    0.44
  -6  -3  -5    3.18    0.41
   6  -3   5    2.32    0.36
  -6   3  -5    3.49    0.66
  -6   3  -5    2.82    0.33
   6   3   5    2.86    0.32
  -6   3  -5    2.77    0.37
  -6   3  -5    1.89    0.49
   6   3   5    1.64    0.27
  -6   3  -5    2.05    0.69
   6   3   5    2.39    0.27
  -6   3  -5    2.15    0.32
   6   3   5    2.22    0.40
  -6   3  -5    2.69    0.45
   7  -3   5    1.28    0.32
  -7  -3  -5    1.50    0.35
  -7  -3  -5    1.30    0.35
   7  -3   5    0.79    0.34
   7  -3   5    0.99    0.28
  -7   3  -5    1.12    0.23
   7   3   5    0.94    0.27
  -7   3  -5    1.67    0.68
  -7   3  -5    0.88    0.24
  -7   3  -5    0.80    0.33
   7   3   5    0.97    0.17
  -7   3  -5    1.07    0.28
  -7   3  -5    1.05    0.38
  -8  -3  -5    0.16    0.24
  -8  -4   5    0.58    0.15
  -8  -4   5    0.44    0.14
   8   4  -5    0.63    0.16
  -8   4   5    0.53    0.31
   8   4  -5    0.56    0.18
  -7  -4   5    0.78    0.18
  -7  -4   5    1.19    0.19
  -7  -4   5    0.98    0.28
  -7  -4   5    1.14    0.18
  -7   4   5    2.51    0.84
   7   4  -5    0.84    0.17
  -7   4   5    1.51    0.53
   7   4  -5    0.79    0.20
   7   4  -5    0.86    0.23
  -7   4   5    1.16    0.41
  -7   4   5    1.28    0.49
  -6  -4   5   17.57    0.91
  -6  -4   5   17.15    0.83
   6  -4  -5   14.94    0.99
  -6  -4   5   17.01    0.78
   6   4  -5   17.18    0.81
  -6   4   5   18.23    1.07
  -6   4   5   18.38    1.09
   6   4  -5   17.32    0.83
   6   4  -5   17.69    0.87
   6   4  -5   17.79    0.77
  -6   4   5   18.33    0.99
   5  -4  -5   12.69    0.71
  -5  -4   5   12.94    0.65
   5  -4  -5   14.57    0.71
  -5  -4   5   13.60    0.65
  -5  -4   5   12.56    0.72
  -5  -4   5   15.93    1.17
  -5   4   5   11.51    1.24
   5   4  -5   12.28    0.66
   5   4  -5   12.99    0.75
  -5   4   5   15.81    1.01
   5   4  -5   12.65    0.70
  -5   4   5   12.49    1.02
   5   4  -5   12.90    0.69
  -5   4   5   13.45    0.97
  -5   4   5   13.22    0.88
   4  -4  -5    1.22    0.37
  -4  -4   5    1.10    0.23
  -4  -4   5    1.24    0.23
   4  -4  -5    1.19    0.31
  -4  -4   5    1.36    0.31
   4   4  -5    1.03    0.27
   4   4  -5    1.25    0.27
   4   4  -5    1.94    0.46
  -4   4   5    2.13    0.54
   4   4  -5    0.92    0.26
  -4   4   5    1.64    0.46
   4   4  -5    0.91    0.23
   4   4  -5    1.54    0.33
  -4   4   5    1.77    0.52
  -4   4   5    1.43    0.55
  -4   4   5    1.07    0.79
  -3  -4   5    0.23    0.28
   3  -4  -5    0.09    0.28
  -3  -4   5    0.04    0.22
   3  -4  -5    0.64    0.38
  -3  -4   5    0.43    0.27
   3  -4  -5   -0.01    0.28
  -3   4   5    0.83    0.46
  -3   4   5    0.21    0.12
   3   4  -5    0.33    0.22
   3   4  -5    0.14    0.31
   3   4  -5    0.59    0.21
  -3   4   5    0.33    0.61
  -3   4   5    0.95    0.50
   3   4  -5    0.23    0.25
  -3   4   5    1.11    0.45
   3   4  -5    0.47    0.16
   2  -4  -5    4.54    0.45
   2  -4  -5    3.32    0.38
   2  -4  -5    2.13    0.53
  -2  -4   5    4.09    0.33
   2  -4  -5    3.26    0.53
  -2  -4   5    2.35    0.29
  -2  -4   5    3.48    0.40
   2  -4  -5    3.23    0.48
  -2  -4   5    2.98    0.38
   2  -4  -5    3.31    0.37
   2  -4  -5    3.40    0.34
  -2  -4   5    2.56    0.38
   2   4  -5    4.37    0.51
  -2   4   5    4.10    0.57
  -2   4   5    2.50    0.72
   2   4  -5    3.05    0.40
  -2   4   5    2.96    0.36
   2   4  -5    3.19    0.36
   2   4  -5    3.35    0.34
  -2   4   5    4.39    0.69
  -1  -4   5    9.36    0.68
   1  -4  -5    9.79    0.57
  -1  -4   5    9.76    0.61
   1  -4  -5   10.08    0.66
   1  -4  -5    9.88    1.02
   1  -4  -5    9.68    0.55
  -1  -4   5    9.71    1.15
   1  -4  -5    9.37    0.67
  -1  -4   5    9.45    0.64
   1  -4  -5    8.95    0.58
  -1  -4   5    8.93    0.62
  -1  -4   5    9.84    0.61
  -1  -4   5    9.78    0.68
   1  -4  -5    9.23    0.76
   1   4  -5    9.78    0.53
  -1   4   5    9.28    1.14
   1   4  -5    9.71    0.56
   1   4  -5    9.99    0.74
  -1   4   5    9.53    0.52
  -1   4   5    8.91    0.79
  -1   4   5   10.55    0.80
  -1   4   5   11.04    0.84
  -1   4   5   10.15    0.58
   0  -4  -5    1.46    0.46
   0  -4   5    1.41    0.34
   0  -4   5    1.64    0.40
   0  -4  -5    1.75    0.25
   0  -4  -5    2.43    0.59
   0  -4  -5    1.60    0.33
   0  -4  -5    1.90    0.34
   0  -4  -5    1.87    0.27
   0  -4  -5    1.88    0.29
   0  -4   5    1.00    0.32
   0  -4  -5    1.69    0.34
   0  -4   5    1.81    0.32
   0  -4   5    2.08    0.64
   0  -4   5    2.17    0.42
   0   4   5    1.34    0.38
   0   4  -5    1.68    0.42
   0   4  -5    1.76    0.30
   0   4   5    2.44    0.47
   0   4   5    2.01    0.45
   0   4  -5    2.23    0.27
   0   4  -5    2.36    0.33
   0   4  -5    1.94    0.36
   0   4   5    2.52    0.50
   0   4   5    1.88    0.67
   0   4   5    1.19    0.18
   0   4  -5    0.96    0.40
  -1  -4  -5    0.55    0.34
  -1  -4  -5    0.31    0.25
   1  -4   5    0.29    0.33
  -1  -4  -5    0.44    0.24
  -1  -4  -5    0.54    0.30
  -1  -4  -5    0.56    0.22
  -1  -4  -5    0.26    0.37
  -1  -4  -5    0.34    0.32
   1  -4   5   -0.06    0.31
   1  -4   5    0.28    0.51
   1  -4   5    0.39    0.31
   1  -4   5    0.11    0.30
   1  -4   5    0.12    0.33
  -1   4  -5    0.57    0.30
  -1   4  -5    0.43    0.34
   1   4   5    0.38    0.19
  -1   4  -5    0.59    0.44
  -1   4  -5    0.70    0.34
  -1   4  -5    0.94    0.29
   1   4   5    0.29    0.62
  -1   4  -5    0.37    0.21
   1   4   5    0.31    0.27
  -1   4  -5    0.25    0.38
  -2  -4  -5    3.57    0.41
  -2  -4  -5    3.56    0.42
   2  -4   5    3.06    0.40
  -2  -4  -5    3.12    0.45
   2  -4   5    2.94    0.42
   2  -4   5    2.80    0.82
  -2  -4  -5    3.40    0.56
   2  -4   5    2.93    0.40
  -2  -4  -5    2.65    0.40
  -2  -4  -5    2.37    0.35
  -2  -4  -5    3.48    0.41
   2  -4   5    3.27    0.67
  -2   4  -5    3.32    0.37
   2   4   5    4.66    0.84
  -2   4  -5    2.89    0.46
   2   4   5    3.16    0.76
  -2   4  -5    3.60    1.15
   2   4   5    3.63    0.41
  -2   4  -5    3.86    0.49
   2   4   5    2.97    0.35
  -2   4  -5    3.20    0.60
  -2   4  -5    3.71    0.60
  -3  -4  -5   39.02    1.81
  -3  -4  -5   36.93    1.60
   3  -4   5   34.76    2.19
  -3  -4  -5   38.67    1.54
   3  -4   5   35.92    1.64
  -3  -4  -5   34.80    1.49
   3  -4   5   37.77    1.61
  -3  -4  -5   38.64    1.58
   3  -4   5   37.04    1.69
   3  -4   5   38.47    1.62
   3  -4   5   36.72    1.59
  -3   4  -5   36.57    1.63
   3   4   5   38.33    2.04
  -3   4  -5   37.25    1.71
   3   4   5   37.56    1.54
  -3   4  -5   36.05    1.63
   3   4   5   37.53    1.49
  -3   4  -5   39.01    1.57
   3   4   5   37.98    1.61
  -3   4  -5   39.53    1.56
  -3   4  -5   36.93    1.82
   3   4   5   36.90    1.84
  -3   4  -5   35.89    1.59
  -4  -4  -5   24.62    1.13
  -4  -4  -5   24.72    1.08
   4  -4   5   26.33    1.18
   4  -4   5   23.86    1.22
   4  -4   5   24.61    1.17
   4  -4   5   26.10    1.80
  -4  -4  -5   24.72    1.00
  -4  -4  -5   24.86    1.15
   4  -4   5   24.62    1.26
   4  -4   5   25.25    1.17
  -4   4  -5   27.44    1.20
   4   4   5   24.03    1.77
  -4   4  -5   23.45    1.14
  -4   4  -5   24.50    1.52
  -4   4  -5   24.91    1.16
   4   4   5   25.87    1.09
  -4   4  -5   24.49    1.31
   4   4   5   25.20    1.04
  -4   4  -5   24.59    1.22
   4   4   5   26.12    1.16
  -4   4  -5   26.98    1.13
  -4   4  -5   23.81    1.44
  -5  -4  -5    1.04    0.31
  -5  -4  -5    1.43    0.28
   5  -4   5    0.68    0.33
   5  -4   5    0.99    0.34
   5  -4   5    1.54    0.41
   5  -4   5    0.85    0.32
   5  -4   5    0.49    0.36
   5   4   5    0.85    0.18
  -5   4  -5    1.05    0.28
   5   4   5    1.37    0.30
  -5   4  -5    1.15    0.46
  -5   4  -5    0.49    0.38
   5   4   5    0.84    0.21
  -5   4  -5    1.53    0.60
  -5   4  -5    0.02    0.62
  -5   4  -5    0.96    0.31
  -5   4  -5    1.28    0.31
   6  -4   5    1.77    0.33
  -6  -4  -5    3.03    0.41
   6  -4   5    1.81    0.37
   6  -4   5    1.83    0.32
  -6   4  -5    1.17    0.36
  -6   4  -5    2.09    0.82
  -6   4  -5    1.66    0.51
  -6   4  -5    1.77    0.41
   6   4   5    1.98    0.25
  -6   4  -5    1.84    0.28
  -6   4  -5    1.41    0.27
  -7  -4  -5    1.82    0.32
  -7   4  -5    1.01    0.33
  -7   4  -5    1.45    0.18
  -7   4  -5    1.68    0.22
  -7  -5   5    0.21    0.16
  -7  -5   5    0.33    0.15
  -7   5   5    0.62    0.33
  -7   5   5    0.43    0.30
  -6  -5   5    6.49    0.43
  -6   5   5    8.23    0.66
  -6   5   5    9.72    0.78
  -6   5   5    9.01    0.88
  -6   5   5    9.13    0.70
   6   5  -5    7.57    0.47
   6   5  -5    7.17    0.39
   5  -5  -5    1.75    0.30
   5  -5  -5    1.13    0.31
  -5  -5   5    1.60    0.31
  -5  -5   5    1.47    0.22
   5   5  -5    1.41    0.29
   5   5  -5    1.13    0.21
  -5   5   5    1.87    0.53
  -5   5   5    1.79    0.45
  -5   5   5    1.85    0.46
   5   5  -5    1.37    0.29
  -5   5   5    2.08    0.52
  -4  -5   5    4.91    0.41
  -4  -5   5    4.84    0.36
  -4  -5   5    5.41    0.50
   4  -5  -5    5.53    0.51
   4  -5  -5    5.26    0.56
  -4  -5   5    5.37    0.41
   4   5  -5    5.40    0.49
  -4   5   5    6.19    0.85
  -4   5   5    6.94    0.77
  -4   5   5    6.21    0.74
  -4   5   5    7.31    0.83
   4   5  -5    5.97    0.59
   4   5  -5    5.80    0.43
  -3  -5   5    4.14    0.46
  -3  -5   5    3.46    0.42
   3  -5  -5    3.65    0.36
   3  -5  -5    3.30    0.43
  -3  -5   5    3.26    0.34
   3  -5  -5    3.41    0.40
   3  -5  -5    3.96    0.48
   3  -5  -5    3.29    0.42
  -3   5   5    3.34    0.74
  -3   5   5    3.95    0.70
  -3   5   5    5.27    0.84
   3   5  -5    2.44    0.39
   3   5  -5    3.05    0.34
   3   5  -5    3.05    0.44
   2  -5  -5    3.16    0.32
   2  -5  -5    2.99    0.36
   2  -5  -5    2.70    0.43
   2  -5  -5    2.83    0.42
  -2  -5   5    2.10    0.34
   2  -5  -5    2.65    0.34
  -2  -5   5    3.18    0.46
   2  -5  -5    4.35    0.78
  -2  -5   5    2.90    0.38
  -2  -5   5    3.44    0.44
  -2   5   5    3.13    0.71
   2   5  -5    2.57    0.41
  -2   5   5    2.90    0.36
  -2   5   5    3.52    0.53
  -2   5   5    5.19    0.91
   2   5  -5    2.58    0.34
   2   5  -5    2.39    0.31
  -1  -5   5   26.22    1.16
   1  -5  -5   25.25    1.24
   1  -5  -5   25.18    1.37
  -1  -5   5   26.28    1.22
   1  -5  -5   26.17    1.27
  -1  -5   5   26.06    1.27
   1  -5  -5   25.73    1.16
  -1  -5   5   28.07    1.16
   1  -5  -5   28.44    1.16
  -1  -5   5   26.65    1.21
   1  -5  -5   24.25    1.15
   1   5  -5   26.56    1.14
  -1   5   5   28.65    1.78
   1   5  -5   25.53    1.17
  -1   5   5   28.11    1.41
  -1   5   5   23.55    1.33
  -1   5   5   26.13    1.15
  -1   5   5   25.64    1.15
   1   5  -5   28.31    1.33
   1   5  -5   26.72    1.30
  -1   5   5   25.18    1.39
   0  -5  -5    0.29    0.36
   0  -5   5   -0.20    0.30
   0  -5   5   -0.35    0.42
   0  -5  -5    0.19    0.24
   0  -5  -5    0.19    0.27
   0  -5   5    0.15    0.27
   0  -5   5   -0.23    0.50
   0  -5   5   -0.16    0.35
   0  -5  -5    0.08    0.27
   0  -5  -5    0.71    0.39
   0  -5  -5    0.11    0.35
   0  -5   5   -0.32    0.36
   0  -5  -5    0.01    0.32
   0  -5   5    0.02    0.33
   0   5   5   -0.55    0.34
   0   5  -5   -0.18    0.37
   0   5  -5    1.37    0.40
   0   5   5    0.28    0.66
   0   5  -5    0.33    0.24
   0   5   5    0.18    0.25
   0   5  -5   -0.10    0.51
   0   5   5    0.02    0.20
   1  -5   5    2.50    0.37
  -1  -5  -5    3.00    0.44
  -1  -5  -5    3.28    0.42
   1  -5   5    3.17    0.40
   1  -5   5    2.76    0.46
   1  -5   5    3.13    0.39
  -1  -5  -5    2.78    0.40
  -1  -5  -5    1.54    0.62
  -1  -5  -5    3.01    0.42
  -1  -5  -5    2.90    0.44
  -1  -5  -5    2.73    0.34
   1  -5   5    4.19    1.25
  -1   5  -5    2.83    0.35
  -1   5  -5    3.48    0.51
  -1   5  -5    3.44    0.38
  -1   5  -5    3.28    0.73
   1   5   5    2.91    0.35
  -1   5  -5    2.38    0.30
  -1   5  -5    2.23    0.44
   1   5   5    2.59    0.32
  -2  -5  -5    2.06    0.38
  -2  -5  -5    2.16    0.29
   2  -5   5    2.59    0.39
  -2  -5  -5    2.73    0.31
   2  -5   5    2.02    0.46
   2  -5   5    2.05    0.38
  -2  -5  -5    2.38    0.34
  -2  -5  -5    2.94    0.37
   2  -5   5    2.85    0.52
   2  -5   5    1.93    0.36
   2   5   5    2.62    0.35
  -2   5  -5    2.33    0.50
  -2   5  -5    1.61    0.61
  -2   5  -5    2.24    0.34
   2   5   5    2.20    0.29
  -2   5  -5    1.91    0.39
  -2   5  -5    3.14    0.42
  -2   5  -5    2.43    0.47
   3  -5   5    7.81    0.74
   3  -5   5    7.51    0.69
  -3  -5  -5    8.22    0.52
   3  -5   5    7.77    0.59
   3  -5   5    8.56    0.63
  -3  -5  -5    8.85    0.62
   3  -5   5   10.05    0.88
  -3  -5  -5   10.12    0.60
  -3   5  -5    8.17    0.71
  -3   5  -5    8.04    0.86
  -3   5  -5    7.42    0.70
  -3   5  -5    7.75    0.98
  -3   5  -5    7.89    0.61
   3   5   5    7.91    0.58
   3   5   5    8.69    0.50
  -3   5  -5    8.94    0.58
  -3   5  -5    8.57    0.58
   4  -5   5   10.57    0.64
   4  -5   5   10.53    0.75
   4  -5   5   11.26    0.74
  -4  -5  -5   11.51    0.66
  -4  -5  -5   11.59    0.61
  -4  -5  -5   11.39    0.62
   4  -5   5   11.08    0.67
   4  -5   5   10.63    0.80
   4   5   5   12.09    0.66
  -4   5  -5   10.32    0.75
   4   5   5   11.65    0.57
  -4   5  -5   11.06    1.04
  -4   5  -5   12.66    0.61
  -4   5  -5   10.70    0.90
  -4   5  -5   11.86    0.81
  -4   5  -5   11.32    0.63
  -5  -5  -5    4.41    0.51
   5  -5   5    3.77    0.44
   5  -5   5    3.96    0.44
   5  -5   5    3.47    0.49
  -5   5  -5    3.03    0.58
  -5   5  -5    3.74    0.37
  -5   5  -5    3.65    0.48
  -5   5  -5    3.80    0.36
  -5   5  -5    3.87    0.53
   5   5   5    3.06    0.43
  -5   5  -5    3.68    0.64
   6  -5   5    0.40    0.23
  -6  -5  -5    0.43    0.19
  -6   5  -5   -0.07    0.29
  -6   5  -5    0.18    0.16
  -6   5  -5    0.09    0.12
   5  -6  -5    9.68    0.54
  -5   6   5    9.19    0.71
  -5   6   5    9.69    0.68
  -5   6   5    8.56    0.96
   4  -6  -5    1.67    0.24
  -4  -6   5    2.13    0.29
   4  -6  -5    2.26    0.32
   4  -6  -5    1.57    0.29
  -4   6   5    2.15    0.50
  -4   6   5    2.83    0.48
   4   6  -5    2.14    0.26
  -4   6   5    2.89    0.47
   4   6  -5    2.20    0.30
  -3  -6   5    2.24    0.31
   3  -6  -5    2.55    0.35
   3  -6  -5    2.44    0.33
  -3  -6   5    2.58    0.32
   3  -6  -5    2.41    0.28
   3  -6  -5    1.99    0.35
   3  -6  -5    2.27    0.36
  -3  -6   5    2.77    0.34
  -3   6   5    3.13    0.62
   3   6  -5    2.55    0.31
   3   6  -5    2.69    0.37
   3   6  -5    2.58    0.41
  -3   6   5    4.06    0.66
  -3   6   5    2.98    0.55
   2  -6  -5   20.74    0.97
  -2  -6   5   20.80    0.90
   2  -6  -5   19.26    0.90
  -2  -6   5   19.14    0.85
   2  -6  -5   18.45    0.86
   2  -6  -5   19.54    0.97
  -2  -6   5   20.02    0.95
   2  -6  -5   18.49    0.96
  -2   6   5   21.07    1.10
   2   6  -5   19.89    0.86
   2   6  -5   21.06    0.92
  -2   6   5   19.27    1.07
   2   6  -5   19.84    0.99
  -2   6   5   18.33    1.11
   1  -6  -5    2.61    0.41
  -1  -6   5    2.22    0.31
  -1  -6   5    2.12    0.29
   1  -6  -5    2.71    0.40
   1  -6  -5    2.48    0.30
   1  -6  -5    2.56    0.39
  -1  -6   5    2.73    0.41
   1  -6  -5    2.39    0.30
  -1  -6   5    2.72    0.29
   1  -6  -5    2.25    0.27
  -1   6   5    2.30    0.40
   1   6  -5    1.68    0.34
   1   6  -5    2.55    0.32
  -1   6   5    2.44    0.32
   0  -6   5    4.39    0.47
   0  -6  -5    3.42    0.53
   0  -6  -5    4.85    0.40
   0  -6  -5    4.04    0.55
   0  -6   5    4.63    0.41
   0  -6   5    4.69    0.51
   0  -6  -5    4.84    0.42
   0  -6  -5    5.15    0.46
   0  -6   5    5.53    0.52
   0  -6  -5    4.55    0.55
   0  -6   5    4.92    0.56
   0   6   5    4.46    0.39
   0   6  -5    4.39    0.58
   0   6  -5    4.62    0.54
   0   6  -5    5.00    0.35
   1  -6   5    3.02    0.34
  -1  -6  -5    3.68    0.37
   1  -6   5    3.35    0.47
   1  -6   5    2.46    0.50
   1  -6   5    3.91    0.52
  -1  -6  -5    3.81    0.52
  -1  -6  -5    3.87    0.39
  -1  -6  -5    3.39    0.45
  -1  -6  -5    4.06    0.40
   1  -6   5    3.91    0.43
   1  -6   5    3.06    0.37
  -1   6  -5    3.51    0.51
   1   6   5    3.84    0.38
   1   6   5    3.77    0.32
  -1   6  -5    3.53    0.48
   2  -6   5    0.30    0.28
   2  -6   5    0.12    0.34
  -2  -6  -5    0.53    0.28
   2  -6   5    0.47    0.38
  -2  -6  -5    0.71    0.32
   2  -6   5    0.61    0.30
  -2  -6  -5    0.27    0.23
   2  -6   5    0.08    0.21
   2  -6   5    0.01    0.30
  -2   6  -5    0.46    0.23
  -2   6  -5   -0.27    0.42
   2   6   5    0.31    0.16
   2   6   5    0.61    0.25
   3  -6   5    4.71    0.42
  -3  -6  -5    4.73    0.34
  -3  -6  -5    5.54    0.35
   3  -6   5    4.47    0.46
   3  -6   5    4.72    0.48
   3  -6   5    4.65    0.53
  -3  -6  -5    5.04    0.41
  -3   6  -5    5.79    0.65
   3   6   5    4.80    0.39
   4  -6   5    0.24    0.20
  -4   6  -5    0.21    0.30
   4   6   5    0.43    0.18
   2   7  -5    2.69    0.25
   1  -7  -5    0.11    0.15
   1  -7  -5    0.16    0.14
  -1  -7   5    0.13    0.13
   1   7  -5    0.33    0.16
   0  -7  -5    0.33    0.14
   0  -7   5    0.10    0.14
   0   7  -5    0.60    0.17
   1  -7   5    0.67    0.21
  -1  -7  -5    0.78    0.15
 -10   0   6    2.07    0.24
  -9   0   6    0.00    0.20
  -9   0   6   -0.03    0.41
  -9   0   6    0.02    0.20
  -9   0   6    0.02    0.19
  -9   0   6    0.07    0.14
   8   0  -6   40.81    1.65
  -8   0   6   39.39    1.66
  -8   0   6   41.09    1.64
  -8   0   6   40.41    1.64
  -8   0   6   40.80    1.65
   8   0  -6   43.58    1.63
  -8   0   6   40.70    1.76
  -7   0   6   22.06    0.98
   7   0  -6   25.75    1.48
   7   0  -6   22.47    0.99
   7   0  -6   22.13    1.00
  -7   0   6   23.35    1.00
  -7   0   6   22.22    0.98
  -7   0   6   23.93    1.01
   7   0  -6   20.50    1.10
  -7   0   6   22.15    1.13
  -6   0   6    2.65    0.36
   6   0  -6    2.03    0.31
   6   0  -6    3.27    0.65
  -6   0   6    2.08    0.29
  -6   0   6    2.27    0.24
  -6   0   6    1.77    0.36
  -6   0   6    1.55    0.38
  -5   0   6   -0.03    0.18
  -5   0   6    0.07    0.17
  -5   0   6   -0.16    0.14
   5   0  -6    0.35    0.27
   5   0  -6    0.12    0.14
   5   0  -6   -0.16    0.31
  -5   0   6    0.03    0.16
   5   0  -6    0.04    0.26
  -5   0   6    0.13    0.23
   4   0  -6   13.99    0.89
   4   0  -6   16.92    0.73
   4   0  -6   15.03    1.04
   3   0  -6    3.94    0.59
   3   0  -6    3.32    0.46
   3   0  -6    3.83    0.28
   3   0  -6    3.91    0.32
  -3   0   6    3.76    0.45
   2   0  -6    0.48    0.16
   2   0  -6    0.27    0.25
   2   0  -6    0.29    0.25
  -2   0   6    0.18    0.25
  -2   0   6    0.48    0.16
  -2   0   6    0.37    0.18
  -1   0   6   14.11    0.72
   1   0  -6   16.26    0.88
  -1   0   6   15.73    0.96
  -1   0   6   14.04    0.91
   1   0  -6   16.46    0.70
   1   0  -6   15.90    0.67
   1   0  -6   15.48    0.76
   0   0   6    3.48    0.61
   0   0  -6    3.41    0.35
   0   0   6    2.95    0.37
   0   0   6    3.29    0.37
   0   0   6    2.64    0.34
   0   0  -6    3.76    0.47
   0   0  -6    3.48    0.29
  -1   0  -6   14.34    0.64
   1   0   6   14.79    0.76
  -1   0  -6   14.78    0.68
   1   0   6   14.15    0.80
   1   0   6   14.57    0.65
   1   0   6   14.55    0.61
  -1   0  -6   14.73    0.76
   1   0   6   14.07    0.74
   1   0   6   14.64    0.96
   2   0   6   32.84    1.68
   2   0   6   36.02    1.40
   2   0   6   35.99    1.44
  -2   0  -6   36.98    1.46
   2   0   6   36.72    1.48
   2   0   6   35.07    1.63
   2   0   6   37.09    1.43
  -2   0  -6   35.63    1.47
  -2   0  -6   36.21    1.48
  -3   0  -6   -0.14    0.19
   3   0   6    0.03    0.16
   3   0   6    0.26    0.29
  -3   0  -6    0.02    0.15
  -3   0  -6   -0.10    0.20
   3   0   6    0.03    0.19
   3   0   6   -0.07    0.33
   3   0   6    0.25    0.18
   3   0   6   -0.06    0.36
  -3   0  -6    0.11    0.21
   4   0   6    7.27    0.48
   4   0   6    7.28    0.40
  -4   0  -6    7.27    0.58
  -4   0  -6    6.89    0.55
  -4   0  -6    7.84    0.48
  -4   0  -6    6.60    0.57
   4   0   6    7.77    0.73
   4   0   6    8.11    0.98
  -4   0  -6    7.52    0.49
  -4   0  -6    6.70    0.53
  -4   0  -6    7.04    0.39
   4   0   6    8.23    0.51
  -4   0  -6    6.62    0.51
   4   0   6    7.48    0.56
  -5   0  -6    3.61    0.33
   5   0   6    2.46    0.50
   5   0   6    4.04    0.32
  -5   0  -6    4.07    0.45
   5   0   6    3.88    0.54
  -5   0  -6    3.72    0.61
  -5   0  -6    3.43    0.44
   5   0   6    4.15    0.46
  -5   0  -6    3.53    0.34
  -5   0  -6    3.89    0.54
  -6   0  -6    5.19    0.62
   6   0   6    5.49    0.38
  -6   0  -6    5.42    0.49
  -6   0  -6    5.69    0.42
   6   0   6    5.83    0.60
  -6   0  -6    6.46    0.48
  -6   0  -6    6.32    0.83
   6   0   6    7.19    0.64
   6   0   6    6.15    0.57
   6   0   6    5.60    0.54
  -6   0  -6    6.12    0.63
   6   0   6    5.26    0.78
  -7   0  -6    1.05    0.26
   7   0   6    1.05    0.34
   7   0   6    0.77    0.33
  -7   0  -6    1.07    0.56
   7   0   6    0.99    0.31
  -7   0  -6    1.03    0.21
  -7   0  -6    0.76    0.37
  -7   0  -6    0.94    0.21
   7   0   6    0.73    0.17
  -7   0  -6    0.73    0.36
   7   0   6    1.11    0.34
   8   0   6    4.63    0.46
  -8   0  -6    4.46    0.32
  -8   0  -6    4.71    0.44
  -8   0  -6    4.46    0.49
 -10  -1   6    3.67    0.27
 -10  -1   6    4.60    0.37
  -9  -1   6    9.32    0.47
  -9  -1   6    9.50    0.47
  -9  -1   6    9.25    0.48
   9   1  -6   10.21    0.49
  -9   1   6    9.07    0.53
  -9   1   6    9.30    0.64
   9   1  -6    9.31    0.47
  -9   1   6    8.71    0.48
  -9   1   6    9.16    0.47
  -9   1   6    8.77    0.48
  -8  -1   6    9.73    0.70
  -8  -1   6    7.95    0.50
  -8  -1   6    7.98    0.48
  -8  -1   6    7.88    0.47
  -8  -1   6    7.80    0.46
  -8   1   6    7.70    0.51
  -8   1   6    7.65    0.48
  -8   1   6    7.69    0.48
  -8   1   6    7.52    0.47
   8   1  -6    7.30    0.57
  -8   1   6    6.81    0.69
   8   1  -6    7.77    0.47
  -8   1   6    7.94    0.43
  -7  -1   6    1.56    0.24
  -7  -1   6    1.54    0.25
  -7  -1   6    1.44    0.39
  -7  -1   6    2.30    0.27
  -7  -1   6    1.98    0.25
   7   1  -6    1.45    0.28
   7   1  -6    1.93    0.62
  -7   1   6    1.95    0.27
  -7   1   6    2.21    0.29
  -7   1   6    1.53    0.25
  -7   1   6    1.52    0.40
   7   1  -6    1.31    0.25
  -7   1   6    1.35    0.25
   7   1  -6    1.52    0.27
  -6  -1   6    6.69    0.48
  -6  -1   6    6.78    0.45
   6  -1  -6    6.86    0.66
  -6  -1   6    6.31    0.61
  -6  -1   6    6.61    0.47
  -6  -1   6    6.69    0.41
  -6   1   6    6.14    0.46
   6   1  -6    5.73    0.82
  -6   1   6    6.73    0.66
  -6   1   6    6.85    0.42
   6   1  -6    6.41    0.46
   6   1  -6    6.78    0.54
   6   1  -6    6.33    0.47
  -6   1   6    6.80    0.42
   6   1  -6    6.50    0.40
   6   1  -6    6.44    0.47
  -6   1   6    6.75    0.47
  -5  -1   6    9.97    0.53
  -5  -1   6    9.82    0.55
  -5  -1   6    9.80    0.65
   5  -1  -6   11.15    0.89
  -5  -1   6    9.95    0.53
   5  -1  -6   10.42    0.73
   5  -1  -6    8.56    0.74
   5   1  -6   10.41    0.97
  -5   1   6   10.08    0.96
  -5   1   6   10.02    0.55
   5   1  -6    9.48    0.54
   5   1  -6    9.74    0.52
   5   1  -6    9.91    0.59
  -5   1   6    8.16    0.54
   5   1  -6   12.93    1.14
  -5   1   6   10.98    0.51
  -5   1   6    9.51    0.63
   5   1  -6   11.79    0.69
  -5   1   6   10.00    0.59
  -5   1   6    9.98    0.53
  -5   1   6   10.36    0.48
   4  -1  -6  113.15    4.56
  -4  -1   6  114.43    4.20
   4  -1  -6  119.04    4.49
   4  -1  -6  105.41    4.38
  -4   1   6  108.34    4.36
  -4   1   6  104.61    4.26
   4   1  -6  106.99    4.47
   4   1  -6  116.94    4.22
   4   1  -6  111.04    4.23
   4   1  -6  109.41    4.26
  -3  -1   6    2.23    0.38
  -3  -1   6    2.18    0.33
  -3  -1   6    1.79    0.23
   3  -1  -6    3.35    0.48
   3  -1  -6    2.28    0.37
   3  -1  -6    2.63    0.50
   3   1  -6    1.40    0.33
   3   1  -6    2.91    0.45
   3   1  -6    2.52    0.25
   3   1  -6    2.10    0.27
  -3   1   6    2.31    0.41
   3   1  -6    2.60    0.26
  -2  -1   6   19.34    1.08
   2  -1  -6   19.56    0.98
   2  -1  -6   18.72    0.76
   2  -1  -6   18.69    0.97
  -2  -1   6   18.06    0.86
  -2   1   6   15.99    1.07
  -2   1   6   19.00    0.80
   2   1  -6   18.46    0.97
  -2   1   6   17.72    0.87
   2   1  -6   19.02    1.11
  -2   1   6   17.60    0.99
   2   1  -6   19.46    0.81
   1  -1  -6    1.23    0.26
  -1  -1   6    1.84    0.29
  -1  -1   6    2.64    0.28
   1  -1  -6    1.98    0.30
  -1  -1   6    1.93    0.41
   1   1  -6    2.03    0.32
  -1   1   6    1.29    0.28
   1   1  -6    1.77    0.23
   1   1  -6    1.31    0.29
  -1   1   6    1.64    0.43
  -1   1   6    1.91    0.27
   0  -1   6   20.25    0.90
   0  -1  -6   19.87    0.89
   0  -1  -6   20.72    1.03
   0  -1   6   20.26    0.93
   0  -1   6   19.89    0.86
   0  -1  -6   20.44    0.91
   0  -1  -6   21.31    0.91
   0  -1   6   18.69    1.12
   0   1   6   17.93    1.05
   0   1  -6   19.68    0.83
   0   1  -6   20.82    0.94
   0   1   6   21.27    0.97
   0   1  -6   18.89    0.89
   0   1   6   19.21    0.87
   0   1   6   19.88    0.88
   0   1  -6   21.50    1.08
  -1  -1  -6   37.72    1.54
   1  -1   6   41.32    1.57
  -1  -1  -6   38.45    1.72
   1  -1   6   43.37    1.63
  -1  -1  -6   39.71    1.53
  -1  -1  -6   38.88    1.58
   1  -1   6   36.32    1.78
   1  -1   6   36.12    1.49
   1  -1   6   39.49    1.53
   1   1   6   37.80    1.49
  -1   1  -6   35.13    1.50
  -1   1  -6   40.69    1.75
   1   1   6   37.37    1.51
  -1   1  -6   36.57    1.56
  -1   1  -6   40.01    1.62
   1   1   6   37.87    1.70
   1   1   6   37.01    1.58
  -1   1  -6   38.30    1.57
  -1   1  -6   35.91    1.56
   1   1   6   38.51    1.49
  -2  -1  -6   23.13    1.02
   2  -1   6   22.46    1.18
   2  -1   6   22.68    1.00
   2  -1   6   21.55    1.29
   2  -1   6   23.37    1.04
  -2  -1  -6   22.64    1.00
   2  -1   6   23.07    0.91
  -2  -1  -6   22.94    0.99
  -2  -1  -6   22.36    0.96
  -2  -1  -6   19.64    0.96
  -2  -1  -6   22.32    0.95
  -2  -1  -6   24.37    1.16
  -2  -1  -6   23.22    0.98
   2  -1   6   23.64    0.97
   2  -1   6   22.06    1.01
  -2   1  -6   22.54    1.02
   2   1   6   23.77    0.92
   2   1   6   22.54    0.91
   2   1   6   22.14    1.22
   2   1   6   23.09    0.94
  -2   1  -6   22.70    1.00
   2   1   6   22.93    0.99
  -2   1  -6   23.02    0.99
   2   1   6   22.72    0.95
   2   1   6   22.65    1.08
  -2   1  -6   23.03    0.97
  -3  -1  -6   32.07    1.32
   3  -1   6   31.77    1.39
   3  -1   6   31.26    1.33
   3  -1   6   28.42    1.64
   3  -1   6   31.52    1.30
  -3  -1  -6   32.53    1.37
   3  -1   6   31.16    1.24
   3  -1   6   31.71    1.38
   3  -1   6   30.88    1.59
  -3  -1  -6   30.83    1.32
   3   1   6   31.02    1.46
   3   1   6   31.93    1.25
   3   1   6   31.61    1.27
  -3   1  -6   31.55    1.36
  -3   1  -6   31.12    1.37
   3   1   6   32.81    1.34
  -3   1  -6   30.59    1.37
  -3   1  -6   33.20    1.32
   3   1   6   30.81    1.28
   3   1   6   30.63    1.64
   4  -1   6    4.82    0.84
   4  -1   6    5.00    0.52
   4  -1   6    5.26    0.91
  -4  -1  -6    4.02    0.49
  -4  -1  -6    4.60    0.42
  -4  -1  -6    4.07    0.36
   4  -1   6    4.66    0.53
  -4  -1  -6    5.08    0.46
  -4  -1  -6    4.58    0.31
   4  -1   6    5.28    0.54
   4  -1   6    4.62    0.46
  -4  -1  -6    4.78    0.35
  -4  -1  -6    4.06    0.42
   4  -1   6    4.34    0.30
   4   1   6    4.40    0.32
   4   1   6    5.03    0.41
   4   1   6    3.47    0.65
  -4   1  -6    4.82    0.46
  -4   1  -6    4.67    0.56
   4   1   6    3.90    0.47
   4   1   6    5.13    0.50
  -4   1  -6    4.57    0.51
  -4   1  -6    4.77    0.35
   4   1   6    4.96    0.71
  -4   1  -6    4.65    0.36
  -4   1  -6    4.44    0.44
   4   1   6    4.40    0.40
  -4   1  -6    4.76    0.57
  -4   1  -6    4.73    0.43
  -5  -1  -6   23.51    1.13
   5  -1   6   23.16    1.10
   5  -1   6   23.75    1.76
   5  -1   6   23.95    1.14
  -5  -1  -6   23.50    0.98
   5  -1   6   24.35    1.36
   5  -1   6   24.26    1.16
  -5  -1  -6   25.03    1.18
   5  -1   6   23.24    1.20
  -5  -1  -6   22.80    1.14
  -5  -1  -6   23.78    0.98
  -5  -1  -6   22.89    1.04
   5  -1   6   24.79    1.04
  -5   1  -6   23.72    1.02
  -5   1  -6   24.05    1.09
  -5   1  -6   22.62    1.01
  -5   1  -6   22.90    1.15
   5   1   6   23.81    1.06
  -5   1  -6   23.66    1.46
  -5   1  -6   23.17    1.23
   5   1   6   24.38    1.00
   5   1   6   24.24    1.15
  -5   1  -6   23.85    1.17
   5   1   6   23.52    1.06
  -6  -1  -6    1.01    0.39
   6  -1   6    0.46    0.34
   6  -1   6    0.60    0.35
  -6  -1  -6    0.55    0.24
  -6  -1  -6    0.67    0.19
   6  -1   6   -0.23    0.39
   6  -1   6    1.05    0.36
  -6  -1  -6    0.54    0.35
  -6  -1  -6    0.38    0.18
  -6  -1  -6    0.55    0.35
  -6  -1  -6    0.63    0.26
   6  -1   6    0.44    0.31
  -6   1  -6    0.50    0.24
  -6   1  -6    0.25    0.70
   6   1   6    0.60    0.28
  -6   1  -6    0.65    0.38
   6   1   6    0.41    0.17
  -6   1  -6    0.46    0.28
  -6   1  -6    0.61    0.22
   6   1   6    0.55    0.31
   6   1   6    0.74    0.27
  -6   1  -6    0.53    0.27
  -6   1  -6    0.33    0.37
   6   1   6    0.11    0.40
   7  -1   6    0.79    0.31
   7  -1   6    1.06    0.33
  -7  -1  -6    0.97    0.36
  -7  -1  -6    0.86    0.19
  -7  -1  -6    0.79    0.36
  -7  -1  -6    0.85    0.23
   7  -1   6    0.83    0.33
  -7  -1  -6    0.82    0.52
   7  -1   6    1.14    0.31
  -7  -1  -6    1.15    0.19
  -7   1  -6    0.78    0.32
  -7   1  -6    1.09    0.27
   7   1   6    0.92    0.30
   7   1   6    0.81    0.18
  -7   1  -6    0.59    0.37
   7   1   6    0.75    0.29
   7   1   6    0.89    0.28
  -7   1  -6    1.00    0.59
  -7   1  -6    0.93    0.22
   7   1   6    0.78    0.34
  -7   1  -6    1.00    0.23
   8  -1   6    2.95    0.32
  -8  -1  -6    2.55    0.40
  -8  -1  -6    2.33    0.40
  -8   1  -6    2.11    0.29
  -8   1  -6    3.05    0.39
  -8   1  -6    2.69    0.36
   8   1   6    2.48    0.29
  -8   1  -6    2.38    0.43
  -8   1  -6    2.00    0.27
   8   1   6    2.66    0.35
  -9  -2   6    9.70    0.47
  -9  -2   6    9.11    0.45
  -9  -2   6    9.54    0.59
  -9  -2   6    9.28    0.44
  -9   2   6    9.10    0.49
  -9   2   6    8.43    0.43
  -9   2   6    7.94    0.42
   9   2  -6    9.10    0.46
  -8  -2   6   11.02    0.59
  -8  -2   6   10.92    0.54
  -8  -2   6   11.33    0.76
  -8  -2   6   11.12    0.55
  -8  -2   6   11.65    0.56
  -8   2   6   11.33    0.57
  -8   2   6   11.43    0.58
   8   2  -6   11.77    0.62
  -8   2   6   10.85    0.61
  -8   2   6   11.45    0.56
   8   2  -6   10.29    0.62
  -7  -2   6   10.74    0.58
  -7  -2   6    9.85    0.54
  -7  -2   6    9.54    0.78
  -7  -2   6    9.81    0.57
  -7  -2   6   11.02    0.56
   7   2  -6   10.45    0.62
   7   2  -6   13.24    1.14
  -7   2   6    9.28    0.56
   7   2  -6   10.34    0.62
   7   2  -6    9.57    0.63
  -7   2   6   11.36    0.66
  -6  -2   6   26.16    1.14
  -6  -2   6   27.00    1.16
  -6  -2   6   27.02    1.30
   6   2  -6   25.89    1.29
  -6   2   6   28.36    1.37
  -6   2   6   29.37    1.64
  -6   2   6   27.27    1.15
  -6   2   6   27.44    1.29
   6   2  -6   27.51    1.19
   6   2  -6   26.88    1.21
  -6   2   6   27.82    1.15
  -6   2   6   25.12    1.61
   6   2  -6   25.66    1.42
  -6   2   6   27.59    1.38
   6   2  -6   26.90    1.64
   5  -2  -6   24.84    1.38
   5  -2  -6   23.38    1.11
  -5  -2   6   23.71    1.02
  -5  -2   6   23.89    0.98
  -5  -2   6   23.07    0.99
  -5  -2   6   21.93    1.11
  -5  -2   6   23.42    1.00
   5   2  -6   22.76    1.12
  -5   2   6   22.80    1.18
   5   2  -6   24.24    1.04
  -5   2   6   24.35    0.99
   5   2  -6   22.45    1.39
  -5   2   6   23.48    1.15
   5   2  -6   23.26    1.04
  -5   2   6   23.26    1.05
  -5   2   6   23.51    1.17
   5   2  -6   23.09    1.05
   5   2  -6   23.53    0.99
  -5   2   6   23.08    1.18
   5   2  -6   24.54    1.63
  -5   2   6   23.42    0.99
   5   2  -6   24.26    1.06
  -5   2   6   22.76    1.36
  -4  -2   6   28.47    1.42
  -4  -2   6   30.99    1.21
   4  -2  -6   30.79    1.35
  -4  -2   6   29.09    1.21
   4  -2  -6   32.44    1.58
  -4  -2   6   28.07    1.20
  -4  -2   6   28.50    1.21
   4  -2  -6   29.77    1.26
   4   2  -6   30.03    1.24
   4   2  -6   28.20    1.30
   4   2  -6   30.56    1.22
  -4   2   6   28.91    1.37
   4   2  -6   30.79    1.26
  -4   2   6   30.23    1.21
  -4   2   6   30.02    1.34
   4   2  -6   29.52    1.26
  -4   2   6   30.99    1.28
   4   2  -6   32.27    1.25
  -4   2   6   28.73    1.20
   4   2  -6   29.27    1.52
   4   2  -6   29.44    1.76
  -4   2   6   31.06    1.52
   3  -2  -6   33.02    1.41
  -3  -2   6   32.61    1.28
   3  -2  -6   32.59    1.29
   3  -2  -6   32.39    1.60
   3  -2  -6   33.59    1.29
  -3  -2   6   29.73    1.28
   3   2  -6   32.95    1.30
  -3   2   6   31.85    1.38
   3   2  -6   27.70    2.14
   3   2  -6   31.45    1.53
   3   2  -6   30.02    1.29
  -3   2   6   32.79    1.57
   3   2  -6   33.56    1.33
  -3   2   6   32.23    1.31
  -3   2   6   33.32    1.45
   2  -2  -6   41.68    1.70
  -2  -2   6   40.08    1.59
  -2  -2   6   41.35    1.71
  -2  -2   6   39.93    1.66
   2  -2  -6   40.60    1.58
   2  -2  -6   39.44    1.58
  -2  -2   6   40.03    1.79
   2  -2  -6   41.30    1.89
  -2   2   6   36.53    1.58
  -2   2   6   33.96    1.71
   2   2  -6   41.87    1.62
  -2   2   6   39.82    1.67
   2   2  -6   42.33    1.80
   2   2  -6   41.92    1.60
   2   2  -6   40.60    1.97
  -2   2   6   42.82    1.87
   2   2  -6   43.08    1.62
  -1  -2   6    3.54    0.42
  -1  -2   6    3.39    0.35
  -1  -2   6    3.46    0.48
  -1  -2   6    3.47    0.51
   1  -2  -6    3.24    0.36
   1  -2  -6    4.19    0.37
   1  -2  -6    3.26    0.54
   1  -2  -6    3.29    0.35
  -1  -2   6    3.48    0.45
  -1  -2   6    3.64    0.33
   1  -2  -6    3.98    0.44
   1   2  -6    3.51    0.43
  -1   2   6    3.51    0.32
   1   2  -6    3.26    0.55
   1   2  -6    3.44    0.35
   1   2  -6    3.58    0.47
  -1   2   6    3.72    0.27
   1   2  -6    3.55    0.31
  -1   2   6    3.48    0.55
  -1   2   6    4.83    0.52
   0  -2   6    8.15    0.55
   0  -2   6    7.50    0.55
   0  -2   6    7.08    0.84
   0  -2   6    8.22    0.54
   0  -2  -6    7.83    0.71
   0  -2  -6    7.94    0.51
   0  -2  -6    8.72    0.51
   0  -2  -6    7.44    0.51
   0  -2   6    7.53    0.49
   0  -2  -6    7.84    0.56
   0  -2   6    8.27    0.52
   0   2   6    7.84    0.45
   0   2   6    9.18    0.64
   0   2   6    8.32    0.39
   0   2   6    8.51    0.91
   0   2  -6    7.69    0.43
   0   2   6    9.03    0.66
   0   2  -6    8.45    0.67
   0   2   6    8.03    0.53
   0   2  -6    8.02    0.55
   0   2   6    7.84    0.55
   0   2  -6    7.89    0.55
   0   2   6    8.15    0.41
   1  -2   6   25.35    1.11
  -1  -2  -6   24.84    1.07
  -1  -2  -6   25.04    1.35
   1  -2   6   25.44    1.07
   1  -2   6   23.75    1.38
  -1  -2  -6   24.66    1.08
  -1  -2  -6   25.25    1.07
   1  -2   6   24.87    1.10
   1  -2   6   24.68    1.13
  -1  -2  -6   24.45    1.14
   1   2   6   24.26    1.04
  -1   2  -6   26.49    1.28
   1   2   6   24.83    1.05
   1   2   6   24.99    1.41
   1   2   6   26.01    1.32
  -1   2  -6   23.23    1.04
   1   2   6   25.34    1.01
  -1   2  -6   24.57    1.11
   1   2   6   24.83    1.15
   1   2   6   25.55    1.00
  -1   2  -6   24.05    1.13
   2  -2   6    7.90    0.51
  -2  -2  -6    7.32    0.45
  -2  -2  -6    7.57    0.51
  -2  -2  -6    7.22    0.48
  -2  -2  -6    7.03    0.57
   2  -2   6    7.85    0.58
   2  -2   6    7.74    0.54
   2  -2   6    7.12    0.37
   2  -2   6    6.82    0.90
  -2  -2  -6    6.87    0.47
  -2  -2  -6    7.37    0.43
  -2  -2  -6    7.14    0.52
   2   2   6    7.47    0.42
   2   2   6    6.94    0.66
   2   2   6    7.91    0.39
  -2   2  -6    7.65    0.46
   2   2   6    7.32    0.39
   2   2   6    7.65    0.47
  -2   2  -6    7.24    0.43
  -2   2  -6    7.59    0.58
  -2   2  -6    7.43    0.49
   2   2   6    7.59    0.44
   2   2   6    7.43    0.49
   3  -2   6    0.83    0.38
  -3  -2  -6    1.42    0.25
  -3  -2  -6    1.63    0.38
   3  -2   6    1.51    0.33
  -3  -2  -6    1.09    0.19
  -3  -2  -6    2.32    0.38
  -3  -2  -6    1.41    0.22
   3  -2   6    1.79    0.34
   3  -2   6    1.67    0.30
   3  -2   6    1.67    0.59
  -3  -2  -6    1.30    0.24
   3  -2   6    1.91    0.35
  -3  -2  -6    2.04    0.25
  -3  -2  -6    1.08    0.19
  -3  -2  -6    1.44    0.26
   3   2   6    1.63    0.27
   3   2   6    1.75    0.23
   3   2   6    1.69    0.24
  -3   2  -6    1.47    0.27
   3   2   6    1.25    0.40
   3   2   6    1.62    0.27
  -3   2  -6    1.38    0.33
   3   2   6    1.69    0.51
  -3   2  -6    1.50    0.22
  -3   2  -6    1.65    0.25
  -3   2  -6    1.43    0.26
  -3   2  -6    1.27    0.34
  -3   2  -6    1.60    0.59
  -3   2  -6    1.33    0.28
   3   2   6    1.48    0.22
  -3   2  -6    2.24    0.34
   3   2   6    1.29    0.17
  -4  -2  -6    7.95    0.61
  -4  -2  -6    8.03    0.49
  -4  -2  -6    7.71    0.42
  -4  -2  -6    8.38    0.58
  -4  -2  -6    9.11    0.59
   4  -2   6    8.60    0.66
   4  -2   6    7.89    1.16
   4  -2   6    8.14    0.61
  -4  -2  -6    7.19    0.58
   4  -2   6    7.94    0.66
   4  -2   6    8.96    0.67
  -4   2  -6    8.38    0.72
   4   2   6    9.11    0.61
  -4   2  -6    8.11    0.56
  -4   2  -6    9.44    0.61
  -4   2  -6    7.76    0.98
   4   2   6    7.96    0.59
   4   2   6    8.96    0.53
  -4   2  -6    8.02    0.56
  -4   2  -6    8.43    0.78
   4   2   6    8.78    0.46
  -4   2  -6    8.78    0.54
  -4   2  -6    8.44    0.51
   4   2   6    8.74    0.53
  -4   2  -6    8.21    0.62
   4   2   6    7.91    0.43
   4   2   6    9.66    0.88
  -5  -2  -6    2.77    0.27
  -5  -2  -6    2.80    0.27
  -5  -2  -6    2.05    0.30
   5  -2   6    2.98    0.65
   5  -2   6    2.62    0.42
  -5  -2  -6    2.50    0.38
   5  -2   6    2.39    0.40
   5   2   6    2.96    0.42
   5   2   6    2.68    0.31
   5   2   6    1.66    0.31
  -5   2  -6    2.69    0.46
  -5   2  -6    2.30    0.66
  -5   2  -6    2.98    0.34
   5   2   6    1.89    0.47
  -5   2  -6    2.19    0.31
   5   2   6    3.23    0.58
  -5   2  -6    2.76    0.54
  -5   2  -6    2.30    0.31
  -5   2  -6    3.42    0.50
  -5   2  -6    3.86    0.93
   5   2   6    2.90    0.48
   6  -2   6   10.95    0.73
  -6  -2  -6   11.75    0.54
   6  -2   6   11.20    0.79
   6  -2   6   11.48    0.76
   6  -2   6   12.13    0.81
  -6  -2  -6   11.48    0.54
  -6  -2  -6   13.32    0.80
  -6   2  -6   11.11    1.13
   6   2   6   11.63    0.65
  -6   2  -6   11.34    0.62
   6   2   6   12.78    0.59
  -6   2  -6   11.69    0.70
  -6   2  -6   11.44    0.63
   6   2   6   11.39    0.73
  -6   2  -6   11.24    1.17
   6   2   6   10.83    0.65
  -6   2  -6   10.82    0.86
  -7  -2  -6    2.40    0.37
   7  -2   6    3.28    0.44
  -7  -2  -6    1.27    0.51
   7  -2   6    1.94    0.38
   7   2   6    1.77    0.31
  -7   2  -6    2.15    0.25
   7   2   6    2.33    0.33
   7   2   6    2.21    0.32
  -7   2  -6    1.84    0.25
   7   2   6    1.72    0.28
  -7   2  -6    1.75    0.38
   7   2   6    2.03    0.24
  -7   2  -6    1.71    0.39
  -7   2  -6    1.91    0.57
  -7   2  -6    1.41    0.35
  -8  -2  -6    1.23    0.25
  -8   2  -6    1.08    0.18
  -8   2  -6    1.07    0.24
  -9  -3   6    0.39    0.14
  -9  -3   6    0.66    0.23
  -9  -3   6    0.55    0.13
  -9  -3   6    0.41    0.14
   9   3  -6    0.40    0.12
  -8  -3   6    8.85    0.47
  -8  -3   6    8.62    0.54
  -8  -3   6   10.14    0.74
   8   3  -6    8.65    0.47
   8   3  -6    8.85    0.51
  -7  -3   6   12.26    0.81
  -7  -3   6   12.18    0.61
  -7  -3   6   12.00    0.58
  -7  -3   6   11.85    0.62
  -7  -3   6   11.89    0.56
  -7   3   6   13.16    0.96
   7   3  -6   12.31    0.57
   7   3  -6   12.20    0.68
   7   3  -6   12.39    0.68
  -7   3   6   12.88    0.87
  -7   3   6   12.95    0.93
  -7   3   6   13.04    0.93
   7   3  -6   12.35    0.65
  -6  -3   6    2.04    0.27
  -6  -3   6    1.73    0.26
  -6  -3   6    1.79    0.38
   6   3  -6    2.09    0.32
  -6   3   6    2.37    0.57
  -6   3   6    2.53    0.48
  -6   3   6    3.18    0.58
   6   3  -6    1.46    0.49
   6   3  -6    1.96    0.25
  -6   3   6    1.18    0.53
   6   3  -6    2.10    0.34
   6   3  -6    2.44    0.35
  -6   3   6    2.64    0.50
   5  -3  -6    7.73    0.48
   5  -3  -6    8.02    0.63
  -5  -3   6    7.81    0.48
  -5  -3   6    7.46    0.50
  -5  -3   6    7.34    0.44
  -5  -3   6    7.47    0.70
  -5   3   6    7.45    0.76
  -5   3   6    7.32    0.78
  -5   3   6    8.28    0.85
   5   3  -6    7.65    0.55
  -5   3   6    7.65    1.08
   5   3  -6    9.36    0.81
   5   3  -6    8.22    0.87
  -5   3   6    9.79    0.77
   5   3  -6    7.64    0.55
   5   3  -6    8.03    0.48
  -4  -3   6    1.94    0.28
   4  -3  -6    2.07    0.44
  -4  -3   6    2.11    0.24
  -4  -3   6    2.45    0.35
  -4  -3   6    1.70    0.25
   4  -3  -6    1.06    0.38
   4  -3  -6    1.89    0.24
   4   3  -6    1.56    0.28
   4   3  -6    1.61    0.30
   4   3  -6    2.10    0.35
  -4   3   6    1.39    0.58
  -4   3   6    1.66    0.48
   4   3  -6    1.67    0.45
  -4   3   6    1.77    0.38
  -4   3   6    1.66    0.43
   4   3  -6    1.45    0.48
   4   3  -6    1.44    0.22
  -4   3   6    2.06    0.48
   4   3  -6    1.88    0.32
  -4   3   6    1.68    0.25
  -3  -3   6    4.10    0.37
   3  -3  -6    4.41    0.53
  -3  -3   6    4.44    0.41
   3  -3  -6    4.36    0.39
  -3  -3   6    3.95    0.40
   3  -3  -6    4.41    0.68
   3   3  -6    5.04    0.43
   3   3  -6    4.10    0.48
   3   3  -6    4.36    0.44
   3   3  -6    6.04    0.75
  -3   3   6    4.47    0.62
   3   3  -6    4.04    0.35
   3   3  -6    4.24    0.61
  -3   3   6    4.42    0.61
  -3   3   6    4.07    0.57
  -3   3   6    4.13    0.68
  -3   3   6    4.17    0.35
   3   3  -6    4.69    0.47
  -3   3   6    4.96    0.52
   3   3  -6    4.06    0.42
   2  -3  -6    2.29    0.37
   2  -3  -6    2.88    0.37
  -2  -3   6    3.15    0.39
   2  -3  -6    2.48    0.52
  -2  -3   6    2.87    0.37
  -2  -3   6    3.32    0.33
   2  -3  -6    2.94    0.37
  -2  -3   6    3.03    0.34
  -2  -3   6    3.84    0.29
  -2   3   6    2.20    0.37
  -2   3   6    3.29    1.12
  -2   3   6    3.36    0.54
   2   3  -6    3.16    0.38
   2   3  -6    2.85    0.41
   2   3  -6    2.94    0.50
   2   3  -6    2.62    0.33
   2   3  -6    2.76    0.50
   2   3  -6    2.62    0.37
   2   3  -6    2.73    0.31
   2   3  -6    2.82    0.38
  -2   3   6    3.59    0.46
   2   3  -6    2.70    0.37
   1  -3  -6   11.65    0.57
  -1  -3   6   12.94    0.66
  -1  -3   6   13.08    0.65
  -1  -3   6   12.69    0.67
   1  -3  -6   11.88    1.00
  -1  -3   6   12.64    0.74
   1  -3  -6   12.34    0.77
  -1  -3   6   12.78    1.04
   1  -3  -6   12.44    0.70
   1  -3  -6   13.33    0.67
  -1  -3   6   13.41    0.65
  -1  -3   6   12.97    0.73
  -1  -3   6   12.86    0.70
  -1  -3   6   13.85    0.77
  -1   3   6   10.21    0.76
  -1   3   6   13.00    0.59
  -1   3   6   12.94    0.62
   1   3  -6   12.81    0.62
  -1   3   6   12.41    0.79
   1   3  -6   11.79    0.75
   1   3  -6   12.86    1.05
   1   3  -6   13.39    0.60
  -1   3   6   11.00    0.72
   1   3  -6   13.33    0.61
   1   3  -6   12.75    0.63
  -1   3   6   12.18    1.08
   1   3  -6   12.66    0.77
   1   3  -6   12.99    0.71
   1   3  -6   12.65    0.62
   1   3  -6   13.02    0.66
   0  -3  -6    6.41    0.51
   0  -3  -6    6.29    0.77
   0  -3   6    6.10    0.56
   0  -3  -6    4.70    0.35
   0  -3   6    6.07    0.47
   0  -3   6    6.93    0.52
   0  -3   6    6.23    0.50
   0  -3  -6    5.45    0.59
   0  -3  -6    6.19    0.50
   0  -3   6    5.99    0.56
   0  -3   6    6.33    0.50
   0  -3   6    6.43    0.56
   0  -3  -6    5.21    0.37
   0  -3   6    6.20    0.90
   0  -3  -6    6.00    0.52
   0   3  -6    5.96    0.48
   0   3  -6    7.16    0.58
   0   3  -6    6.11    0.56
   0   3   6    6.15    0.43
   0   3   6    6.07    0.32
   0   3  -6    5.42    0.70
   0   3  -6    5.64    0.46
   0   3  -6    5.91    0.41
   0   3  -6    5.80    0.38
   0   3   6    4.79    0.63
   0   3   6    7.18    0.69
   0   3   6    8.11    1.29
   0   3   6    5.95    0.36
   0   3  -6    6.11    0.36
  -1  -3  -6   12.40    0.80
  -1  -3  -6   13.21    0.62
  -1  -3  -6   13.73    0.75
  -1  -3  -6   14.24    0.69
   1  -3   6   13.13    0.68
  -1  -3  -6   12.77    0.71
  -1  -3  -6   12.57    0.65
  -1  -3  -6   13.36    0.64
   1  -3   6   12.32    1.14
   1  -3   6   13.09    0.70
   1  -3   6   11.87    0.76
   1  -3   6   12.72    0.77
  -1  -3  -6   12.31    0.71
   1  -3   6   13.33    0.74
  -1  -3  -6   13.70    1.07
  -1   3  -6   13.94    0.82
  -1   3  -6   13.54    0.71
  -1   3  -6   13.48    0.72
  -1   3  -6   13.11    0.65
  -1   3  -6   12.31    0.67
   1   3   6   12.78    0.62
  -1   3  -6   13.31    0.60
  -1   3  -6   12.30    0.75
   1   3   6   12.82    0.69
   1   3   6   12.82    0.58
   1   3   6   14.70    1.05
   1   3   6   12.83    1.19
   1   3   6   12.87    0.84
  -2  -3  -6   16.17    0.74
   2  -3   6   16.47    0.91
   2  -3   6   16.55    0.84
  -2  -3  -6   15.52    0.73
  -2  -3  -6   14.43    1.61
  -2  -3  -6   15.06    0.79
  -2  -3  -6   16.19    0.76
  -2  -3  -6   15.41    0.94
  -2  -3  -6   15.11    0.82
   2  -3   6   14.33    1.27
  -2  -3  -6   15.46    0.81
  -2  -3  -6   16.23    0.74
   2  -3   6   14.96    0.87
  -2  -3  -6   15.13    0.75
   2  -3   6   15.26    0.84
   2   3   6   16.49    0.81
  -2   3  -6   15.51    0.86
   2   3   6   16.22    0.73
   2   3   6   14.78    0.97
  -2   3  -6   15.94    0.76
   2   3   6   17.81    1.25
  -2   3  -6   17.09    0.77
   2   3   6   16.04    0.69
  -2   3  -6   17.35    0.96
   2   3   6   15.18    1.33
  -2   3  -6   15.24    0.80
  -2   3  -6   14.81    1.00
  -2   3  -6   15.56    0.80
  -3  -3  -6    9.97    0.82
   3  -3   6    9.05    0.69
   3  -3   6    7.60    1.20
   3  -3   6    9.15    0.65
  -3  -3  -6    8.72    0.54
  -3  -3  -6    9.24    0.63
   3  -3   6    8.96    0.74
   3  -3   6    8.84    0.66
  -3  -3  -6    9.42    0.57
  -3  -3  -6    8.57    0.52
  -3  -3  -6    9.58    0.52
   3   3   6    8.45    0.83
  -3   3  -6    9.30    0.57
  -3   3  -6    9.11    0.63
   3   3   6    8.31    0.54
  -3   3  -6    8.70    0.65
  -3   3  -6    8.52    0.94
  -3   3  -6    8.99    0.81
   3   3   6    9.27    0.48
   3   3   6    9.04    0.49
  -3   3  -6    8.32    0.69
   3   3   6    8.77    1.25
   4  -3   6    6.22    0.63
  -4  -3  -6    6.24    0.52
   4  -3   6    6.58    1.15
   4  -3   6    7.54    0.65
  -4  -3  -6    5.80    0.58
   4  -3   6    6.74    0.73
  -4  -3  -6    6.47    0.48
   4  -3   6    7.46    0.58
  -4   3  -6    6.30    0.81
   4   3   6    6.79    0.42
  -4   3  -6    7.01    0.53
   4   3   6    6.25    0.56
  -4   3  -6    5.79    1.00
   4   3   6    6.75    0.81
   4   3   6    6.20    0.54
   4   3   6    6.27    0.49
  -4   3  -6    6.69    0.59
   4   3   6    7.30    1.06
  -4   3  -6    7.46    0.76
   4   3   6    6.37    0.41
  -4   3  -6    7.37    0.56
  -4   3  -6    5.54    0.62
   5  -3   6    1.35    0.42
  -5  -3  -6    0.49    0.30
   5  -3   6    1.13    0.38
  -5   3  -6    1.12    0.46
  -5   3  -6    1.09    0.62
   5   3   6    0.79    0.28
   5   3   6    1.29    0.30
  -5   3  -6    1.02    0.41
  -5   3  -6    1.01    0.30
   5   3   6    1.07    0.21
  -5   3  -6    0.88    0.29
   5   3   6    0.94    0.80
  -5   3  -6    1.01    0.31
   5   3   6    1.34    0.29
  -5   3  -6    0.52    0.65
   6  -3   6    0.67    0.38
   6  -3   6    0.93    0.28
  -6  -3  -6    1.15    0.35
   6  -3   6    0.56    0.34
  -6  -3  -6    0.68    0.32
   6   3   6    0.43    0.24
  -6   3  -6    0.46    0.29
  -6   3  -6    1.34    0.89
   6   3   6    0.58    0.16
   6   3   6    1.19    0.30
   6   3   6    0.73    0.26
  -6   3  -6    0.52    0.24
  -6   3  -6    0.51    0.65
  -6   3  -6    0.93    0.27
  -6   3  -6    0.52    0.40
  -6   3  -6    0.31    0.36
   7  -3   6    2.85    0.43
   7  -3   6    2.41    0.34
   7  -3   6    2.95    0.39
  -7  -3  -6    2.55    0.42
  -7  -3  -6    2.49    0.40
   7   3   6    2.30    0.40
  -7   3  -6    2.46    0.30
  -7   3  -6    2.07    0.36
  -7   3  -6    2.48    0.29
  -7   3  -6    1.97    0.35
  -7   3  -6    2.20    0.29
   7   3   6    2.31    0.22
  -7   3  -6    2.29    0.48
  -8  -4   6    1.29    0.16
  -8  -4   6    1.57    0.17
   8   4  -6    1.14    0.19
  -7  -4   6    2.28    0.27
  -7  -4   6    1.99    0.31
  -7  -4   6    2.18    0.26
  -7  -4   6    2.37    0.29
   7   4  -6    1.81    0.24
  -7   4   6    2.39    0.42
   7   4  -6    3.45    0.46
  -7   4   6    2.59    0.46
   7   4  -6    2.60    0.37
  -7   4   6    3.09    0.57
  -7   4   6    2.79    0.48
   6  -4  -6    7.60    0.51
  -6  -4   6    9.44    0.50
  -6  -4   6    9.03    0.64
  -6   4   6    9.34    0.89
   6   4  -6    9.30    0.53
   6   4  -6    8.89    0.60
   6   4  -6    8.47    0.49
   6   4  -6    8.73    0.77
  -6   4   6    9.17    0.79
  -6   4   6    8.87    0.72
  -6   4   6    9.68    0.86
   5  -4  -6    1.16    0.27
   5  -4  -6    0.86    0.29
  -5  -4   6    0.40    0.21
  -5  -4   6    0.51    0.28
  -5  -4   6    0.34    0.30
  -5  -4   6    0.58    0.34
  -5   4   6    0.76    0.85
   5   4  -6    0.28    0.25
  -5   4   6   -0.17    0.55
   5   4  -6    0.32    0.27
   5   4  -6    0.31    0.23
  -5   4   6    1.20    0.58
  -5   4   6    0.86    0.44
   5   4  -6    0.44    0.25
   4  -4  -6    5.54    0.54
   4  -4  -6    5.18    0.50
  -4  -4   6    4.88    0.44
  -4  -4   6    5.12    0.52
  -4  -4   6    5.83    0.43
   4  -4  -6    6.05    0.55
   4   4  -6    4.85    0.43
  -4   4   6    6.22    0.83
   4   4  -6    5.15    0.47
  -4   4   6    6.19    0.67
  -4   4   6    5.61    0.74
   4   4  -6    5.66    0.61
   4   4  -6    6.43    0.70
   4   4  -6    5.08    0.51
  -4   4   6    4.43    0.87
  -4   4   6    6.53    0.83
   4   4  -6    4.62    0.46
  -3  -4   6    6.81    0.53
   3  -4  -6    8.94    0.82
  -3  -4   6    7.09    0.53
   3  -4  -6    6.93    0.57
  -3  -4   6    7.21    0.59
   3  -4  -6    6.76    0.58
  -3   4   6    7.89    0.80
  -3   4   6    7.91    0.82
   3   4  -6    6.48    0.48
   3   4  -6    6.29    0.54
  -3   4   6    6.70    0.77
   3   4  -6    7.81    0.73
  -3   4   6    5.57    0.88
   3   4  -6    6.78    0.50
  -3   4   6    7.92    0.69
  -2  -4   6    0.56    0.24
   2  -4  -6    0.56    0.21
   2  -4  -6    0.39    0.31
   2  -4  -6    0.23    0.30
  -2  -4   6    0.39    0.28
   2  -4  -6    0.48    0.21
  -2  -4   6    0.42    0.21
  -2  -4   6    0.29    0.32
  -2  -4   6    0.64    0.27
   2  -4  -6    0.47    0.25
   2  -4  -6    0.35    0.38
  -2   4   6    0.71    0.21
  -2   4   6    1.44    0.48
   2   4  -6    0.40    0.24
   2   4  -6    0.55    0.20
   2   4  -6    0.18    0.36
  -2   4   6    1.13    0.47
  -2   4   6   -0.05    0.57
  -2   4   6    1.24    0.41
  -2   4   6    0.61    0.42
   2   4  -6    0.49    0.26
   1  -4  -6    2.54    0.28
   1  -4  -6    2.84    0.37
  -1  -4   6    1.59    0.41
  -1  -4   6    2.20    0.34
   1  -4  -6    3.02    0.40
  -1  -4   6    2.24    0.30
  -1  -4   6    2.54    0.37
  -1  -4   6    2.19    0.34
  -1  -4   6    2.32    0.63
   1  -4  -6    2.78    0.29
   1  -4  -6    2.30    0.48
   1   4  -6    2.38    0.28
  -1   4   6    2.56    0.32
  -1   4   6    3.12    0.53
  -1   4   6    2.81    0.39
  -1   4   6    2.54    0.75
   1   4  -6    2.51    0.36
   1   4  -6    2.48    0.45
   0  -4   6   -0.06    0.32
   0  -4  -6    0.13    0.42
   0  -4  -6    0.27    0.26
   0  -4   6    0.83    0.41
   0  -4   6    0.01    0.27
   0  -4  -6    0.19    0.21
   0  -4   6    0.67    0.66
   0  -4  -6    0.02    0.22
   0  -4   6    0.03    0.32
   0  -4  -6    0.02    0.33
   0  -4  -6   -0.27    0.32
   0  -4   6    0.26    0.30
   0  -4  -6    0.28    0.28
   0   4   6    0.04    0.21
   0   4  -6    0.10    0.28
   0   4  -6    0.34    0.22
   0   4  -6    0.10    0.37
   0   4   6    0.28    0.18
   0   4  -6    0.35    0.29
   0   4   6    0.48    0.43
   0   4  -6    0.31    0.10
   0   4   6    0.20    0.38
   0   4   6   -0.42    0.64
   0   4   6    1.21    0.53
   0   4  -6   -0.53    0.30
  -1  -4  -6    3.55    0.43
  -1  -4  -6    3.02    0.34
   1  -4   6    2.68    0.38
  -1  -4  -6    3.08    0.40
  -1  -4  -6    3.05    0.37
  -1  -4  -6    3.63    0.87
   1  -4   6    2.54    0.39
  -1  -4  -6    2.73    0.42
   1  -4   6    3.79    0.52
  -1  -4  -6    3.22    0.43
   1  -4   6    2.16    0.40
   1  -4   6    2.96    0.47
   1   4   6    2.10    0.69
  -1   4  -6    2.93    0.42
  -1   4  -6    2.57    0.51
   1   4   6    2.93    0.34
   1   4   6    3.33    0.47
  -1   4  -6    2.28    0.74
  -1   4  -6    3.05    0.35
  -1   4  -6    3.31    0.38
  -1   4  -6    2.68    0.47
  -2  -4  -6   35.93    1.60
  -2  -4  -6   36.19    1.78
  -2  -4  -6   37.32    1.56
  -2  -4  -6   36.55    1.59
  -2  -4  -6   36.53    1.52
  -2  -4  -6   37.93    1.54
  -2  -4  -6   37.65    1.62
   2  -4   6   37.92    1.62
   2  -4   6   38.39    1.61
   2  -4   6   38.56    1.61
   2  -4   6   35.55    2.20
   2  -4   6   37.47    1.69
  -2   4  -6   34.74    1.66
  -2   4  -6   40.20    1.58
  -2   4  -6   35.39    1.75
  -2   4  -6   39.85    1.56
  -2   4  -6   38.77    1.70
   2   4   6   37.27    1.54
   2   4   6   37.54    1.80
   2   4   6   38.92    1.60
  -2   4  -6   36.46    1.60
   2   4   6   36.19    1.49
  -3  -4  -6    6.85    0.60
   3  -4   6    7.03    1.24
  -3  -4  -6    6.89    0.51
  -3  -4  -6    6.74    0.81
   3  -4   6    6.27    0.67
   3  -4   6    5.68    0.68
  -3  -4  -6    5.37    0.42
   3  -4   6    5.91    0.62
   3  -4   6    6.04    0.73
   3  -4   6    5.79    0.64
  -3  -4  -6    7.07    0.50
   3   4   6    6.90    0.41
  -3   4  -6    6.91    0.65
  -3   4  -6    6.39    0.94
  -3   4  -6    6.69    0.73
  -3   4  -6    6.29    0.70
   3   4   6    6.55    0.55
   3   4   6    6.84    0.76
  -3   4  -6    7.41    0.56
  -3   4  -6    6.70    0.55
   3   4   6    8.03    1.10
   3   4   6    6.86    0.45
  -4  -4  -6   11.10    0.66
   4  -4   6   11.66    0.76
   4  -4   6   11.10    0.84
   4  -4   6   10.52    0.76
   4  -4   6   12.11    0.75
  -4  -4  -6   12.99    0.72
   4  -4   6   10.77    0.79
  -4  -4  -6   11.36    0.61
  -4   4  -6   11.19    0.82
   4   4   6   13.76    0.62
  -4   4  -6   12.00    0.66
  -4   4  -6    9.69    1.13
  -4   4  -6   11.06    0.71
   4   4   6   11.80    0.70
  -4   4  -6   11.20    0.72
  -4   4  -6   14.64    1.25
  -4   4  -6   11.30    1.04
  -4   4  -6   13.38    0.70
   4   4   6   11.32    0.60
   5  -4   6    1.42    0.33
   5  -4   6    1.36    0.39
  -5  -4  -6    1.99    0.33
   5  -4   6    1.78    0.35
   5  -4   6    1.49    0.35
  -5   4  -6    1.55    0.62
  -5   4  -6    1.48    0.39
   5   4   6    1.84    0.25
  -5   4  -6    1.43    0.28
   5   4   6    2.39    0.33
  -5   4  -6    1.64    0.62
  -5   4  -6    1.95    0.31
  -5   4  -6    1.43    0.42
   6  -4   6    0.63    0.29
  -6  -4  -6    1.42    0.29
   6  -4   6    0.64    0.30
  -6  -4  -6    0.81    0.28
   6  -4   6    0.82    0.26
  -6   4  -6    0.65    0.45
   6   4   6    0.76    0.15
  -6   4  -6    0.67    0.46
  -6   4  -6   -0.07    0.34
  -6   4  -6    0.87    0.36
  -6   4  -6    0.72    0.22
  -6   4  -6    0.54    0.23
  -7  -5   6    0.96    0.15
  -7  -5   6    0.76    0.13
  -7   5   6    1.36    0.35
  -6   5   6   15.51    0.86
   6   5  -6   14.22    0.66
  -6   5   6   17.09    0.96
  -6   5   6   18.60    1.17
   6   5  -6   14.89    0.74
   5  -5  -6    3.56    0.48
   5  -5  -6    4.39    0.40
   5  -5  -6    3.69    0.44
  -5  -5   6    4.03    0.40
  -5  -5   6    3.76    0.31
  -5   5   6    5.28    0.63
  -5   5   6    6.19    0.82
   5   5  -6    3.79    0.34
   5   5  -6    4.13    0.48
  -5   5   6    5.24    0.73
   5   5  -6    3.87    0.41
  -5   5   6    4.84    0.67
  -4  -5   6    5.95    0.51
  -4  -5   6    5.55    0.40
  -4  -5   6    6.08    0.44
   4  -5  -6    5.57    0.49
   4  -5  -6    5.28    0.55
   4  -5  -6    5.15    0.56
   4   5  -6    6.17    0.47
  -4   5   6    6.88    0.78
  -4   5   6    7.84    0.71
   4   5  -6    5.67    0.59
  -4   5   6    7.13    0.77
   4   5  -6    6.05    0.50
   3  -5  -6    2.59    0.41
   3  -5  -6    3.13    0.45
  -3  -5   6    2.40    0.32
   3  -5  -6    3.05    0.40
  -3  -5   6    2.64    0.40
  -3  -5   6    2.15    0.29
  -3   5   6    4.71    0.83
  -3   5   6    3.00    0.52
  -3   5   6    5.72    1.36
   3   5  -6    2.65    0.34
   3   5  -6    2.53    0.43
   3   5  -6    2.32    0.32
   2  -5  -6    0.36    0.35
  -2  -5   6    0.12    0.28
   2  -5  -6    0.07    0.30
   2  -5  -6    0.31    0.23
  -2  -5   6    0.30    0.36
   2  -5  -6    0.16    0.22
   2  -5  -6    0.45    0.34
  -2   5   6    0.74    0.74
   2   5  -6    0.40    0.27
  -2   5   6    0.88    0.72
   2   5  -6    0.19    0.25
  -2   5   6    0.64    0.63
   2   5  -6    0.07    0.57
  -2   5   6    0.26    0.21
  -2   5   6    1.48    0.56
   1  -5  -6   11.89    0.80
  -1  -5   6   12.45    0.71
  -1  -5   6   10.00    0.71
   1  -5  -6   12.66    0.83
  -1  -5   6   12.22    0.69
  -1  -5   6   12.03    0.77
  -1  -5   6   11.26    0.81
   1  -5  -6   12.18    0.65
   1  -5  -6   12.66    0.69
   1  -5  -6   12.19    0.78
   1  -5  -6   12.14    0.71
  -1   5   6   12.52    1.30
  -1   5   6   11.94    0.65
   1   5  -6   13.62    1.28
  -1   5   6   12.85    1.03
   1   5  -6   12.52    0.89
  -1   5   6   12.99    0.95
   1   5  -6   12.99    0.66
   0  -5   6    6.18    0.95
   0  -5   6    5.48    0.62
   0  -5   6    4.62    0.51
   0  -5  -6    5.75    0.53
   0  -5  -6    5.61    0.55
   0  -5  -6    5.52    0.46
   0  -5   6    4.37    0.64
   0  -5  -6    4.93    0.67
   0  -5  -6    4.93    0.66
   0  -5   6    4.73    0.58
   0  -5  -6    5.45    0.61
   0  -5   6    4.86    0.59
   0  -5   6    4.93    0.58
   0  -5  -6    5.52    0.65
   0   5   6    3.71    0.62
   0   5   6    4.49    0.85
   0   5  -6    5.45    0.70
   0   5  -6    5.04    0.42
   0   5   6    5.35    0.48
   0   5   6    5.16    0.42
  -1  -5  -6    5.72    0.68
   1  -5   6    4.58    0.57
   1  -5   6    3.60    0.55
  -1  -5  -6    4.75    0.61
   1  -5   6    3.33    0.48
  -1  -5  -6    4.41    0.57
   1  -5   6    3.64    1.24
  -1  -5  -6    5.15    0.61
  -1  -5  -6    5.29    0.50
   1  -5   6    4.59    0.59
  -1  -5  -6    5.45    0.46
  -1  -5  -6    4.68    0.43
   1  -5   6    4.71    0.63
  -1   5  -6    4.35    0.55
   1   5   6    4.93    0.40
   1   5   6    5.43    0.49
   1   5   6    5.25    1.19
  -1   5  -6    3.94    0.50
  -1   5  -6    3.65    0.57
  -1   5  -6    5.06    0.71
   2  -5   6    4.54    0.58
   2  -5   6    3.45    0.47
  -2  -5  -6    4.50    0.42
   2  -5   6    3.50    0.54
  -2  -5  -6    4.67    0.45
  -2  -5  -6    4.08    0.44
   2  -5   6    3.83    0.44
   2  -5   6    3.67    0.43
  -2  -5  -6    3.88    0.54
  -2   5  -6    2.81    0.57
  -2   5  -6    4.16    0.48
   2   5   6    4.05    0.37
  -2   5  -6    4.12    0.48
  -2   5  -6    3.03    0.47
   2   5   6    4.07    0.45
  -2   5  -6    3.47    0.59
  -2   5  -6    2.95    0.44
  -2   5  -6    4.16    0.78
   3  -5   6    3.39    0.39
  -3  -5  -6    4.29    0.51
   3  -5   6    4.92    0.70
  -3  -5  -6    4.24    0.42
   3  -5   6    3.92    0.42
   3  -5   6    4.08    0.43
   3  -5   6    3.32    0.74
  -3  -5  -6    4.52    0.42
   3   5   6    4.69    0.45
  -3   5  -6    3.31    0.39
  -3   5  -6    3.41    0.57
  -3   5  -6    4.83    0.76
  -3   5  -6    3.72    0.68
  -3   5  -6    3.41    0.70
   3   5   6    4.45    0.38
  -3   5  -6    4.66    0.45
  -3   5  -6    4.64    0.47
   4  -5   6    0.80    0.34
  -4  -5  -6    0.05    0.21
   4  -5   6   -0.17    0.31
   4  -5   6   -0.10    0.36
   4  -5   6    0.01    0.26
  -4  -5  -6    0.09    0.26
  -4  -5  -6    0.02    0.17
   4  -5   6    0.18    0.39
  -4   5  -6    0.94    0.36
  -4   5  -6   -0.28    0.46
   4   5   6    0.11    0.22
  -4   5  -6    0.08    0.31
  -4   5  -6   -0.04    0.36
  -4   5  -6   -0.54    0.88
   5  -5   6    3.38    0.44
  -5   5  -6    3.47    0.33
  -5   5  -6    3.73    0.53
  -5   5  -6    3.24    0.30
   5   5   6    3.24    0.32
  -5   6   6    0.63    0.30
  -5   6   6    0.79    0.35
   4  -6  -6   -0.09    0.24
  -4  -6   6    0.36    0.20
   4  -6  -6    0.08    0.24
   4  -6  -6   -0.06    0.24
  -4   6   6    0.07    0.43
   4   6  -6   -0.01    0.16
  -4   6   6    0.38    0.38
   4   6  -6    0.24    0.28
  -4   6   6    0.26    0.38
   3  -6  -6    2.81    0.48
   3  -6  -6    3.28    0.34
   3  -6  -6    3.81    0.41
  -3  -6   6    4.32    0.48
   3  -6  -6    3.42    0.38
  -3  -6   6    2.91    0.43
  -3  -6   6    3.72    0.35
   3  -6  -6    3.39    0.39
   3   6  -6    3.67    0.32
  -3   6   6    4.31    0.64
  -3   6   6    4.77    0.62
   3   6  -6    4.03    0.46
  -2  -6   6   23.13    1.04
   2  -6  -6   21.76    0.96
   2  -6  -6   21.17    1.05
   2  -6  -6   24.12    1.03
   2  -6  -6   21.19    1.06
  -2  -6   6   23.82    1.01
   2  -6  -6   22.55    1.04
  -2  -6   6   22.03    0.95
  -2   6   6   21.24    1.11
   2   6  -6   25.60    1.13
   2   6  -6   22.44    0.96
  -1  -6   6    4.61    0.53
  -1  -6   6    4.38    0.45
   1  -6  -6    4.03    0.53
   1  -6  -6    4.76    0.46
   1  -6  -6    4.19    0.53
  -1  -6   6    3.87    0.38
   1  -6  -6    2.86    0.39
   1  -6  -6    4.33    0.55
   1   6  -6    4.56    0.55
  -1   6   6    4.06    0.48
   1   6  -6    4.15    0.34
   0  -6  -6    0.27    0.25
   0  -6   6   -0.03    0.23
   0  -6   6   -0.20    0.26
   0  -6   6   -0.14    0.38
   0  -6  -6    0.39    0.22
   0  -6  -6   -0.34    0.34
   0  -6   6    0.03    0.14
   0  -6  -6    0.31    0.31
   0  -6  -6   -0.40    0.17
   0  -6  -6    0.38    0.30
   0  -6   6   -0.04    0.38
   0   6  -6   -0.01    0.28
   0   6   6    0.17    0.20
   0   6  -6    0.35    0.24
   1  -6   6    0.88    0.40
  -1  -6  -6    0.91    0.19
  -1  -6  -6    1.35    0.32
  -1  -6  -6    1.46    0.23
   1  -6   6    0.36    0.36
  -1  -6  -6    1.44    0.26
   1  -6   6    1.20    0.40
   1  -6   6    0.95    0.24
  -1   6  -6    1.18    0.43
   1   6   6    1.40    0.29
   2  -6   6   -0.23    0.25
  -2  -6  -6    0.20    0.19
   2  -6   6   -0.08    0.25
   2  -6   6    0.11    0.21
   2  -6   6   -0.13    0.52
   2  -6   6   -0.09    0.27
  -2  -6  -6    0.25    0.26
  -2   6  -6    0.19    0.42
   2   6   6    0.29    0.21
  -2   6  -6   -0.33    0.22
   3  -6   6    1.76    0.25
   3  -6   6    1.37    0.23
   3  -6   6    1.16    0.30
  -3  -6  -6    2.78    0.36
   3  -6   6    1.56    0.30
  -3  -6  -6    1.72    0.22
   3   6   6    2.12    0.24
  -3   6  -6    2.05    0.46
   4   6   6   -0.01    0.12
  -4   6  -6   -0.10    0.25
   1   7  -6    0.36    0.11
   0  -7   6   -0.01    0.11
 -10   0   7    0.12    0.14
  -9   0   7    3.48    0.41
  -9   0   7    5.17    0.41
  -9   0   7    3.90    0.30
  -9   0   7    3.56    0.32
  -9   0   7    4.23    0.58
  -8   0   7    2.65    0.28
  -8   0   7    2.41    0.35
  -8   0   7    2.12    0.26
  -8   0   7    1.91    0.26
  -8   0   7    1.56    0.39
   8   0  -7    1.98    0.30
   8   0  -7    2.27    0.30
  -7   0   7    8.93    0.52
   7   0  -7    8.30    0.52
  -7   0   7    8.46    0.69
  -7   0   7    9.35    0.50
   7   0  -7    7.55    0.48
  -7   0   7    8.87    0.53
  -7   0   7    8.05    0.49
  -7   0   7    8.96    0.53
   7   0  -7   10.09    0.90
   7   0  -7    7.77    0.51
  -6   0   7    0.29    0.18
  -6   0   7    0.20    0.21
   6   0  -7    0.15    0.19
  -6   0   7    0.47    0.23
   6   0  -7    0.63    0.40
  -6   0   7    0.26    0.29
  -6   0   7    0.29    0.19
  -6   0   7    0.45    0.20
  -5   0   7    1.22    0.20
  -5   0   7    1.23    0.28
  -5   0   7    1.52    0.19
  -5   0   7    1.39    0.22
   5   0  -7    1.37    0.42
   5   0  -7    1.27    0.39
   5   0  -7    1.30    0.19
  -5   0   7    1.57    0.24
  -4   0   7    0.80    0.18
   4   0  -7    0.71    0.15
  -4   0   7    0.41    0.15
   4   0  -7    0.71    0.34
   4   0  -7    0.40    0.28
   4   0  -7    0.65    0.16
   3   0  -7    0.05    0.15
  -3   0   7    0.20    0.23
   3   0  -7   -0.02    0.25
   3   0  -7    0.21    0.32
  -3   0   7    0.09    0.19
   3   0  -7    0.16    0.16
   2   0  -7    1.84    0.32
  -2   0   7    1.58    0.21
   2   0  -7    1.52    0.29
  -2   0   7    1.43    0.32
   2   0  -7    1.74    0.22
   2   0  -7    1.52    0.36
   1   0  -7   12.50    0.80
   1   0  -7   11.67    0.62
  -1   0   7   12.59    0.84
   1   0  -7   13.12    0.71
   1   0  -7   13.13    0.66
   0   0   7  259.90   10.12
   0   0   7  257.42   10.05
   0   0  -7  275.40   10.18
   0   0  -7  286.16   10.31
   0   0  -7  263.85   10.21
   0   0   7  269.77   10.07
   0   0   7  257.73   10.10
   0   0   7  256.33   10.26
   0   0  -7  292.67   10.14
   0   0   7  271.34   10.13
   0   0   7  253.89   10.07
   1   0   7    0.41    0.36
   1   0   7    0.32    0.26
  -1   0  -7    0.44    0.20
  -1   0  -7    0.46    0.24
  -1   0  -7    0.48    0.20
  -1   0  -7    0.29    0.21
   1   0   7    0.57    0.24
   1   0   7    0.26    0.21
  -1   0  -7    0.37    0.20
   1   0   7    0.42    0.13
  -1   0  -7    0.46    0.20
   1   0   7    0.18    0.20
   1   0   7    0.36    0.23
   2   0   7   11.24    0.51
   2   0   7    9.95    0.90
  -2   0  -7    9.37    0.55
  -2   0  -7   11.51    0.62
   2   0   7   11.11    0.81
   2   0   7   11.75    0.58
   2   0   7   11.59    0.69
   2   0   7   11.74    0.61
   2   0   7   11.75    0.64
  -2   0  -7   11.64    0.60
  -2   0  -7   11.84    0.61
   2   0   7   11.53    0.64
   3   0   7   10.88    0.51
  -3   0  -7   11.76    0.64
   3   0   7    9.88    1.12
   3   0   7   10.29    0.92
  -3   0  -7   10.27    0.65
  -3   0  -7   10.04    0.54
   3   0   7   11.20    0.60
   3   0   7   11.52    0.67
  -3   0  -7   10.73    0.61
   3   0   7   10.94    0.67
   3   0   7   11.12    0.62
  -3   0  -7   11.02    0.64
   3   0   7   10.49    0.74
  -3   0  -7   10.75    0.63
  -4   0  -7  148.48    5.48
  -4   0  -7  137.10    5.32
   4   0   7  137.92    5.56
   4   0   7  139.84    5.33
   4   0   7  146.01    5.39
  -4   0  -7  142.08    5.41
  -4   0  -7  140.94    5.44
  -4   0  -7  142.27    5.38
  -4   0  -7  142.60    5.50
   4   0   7  139.08    5.47
   4   0   7  140.23    5.42
  -4   0  -7  136.88    5.32
  -4   0  -7  137.01    5.48
   4   0   7  141.94    5.38
  -4   0  -7  135.29    5.39
   5   0   7    0.03    0.34
   5   0   7    0.01    0.17
   5   0   7    0.81    0.38
  -5   0  -7    0.40    0.39
   5   0   7    0.05    0.28
  -5   0  -7    0.17    0.17
   5   0   7    0.36    0.30
  -5   0  -7   -0.08    0.21
   5   0   7   -0.07    0.29
  -5   0  -7    0.40    0.25
  -5   0  -7    0.03    0.18
  -5   0  -7    0.32    0.31
  -6   0  -7   31.08    1.25
   6   0   7   30.54    1.45
   6   0   7   30.37    1.38
  -6   0  -7   30.54    1.43
  -6   0  -7   30.79    1.31
  -6   0  -7   31.02    1.66
   6   0   7   29.77    1.35
  -6   0  -7   31.47    1.46
  -6   0  -7   31.65    1.41
   6   0   7   30.91    1.40
  -6   0  -7   31.06    1.25
   7   0   7    1.73    0.35
  -7   0  -7    1.29    0.45
   7   0   7    1.44    0.31
   7   0   7    1.28    0.33
  -7   0  -7    1.89    0.24
  -7   0  -7    1.49    0.21
  -7   0  -7    1.71    0.25
   7   0   7    1.65    0.34
  -7   0  -7    1.59    0.34
  -7   0  -7    1.40    0.54
   8   0   7   -0.10    0.33
  -8   0  -7    0.27    0.24
 -10  -1   7    5.12    0.29
 -10  -1   7    5.63    0.39
  -9  -1   7    2.75    0.29
  -9  -1   7    2.79    0.27
  -9  -1   7    2.94    0.32
  -9  -1   7    2.54    0.27
  -9  -1   7    2.70    0.41
  -9   1   7    2.66    0.27
  -9   1   7    3.43    0.43
  -9   1   7    2.61    0.35
  -9   1   7    2.54    0.27
   9   1  -7    3.21    0.28
  -9   1   7    2.54    0.26
   9   1  -7    2.31    0.27
  -8  -1   7    4.57    0.60
  -8  -1   7    4.05    0.36
  -8  -1   7    3.71    0.39
  -8  -1   7    3.36    0.36
  -8  -1   7    3.88    0.36
  -8   1   7    3.24    0.33
   8   1  -7    3.91    0.37
   8   1  -7    4.20    0.40
  -8   1   7    4.14    0.36
  -8   1   7    3.58    0.45
  -8   1   7    4.07    0.39
  -8   1   7    4.01    0.38
  -7  -1   7    6.34    0.47
  -7  -1   7    6.40    0.44
  -7  -1   7    5.98    0.69
  -7  -1   7    7.20    0.47
  -7  -1   7    6.67    0.43
  -7   1   7    5.75    0.40
  -7   1   7    6.98    0.47
   7   1  -7    8.20    0.63
  -7   1   7    5.09    0.40
   7   1  -7    6.96    0.53
  -7   1   7    7.51    0.68
   7   1  -7    6.89    0.50
   7   1  -7    8.16    0.88
  -7   1   7    6.96    0.47
   6  -1  -7    4.04    0.57
  -6  -1   7    3.18    0.36
  -6  -1   7    3.21    0.38
  -6  -1   7    2.43    0.37
  -6  -1   7    3.26    0.37
  -6  -1   7    3.65    0.32
  -6  -1   7    3.18    0.39
  -6   1   7    3.12    0.39
  -6   1   7    3.15    0.39
  -6   1   7    3.79    0.42
   6   1  -7    3.21    0.41
   6   1  -7    2.08    0.49
   6   1  -7    2.93    0.41
   6   1  -7    3.09    0.40
  -6   1   7    4.30    0.37
  -5  -1   7   13.09    0.66
  -5  -1   7   16.11    0.72
  -5  -1   7   13.33    0.77
  -5  -1   7   13.63    0.68
   5  -1  -7   15.00    1.02
   5  -1  -7   13.09    0.86
   5  -1  -7   13.45    0.96
   5   1  -7   13.40    1.15
   5   1  -7   16.01    1.12
  -5   1   7   12.99    0.71
  -5   1   7   12.86    0.66
   5   1  -7   13.92    0.68
  -5   1   7   13.64    0.67
   5   1  -7   12.54    0.67
  -5   1   7   12.69    0.85
  -5   1   7   13.53    0.64
   4  -1  -7   80.24    3.26
   4  -1  -7   74.80    3.08
  -4  -1   7   81.52    2.88
   4  -1  -7   66.62    2.87
  -4  -1   7   75.89    2.91
  -4  -1   7   77.61    2.95
   4  -1  -7   78.77    3.27
  -4  -1   7   75.27    2.90
  -4   1   7   77.74    2.91
  -4   1   7   75.34    3.05
  -4   1   7   72.36    3.00
  -4   1   7   71.97    2.94
   4   1  -7   75.61    2.90
  -4   1   7   74.52    2.90
   4   1  -7   73.63    3.41
   4   1  -7   74.56    3.18
  -4   1   7   78.31    2.92
   4   1  -7   73.49    2.91
  -3  -1   7    6.50    0.51
  -3  -1   7    6.43    0.37
   3  -1  -7    7.39    0.63
   3  -1  -7    7.26    0.63
  -3  -1   7    6.33    0.49
   3  -1  -7    6.23    0.51
   3   1  -7    6.59    0.38
   3   1  -7    6.70    0.39
   3   1  -7    6.32    0.76
  -3   1   7    5.92    0.52
  -3   1   7    5.32    0.64
   3   1  -7    6.36    0.60
   3   1  -7    5.97    0.40
   2  -1  -7   53.67    2.14
   2  -1  -7   54.52    2.25
  -2  -1   7   53.21    2.25
  -2  -1   7   49.74    2.09
   2  -1  -7   54.43    2.27
   2  -1  -7   51.60    2.04
  -2  -1   7   53.38    2.14
   2   1  -7   52.25    2.04
  -2   1   7   50.70    2.09
   2   1  -7   52.00    2.07
   2   1  -7   52.42    2.39
   2   1  -7   50.22    2.05
  -2   1   7   54.42    2.24
  -2   1   7   52.28    2.04
   2   1  -7   53.52    2.23
  -1  -1   7    5.86    0.40
  -1  -1   7    6.07    0.50
   1  -1  -7    6.70    0.57
   1  -1  -7    7.47    0.45
  -1  -1   7    6.73    0.49
   1  -1  -7    5.59    0.42
  -1  -1   7    6.40    0.75
   1  -1  -7    6.85    0.45
   1  -1  -7    6.12    0.59
  -1   1   7    5.82    0.77
  -1   1   7    6.13    0.45
   1   1  -7    6.22    0.38
  -1   1   7    6.32    0.62
   1   1  -7    6.11    0.43
  -1   1   7    5.99    0.35
   1   1  -7    6.35    0.64
   0  -1   7   17.79    1.15
   0  -1  -7   20.76    0.86
   0  -1  -7   18.85    0.88
   0  -1   7   18.43    0.86
   0  -1   7   19.58    0.91
   0  -1   7   19.55    0.95
   0  -1  -7   21.86    0.90
   0  -1   7   18.57    0.82
   0  -1  -7   20.74    0.89
   0  -1  -7   18.41    1.04
   0  -1  -7   19.02    0.91
   0  -1   7   19.16    0.89
   0  -1  -7   20.14    0.92
   0   1  -7   20.41    0.96
   0   1  -7   19.62    0.86
   0   1   7   18.33    0.85
   0   1  -7   18.79    0.89
   0   1   7   19.80    0.95
   0   1   7   19.00    0.80
   0   1  -7   21.19    1.11
  -1  -1  -7   24.87    1.03
  -1  -1  -7   25.17    1.04
   1  -1   7   25.67    1.05
   1  -1   7   25.00    1.09
   1  -1   7   25.36    1.08
   1  -1   7   24.95    1.12
   1  -1   7   24.79    1.20
   1  -1   7   23.65    0.99
  -1  -1  -7   24.24    1.09
   1  -1   7   21.65    1.33
  -1  -1  -7   24.79    1.06
  -1  -1  -7   24.61    1.06
  -1  -1  -7   24.56    1.25
   1   1   7   24.90    1.22
  -1   1  -7   23.96    1.01
  -1   1  -7   24.85    1.09
   1   1   7   22.74    1.03
   1   1   7   24.27    0.99
  -1   1  -7   22.27    1.03
   1   1   7   24.23    1.07
  -1   1  -7   25.31    1.04
   1   1   7   23.61    1.09
  -1   1  -7   25.70    1.28
   1   1   7   25.96    1.05
  -1   1  -7   25.66    1.14
   2  -1   7   22.47    1.19
   2  -1   7   21.69    1.03
  -2  -1  -7   21.27    0.98
  -2  -1  -7   20.65    0.91
  -2  -1  -7   23.71    0.99
  -2  -1  -7   21.19    0.97
   2  -1   7   21.16    0.97
   2  -1   7   22.05    1.00
  -2  -1  -7   20.40    0.91
  -2  -1  -7   21.14    1.13
   2  -1   7   23.00    0.96
  -2  -1  -7   21.45    0.92
  -2  -1  -7   21.04    0.98
  -2  -1  -7   20.54    0.93
   2  -1   7   21.32    0.88
  -2   1  -7   21.72    0.94
   2   1   7   22.22    0.89
  -2   1  -7   21.11    0.95
   2   1   7   21.61    0.93
   2   1   7   21.03    1.06
  -2   1  -7   24.38    1.02
  -2   1  -7   20.64    0.97
   2   1   7   21.13    1.23
   2   1   7   22.37    0.99
  -2   1  -7   21.04    1.01
   2   1   7   21.09    0.93
  -2   1  -7   22.15    0.95
   3  -1   7    3.26    0.56
  -3  -1  -7    2.31    0.39
  -3  -1  -7    2.74    0.35
   3  -1   7    2.75    0.35
  -3  -1  -7    2.90    0.36
   3  -1   7    2.47    0.25
  -3  -1  -7    2.57    0.32
   3  -1   7    2.36    0.30
  -3  -1  -7    2.78    0.33
   3  -1   7    2.26    0.55
   3  -1   7    2.43    0.52
   3  -1   7    3.09    0.45
   3   1   7    2.47    0.55
   3   1   7    3.65    0.47
   3   1   7    2.94    0.38
   3   1   7    2.74    0.44
   3   1   7    2.75    0.50
   3   1   7    2.88    0.27
  -3   1  -7    3.12    0.36
   3   1   7    2.36    0.40
  -3   1  -7    2.61    0.46
  -3   1  -7    2.19    0.30
  -3   1  -7    2.77    0.28
  -3   1  -7    2.48    0.42
  -3   1  -7    3.17    0.41
   4  -1   7   32.37    1.50
   4  -1   7   32.75    1.44
  -4  -1  -7   32.19    1.48
  -4  -1  -7   32.77    1.42
   4  -1   7   31.06    1.31
   4  -1   7   32.09    1.40
  -4  -1  -7   36.16    1.43
   4  -1   7   31.29    1.93
   4  -1   7   35.81    1.64
  -4  -1  -7   33.10    1.48
  -4  -1  -7   31.60    1.33
   4  -1   7   32.16    1.46
  -4  -1  -7   30.45    1.35
  -4   1  -7   32.13    1.47
  -4   1  -7   33.94    1.41
  -4   1  -7   31.33    1.51
  -4   1  -7   31.02    1.47
   4   1   7   30.51    1.41
   4   1   7   32.65    1.37
  -4   1  -7   32.82    1.33
   4   1   7   33.85    1.32
  -4   1  -7   36.74    1.37
   4   1   7   33.94    1.47
  -4   1  -7   31.87    1.42
   4   1   7   31.35    1.62
  -4   1  -7   30.78    1.59
   4   1   7   33.36    1.38
   5  -1   7    9.19    0.47
  -5  -1  -7    8.86    0.63
  -5  -1  -7    9.28    0.68
   5  -1   7    8.29    0.68
   5  -1   7    7.84    0.88
  -5  -1  -7    8.23    0.54
  -5  -1  -7    9.05    0.47
  -5  -1  -7    9.30    0.71
   5  -1   7    9.25    0.72
  -5  -1  -7    8.89    0.46
   5  -1   7   12.22    1.57
   5  -1   7    9.65    0.78
   5  -1   7    9.37    0.70
  -5   1  -7    9.10    0.53
   5   1   7   10.50    0.73
  -5   1  -7    9.99    1.14
   5   1   7    9.75    0.62
  -5   1  -7   10.07    0.64
  -5   1  -7    9.60    0.63
  -5   1  -7    8.96    0.53
   5   1   7    8.72    0.65
  -5   1  -7    8.93    0.69
   5   1   7    9.06    0.92
   5   1   7    9.35    0.50
  -5   1  -7    9.44    0.78
  -6  -1  -7    2.58    0.30
   6  -1   7    3.12    0.55
  -6  -1  -7    2.83    0.28
  -6  -1  -7    2.96    0.29
  -6  -1  -7    3.33    0.58
   6  -1   7    2.36    0.39
   6  -1   7    2.54    0.42
   6  -1   7    3.26    0.42
  -6  -1  -7    3.18    0.50
   6   1   7    2.61    0.41
  -6   1  -7    2.86    0.34
   6   1   7    3.75    0.45
  -6   1  -7    3.07    0.73
  -6   1  -7    2.98    0.51
   6   1   7    2.88    0.37
  -6   1  -7    2.53    0.36
  -6   1  -7    3.31    0.45
   6   1   7    3.27    0.49
  -7  -1  -7    0.37    0.48
  -7  -1  -7   -0.17    0.29
   7  -1   7   -0.19    0.28
  -7  -1  -7   -0.08    0.32
   7  -1   7    0.13    0.27
   7  -1   7    0.87    0.28
   7  -1   7    0.04    0.32
  -7   1  -7    0.17    0.23
   7   1   7    0.95    0.42
   7   1   7   -0.04    0.15
  -7   1  -7    0.09    0.35
   7   1   7   -0.07    0.27
  -7   1  -7   -0.01    0.18
  -7   1  -7    0.01    0.55
   7   1   7    0.09    0.27
  -7   1  -7    0.16    0.19
  -7   1  -7    0.23    0.35
   7   1   7    0.49    0.30
  -8  -1  -7    2.23    0.32
  -8   1  -7    1.70    0.32
  -9  -2   7    6.88    0.40
  -9  -2   7    7.55    0.57
  -9  -2   7    7.03    0.38
  -9  -2   7    7.35    0.38
   9   2  -7    7.12    0.40
  -8  -2   7   17.80    0.79
  -8  -2   7   17.86    0.79
  -8  -2   7   18.30    0.82
  -8  -2   7   17.61    0.97
  -8  -2   7   17.08    0.78
  -8   2   7   17.69    0.79
   8   2  -7   17.45    0.84
   8   2  -7   21.43    0.91
   8   2  -7   17.57    0.98
  -7  -2   7    7.20    0.60
  -7  -2   7    6.47    0.45
  -7  -2   7    7.79    0.85
  -7  -2   7    7.53    0.45
  -7  -2   7    7.60    0.50
   7   2  -7    6.54    0.51
  -7   2   7    6.45    0.68
   7   2  -7    6.18    0.53
   7   2  -7    8.07    0.87
   7   2  -7    6.12    0.50
   7   2  -7    6.36    0.40
  -7   2   7    7.01    0.46
  -6  -2   7   68.49    2.69
  -6  -2   7   69.67    2.71
  -6  -2   7   68.33    2.69
  -6  -2   7   68.48    2.81
   6   2  -7   74.10    2.74
   6   2  -7   61.96    3.13
  -6   2   7   69.71    2.69
  -6   2   7   68.64    2.69
   6   2  -7   67.28    2.72
   6   2  -7   69.10    2.68
  -6   2   7   68.17    2.77
  -6   2   7   69.54    2.82
  -6   2   7   70.64    2.87
   6   2  -7   72.86    2.76
   6   2  -7   67.89    2.76
   5  -2  -7   64.20    2.61
  -5  -2   7   64.33    2.44
   5  -2  -7   65.80    2.95
  -5  -2   7   62.46    2.55
  -5  -2   7   62.06    2.45
  -5  -2   7   64.33    2.46
  -5   2   7   62.94    2.58
  -5   2   7   58.53    2.74
   5   2  -7   61.71    2.46
   5   2  -7   61.81    2.52
   5   2  -7   66.05    2.50
   5   2  -7   53.48    3.44
   5   2  -7   65.32    2.51
  -5   2   7   63.44    2.50
   5   2  -7   63.16    2.87
   5   2  -7   63.79    2.49
  -5   2   7   62.60    2.46
  -5   2   7   63.52    2.62
  -5   2   7   65.52    2.46
   4  -2  -7    1.68    0.41
   4  -2  -7    2.55    0.28
   4  -2  -7    2.73    0.46
  -4  -2   7    2.88    0.34
  -4  -2   7    2.28    0.30
  -4  -2   7    2.61    0.33
  -4  -2   7    3.02    0.30
  -4   2   7    2.61    0.29
  -4   2   7    2.22    0.27
  -4   2   7    2.30    0.29
   4   2  -7    1.91    0.42
   4   2  -7    2.27    0.28
  -4   2   7    2.20    0.26
  -4   2   7    2.38    0.41
  -4   2   7    2.12    0.38
   4   2  -7    2.60    0.35
   4   2  -7    2.64    0.32
   4   2  -7    2.17    0.26
   4   2  -7    2.81    0.64
  -4   2   7    2.56    0.43
   3  -2  -7    8.88    0.46
   3  -2  -7    8.82    0.47
   3  -2  -7    9.11    0.79
  -3   2   7    7.39    0.50
   3   2  -7    9.34    0.49
   3   2  -7    9.24    0.47
   3   2  -7    9.32    0.75
   3   2  -7    7.67    0.49
  -3   2   7    9.28    0.88
   3   2  -7    8.94    0.51
   3   2  -7    9.32    0.67
   3   2  -7    8.74    0.87
  -3   2   7    8.73    0.48
   2  -2  -7    7.63    0.48
   2  -2  -7    8.35    0.48
   2  -2  -7   10.05    1.12
   2  -2  -7    8.84    0.59
  -2  -2   7    8.67    0.63
  -2  -2   7    9.12    0.48
  -2  -2   7    8.40    0.58
  -2  -2   7    8.20    0.76
   2  -2  -7    8.81    0.45
   2   2  -7    8.78    0.52
  -2   2   7    8.96    0.85
   2   2  -7    8.78    0.69
  -2   2   7    8.47    0.43
   2   2  -7    8.88    0.47
   2   2  -7    8.34    0.50
   2   2  -7   10.30    0.92
  -2   2   7    8.35    0.62
  -2   2   7    6.89    0.47
   1  -2  -7   12.28    0.61
   1  -2  -7   13.84    0.63
  -1  -2   7   12.31    0.74
  -1  -2   7   12.03    0.94
  -1  -2   7   12.16    0.65
   1  -2  -7   12.55    0.72
   1  -2  -7   13.05    0.90
   1  -2  -7   10.97    0.63
  -1  -2   7   12.18    0.61
   1  -2  -7   11.99    0.62
  -1  -2   7   12.22    0.69
   1   2  -7   12.27    0.75
  -1   2   7   12.00    0.55
   1   2  -7   12.58    0.69
   1   2  -7   12.39    0.89
  -1   2   7   12.33    0.74
   1   2  -7   12.59    0.62
  -1   2   7   13.47    1.01
   1   2  -7   12.28    0.60
   0  -2   7    3.16    0.37
   0  -2   7    2.22    0.29
   0  -2   7    2.67    0.27
   0  -2  -7    2.64    0.31
   0  -2   7    2.99    0.33
   0  -2   7    1.96    0.33
   0  -2  -7    2.86    0.50
   0  -2  -7    2.83    0.39
   0  -2   7    2.04    0.50
   0  -2  -7    2.45    0.37
   0  -2  -7    2.66    0.29
   0   2   7    2.66    0.25
   0   2   7    2.68    0.56
   0   2  -7    1.86    0.27
   0   2  -7    2.07    0.30
   0   2  -7    2.18    0.38
   0   2  -7    2.71    0.39
   0   2   7    2.57    0.23
   0   2  -7    2.17    0.31
   1  -2   7    5.99    0.52
   1  -2   7    5.23    0.55
   1  -2   7    4.91    0.50
  -1  -2  -7    5.65    0.46
   1  -2   7    5.59    0.47
  -1  -2  -7    5.85    0.47
  -1  -2  -7    5.29    0.67
  -1  -2  -7    6.16    0.51
   1  -2   7    5.72    0.35
   1  -2   7    5.02    0.85
  -1  -2  -7    5.81    0.46
  -1  -2  -7    5.66    0.51
  -1  -2  -7    6.07    0.41
  -1  -2  -7    5.61    0.34
  -1  -2  -7    6.43    0.46
  -1   2  -7    5.81    0.58
   1   2   7    6.90    0.95
   1   2   7    5.59    0.40
   1   2   7    6.16    0.44
   1   2   7    5.45    0.51
   1   2   7    5.95    0.44
  -1   2  -7    7.17    0.66
  -1   2  -7    5.80    0.42
  -1   2  -7    5.04    0.47
  -1   2  -7    5.59    0.48
   1   2   7    5.78    0.35
  -1   2  -7    6.05    0.41
   1   2   7    7.03    0.69
  -1   2  -7    6.28    0.34
   2  -2   7    4.05    0.48
   2  -2   7    3.18    0.52
  -2  -2  -7    3.31    0.43
  -2  -2  -7    3.25    0.37
  -2  -2  -7    3.95    0.46
  -2  -2  -7    3.01    0.52
  -2  -2  -7    3.58    0.43
   2  -2   7    3.65    0.28
  -2  -2  -7    3.37    0.35
  -2  -2  -7    4.06    0.51
   2  -2   7    3.78    0.48
   2  -2   7    3.26    0.68
  -2  -2  -7    3.24    0.45
  -2  -2  -7    3.19    0.40
  -2  -2  -7    3.44    0.34
   2   2   7    3.94    0.47
   2   2   7    3.28    0.46
   2   2   7    3.10    0.40
  -2   2  -7    3.13    0.35
   2   2   7    3.14    0.66
  -2   2  -7    3.26    0.50
   2   2   7    3.10    0.40
   2   2   7    4.03    0.62
  -2   2  -7    3.62    0.41
   2   2   7    3.87    0.29
   2   2   7    3.13    0.27
  -2   2  -7    3.57    0.39
  -2   2  -7    3.68    0.34
  -2   2  -7    3.12    0.37
  -2   2  -7    2.76    0.43
  -3  -2  -7    6.14    0.48
   3  -2   7    6.21    0.54
   3  -2   7    6.59    0.63
  -3  -2  -7    6.23    0.46
  -3  -2  -7    6.77    0.48
   3  -2   7    6.18    1.07
  -3  -2  -7    6.86    0.50
  -3  -2  -7    6.56    0.45
   3  -2   7    6.11    0.82
   3  -2   7    6.04    0.60
  -3  -2  -7    5.45    0.41
   3  -2   7    5.98    0.61
  -3  -2  -7    6.45    0.51
   3   2   7    6.64    0.47
  -3   2  -7    6.07    0.52
   3   2   7    6.45    0.52
   3   2   7    5.74    0.52
  -3   2  -7    6.36    0.45
  -3   2  -7    8.17    0.58
   3   2   7    6.62    0.95
  -3   2  -7    6.42    0.44
  -3   2  -7    6.31    0.59
  -3   2  -7    6.38    0.91
   3   2   7    6.99    0.40
  -3   2  -7    6.23    0.49
   3   2   7    6.27    0.47
  -3   2  -7    6.78    0.66
  -3   2  -7    6.28    0.48
   3   2   7    6.91    0.75
   3   2   7    6.81    0.54
   4  -2   7    8.34    0.65
  -4  -2  -7    8.23    0.59
   4  -2   7    8.57    0.73
   4  -2   7    8.34    0.73
  -4  -2  -7    8.39    0.65
  -4  -2  -7    7.80    0.51
  -4  -2  -7    8.57    0.60
   4  -2   7    7.59    1.19
  -4   2  -7    8.16    0.57
  -4   2  -7    8.23    1.05
   4   2   7    8.19    0.56
  -4   2  -7    8.30    0.53
  -4   2  -7    8.60    0.59
  -4   2  -7    8.25    0.71
  -4   2  -7    7.92    0.64
  -4   2  -7    7.78    0.85
   4   2   7    9.05    0.48
   4   2   7    8.58    0.64
   4   2   7    9.22    0.57
   4   2   7    9.27    0.88
  -4   2  -7    9.21    0.64
   4   2   7    8.07    0.59
  -4   2  -7    8.61    0.54
   5  -2   7    2.06    0.61
   5  -2   7    0.71    0.76
   5  -2   7    2.36    0.43
   5  -2   7    2.39    0.41
  -5  -2  -7    2.22    0.39
  -5  -2  -7    2.69    0.38
   5  -2   7    2.41    0.42
   5   2   7    2.17    0.36
   5   2   7    2.93    0.36
   5   2   7    1.23    0.85
  -5   2  -7    2.36    0.57
  -5   2  -7    1.99    0.73
  -5   2  -7    2.44    0.73
  -5   2  -7    2.52    0.33
   5   2   7    2.47    0.33
   5   2   7    2.24    0.31
  -5   2  -7    4.33    0.61
  -5   2  -7    1.98    0.31
   5   2   7    2.23    0.33
   5   2   7    3.32    0.62
  -5   2  -7    2.70    0.45
   6  -2   7    3.33    0.41
  -6  -2  -7    3.37    0.53
   6  -2   7    4.73    0.55
   6  -2   7    3.76    0.47
  -6  -2  -7    2.94    0.41
  -6  -2  -7    4.18    0.60
   6  -2   7    3.97    0.59
   6   2   7    3.45    0.48
  -6   2  -7    3.58    0.70
  -6   2  -7    3.27    0.39
   6   2   7    3.31    0.31
   6   2   7    3.48    0.49
  -6   2  -7    3.31    0.37
  -6   2  -7    4.02    0.48
  -6   2  -7    4.32    0.55
  -6   2  -7    3.59    0.52
   6   2   7    2.99    0.36
   6   2   7    3.73    0.49
  -7  -2  -7    0.23    0.31
  -7  -2  -7    0.17    0.29
   7  -2   7    0.53    0.33
  -7   2  -7    0.26    0.52
   7   2   7    0.31    0.15
  -7   2  -7    0.11    0.26
  -7   2  -7    0.03    0.17
  -7   2  -7    0.45    0.23
  -7   2  -7    0.37    0.21
  -7   2  -7   -0.06    0.30
   7   2   7    0.29    0.25
   7   2   7    0.49    0.25
  -9  -3   7    3.89    0.37
  -9  -3   7    3.45    0.22
  -9  -3   7    3.46    0.23
  -9  -3   7    3.28    0.22
  -8  -3   7    9.68    0.51
  -8  -3   7    9.66    0.47
  -8  -3   7    9.67    0.48
  -8  -3   7    9.92    0.66
   8   3  -7   10.17    0.54
   8   3  -7    9.72    0.50
  -7  -3   7    1.41    0.23
  -7  -3   7    1.30    0.20
  -7  -3   7    1.28    0.39
  -7  -3   7    1.54    0.25
  -7  -3   7    1.39    0.18
   7   3  -7    1.62    0.52
  -7   3   7    2.04    0.49
   7   3  -7    1.33    0.26
  -7   3   7    1.58    0.50
   7   3  -7    1.68    0.30
  -6  -3   7   34.90    1.56
  -6  -3   7   33.91    1.43
  -6   3   7   32.47    1.83
  -6   3   7   35.61    1.65
   6   3  -7   33.72    1.48
  -6   3   7   37.20    1.69
   6   3  -7   35.60    1.48
   6   3  -7   34.45    1.42
   6   3  -7   32.78    1.49
  -5  -3   7    4.04    0.32
   5  -3  -7    4.64    0.55
  -5  -3   7    4.10    0.48
   5  -3  -7    4.36    0.42
  -5  -3   7    3.91    0.38
   5   3  -7    3.44    0.48
  -5   3   7    5.05    0.87
  -5   3   7    4.32    0.76
   5   3  -7    4.33    0.74
   5   3  -7    3.66    0.46
  -5   3   7    4.02    0.60
   5   3  -7    3.42    0.46
  -5   3   7    4.75    0.62
   5   3  -7    3.37    0.39
  -5   3   7    3.64    0.51
  -5   3   7    4.20    0.75
  -4  -3   7    6.96    0.48
   4  -3  -7    7.44    0.51
   4  -3  -7    7.43    0.68
  -4  -3   7    7.97    0.50
  -4  -3   7    6.79    0.49
   4  -3  -7    9.14    0.52
  -4  -3   7    7.03    0.62
  -4   3   7    7.35    0.68
   4   3  -7    7.98    0.48
  -4   3   7    8.25    0.66
  -4   3   7    8.62    0.78
  -4   3   7    6.85    1.00
  -4   3   7    7.86    0.52
   4   3  -7    7.35    0.53
   4   3  -7    7.50    0.62
  -4   3   7    8.18    0.79
   4   3  -7    7.82    0.57
   4   3  -7    8.09    0.84
   4   3  -7    7.39    0.55
  -3  -3   7   22.58    1.01
  -3  -3   7   24.13    1.01
   3  -3  -7   22.49    1.01
  -3  -3   7   22.26    1.00
   3  -3  -7   22.55    1.46
   3  -3  -7   23.77    1.01
   3  -3  -7   23.31    1.19
   3   3  -7   21.99    1.03
   3   3  -7   22.82    0.99
   3   3  -7   23.82    1.04
   3   3  -7   23.71    1.04
  -3   3   7   23.56    1.00
  -3   3   7   23.64    1.46
   3   3  -7   23.62    1.05
   3   3  -7   24.01    1.13
  -3   3   7   22.29    1.06
   3   3  -7   22.71    1.50
   3   3  -7   24.12    1.32
  -3   3   7   21.84    1.19
  -3   3   7   22.84    1.15
  -3   3   7   21.16    1.11
   2  -3  -7   42.91    1.80
   2  -3  -7   43.58    2.25
  -2  -3   7   45.81    1.80
  -2  -3   7   45.46    1.93
   2  -3  -7   41.35    1.79
  -2  -3   7   42.38    1.82
   2  -3  -7   43.88    1.96
  -2  -3   7   45.63    1.74
   2  -3  -7   47.08    1.81
  -2  -3   7   45.74    1.87
   2   3  -7   45.30    1.90
   2   3  -7   45.53    1.81
   2   3  -7   46.73    1.81
   2   3  -7   42.90    2.21
   2   3  -7   45.41    1.81
  -2   3   7   45.95    1.82
  -2   3   7   39.50    1.84
  -2   3   7   44.90    1.76
   2   3  -7   45.95    1.83
  -2   3   7   45.04    1.90
   2   3  -7   44.49    2.02
  -2   3   7   45.49    2.19
   2   3  -7   48.13    1.79
  -2   3   7   40.81    1.91
   2   3  -7   43.03    1.77
   1  -3  -7   22.19    0.98
   1  -3  -7   22.62    1.41
  -1  -3   7   22.37    1.09
  -1  -3   7   21.17    0.99
  -1  -3   7   21.44    1.08
  -1  -3   7   19.21    0.93
   1  -3  -7   21.32    0.98
  -1  -3   7   20.78    0.93
  -1  -3   7   21.00    0.95
   1  -3  -7   21.19    0.96
   1  -3  -7   21.10    1.11
   1  -3  -7   21.77    1.06
  -1  -3   7   21.49    1.36
  -1  -3   7   21.24    1.03
   1   3  -7   21.98    1.02
  -1   3   7   21.02    1.10
  -1   3   7   21.50    1.41
  -1   3   7   18.89    1.08
  -1   3   7   17.77    1.00
  -1   3   7   22.26    0.93
   1   3  -7   22.00    0.95
   1   3  -7   21.61    1.27
   1   3  -7   21.80    0.91
   1   3  -7   21.20    0.94
   1   3  -7   20.77    0.94
   1   3  -7   21.51    0.93
   1   3  -7   21.40    1.10
   1   3  -7   20.35    1.06
  -1   3   7   22.83    0.92
   0  -3   7   14.11    0.82
   0  -3  -7   11.93    1.04
   0  -3   7   13.36    0.77
   0  -3  -7   13.00    0.70
   0  -3   7   13.19    0.80
   0  -3  -7   12.50    0.63
   0  -3   7   13.28    0.73
   0  -3   7   11.80    1.15
   0  -3  -7   11.82    0.81
   0  -3   7   13.41    0.71
   0  -3  -7   11.58    0.58
   0  -3  -7   12.60    0.61
   0  -3  -7   12.96    0.72
   0  -3  -7   11.70    0.65
   0  -3   7   12.26    0.71
   0  -3   7   12.77    0.68
   0  -3  -7   12.68    0.73
   0  -3   7   12.98    0.74
   0   3   7   13.50    0.68
   0   3   7   13.68    0.58
   0   3  -7   12.99    0.76
   0   3  -7   12.56    0.65
   0   3  -7   12.23    0.88
   0   3   7   12.35    0.89
   0   3  -7   12.38    0.62
   0   3   7   11.63    0.85
   0   3   7   13.39    1.22
   0   3  -7   12.68    0.61
   0   3  -7   11.22    0.78
   0   3  -7   13.93    0.94
   0   3  -7   13.41    0.63
   0   3   7   12.86    0.65
  -1  -3  -7    5.53    0.61
  -1  -3  -7    5.47    0.36
  -1  -3  -7    5.61    0.39
   1  -3   7    5.89    0.57
   1  -3   7    5.03    0.58
  -1  -3  -7    5.63    0.56
  -1  -3  -7    6.49    1.19
   1  -3   7    6.66    0.59
  -1  -3  -7    5.65    0.44
   1  -3   7    5.33    0.51
   1  -3   7    5.20    0.50
   1  -3   7    5.35    0.56
  -1  -3  -7    5.72    0.48
  -1  -3  -7    5.98    0.55
  -1  -3  -7    5.89    0.59
   1  -3   7    5.44    1.00
   1  -3   7    5.11    0.60
   1   3   7    5.92    0.65
   1   3   7    4.93    0.84
   1   3   7    5.41    0.35
  -1   3  -7    5.87    0.69
  -1   3  -7    5.43    0.43
   1   3   7    5.49    0.46
  -1   3  -7    5.32    0.63
   1   3   7    4.99    0.53
  -1   3  -7    5.50    0.49
  -1   3  -7    5.56    0.44
   1   3   7    5.73    0.38
   2  -3   7    3.89    0.86
   2  -3   7    4.08    0.55
  -2  -3  -7    2.89    0.41
  -2  -3  -7    3.51    0.33
   2  -3   7    3.73    0.53
  -2  -3  -7    3.45    0.32
   2  -3   7    4.00    0.57
  -2  -3  -7    5.34    0.66
  -2  -3  -7    3.71    0.40
  -2  -3  -7    4.01    0.50
   2  -3   7    4.12    0.61
   2  -3   7    3.63    0.58
  -2  -3  -7    3.94    0.39
  -2  -3  -7    3.93    0.51
  -2  -3  -7    4.37    0.46
  -2  -3  -7    3.98    0.53
   2   3   7    4.08    0.33
   2   3   7    3.78    0.88
  -2   3  -7    4.18    0.62
   2   3   7    4.68    0.55
  -2   3  -7    4.16    0.52
  -2   3  -7    4.13    0.44
   2   3   7    4.00    0.34
  -2   3  -7    4.70    0.45
   2   3   7    4.98    0.83
  -2   3  -7    4.60    0.54
   2   3   7    4.15    0.47
  -2   3  -7    4.10    0.50
  -3  -3  -7    3.09    0.46
  -3  -3  -7    1.80    0.26
   3  -3   7    1.90    0.40
   3  -3   7    1.91    0.41
  -3  -3  -7    2.24    0.54
   3  -3   7    2.26    0.84
   3  -3   7    2.26    0.44
  -3  -3  -7    1.64    0.24
   3  -3   7    1.74    0.43
  -3  -3  -7    2.21    0.30
  -3   3  -7    2.24    0.45
  -3   3  -7    1.95    0.39
  -3   3  -7    2.04    0.32
  -3   3  -7    1.67    0.49
  -3   3  -7    1.92    0.31
  -3   3  -7    1.83    0.65
   3   3   7    1.69    0.23
   3   3   7    2.08    0.84
   3   3   7    1.78    0.52
  -3   3  -7    2.11    0.39
   3   3   7    1.58    0.29
   3   3   7    2.17    0.29
  -4  -3  -7   11.41    0.61
   4  -3   7   11.22    0.77
   4  -3   7   13.20    0.84
   4  -3   7   10.83    1.46
  -4  -3  -7   10.85    0.73
   4  -3   7   12.54    0.77
   4  -3   7   11.34    0.84
  -4   3  -7   11.37    0.75
  -4   3  -7   11.55    0.74
   4   3   7   11.51    0.58
  -4   3  -7   10.90    1.11
   4   3   7   10.83    0.72
   4   3   7   11.88    0.70
  -4   3  -7   11.51    0.65
   4   3   7   11.12    1.33
  -4   3  -7   10.82    0.94
   4   3   7   11.37    0.71
  -4   3  -7   11.28    0.83
  -4   3  -7   11.75    0.65
  -5  -3  -7    2.70    0.39
   5  -3   7    2.48    0.46
   5  -3   7    2.29    0.41
   5  -3   7    2.89    0.47
  -5   3  -7    2.52    0.40
   5   3   7    3.03    0.32
  -5   3  -7    2.37    0.32
  -5   3  -7    2.66    0.33
  -5   3  -7    2.28    0.68
   5   3   7    2.64    0.34
  -5   3  -7    2.97    0.41
  -5   3  -7    5.19    1.12
   5   3   7    1.81    0.46
  -5   3  -7    2.33    0.45
   5   3   7    3.54    0.45
  -5   3  -7    2.58    0.36
  -6  -3  -7    4.35    0.54
  -6  -3  -7    4.46    0.49
   6  -3   7    4.28    0.48
   6  -3   7    4.68    0.47
   6  -3   7    6.05    0.58
   6  -3   7    4.81    0.52
  -6   3  -7    4.96    0.51
  -6   3  -7    5.18    0.72
  -6   3  -7    4.01    0.38
  -6   3  -7    4.31    0.48
  -6   3  -7    4.50    0.85
   6   3   7    4.59    0.32
  -6   3  -7    4.42    0.54
  -6   3  -7    4.14    0.37
   7  -3   7   -0.27    0.22
  -7  -3  -7    0.00    0.24
   7  -3   7    0.08    0.21
  -7   3  -7   -0.03    0.17
   7   3   7    0.08    0.21
  -7   3  -7   -0.42    0.59
  -7   3  -7   -0.15    0.17
  -8  -4   7    0.41    0.13
  -8  -4   7    0.56    0.15
  -7  -4   7    1.64    0.22
  -7  -4   7    1.41    0.20
  -7  -4   7    1.15    0.28
  -7  -4   7    1.26    0.19
   7   4  -7    1.08    0.22
   7   4  -7    1.31    0.22
  -7   4   7    1.89    0.48
   7   4  -7    1.23    0.19
  -7   4   7    1.52    0.59
  -6  -4   7    0.54    0.20
  -6  -4   7    0.39    0.29
   6   4  -7    0.19    0.20
   6   4  -7    0.31    0.27
  -6   4   7    0.78    0.50
  -6   4   7    0.82    0.51
  -6   4   7    0.04    0.46
   6   4  -7    0.01    0.23
  -6   4   7    0.06    0.39
  -5  -4   7    0.84    0.23
  -5  -4   7    0.59    0.23
   5  -4  -7    1.12    0.28
   5  -4  -7    0.69    0.27
  -5   4   7    1.20    0.54
  -5   4   7    1.08    0.51
   5   4  -7    0.23    0.24
  -5   4   7    0.89    0.41
   5   4  -7    0.80    0.27
   5   4  -7    0.56    0.29
  -5   4   7    0.94    0.48
   5   4  -7    0.30    0.24
   4  -4  -7    4.68    0.50
  -4  -4   7    3.66    0.43
  -4  -4   7    4.24    0.45
  -4   4   7    4.79    0.76
  -4   4   7    5.24    0.63
   4   4  -7    4.51    0.46
  -4   4   7    6.09    0.84
   4   4  -7    4.53    0.65
   4   4  -7    4.45    0.59
  -4   4   7    4.75    0.77
   4   4  -7    4.26    0.42
  -4   4   7    4.99    0.92
   4   4  -7    4.00    0.67
   3  -4  -7    5.18    0.64
   3  -4  -7    4.43    0.44
  -3  -4   7    3.67    0.37
   3  -4  -7    3.71    0.52
  -3  -4   7    3.87    0.48
  -3  -4   7    4.11    0.42
   3  -4  -7    3.58    0.42
   3   4  -7    3.90    0.48
  -3   4   7    4.47    0.65
   3   4  -7    3.51    0.44
  -3   4   7    5.99    0.83
  -3   4   7    3.13    1.29
   3   4  -7    3.62    0.47
   3   4  -7    3.78    0.59
   3   4  -7    3.48    0.41
  -3   4   7    4.53    0.81
  -3   4   7    3.80    0.55
  -2  -4   7    1.65    0.28
   2  -4  -7    2.29    0.30
  -2  -4   7    2.58    0.36
  -2  -4   7    2.55    0.39
   2  -4  -7    2.75    0.36
   2  -4  -7    2.74    0.38
   2  -4  -7    2.22    0.51
  -2  -4   7    2.00    0.35
   2  -4  -7    2.33    0.39
  -2   4   7    3.65    0.69
   2   4  -7    2.74    0.48
  -2   4   7    2.30    0.50
  -2   4   7    2.44    0.35
   2   4  -7    2.97    0.35
  -2   4   7    2.76    0.81
   2   4  -7    1.85    0.26
   1  -4  -7   11.06    0.73
   1  -4  -7   12.01    0.61
   1  -4  -7   11.40    0.98
   1  -4  -7    9.90    0.54
  -1  -4   7   12.18    0.70
  -1  -4   7   12.14    1.24
  -1  -4   7    9.58    0.73
  -1  -4   7   10.51    0.66
   1  -4  -7   10.85    0.75
  -1  -4   7   10.69    0.71
   1  -4  -7   10.19    0.64
   1  -4  -7    7.85    0.87
  -1  -4   7   10.34    0.72
  -1   4   7   10.87    0.87
  -1   4   7   11.10    0.61
  -1   4   7   11.44    1.33
   1   4  -7   11.52    0.88
  -1   4   7   11.35    0.84
  -1   4   7   10.82    0.58
   1   4  -7   10.54    0.62
   0  -4   7   13.54    0.76
   0  -4  -7   12.85    0.95
   0  -4  -7   13.81    0.70
   0  -4   7   15.16    1.78
   0  -4  -7   13.41    0.83
   0  -4   7   13.73    0.84
   0  -4   7   13.16    0.77
   0  -4  -7   12.68    0.72
   0  -4   7   14.69    0.93
   0  -4  -7   12.44    0.65
   0  -4   7   12.73    0.82
   0  -4  -7   13.66    0.80
   0   4   7   13.25    0.68
   0   4   7   12.41    1.34
   0   4   7   13.12    0.71
   0   4   7   11.56    0.90
   0   4  -7   14.40    0.73
   0   4  -7   14.36    0.96
   0   4  -7   14.87    0.72
   1  -4   7    8.63    0.69
   1  -4   7    9.03    1.27
   1  -4   7   10.19    0.75
  -1  -4  -7    8.30    0.75
   1  -4   7    8.41    0.76
   1  -4   7    8.40    0.67
   1  -4   7    7.66    0.72
   1  -4   7    7.85    0.71
  -1  -4  -7    9.00    0.57
  -1  -4  -7    8.22    0.69
  -1  -4  -7    9.11    0.70
  -1  -4  -7    8.43    0.69
  -1  -4  -7    8.72    0.61
  -1  -4  -7    9.63    0.73
   1   4   7    8.83    0.60
  -1   4  -7    9.34    0.59
  -1   4  -7    8.69    0.61
  -1   4  -7    7.87    0.78
   1   4   7    8.61    0.52
  -1   4  -7    8.38    0.80
  -2  -4  -7   13.44    0.70
  -2  -4  -7   12.39    0.94
  -2  -4  -7   14.44    0.86
  -2  -4  -7   13.05    0.79
   2  -4   7   14.09    1.48
  -2  -4  -7   12.55    0.69
  -2  -4  -7   13.18    0.68
   2  -4   7   12.56    0.89
  -2  -4  -7   13.02    0.76
   2  -4   7   15.31    0.83
   2  -4   7   12.18    0.85
   2  -4   7   13.33    0.82
  -2   4  -7   14.42    0.75
   2   4   7   13.71    1.41
  -2   4  -7   11.86    0.77
  -2   4  -7   13.38    0.70
   2   4   7   13.65    0.91
  -2   4  -7   12.49    1.00
  -2   4  -7   11.07    0.82
   2   4   7   12.83    0.74
   2   4   7   13.40    0.62
   2   4   7   11.58    0.77
  -2   4  -7   13.03    0.93
  -3  -4  -7    4.68    0.45
   3  -4   7    4.86    0.60
   3  -4   7    4.84    0.61
   3  -4   7    5.19    0.97
   3  -4   7    4.06    0.46
  -3  -4  -7    8.81    1.26
   3  -4   7    4.69    0.68
  -3  -4  -7    5.25    0.47
  -3  -4  -7    5.00    0.56
   3   4   7    6.55    1.54
   3   4   7    5.22    0.51
  -3   4  -7    3.48    0.60
  -3   4  -7    4.77    0.58
  -3   4  -7    4.87    0.47
   3   4   7    4.67    0.39
  -3   4  -7    4.51    0.53
  -3   4  -7    4.39    0.69
   3   4   7    4.67    0.35
  -3   4  -7    4.34    0.51
  -4  -4  -7    3.48    0.37
   4  -4   7    3.09    0.41
   4  -4   7    3.18    0.65
   4  -4   7    3.33    0.44
  -4  -4  -7    2.91    0.37
   4  -4   7    3.65    0.42
  -4   4  -7    3.52    0.64
   4   4   7    3.42    0.45
  -4   4  -7    3.82    0.56
  -4   4  -7    2.95    0.39
  -4   4  -7    3.81    0.43
  -4   4  -7    3.90    0.46
  -4   4  -7    3.05    0.72
   4   4   7    3.29    0.30
  -4   4  -7    4.20    0.59
   5  -4   7    2.12    0.42
   5  -4   7    1.56    0.31
   5  -4   7    2.20    0.36
   5  -4   7    1.38    0.36
  -5  -4  -7    1.72    0.32
  -5   4  -7    1.98    0.41
  -5   4  -7    1.51    0.60
  -5   4  -7    1.65    0.27
  -5   4  -7    1.49    0.28
  -5   4  -7    0.93    0.35
   5   4   7    1.68    0.27
   5   4   7    1.93    0.25
  -5   4  -7    2.16    0.87
  -6  -4  -7    0.37    0.32
   6  -4   7    0.29    0.25
  -6  -4  -7    0.74    0.28
   6  -4   7    0.41    0.26
   6  -4   7    0.41    0.30
  -6   4  -7    0.93    0.34
  -6   4  -7    0.40    0.17
   6   4   7    0.44    0.17
  -6   4  -7    0.64    0.44
  -6   4  -7    0.44    0.17
  -7  -5   7    2.30    0.19
  -7  -5   7    2.04    0.18
  -7   5   7    2.74    0.46
  -6   5   7    6.27    0.67
   6   5  -7    4.32    0.30
  -6   5   7    5.41    0.67
  -6   5   7    4.86    0.49
   5  -5  -7   -0.22    0.22
   5  -5  -7   -0.28    0.25
   5  -5  -7   -0.26    0.24
  -5  -5   7    0.29    0.17
   5   5  -7    0.44    0.22
   5   5  -7    0.35    0.24
  -5   5   7    0.87    0.57
  -5   5   7    0.86    0.46
  -5   5   7    0.49    0.48
   5   5  -7    0.07    0.21
   4  -5  -7    2.84    0.42
   4  -5  -7    2.68    0.39
  -4  -5   7    3.01    0.36
   4  -5  -7    3.02    0.39
   4  -5  -7    2.87    0.37
  -4  -5   7    2.93    0.37
  -4  -5   7    2.42    0.31
  -4   5   7    3.69    0.69
   4   5  -7    2.41    0.30
  -4   5   7    4.56    0.78
   4   5  -7    2.76    0.38
  -4   5   7    3.80    0.59
   4   5  -7    2.33    0.38
   3  -5  -7   17.08    0.89
   3  -5  -7   15.22    0.80
   3  -5  -7   16.54    0.77
  -3  -5   7   16.85    0.80
   3  -5  -7   16.40    1.06
  -3  -5   7   15.82    0.87
  -3  -5   7   16.51    0.81
   3  -5  -7   15.53    0.90
   3   5  -7   16.01    0.78
  -3   5   7   16.14    1.64
  -3   5   7   17.41    1.05
   3   5  -7   16.51    0.85
   3   5  -7   17.79    0.98
  -3   5   7   17.52    1.10
  -3   5   7   17.15    1.08
  -2  -5   7   -0.07    0.29
   2  -5  -7    0.48    0.35
  -2  -5   7    0.14    0.28
   2  -5  -7    0.26    0.27
   2  -5  -7    1.18    0.38
   2  -5  -7    0.14    0.21
   2  -5  -7    0.19    0.33
  -2  -5   7    0.37    0.36
   2   5  -7    0.28    0.27
  -2   5   7    1.14    0.54
  -2   5   7    0.05    0.19
  -2   5   7    1.28    1.06
   2   5  -7   -0.17    0.36
  -2   5   7    0.62    0.50
   2   5  -7    0.20    0.27
  -2   5   7    0.70    0.45
  -1  -5   7    9.62    0.72
   1  -5  -7   10.13    0.74
   1  -5  -7    9.96    0.59
   1  -5  -7    9.15    0.62
   1  -5  -7    9.57    0.70
  -1  -5   7    9.50    0.59
  -1  -5   7    9.63    0.70
  -1  -5   7   10.16    0.64
   1  -5  -7   10.00    0.75
  -1   5   7   12.19    1.87
  -1   5   7    9.52    0.56
  -1   5   7   10.43    0.96
   1   5  -7   11.22    0.83
   1   5  -7    9.61    0.57
   1   5  -7    9.93    0.83
  -1   5   7    8.84    0.83
   0  -5  -7    1.98    0.39
   0  -5   7    2.45    0.41
   0  -5  -7    2.13    0.41
   0  -5   7    2.44    0.24
   0  -5   7    1.66    0.32
   0  -5  -7    2.20    0.44
   0  -5   7    1.67    0.33
   0  -5   7    2.05    0.48
   0  -5   7    1.73    0.39
   0  -5  -7    3.46    0.42
   0  -5  -7    1.99    0.29
   0  -5  -7    2.16    0.32
   0   5   7    6.14    1.35
   0   5  -7    2.06    0.62
   0   5   7    1.60    0.41
   0   5  -7    1.42    0.44
   0   5  -7    2.05    0.29
   0   5   7    2.15    0.30
  -1  -5  -7    1.30    0.34
   1  -5   7    0.78    0.31
  -1  -5  -7    1.79    0.30
   1  -5   7    0.95    0.39
  -1  -5  -7    1.17    0.34
  -1  -5  -7    1.66    0.36
  -1  -5  -7    1.50    0.36
   1  -5   7    1.53    0.39
   1  -5   7    0.94    0.34
  -1  -5  -7    1.62    0.29
  -1  -5  -7    1.94    0.35
   1  -5   7    1.65    0.37
   1  -5   7    1.16    0.46
   1   5   7    1.57    0.25
  -1   5  -7    0.53    0.67
   1   5   7    1.15    0.25
  -1   5  -7    1.26    0.41
  -1   5  -7    1.53    0.33
  -2  -5  -7    0.71    0.24
   2  -5   7    0.80    0.33
  -2  -5  -7    0.69    0.33
  -2  -5  -7    0.70    0.23
   2  -5   7    0.19    0.32
   2  -5   7    0.31    0.31
  -2  -5  -7    0.44    0.22
   2  -5   7    1.45    0.49
  -2   5  -7   -0.60    0.52
  -2   5  -7    0.37    0.36
  -2   5  -7    0.80    0.28
   2   5   7    1.04    0.20
  -2   5  -7    0.48    0.28
  -2   5  -7    0.27    0.62
   2   5   7    0.77    0.25
  -3  -5  -7   11.84    0.58
  -3  -5  -7   11.24    0.56
   3  -5   7   12.07    0.80
   3  -5   7   10.57    0.63
   3  -5   7   10.16    0.70
   3  -5   7   11.20    0.74
   3  -5   7   10.09    0.68
  -3  -5  -7   11.44    0.65
  -3   5  -7   10.85    0.59
  -3   5  -7   10.23    0.65
  -3   5  -7   10.83    0.59
  -3   5  -7    8.91    0.80
  -3   5  -7   10.03    0.99
   3   5   7   10.31    0.61
   4  -5   7    0.35    0.27
  -4  -5  -7    0.90    0.17
  -4  -5  -7    0.83    0.26
   4  -5   7    0.51    0.30
   4  -5   7    1.02    0.54
   4  -5   7    0.49    0.26
  -4   5  -7    0.67    0.23
  -4   5  -7    0.75    0.22
   4   5   7    0.80    0.22
  -4   5  -7    1.22    0.56
   5  -5   7   -0.01    0.20
  -5   5  -7    0.04    0.35
   5   5   7   -0.08    0.18
  -5   5  -7    0.20    0.16
  -5   6   7    1.03    0.32
   4  -6  -7    1.50    0.27
   4  -6  -7    1.46    0.22
   4   6  -7    2.05    0.21
  -4   6   7    1.97    0.39
  -4   6   7    1.47    0.41
   4   6  -7    1.52    0.25
   3  -6  -7    9.39    0.90
   3  -6  -7   10.71    0.62
   3  -6  -7   10.53    0.58
  -3  -6   7   11.45    0.51
  -3  -6   7   11.47    0.53
   3  -6  -7    9.98    0.64
  -3  -6   7   10.45    0.57
   3   6  -7   11.29    0.54
  -3   6   7   11.11    0.73
   3   6  -7   11.68    0.66
   2  -6  -7    8.88    0.50
   2  -6  -7    8.72    0.65
   2  -6  -7    9.03    0.62
  -2  -6   7   10.41    0.58
   2  -6  -7   11.38    0.68
   2  -6  -7    9.62    0.56
  -2  -6   7    9.34    0.54
   2   6  -7    8.95    0.64
  -2   6   7    7.60    0.65
   2   6  -7    9.59    0.49
   1  -6  -7    3.25    0.38
  -1  -6   7    2.52    0.51
  -1  -6   7    2.24    0.28
   1  -6  -7    2.78    0.36
  -1  -6   7    3.13    0.40
   1  -6  -7    2.91    0.35
   1  -6  -7    2.34    0.40
  -1   6   7    2.74    0.25
   1   6  -7    3.29    0.38
   1   6  -7    1.76    0.48
   0  -6  -7    0.07    0.21
   0  -6   7    0.05    0.32
   0  -6  -7    0.46    0.28
   0  -6   7   -0.15    0.44
   0  -6  -7    0.13    0.30
   0  -6  -7    0.37    0.26
   0  -6   7    0.02    0.17
   0  -6   7   -0.12    0.32
   0   6   7    0.23    0.18
   0   6  -7   -0.08    0.33
  -1  -6  -7    0.37    0.20
   1  -6   7    0.04    0.47
   1  -6   7    0.28    0.21
  -1  -6  -7    0.20    0.33
  -1  -6  -7    0.13    0.20
   1  -6   7   -0.02    0.21
   1  -6   7   -0.05    0.25
  -1   6  -7   -0.05    0.26
  -1   6  -7    0.45    0.39
   1   6   7    0.29    0.19
  -2  -6  -7    0.59    0.19
   2  -6   7    0.48    0.25
   2  -6   7    0.40    0.20
   2  -6   7    0.45    0.22
   2  -6   7    0.61    0.30
   2  -6   7    1.40    0.26
  -2  -6  -7    0.59    0.24
   2   6   7    0.70    0.20
  -2   6  -7    0.74    0.20
  -2   6  -7    0.70    0.52
  -3  -6  -7    3.85    0.25
   3  -6   7    3.44    0.31
   3  -6   7    3.94    0.32
  -3   6  -7    3.67    0.45
   3   6   7    3.56    0.30
 -10   0   8    0.96    0.16
  -9   0   8    2.67    0.28
  -9   0   8    2.78    0.32
  -9   0   8    2.64    0.38
  -9   0   8    1.89    0.25
  -9   0   8    2.19    0.22
  -8   0   8   -0.19    0.36
  -8   0   8    0.18    0.20
  -8   0   8   -0.11    0.21
  -8   0   8    0.18    0.14
  -8   0   8    0.23    0.14
   7   0  -8    0.36    0.23
  -7   0   8    0.23    0.35
   7   0  -8    0.63    0.19
  -7   0   8    0.22    0.21
  -7   0   8    0.30    0.24
  -7   0   8    0.51    0.23
   7   0  -8    0.86    0.21
   7   0  -8    0.87    0.37
  -6   0   8   25.73    1.12
  -6   0   8   26.16    1.22
   6   0  -8   27.09    1.51
   6   0  -8   24.27    1.10
   6   0  -8   26.29    1.11
  -6   0   8   27.45    1.13
  -6   0   8   26.36    1.13
  -5   0   8   19.62    0.86
  -5   0   8   20.07    0.88
   5   0  -8   17.75    0.85
  -5   0   8   19.28    0.87
  -5   0   8   19.73    0.93
   5   0  -8   19.53    1.17
   5   0  -8   20.20    1.34
   5   0  -8   20.45    0.86
  -4   0   8  105.59    3.83
   4   0  -8   92.19    3.79
  -4   0   8   96.63    3.79
   4   0  -8   99.26    4.27
   4   0  -8  102.21    3.78
   4   0  -8   99.37    3.80
  -3   0   8    0.09    0.24
   3   0  -8    0.27    0.17
  -3   0   8    0.26    0.21
   3   0  -8    0.13    0.18
   3   0  -8    0.34    0.30
   3   0  -8   -0.01    0.27
  -2   0   8    6.71    0.48
  -2   0   8    6.74    0.43
   2   0  -8    6.83    0.44
  -2   0   8    6.34    0.53
   2   0  -8    7.72    0.58
  -2   0   8    6.99    0.60
   2   0  -8    7.84    0.70
   2   0  -8    7.31    0.44
   2   0  -8    7.50    0.49
   1   0  -8    9.48    0.56
  -1   0   8    9.50    0.80
   1   0  -8    9.91    0.74
   1   0  -8    9.61    0.67
   1   0  -8   10.13    0.60
   1   0  -8    9.84    0.51
  -1   0   8    9.08    0.57
  -1   0   8    9.34    0.61
   1   0  -8    9.49    0.61
  -1   0   8    9.21    0.49
   0   0   8   77.15    3.08
   0   0  -8   83.53    3.17
   0   0   8   77.63    3.33
   0   0   8   84.51    3.13
   0   0  -8   79.97    3.06
   0   0  -8   76.93    3.04
   0   0   8   77.66    3.03
   0   0  -8   77.70    3.21
   0   0   8   76.09    3.03
   0   0  -8   79.17    3.06
   0   0  -8   80.05    3.30
   1   0   8   15.64    0.82
   1   0   8   15.50    0.78
  -1   0  -8   15.96    0.87
  -1   0  -8   16.56    0.86
  -1   0  -8   15.47    0.75
   1   0   8   16.06    0.90
   1   0   8   16.60    0.77
  -1   0  -8   16.00    0.79
   1   0   8   16.17    1.21
  -1   0  -8   18.53    0.87
  -1   0  -8   16.43    0.75
   1   0   8   15.69    0.79
   1   0   8   16.64    0.75
  -1   0  -8   16.49    0.75
  -1   0  -8   15.87    0.72
   1   0   8   15.84    0.69
   2   0   8    6.47    1.02
   2   0   8    5.18    0.46
  -2   0  -8    6.33    0.49
   2   0   8    5.89    0.52
  -2   0  -8    5.47    0.44
   2   0   8    6.35    0.45
  -2   0  -8    6.18    0.47
  -2   0  -8    5.13    0.43
   2   0   8    6.68    0.50
   2   0   8    6.50    0.36
  -2   0  -8    5.54    0.38
  -2   0  -8    6.32    0.42
  -2   0  -8    6.03    0.50
   2   0   8    6.21    0.48
   2   0   8    6.25    0.57
  -3   0  -8    2.41    0.25
   3   0   8    1.94    0.30
  -3   0  -8    2.29    0.34
   3   0   8    1.64    0.31
  -3   0  -8    1.83    0.26
   3   0   8    1.25    0.46
   3   0   8    2.35    0.28
   3   0   8    2.05    0.32
  -3   0  -8    2.50    0.35
   3   0   8    2.17    0.34
  -3   0  -8    2.36    0.38
   3   0   8    2.80    0.39
  -3   0  -8    2.51    0.41
   3   0   8    2.30    0.46
  -3   0  -8    1.81    0.34
  -4   0  -8   20.09    1.06
  -4   0  -8   20.82    1.05
  -4   0  -8   20.98    1.15
  -4   0  -8   20.54    1.09
   4   0   8   23.30    0.95
  -4   0  -8   20.48    0.97
   4   0   8   20.16    1.09
   4   0   8   19.70    1.00
   4   0   8   23.89    1.33
   5   0   8   -0.06    0.32
   5   0   8   -0.18    0.33
   5   0   8    0.96    0.36
  -5   0  -8    0.46    0.39
  -5   0  -8    0.20    0.17
  -5   0  -8   -0.12    0.33
  -5   0  -8    0.02    0.20
   5   0   8   -0.10    0.18
   5   0   8   -0.10    0.30
  -5   0  -8    0.31    0.27
  -6   0  -8   -0.02    0.24
  -6   0  -8    0.01    0.62
   6   0   8    0.14    0.35
   6   0   8    0.13    0.17
   6   0   8    0.10    0.31
   6   0   8    0.38    0.34
  -6   0  -8    0.11    0.23
  -6   0  -8   -0.21    0.32
   6   0   8    0.05    0.33
  -6   0  -8    0.00    0.36
  -7   0  -8    1.20    0.48
   7   0   8    1.18    0.46
  -7   0  -8    1.32    0.30
  -7   0  -8    1.31    0.35
 -10  -1   8   10.78    0.53
 -10  -1   8   12.45    0.55
  -9  -1   8    0.87    0.17
  -9  -1   8    1.03    0.21
  -9  -1   8    0.76    0.33
  -9  -1   8    0.92    0.17
  -9  -1   8    1.12    0.17
  -9   1   8    1.07    0.23
  -9   1   8    1.00    0.17
   9   1  -8    0.80    0.16
  -9   1   8    0.80    0.34
  -8  -1   8    3.85    0.37
  -8  -1   8    4.31    0.34
  -8  -1   8    4.04    0.34
  -8  -1   8    4.40    0.61
  -8  -1   8    4.33    0.40
  -8   1   8    4.20    0.37
  -8   1   8    4.45    0.49
  -8   1   8    3.95    0.39
   8   1  -8    3.04    0.38
   8   1  -8    3.84    0.39
  -7  -1   8   12.73    0.61
  -7  -1   8   12.38    0.62
  -7  -1   8   12.79    0.65
  -7  -1   8   11.81    0.63
  -7  -1   8   12.42    0.82
  -7  -1   8   11.66    0.63
  -7   1   8   12.60    0.65
  -7   1   8   13.23    0.65
   7   1  -8   12.65    0.69
   7   1  -8   13.04    0.61
   7   1  -8   11.97    0.68
  -7   1   8   12.05    0.63
   7   1  -8   11.92    0.68
  -7   1   8   12.77    0.82
  -6  -1   8   17.02    0.82
  -6  -1   8   17.48    0.79
  -6  -1   8   17.71    0.82
   6  -1  -8   17.47    0.77
  -6  -1   8   18.71    0.83
  -6  -1   8   17.96    0.80
  -6  -1   8   17.29    0.96
   6  -1  -8   19.28    1.06
  -6   1   8   17.67    0.81
   6   1  -8   17.56    0.84
  -6   1   8   17.19    0.82
  -6   1   8   17.23    0.82
   6   1  -8   16.92    1.22
   6   1  -8   16.78    0.86
  -6   1   8   18.27    0.93
   6   1  -8   17.15    0.85
  -5  -1   8   26.96    1.14
  -5  -1   8   26.11    1.14
   5  -1  -8   28.17    1.53
   5  -1  -8   27.50    1.09
  -5  -1   8   26.97    1.13
  -5  -1   8   25.82    1.08
   5  -1  -8   28.27    1.53
  -5  -1   8   26.16    1.22
   5  -1  -8   27.22    1.35
   5  -1  -8   24.08    1.13
   5   1  -8   25.70    1.47
   5   1  -8   25.76    1.16
  -5   1   8   27.74    1.14
  -5   1   8   27.90    1.14
   5   1  -8   26.13    1.68
   5   1  -8   26.95    1.13
  -5   1   8   28.38    1.12
  -5   1   8   27.27    1.33
  -5   1   8   27.26    1.18
  -4  -1   8    8.26    0.42
   4  -1  -8    8.20    0.74
   4  -1  -8    7.61    0.43
   4  -1  -8    7.90    0.73
  -4  -1   8    8.04    0.53
   4  -1  -8    7.88    0.61
  -4  -1   8    7.94    0.46
  -4   1   8    7.78    0.49
   4   1  -8    7.94    0.73
  -4   1   8    6.61    0.59
  -4   1   8    7.93    0.67
  -4   1   8    7.63    0.45
   4   1  -8    7.59    0.45
   4   1  -8    8.52    0.88
   4   1  -8    7.41    0.48
  -3  -1   8   16.77    0.86
   3  -1  -8   18.15    1.03
   3  -1  -8   15.13    0.74
   3  -1  -8   17.42    0.90
  -3  -1   8   16.83    0.73
  -3  -1   8   19.15    0.89
   3  -1  -8   17.75    1.04
   3  -1  -8   17.25    0.76
  -3  -1   8   17.90    0.92
  -3  -1   8   16.99    0.82
   3   1  -8   16.98    0.78
  -3   1   8   20.17    0.82
   3   1  -8   18.17    1.03
  -3   1   8   15.96    0.85
  -3   1   8   17.33    0.86
  -3   1   8   17.15    0.76
  -3   1   8   16.11    0.78
   3   1  -8   17.82    1.18
  -3   1   8   16.70    1.00
   3   1  -8   16.88    0.76
   3   1  -8   18.33    0.80
  -3   1   8   17.16    0.94
   2  -1  -8   15.47    0.77
   2  -1  -8   16.08    0.90
   2  -1  -8   15.88    0.93
  -2  -1   8   15.39    1.06
  -2  -1   8   14.13    0.65
   2  -1  -8   15.23    0.69
  -2  -1   8   15.26    0.82
   2  -1  -8   13.33    0.67
  -2  -1   8   14.47    0.76
  -2   1   8   13.63    0.78
  -2   1   8   14.39    0.70
   2   1  -8   15.05    0.71
   2   1  -8   12.99    0.98
  -2   1   8   14.07    0.67
   2   1  -8   15.38    0.89
  -2   1   8   13.83    0.75
   2   1  -8   15.53    0.72
   2   1  -8   14.66    0.66
  -2   1   8   15.50    0.98
   1  -1  -8   13.00    0.83
   1  -1  -8   13.10    0.67
  -1  -1   8   12.00    0.91
  -1  -1   8   11.76    0.59
   1  -1  -8   10.87    0.56
  -1  -1   8   10.46    0.56
  -1  -1   8   11.33    0.70
   1  -1  -8   12.02    0.63
   1  -1  -8   13.11    0.62
   1  -1  -8   13.13    0.78
  -1  -1   8   11.61    0.66
   1  -1  -8   11.76    0.62
  -1   1   8   12.22    0.56
   1   1  -8   12.18    0.57
  -1   1   8   11.06    0.95
   1   1  -8   11.95    0.65
   1   1  -8   12.49    0.74
   1   1  -8   12.49    0.62
  -1   1   8   11.39    0.65
   1   1  -8   11.96    0.85
   0  -1   8   27.03    1.20
   0  -1   8   25.33    1.14
   0  -1   8   24.68    1.17
   0  -1  -8   25.54    1.15
   0  -1   8   25.36    1.11
   0  -1  -8   26.17    1.11
   0  -1   8   25.53    1.06
   0  -1  -8   25.06    1.32
   0  -1  -8   25.21    1.11
   0  -1  -8   25.90    1.08
   0  -1   8   23.60    1.38
   0  -1  -8   25.60    1.08
   0  -1  -8   26.36    1.18
   0   1  -8   25.26    1.06
   0   1  -8   27.04    1.09
   0   1  -8   24.79    1.13
   0   1   8   25.70    1.14
   0   1   8   26.83    1.42
   0   1  -8   26.66    1.21
   0   1   8   25.84    1.10
   0   1  -8   27.01    1.36
   0   1   8   26.56    1.04
  -1  -1  -8    2.33    0.30
   1  -1   8    1.45    0.26
  -1  -1  -8    2.55    0.30
  -1  -1  -8    2.37    0.34
   1  -1   8    2.42    0.28
   1  -1   8    2.30    0.34
   1  -1   8    1.97    0.25
  -1  -1  -8    2.33    0.35
   1  -1   8    2.34    0.30
  -1  -1  -8    2.48    0.36
   1  -1   8    1.64    0.33
  -1  -1  -8    2.17    0.30
  -1  -1  -8    2.33    0.34
  -1  -1  -8    1.86    0.37
   1   1   8    2.61    0.36
  -1   1  -8    2.45    0.33
   1   1   8    2.18    0.39
   1   1   8    1.81    0.25
   1   1   8    2.63    0.28
  -1   1  -8    2.91    0.42
  -1   1  -8    2.21    0.31
   1   1   8    1.85    0.25
  -1   1  -8    2.11    0.32
   1   1   8    3.00    0.32
   2  -1   8   13.50    0.77
  -2  -1  -8   13.37    0.65
  -2  -1  -8   13.93    0.67
   2  -1   8   11.78    1.10
  -2  -1  -8   13.07    0.72
   2  -1   8   12.04    0.74
   2  -1   8   13.61    0.62
  -2  -1  -8   13.74    0.71
   2  -1   8   14.09    0.81
   2  -1   8   13.70    0.75
   2  -1   8   13.93    0.71
  -2  -1  -8   13.27    0.67
   2  -1   8   14.66    0.98
  -2  -1  -8   13.70    0.72
   2   1   8   14.68    1.00
   2   1   8   13.58    0.71
  -2   1  -8   13.36    0.69
  -2   1  -8   14.18    0.73
   2   1   8   13.36    0.73
   2   1   8   14.23    0.62
   2   1   8   13.42    0.68
  -2   1  -8   13.93    0.68
   2   1   8   13.27    0.70
   2   1   8   13.66    0.76
  -2   1  -8   14.18    0.67
  -2   1  -8   13.83    0.78
   3  -1   8   25.83    1.06
   3  -1   8   25.61    1.17
   3  -1   8   26.17    1.68
  -3  -1  -8   26.76    1.18
   3  -1   8   25.59    1.15
   3  -1   8   26.99    1.31
   3  -1   8   25.62    1.26
  -3  -1  -8   26.28    1.09
  -3  -1  -8   25.75    1.15
   3  -1   8   25.06    1.56
   3  -1   8   25.44    1.20
   3   1   8   25.72    1.14
   3   1   8   25.77    1.16
  -3   1  -8   25.12    1.07
  -3   1  -8   26.81    1.15
   3   1   8   26.04    1.13
   3   1   8   26.08    1.21
   3   1   8   26.73    1.33
  -3   1  -8   24.96    1.08
  -3   1  -8   25.23    1.25
   3   1   8   26.84    1.07
  -3   1  -8   23.41    1.05
  -3   1  -8   25.79    1.14
  -3   1  -8   25.21    1.20
  -3   1  -8   25.55    1.20
   3   1   8   25.99    1.19
  -4  -1  -8   67.53    2.74
   4  -1   8   75.99    3.50
   4  -1   8   73.02    2.88
   4  -1   8   70.54    2.84
   4  -1   8   70.44    2.94
  -4  -1  -8   67.69    2.77
   4  -1   8   69.70    2.82
  -4  -1  -8   72.33    2.93
   4  -1   8   80.88    2.80
  -4  -1  -8   73.28    2.92
   4  -1   8   71.69    3.04
  -4  -1  -8   70.03    2.84
  -4  -1  -8   67.98    2.81
  -4   1  -8   70.29    2.74
   4   1   8   68.91    2.84
   4   1   8   70.31    2.81
   4   1   8   68.42    3.04
   4   1   8   68.84    2.90
  -4   1  -8   72.03    2.75
  -4   1  -8   70.20    2.92
  -4   1  -8   74.76    2.95
   4   1   8   71.40    2.76
  -4   1  -8   70.23    2.91
   4   1   8   69.15    2.85
  -4   1  -8   72.58    2.82
   4   1   8   68.95    2.81
  -4   1  -8   71.47    2.83
  -4   1  -8   69.93    2.88
   5  -1   8    2.78    0.42
  -5  -1  -8    3.26    0.56
   5  -1   8    3.67    0.44
  -5  -1  -8    2.81    0.36
   5  -1   8    3.15    0.61
  -5  -1  -8    3.16    0.39
   5  -1   8    3.50    0.45
   5  -1   8    3.62    0.32
  -5  -1  -8    2.59    0.41
   5  -1   8    3.22    0.49
   5   1   8    3.70    0.54
  -5   1  -8    3.13    0.74
   5   1   8    3.06    0.33
  -5   1  -8    4.32    0.36
  -5   1  -8    2.27    0.34
  -5   1  -8    3.15    0.74
  -5   1  -8    3.55    0.36
   5   1   8    3.08    0.39
   5   1   8    2.56    0.54
   5   1   8    3.43    0.54
   5   1   8    3.47    0.43
  -5   1  -8    2.86    0.41
   6  -1   8    0.97    0.36
   6  -1   8    0.72    0.36
  -6  -1  -8    0.74    0.40
  -6  -1  -8    1.08    0.38
  -6  -1  -8    0.03    0.19
   6  -1   8    0.48    0.34
  -6   1  -8    0.57    0.38
   6   1   8    0.87    0.44
   6   1   8    0.59    0.18
  -6   1  -8    0.91    0.63
   6   1   8    0.99    0.31
  -6   1  -8    0.45    0.31
  -6   1  -8    1.26    0.39
   6   1   8    1.19    0.35
   6   1   8    1.33    0.33
  -6   1  -8    0.85    0.27
  -7  -1  -8    0.54    0.63
   7  -1   8    1.08    0.28
   7  -1   8    0.42    0.30
  -7  -1  -8    0.85    0.33
  -7  -1  -8    0.69    0.29
  -7   1  -8    0.90    0.32
   7   1   8    0.87    0.16
   7   1   8    0.86    0.28
  -7   1  -8    0.76    0.28
   7   1   8    1.00    0.27
  -7   1  -8    0.88    0.51
  -7   1  -8    0.95    0.22
  -9  -2   8    8.04    0.56
  -9  -2   8    7.40    0.39
  -9  -2   8    8.43    0.43
  -9  -2   8    8.51    0.43
   9   2  -8    8.48    0.42
  -8  -2   8    7.34    0.42
  -8  -2   8    6.76    0.41
  -8  -2   8    7.05    0.64
  -8  -2   8    7.63    0.46
  -8  -2   8    7.03    0.42
  -8   2   8    7.55    0.44
   8   2  -8    7.21    0.59
  -8   2   8    7.92    0.96
   8   2  -8    7.52    0.46
   8   2  -8    7.22    0.49
  -7  -2   8    5.75    0.42
  -7  -2   8    5.24    0.41
  -7  -2   8    5.15    0.66
  -7  -2   8    5.58    0.39
  -7  -2   8    5.94    0.42
   7   2  -8    5.71    0.49
   7   2  -8    5.67    0.47
   7   2  -8    5.20    0.49
  -7   2   8    5.61    0.44
  -7   2   8    5.73    0.66
   7   2  -8    7.13    0.52
   6  -2  -8    4.99    0.56
  -6  -2   8    5.44    0.43
  -6  -2   8    5.78    0.43
  -6  -2   8    5.34    0.68
  -6  -2   8    5.80    0.45
  -6  -2   8    5.75    0.38
   6   2  -8    4.95    0.54
  -6   2   8    5.03    0.60
   6   2  -8    5.65    0.53
   6   2  -8    5.43    0.43
  -6   2   8    6.10    0.76
  -6   2   8    5.70    0.43
   6   2  -8    5.22    0.51
  -6   2   8    5.75    0.45
   6   2  -8    5.11    0.49
   6   2  -8    6.34    0.83
   5  -2  -8    7.75    0.66
  -5  -2   8    8.26    0.47
   5  -2  -8    6.79    0.45
  -5  -2   8    8.17    0.67
  -5  -2   8    7.51    0.50
  -5  -2   8    7.10    0.59
  -5   2   8    8.15    0.74
  -5   2   8    8.05    0.56
   5   2  -8    7.61    0.57
  -5   2   8    8.76    0.51
   5   2  -8    7.80    0.55
   5   2  -8    7.87    0.51
   5   2  -8    7.49    0.55
  -5   2   8    8.30    0.58
  -5   2   8    7.02    0.85
  -5   2   8    7.80    0.79
   5   2  -8    8.24    0.86
   4  -2  -8   38.96    1.72
  -4  -2   8   37.12    1.54
   4  -2  -8   39.45    2.02
  -4  -2   8   38.33    1.62
  -4  -2   8   40.15    1.54
   4  -2  -8   38.76    1.52
  -4  -2   8   36.69    1.53
  -4   2   8   38.34    1.74
   4   2  -8   38.08    1.90
  -4   2   8   35.72    1.87
  -4   2   8   39.71    1.57
   4   2  -8   39.83    1.58
   4   2  -8   38.58    1.57
  -4   2   8   39.30    1.54
   4   2  -8   38.74    1.57
  -4   2   8   37.11    1.67
  -4   2   8   38.78    1.54
   4   2  -8   36.46    1.59
  -3  -2   8    7.36    0.70
  -3  -2   8    6.32    0.42
   3  -2  -8    5.58    0.41
   3  -2  -8    4.95    0.41
  -3  -2   8    6.78    0.39
  -3  -2   8    6.39    0.57
  -3  -2   8    5.61    0.58
   3  -2  -8    6.23    0.58
  -3  -2   8    5.58    0.57
   3  -2  -8    6.31    0.44
   3  -2  -8    6.47    0.73
  -3  -2   8    6.11    0.38
   3  -2  -8    6.38    0.40
   3   2  -8    6.26    0.42
   3   2  -8    7.00    0.47
   3   2  -8    6.36    0.70
   3   2  -8    6.32    0.47
  -3   2   8    5.61    0.86
   3   2  -8    6.02    0.43
  -3   2   8    7.20    0.44
  -3   2   8    5.95    0.37
   3   2  -8    6.16    0.77
  -3   2   8    6.66    0.63
   3   2  -8    5.74    0.46
   2  -2  -8   22.59    1.09
   2  -2  -8   23.53    0.96
  -2  -2   8   21.80    0.95
   2  -2  -8   22.68    0.97
  -2  -2   8   22.71    1.10
   2  -2  -8   21.64    1.31
  -2  -2   8   24.08    1.15
   2  -2  -8   21.31    0.96
   2  -2  -8   21.15    0.94
  -2  -2   8   23.06    1.28
   2   2  -8   22.45    0.98
   2   2  -8   22.85    1.18
  -2   2   8   21.48    0.93
  -2   2   8   19.04    1.24
   2   2  -8   21.80    0.95
  -2   2   8   22.06    0.92
   2   2  -8   21.01    1.33
  -2   2   8   20.64    1.07
   2   2  -8   19.41    1.07
   2   2  -8   22.76    1.01
  -2   2   8   21.29    1.31
  -1  -2   8    6.60    0.84
   1  -2  -8    7.28    0.57
   1  -2  -8    6.86    0.47
  -1  -2   8    7.24    0.57
  -1  -2   8    6.87    0.43
   1  -2  -8    6.82    0.51
  -1  -2   8    5.84    0.58
  -1  -2   8    6.80    0.48
  -1  -2   8    7.24    0.62
   1  -2  -8    6.70    0.48
  -1  -2   8    6.77    0.48
   1   2  -8    7.41    0.50
   1   2  -8    7.09    0.61
   1   2  -8    6.69    0.44
  -1   2   8    6.57    0.92
   1   2  -8    6.53    0.70
   1   2  -8    7.42    0.72
  -1   2   8    6.99    0.39
  -1   2   8    7.75    0.68
  -1   2   8    6.97    0.43
   1   2  -8    6.68    0.45
   1   2  -8    6.18    0.54
  -1   2   8    5.85    0.66
   0  -2   8    1.80    0.36
   0  -2  -8    2.31    0.42
   0  -2  -8    2.07    0.28
   0  -2  -8    2.86    0.31
   0  -2  -8    2.80    0.34
   0  -2   8    2.32    0.63
   0  -2   8    2.57    0.29
   0  -2   8    2.72    0.43
   0  -2   8    2.38    0.28
   0  -2  -8    2.56    0.33
   0  -2   8    2.26    0.32
   0  -2   8    2.70    0.34
   0  -2   8    2.71    0.40
   0   2   8    2.62    0.25
   0   2   8    2.11    0.63
   0   2  -8    2.22    0.26
   0   2  -8    1.96    0.30
   0   2  -8    2.65    0.28
   0   2  -8    2.39    0.42
   0   2   8    2.74    0.33
   0   2   8    2.27    0.28
   0   2   8    1.69    0.41
   0   2  -8    1.91    0.30
   0   2  -8    2.25    0.40
  -1  -2  -8    2.08    0.26
  -1  -2  -8    2.25    0.30
   1  -2   8    2.13    0.38
   1  -2   8    2.66    0.36
  -1  -2  -8    1.99    0.25
   1  -2   8    2.20    0.29
   1  -2   8    1.78    0.32
   1  -2   8    1.67    0.31
   1  -2   8    1.97    0.32
  -1  -2  -8    2.29    0.31
   1  -2   8    1.91    0.60
  -1  -2  -8    2.45    0.44
  -1  -2  -8    2.44    0.26
  -1  -2  -8    2.41    0.34
  -1  -2  -8    1.87    0.27
  -1  -2  -8    1.40    0.39
   1   2   8    2.54    0.30
  -1   2  -8    2.70    0.35
  -1   2  -8    2.24    0.28
   1   2   8    2.68    0.71
  -1   2  -8    2.07    0.40
   1   2   8    2.17    0.25
  -1   2  -8    1.66    0.23
   1   2   8    2.76    0.31
  -1   2  -8    2.21    0.26
   1   2   8    2.45    0.45
   1   2   8    2.33    0.31
  -1   2  -8    0.57    0.59
   2  -2   8    2.10    0.36
   2  -2   8    2.09    0.70
  -2  -2  -8    2.00    0.27
  -2  -2  -8    1.78    0.25
   2  -2   8    2.22    0.27
  -2  -2  -8    1.83    0.39
   2  -2   8    1.77    0.38
   2  -2   8    1.51    0.33
  -2  -2  -8    1.36    0.27
  -2  -2  -8    1.39    0.29
  -2  -2  -8    1.57    0.25
   2  -2   8    1.67    0.34
  -2  -2  -8    1.87    0.34
   2  -2   8    1.95    0.36
  -2  -2  -8    1.85    0.43
   2   2   8    2.10    0.32
   2   2   8    2.58    0.45
  -2   2  -8    2.55    0.53
  -2   2  -8    2.64    0.35
  -2   2  -8    1.57    0.27
   2   2   8    2.44    0.33
   2   2   8    1.70    0.63
  -2   2  -8    1.69    0.24
  -2   2  -8    1.48    0.23
  -2   2  -8    1.81    0.25
   2   2   8    1.49    0.44
   2   2   8    1.93    0.28
   2   2   8    1.14    0.45
  -2   2  -8    1.90    0.29
  -3  -2  -8   18.89    0.94
  -3  -2  -8   20.05    0.97
   3  -2   8   20.26    1.68
   3  -2   8   19.63    1.00
  -3  -2  -8   18.06    0.93
   3  -2   8   18.07    0.99
  -3  -2  -8   19.02    0.86
   3  -2   8   17.28    0.88
   3  -2   8   17.93    0.95
   3  -2   8   18.70    1.07
  -3   2  -8   18.31    0.85
   3   2   8   18.85    0.95
  -3   2  -8   21.29    1.39
   3   2   8   19.68    1.15
  -3   2  -8   18.51    0.91
   3   2   8   18.76    0.97
  -3   2  -8   18.61    1.06
   3   2   8   17.42    1.54
  -3   2  -8   19.95    0.95
  -3   2  -8   19.04    0.95
  -3   2  -8   18.28    0.93
   3   2   8   18.50    0.93
   3   2   8   17.77    0.91
  -3   2  -8   18.45    0.84
  -4  -2  -8   10.98    0.59
   4  -2   8   11.48    0.75
  -4  -2  -8   10.52    0.72
   4  -2   8   11.15    0.79
  -4  -2  -8   12.04    0.70
   4  -2   8   10.50    1.34
  -4  -2  -8   12.54    0.72
   4  -2   8   11.01    0.83
   4  -2   8   10.65    0.76
  -4   2  -8   11.02    0.68
   4   2   8   10.65    0.75
   4   2   8   11.47    0.68
  -4   2  -8   10.72    0.59
   4   2   8   11.18    0.69
   4   2   8   12.08    0.75
  -4   2  -8   10.51    0.70
  -4   2  -8   11.49    0.95
   4   2   8   11.60    0.58
  -4   2  -8   10.97    0.61
  -4   2  -8   11.51    0.72
   4   2   8    9.33    1.37
  -4   2  -8   10.58    1.12
   4   2   8   10.50    0.91
  -4   2  -8   11.19    0.68
  -4   2  -8    9.95    0.78
   5  -2   8    5.29    0.63
  -5  -2  -8    5.55    0.57
  -5  -2  -8    4.53    0.59
   5  -2   8    4.49    0.59
   5  -2   8    4.29    0.58
   5  -2   8    5.42    0.66
  -5   2  -8    4.50    0.75
   5   2   8    4.99    0.38
   5   2   8    5.51    0.53
   5   2   8    5.29    0.49
  -5   2  -8    5.06    0.53
  -5   2  -8    4.98    0.42
  -5   2  -8    4.68    0.41
   5   2   8    4.97    0.57
   5   2   8    4.55    0.54
   5   2   8    5.30    1.31
  -5   2  -8    4.72    0.64
  -5   2  -8    5.54    0.80
  -6  -2  -8   -0.02    0.32
   6  -2   8    0.18    0.31
  -6  -2  -8    0.51    0.32
  -6  -2  -8    0.35    0.36
   6  -2   8   -0.02    0.30
   6  -2   8    0.23    0.34
   6   2   8    0.58    0.28
  -6   2  -8    0.34    0.33
  -6   2  -8    0.00    0.61
  -6   2  -8    0.28    0.15
  -6   2  -8    0.09    0.20
  -6   2  -8    0.40    0.20
  -6   2  -8    0.49    0.34
   6   2   8    0.21    0.32
   6   2   8    0.39    0.26
   6   2   8    0.23    0.17
  -6   2  -8    0.46    0.28
   7  -2   8    4.34    0.44
   7  -2   8    4.25    0.39
  -7  -2  -8    4.03    0.49
  -7  -2  -8    4.32    0.39
  -7   2  -8    3.44    0.40
  -7   2  -8    3.49    0.34
   7   2   8    4.04    0.42
  -7   2  -8    4.10    0.61
   7   2   8    4.48    0.29
  -9  -3   8    4.05    0.40
  -9  -3   8    5.46    0.31
  -8  -3   8   17.73    0.75
  -8  -3   8   16.73    0.74
  -8  -3   8   17.82    0.78
  -8  -3   8   17.48    0.88
   8   3  -8   18.07    0.81
   8   3  -8   20.03    0.89
  -7  -3   8   15.02    0.66
  -7  -3   8   14.93    0.67
  -7  -3   8   15.56    0.86
  -7  -3   8   13.93    0.67
  -7  -3   8   15.16    0.71
   7   3  -8   16.41    0.84
  -7   3   8   15.15    0.98
   7   3  -8   14.64    0.74
   7   3  -8   15.23    0.76
  -7   3   8   13.72    0.92
   7   3  -8   14.55    0.67
  -6  -3   8    2.39    0.44
  -6  -3   8    2.05    0.27
  -6  -3   8    2.05    0.29
  -6   3   8    2.87    0.54
  -6   3   8    2.25    0.50
   6   3  -8    1.76    0.26
   6   3  -8    2.34    0.34
   6   3  -8    2.04    0.35
   6   3  -8    1.22    0.26
  -5  -3   8    4.25    0.41
  -5  -3   8    4.21    0.33
  -5  -3   8    5.72    0.63
   5  -3  -8    5.71    0.61
   5  -3  -8    5.22    0.45
  -5  -3   8    4.34    0.34
   5   3  -8    3.89    0.41
  -5   3   8    5.82    0.82
   5   3  -8    4.27    0.50
  -5   3   8    3.70    0.67
  -5   3   8    4.62    0.54
   5   3  -8    4.44    0.51
   5   3  -8    4.43    0.48
   5   3  -8    5.36    0.78
  -5   3   8    5.90    0.79
   4  -3  -8    4.30    0.43
   4  -3  -8    3.18    0.51
   4  -3  -8    3.43    0.43
  -4  -3   8    3.57    0.32
  -4  -3   8    3.46    0.31
   4   3  -8    3.29    0.46
  -4   3   8    4.26    0.76
  -4   3   8    4.19    0.46
   4   3  -8    3.40    0.44
  -4   3   8    3.54    0.74
   4   3  -8    3.60    0.38
   4   3  -8    3.89    0.46
   4   3  -8    3.40    0.50
   3  -3  -8   17.32    0.81
  -3  -3   8   17.40    0.81
  -3  -3   8   17.35    0.82
   3  -3  -8   15.91    0.99
   3  -3  -8   15.96    0.82
   3  -3  -8   16.13    1.28
   3   3  -8   18.46    1.29
  -3   3   8   16.24    0.87
  -3   3   8   17.89    1.02
  -3   3   8   17.41    0.79
   3   3  -8   18.97    0.98
  -3   3   8   16.35    1.32
   3   3  -8   16.45    1.09
   3   3  -8   17.18    0.85
   3   3  -8   15.30    0.77
   3   3  -8   16.95    0.85
  -3   3   8   14.88    0.92
   3   3  -8   15.85    0.83
  -2  -3   8    6.75    0.46
   2  -3  -8    7.20    0.67
   2  -3  -8    7.79    0.54
  -2  -3   8    7.18    0.40
   2  -3  -8    7.34    0.88
   2  -3  -8    5.82    0.47
   2  -3  -8    7.40    0.45
  -2  -3   8    6.93    0.48
   2  -3  -8    7.35    0.56
  -2  -3   8    7.53    0.55
  -2  -3   8    7.39    0.65
  -2  -3   8    7.47    0.69
   2  -3  -8    8.23    0.55
   2   3  -8    7.23    0.68
  -2   3   8    7.76    1.10
   2   3  -8    7.05    0.99
   2   3  -8    8.16    0.69
   2   3  -8    7.40    0.54
  -2   3   8    8.79    0.76
  -2   3   8    6.30    0.60
   2   3  -8    7.25    0.52
   2   3  -8    7.63    0.54
   2   3  -8    7.51    0.56
   2   3  -8    6.85    0.49
  -2   3   8    7.08    0.75
  -2   3   8    7.20    0.44
   2   3  -8    6.55    0.46
   1  -3  -8   15.62    0.74
  -1  -3   8   18.69    1.08
   1  -3  -8   17.06    1.79
   1  -3  -8   14.95    0.95
   1  -3  -8   15.49    0.84
  -1  -3   8   15.68    0.89
   1  -3  -8   16.28    0.81
  -1  -3   8   16.01    0.83
  -1  -3   8   15.38    0.76
  -1  -3   8   15.80    0.79
  -1  -3   8   15.73    1.25
   1  -3  -8   15.40    0.75
   1  -3  -8   15.45    0.79
  -1  -3   8   17.21    0.95
  -1   3   8   15.99    1.00
   1   3  -8   13.19    1.05
  -1   3   8   15.49    0.74
   1   3  -8   15.95    0.76
   1   3  -8   15.28    0.86
  -1   3   8   14.05    0.96
  -1   3   8   14.30    1.32
   1   3  -8   15.80    0.92
   1   3  -8   14.85    0.76
   1   3  -8   15.66    0.76
   1   3  -8   16.01    0.77
   1   3  -8   16.20    0.74
   0  -3  -8   19.85    0.97
   0  -3   8   20.84    0.96
   0  -3   8   20.01    0.99
   0  -3   8   19.87    1.43
   0  -3  -8   18.59    1.10
   0  -3   8   20.34    0.99
   0  -3   8   20.31    1.01
   0  -3   8   21.90    1.13
   0  -3  -8   20.00    0.91
   0  -3   8   21.17    1.04
   0  -3  -8   20.92    0.91
   0  -3  -8   20.95    0.93
   0  -3  -8   19.96    0.98
   0  -3   8   20.51    1.11
   0  -3   8   20.70    0.95
   0  -3  -8   21.99    1.01
   0  -3  -8   21.06    1.43
   0  -3  -8   19.65    0.89
   0   3  -8   21.13    0.89
   0   3   8   20.24    0.93
   0   3  -8   19.37    0.88
   0   3  -8   20.55    0.88
   0   3   8   20.90    1.52
   0   3  -8   18.96    1.05
   0   3   8   20.10    0.89
   0   3  -8   20.23    1.22
   0   3  -8   19.87    1.06
   0   3  -8   19.88    0.92
   0   3   8   18.67    1.13
   0   3   8   20.90    0.87
   1  -3   8   69.91    2.80
  -1  -3  -8   75.90    2.74
   1  -3   8   68.14    2.81
   1  -3   8   73.26    2.74
  -1  -3  -8   67.24    2.69
   1  -3   8   68.35    2.85
  -1  -3  -8   68.17    2.75
  -1  -3  -8   73.23    2.77
  -1  -3  -8   67.81    2.74
  -1  -3  -8   70.19    2.75
   1  -3   8   70.87    2.78
   1  -3   8   69.56    2.72
   1  -3   8   67.53    2.87
  -1  -3  -8   71.18    2.70
   1  -3   8   66.67    3.22
  -1  -3  -8   68.01    2.78
  -1  -3  -8   68.29    2.91
  -1   3  -8   66.54    2.86
   1   3   8   68.49    2.74
  -1   3  -8   69.34    2.85
   1   3   8   69.70    2.71
  -1   3  -8   65.76    2.69
  -1   3  -8   72.85    2.70
  -1   3  -8   66.59    2.83
   1   3   8   70.07    3.24
   1   3   8   64.93    2.83
   1   3   8   70.73    2.68
   2  -3   8    3.78    0.40
  -2  -3  -8    3.01    0.33
   2  -3   8    2.56    0.71
  -2  -3  -8    3.91    0.46
  -2  -3  -8    3.86    0.40
   2  -3   8    3.68    0.63
  -2  -3  -8    3.69    0.38
   2  -3   8    3.03    0.43
  -2  -3  -8    2.72    0.34
   2  -3   8    4.19    0.45
   2  -3   8    3.73    0.46
  -2  -3  -8    3.50    0.51
  -2  -3  -8    4.00    0.43
   2  -3   8    2.82    0.54
  -2  -3  -8    2.90    0.37
  -2   3  -8    3.00    0.51
  -2   3  -8    4.03    0.44
  -2   3  -8    4.36    0.44
   2   3   8    2.61    0.90
  -2   3  -8    3.33    0.42
   2   3   8    3.87    0.46
  -2   3  -8    5.24    1.18
   2   3   8    3.39    0.35
  -2   3  -8    3.25    0.44
   2   3   8    3.60    0.34
  -3  -3  -8    9.67    0.82
   3  -3   8    8.12    0.78
   3  -3   8    8.72    0.67
  -3  -3  -8    7.41    0.52
   3  -3   8    8.38    0.69
  -3  -3  -8    8.29    0.53
   3  -3   8    7.05    0.68
   3  -3   8    7.91    0.77
  -3  -3  -8    7.41    0.60
   3  -3   8    7.72    1.23
   3   3   8    7.66    0.59
  -3   3  -8    9.27    0.72
  -3   3  -8    7.18    0.65
  -3   3  -8    7.66    0.54
   3   3   8    5.87    0.98
  -3   3  -8    7.69    0.52
  -3   3  -8    7.72    0.83
  -3   3  -8    7.09    0.98
   3   3   8    8.06    0.48
   3   3   8    8.74    0.79
  -3   3  -8    7.62    0.57
   4  -3   8    1.26    0.39
   4  -3   8    1.29    0.43
  -4  -3  -8    0.68    0.30
   4  -3   8    2.03    0.44
  -4  -3  -8    1.00    0.24
   4  -3   8    0.92    0.38
  -4   3  -8    1.08    0.28
   4   3   8    1.79    0.24
   4   3   8    1.25    0.30
  -4   3  -8    1.32    0.66
  -4   3  -8    1.63    0.30
   4   3   8    2.52    0.88
  -4   3  -8    1.24    0.40
  -4   3  -8    1.39    0.51
  -4   3  -8    1.71    0.37
   4   3   8    2.20    0.38
   4   3   8    1.24    0.33
  -4   3  -8    0.85    0.32
   5  -3   8    1.83    0.41
   5  -3   8    2.51    0.44
   5  -3   8    1.25    0.40
  -5  -3  -8    1.65    0.35
  -5   3  -8    1.65    0.32
   5   3   8    1.80    0.32
  -5   3  -8    1.46    0.62
   5   3   8    2.07    0.36
  -5   3  -8    1.47    0.63
  -5   3  -8    1.56    0.27
  -5   3  -8    1.67    0.34
   5   3   8    1.81    0.27
  -5   3  -8    1.86    0.66
   5   3   8    2.28    0.38
  -5   3  -8    3.04    0.47
  -5   3  -8    1.45    0.27
   6  -3   8    7.46    0.54
   6  -3   8    7.63    0.67
   6  -3   8    8.18    0.75
  -6  -3  -8    7.28    0.53
  -6  -3  -8    7.04    0.54
  -6  -3  -8    6.49    0.51
   6  -3   8    6.61    0.50
  -6   3  -8    6.07    0.39
  -6   3  -8    5.66    0.50
   6   3   8    6.71    0.45
  -6   3  -8    6.30    0.66
   6   3   8    6.97    0.37
  -6   3  -8    5.39    0.38
  -6   3  -8    6.05    0.79
  -8  -4   8    0.87    0.12
  -8  -4   8    0.69    0.12
  -7  -4   8    1.88    0.22
  -7  -4   8    1.97    0.23
  -7  -4   8    1.42    0.25
  -7  -4   8    1.99    0.21
  -7   4   8    1.51    0.44
  -7   4   8    2.39    0.48
   7   4  -8    2.34    0.28
   7   4  -8    1.73    0.24
   7   4  -8    2.05    0.29
  -6  -4   8   -0.41    0.25
  -6  -4   8    0.28    0.20
   6   4  -8    0.28    0.20
   6   4  -8    0.10    0.23
  -6   4   8    0.69    0.51
   6   4  -8    0.32    0.21
  -6   4   8    0.68    0.43
   6   4  -8    0.26    0.26
  -5  -4   8   -0.10    0.21
   5  -4  -8   -0.19    0.27
   5  -4  -8    0.11    0.25
   5  -4  -8    0.58    0.29
  -5  -4   8   -0.20    0.12
  -5  -4   8   -0.09    0.21
   5   4  -8   -0.03    0.22
   5   4  -8    0.22    0.25
  -5   4   8    0.53    0.49
   5   4  -8   -0.02    0.23
  -5   4   8    0.23    0.46
  -5   4   8   -0.88    0.55
  -5   4   8    1.03    0.53
   5   4  -8    0.12    0.28
  -5   4   8   -0.04    0.46
   4  -4  -8    1.58    0.35
  -4  -4   8    2.08    0.31
   4  -4  -8    2.00    0.37
   4  -4  -8    2.36    0.50
   4  -4  -8    1.88    0.35
  -4   4   8    1.56    0.67
   4   4  -8    1.66    0.32
   4   4  -8    1.60    0.30
  -4   4   8    2.22    0.46
   4   4  -8    1.19    0.48
  -4   4   8    2.09    0.56
   4   4  -8    2.29    0.35
  -4   4   8    2.33    0.60
   4   4  -8    2.12    0.37
   3  -4  -8   33.37    1.66
  -3  -4   8   33.79    1.42
   3  -4  -8   34.51    1.45
   3  -4  -8   31.83    1.38
   3  -4  -8   34.13    1.45
   3  -4  -8   33.87    1.47
   3  -4  -8   32.78    1.41
  -3  -4   8   35.78    1.42
  -3   4   8   32.64    1.62
   3   4  -8   33.33    1.40
   3   4  -8   33.83    1.47
  -3   4   8   33.50    2.00
  -3   4   8   31.96    1.56
   3   4  -8   34.03    1.58
  -3   4   8   33.41    1.62
   3   4  -8   33.17    1.67
   3   4  -8   32.38    1.41
   2  -4  -8   11.33    0.66
   2  -4  -8   11.63    0.62
   2  -4  -8   11.78    0.75
   2  -4  -8   11.73    0.76
   2  -4  -8   11.16    0.88
  -2  -4   8   11.18    0.73
   2  -4  -8   11.61    0.73
  -2  -4   8   11.59    0.68
  -2  -4   8   11.51    0.75
  -2   4   8   13.66    1.00
  -2   4   8   11.75    0.92
  -2   4   8   10.71    0.83
   2   4  -8   10.94    0.63
   2   4  -8   11.01    0.91
  -2   4   8   11.57    0.60
   2   4  -8   11.15    0.68
  -2   4   8   14.29    1.47
   1  -4  -8   10.81    0.75
   1  -4  -8    9.60    0.64
  -1  -4   8    9.27    0.72
  -1  -4   8   10.37    0.64
   1  -4  -8   10.56    0.71
   1  -4  -8    9.61    0.83
  -1  -4   8   11.55    1.30
   1  -4  -8   10.61    0.78
  -1  -4   8    9.59    0.71
  -1  -4   8   11.13    0.70
   1  -4  -8   10.73    0.61
   1   4  -8   10.12    0.58
  -1   4   8    9.43    0.88
  -1   4   8    5.88    1.45
  -1   4   8   10.18    0.59
  -1   4   8   11.50    0.98
   1   4  -8   10.73    0.87
   0  -4  -8   25.81    1.25
   0  -4  -8   25.35    1.41
   0  -4   8   27.83    1.83
   0  -4   8   25.80    1.19
   0  -4   8   27.03    1.36
   0  -4  -8   26.64    1.16
   0  -4  -8   25.35    1.24
   0  -4   8   27.66    1.28
   0  -4  -8   26.00    1.18
   0  -4  -8   27.42    1.27
   0  -4   8   26.96    1.27
   0   4  -8   26.65    1.13
   0   4  -8   28.06    1.40
   0   4  -8   25.21    1.31
   0   4   8   24.00    1.34
   0   4   8   26.53    1.17
   0   4  -8   28.89    1.17
   0   4   8   27.66    1.88
  -1  -4  -8   21.63    1.05
   1  -4   8   21.37    1.03
   1  -4   8   20.16    1.00
  -1  -4  -8   20.63    0.96
  -1  -4  -8   20.47    1.19
  -1  -4  -8   20.95    1.07
  -1  -4  -8   20.97    1.05
   1  -4   8   20.63    1.11
  -1  -4  -8   19.52    0.91
  -1  -4  -8   22.92    1.10
  -1  -4  -8   21.29    0.97
   1  -4   8   20.80    1.15
   1  -4   8   20.88    1.02
   1  -4   8   19.07    1.15
   1  -4   8   20.10    1.08
   1  -4   8   21.88    1.70
  -1   4  -8   20.22    1.16
   1   4   8   19.70    1.63
   1   4   8   20.93    0.94
  -1   4  -8   21.18    0.95
   1   4   8   20.72    0.98
  -1   4  -8   20.21    1.17
  -1   4  -8   21.14    0.95
  -2  -4  -8   30.91    1.41
  -2  -4  -8   28.44    1.33
  -2  -4  -8   30.68    1.32
   2  -4   8   33.19    1.47
  -2  -4  -8   34.02    1.67
   2  -4   8   35.62    2.24
  -2  -4  -8   33.37    1.43
   2  -4   8   30.53    1.44
   2  -4   8   31.18    1.39
   2  -4   8   29.35    1.45
  -2  -4  -8   30.31    1.38
  -2  -4  -8   31.96    1.32
   2  -4   8   32.42    1.40
   2   4   8   29.85    1.27
  -2   4  -8   30.22    1.54
  -2   4  -8   32.66    1.37
  -2   4  -8   30.23    1.53
   2   4   8   29.47    1.96
  -2   4  -8   29.86    1.49
  -2   4  -8   30.85    1.32
   2   4   8   31.87    1.37
   2   4   8   29.77    1.30
  -3  -4  -8    0.76    0.24
   3  -4   8    0.29    0.39
   3  -4   8    0.32    0.38
   3  -4   8    0.13    0.35
   3  -4   8    0.21    0.34
  -3  -4  -8    0.51    0.31
  -3   4  -8    0.28    0.28
  -3   4  -8    0.54    0.40
   3   4   8    0.43    0.20
  -3   4  -8    0.13    0.25
  -3   4  -8    0.39    0.52
   3   4   8    0.25    0.33
  -3   4  -8   -0.19    0.37
   4  -4   8    0.15    0.32
  -4  -4  -8    0.26    0.29
   4  -4   8    0.71    0.36
  -4  -4  -8    0.60    0.21
   4  -4   8    0.24    0.31
   4  -4   8   -0.01    0.35
   4   4   8    0.45    0.26
  -4   4  -8    0.41    0.31
  -4   4  -8    0.52    0.26
  -4   4  -8   -0.38    0.34
   4   4   8    0.30    0.17
  -4   4  -8    0.24    0.51
  -4   4  -8    0.29    0.25
  -4   4  -8   -0.02    0.66
   5  -4   8    0.82    0.30
   5  -4   8    1.07    0.32
   5  -4   8    1.00    0.27
  -5  -4  -8    0.92    0.27
   5   4   8    1.20    0.28
  -5   4  -8    0.86    0.21
  -5   4  -8    0.68    0.44
  -5   4  -8    0.48    0.20
   5   4   8    1.02    0.18
  -5   4  -8    0.74    0.54
  -6  -4  -8    0.49    0.21
   6  -4   8    0.34    0.19
  -7  -5   8    0.50    0.12
  -7  -5   8    0.09    0.10
  -7   5   8   -0.07    0.30
  -6  -5   8    0.99    0.15
  -6   5   8    1.30    0.41
  -6   5   8    1.35    0.31
   6   5  -8    0.91    0.20
  -6   5   8    1.52    0.42
   5  -5  -8    2.02    0.32
  -5  -5   8    2.02    0.26
   5  -5  -8    2.04    0.47
   5   5  -8    1.94    0.31
  -5   5   8    2.69    0.54
   5   5  -8    1.95    0.25
  -5   5   8    2.50    0.49
  -5   5   8    2.53    0.42
  -4  -5   8    0.66    0.23
   4  -5  -8    0.66    0.33
  -4  -5   8    0.77    0.21
   4  -5  -8    0.79    0.32
   4  -5  -8    0.88    0.30
   4  -5  -8    1.04    0.27
   4   5  -8    0.87    0.26
  -4   5   8    1.13    0.44
  -4   5   8    1.12    0.47
   4   5  -8    0.94    0.25
   4   5  -8    0.52    0.32
  -4   5   8    2.03    0.57
   3  -5  -8    0.62    0.31
  -3  -5   8    0.70    0.25
   3  -5  -8    0.82    0.33
   3  -5  -8    0.31    0.33
   3  -5  -8    0.73    0.27
  -3  -5   8    0.44    0.29
  -3  -5   8    0.56    0.28
   3  -5  -8    0.47    0.36
   3   5  -8    0.76    0.26
   3   5  -8    0.59    0.27
  -3   5   8    1.78    0.52
  -3   5   8    0.89    0.46
  -3   5   8    0.65    0.47
   3   5  -8    0.50    0.35
  -2  -5   8    2.42    0.35
   2  -5  -8    3.55    0.47
   2  -5  -8    3.29    0.41
   2  -5  -8    4.15    0.60
  -2  -5   8    4.13    0.55
   2  -5  -8    2.38    0.49
   2  -5  -8    3.71    0.44
  -2  -5   8    2.66    0.35
  -2   5   8    5.19    0.90
   2   5  -8    3.41    0.41
  -2   5   8    3.41    0.54
   2   5  -8    3.65    0.43
  -2   5   8    3.59    0.31
   2   5  -8    3.27    0.48
  -2   5   8    2.79    1.24
  -1  -5   8    1.31    0.33
   1  -5  -8    1.10    0.26
  -1  -5   8    0.50    0.33
   1  -5  -8    1.60    0.39
  -1  -5   8    0.94    0.23
   1  -5  -8    1.34    0.41
   1  -5  -8    1.21    0.30
   1  -5  -8    1.42    0.36
  -1  -5   8    0.61    0.39
  -1   5   8    1.17    0.47
   1   5  -8    1.00    0.43
  -1   5   8    2.99    0.89
   1   5  -8    1.33    0.39
  -1   5   8    1.26    0.24
   1   5  -8    1.92    0.51
   0  -5   8    0.57    0.35
   0  -5   8   -0.53    0.40
   0  -5  -8    0.34    0.24
   0  -5   8    0.38    0.35
   0  -5  -8    0.30    0.27
   0  -5  -8   -0.03    0.33
   0  -5  -8   -0.15    0.35
   0  -5   8   -0.02    0.27
   0  -5  -8    0.24    0.35
   0  -5   8   -0.09    0.32
   0   5  -8   -0.26    0.36
   0   5   8    0.33    0.21
   0   5  -8    0.03    0.21
   0   5  -8   -0.20    0.58
  -1  -5  -8    1.99    0.30
  -1  -5  -8    1.72    0.29
  -1  -5  -8    2.09    0.36
   1  -5   8    1.48    0.37
   1  -5   8    2.06    0.39
  -1  -5  -8    0.89    0.33
   1  -5   8    1.20    0.35
   1  -5   8    1.63    0.32
  -1  -5  -8    1.63    0.34
   1  -5   8    1.96    0.36
  -1  -5  -8    0.66    0.54
   1  -5   8    1.45    0.45
   1   5   8    2.17    0.31
  -1   5  -8    1.24    0.65
  -1   5  -8    1.52    0.41
  -2  -5  -8    0.18    0.29
  -2  -5  -8    0.03    0.21
   2  -5   8   -0.31    0.31
   2  -5   8   -0.36    0.27
   2  -5   8   -0.11    0.33
   2  -5   8    0.63    0.33
  -2  -5  -8    0.15    0.23
  -2  -5  -8    0.35    0.26
  -2   5  -8   -0.08    0.33
  -2   5  -8    0.00    0.24
  -2   5  -8   -0.77    0.61
   2   5   8    0.33    0.24
   3  -5   8    0.66    0.52
   3  -5   8    0.35    0.29
   3  -5   8    1.01    0.31
   3  -5   8    0.75    0.31
  -3  -5  -8    0.71    0.29
  -3  -5  -8    0.67    0.23
  -3   5  -8    0.32    0.27
  -3   5  -8    0.17    0.55
   3   5   8    0.85    0.26
  -3   5  -8    0.70    0.24
   4  -5   8    2.46    0.37
  -4  -5  -8    2.52    0.23
  -4  -5  -8    3.01    0.37
   4  -5   8    2.12    0.28
   4  -5   8    2.13    0.38
   4   5   8    2.66    0.33
  -4   5  -8    1.90    0.26
  -4   5  -8    2.11    0.47
  -5  -6   8    0.13    0.12
  -5  -6   8    0.27    0.10
  -5   6   8    0.21    0.32
   4  -6  -8    3.70    0.32
   4  -6  -8    2.81    0.37
   4   6  -8    4.91    0.43
  -4   6   8    4.77    0.51
   3  -6  -8    5.30    0.49
   3  -6  -8    4.66    0.47
  -3  -6   8    5.33    0.35
   3  -6  -8    5.49    0.40
   3   6  -8    4.98    0.48
   3   6  -8    5.23    0.34
  -3   6   8    4.75    0.78
   2  -6  -8    2.20    0.54
   2  -6  -8    2.17    0.47
   2  -6  -8    1.55    0.30
  -2  -6   8    1.68    0.25
   2  -6  -8    1.73    0.30
  -2  -6   8    1.76    0.25
  -2  -6   8    1.34    0.22
   2  -6  -8    1.73    0.26
   2   6  -8    1.23    0.29
   2   6  -8    2.09    0.23
  -2   6   8    1.37    0.33
  -1  -6   8    2.40    0.28
   1  -6  -8    2.45    0.33
   1  -6  -8    2.97    0.51
   1  -6  -8    2.45    0.31
   1  -6  -8    2.86    0.39
  -1  -6   8    2.52    0.33
  -1  -6   8    1.64    0.26
   1   6  -8    1.90    0.33
   1   6  -8    2.56    0.25
   0  -6   8    0.25    0.24
   0  -6  -8    0.50    0.22
   0  -6  -8    0.06    0.18
   0  -6   8   -0.02    0.24
   0  -6   8   -0.28    0.29
   0  -6  -8    0.01    0.24
   0  -6  -8   -0.06    0.25
   0   6   8    0.16    0.17
   0   6  -8   -0.07    0.27
   1  -6   8    1.82    0.27
   1  -6   8    1.63    0.31
  -1  -6  -8    1.91    0.28
   1  -6   8    2.26    0.31
   1  -6   8    1.94    0.24
  -1  -6  -8    2.61    0.31
  -1  -6  -8    1.88    0.26
   1   6   8    2.25    0.28
  -1   6  -8    2.24    0.30
   2  -6   8    1.94    0.37
  -2  -6  -8    2.45    0.32
   2  -6   8    2.24    0.32
   2  -6   8    1.91    0.24
  -2  -6  -8    2.36    0.30
  -2   6  -8    2.67    0.42
  -2   6  -8    2.10    0.25
   2   6   8    2.38    0.30
   3   6   8    0.33    0.13
  -9   0   9    3.44    0.54
  -9   0   9    3.79    0.33
  -9   0   9    3.35    0.30
   8   0  -9    0.83    0.20
   8   0  -9    1.06    0.20
  -8   0   9    0.25    0.36
  -8   0   9    0.70    0.21
  -8   0   9    0.70    0.23
  -7   0   9    6.81    0.49
   7   0  -9    6.54    0.49
  -7   0   9    7.18    0.47
  -7   0   9    6.93    0.66
  -7   0   9    6.85    0.48
   7   0  -9    6.31    0.49
   7   0  -9    6.69    0.48
   6   0  -9   40.81    2.00
  -6   0   9   39.18    1.61
   6   0  -9   39.18    1.60
  -6   0   9   41.36    1.61
  -6   0   9   38.26    1.60
   6   0  -9   37.26    1.60
  -5   0   9   14.95    0.71
   5   0  -9   14.53    0.71
   5   0  -9   17.03    1.27
   5   0  -9   14.93    1.02
  -5   0   9   13.84    0.94
  -5   0   9   14.72    0.80
  -5   0   9   15.24    0.74
   5   0  -9   15.49    0.71
  -5   0   9   14.96    0.72
  -4   0   9   12.11    0.85
   4   0  -9   12.75    0.61
   4   0  -9   12.68    0.64
   4   0  -9   12.74    1.01
   4   0  -9   12.13    0.63
  -4   0   9   12.44    0.66
  -4   0   9   12.92    0.62
   4   0  -9   12.35    0.88
   3   0  -9    1.54    0.40
   3   0  -9    1.24    0.23
   3   0  -9    1.48    0.22
  -3   0   9    1.06    0.27
  -3   0   9    1.55    0.36
  -3   0   9    1.95    0.24
   3   0  -9    1.49    0.26
  -3   0   9    1.28    0.28
  -3   0   9    1.42    0.42
   3   0  -9    1.20    0.37
   2   0  -9    5.81    0.47
  -2   0   9    6.57    0.50
   2   0  -9    6.22    0.66
  -2   0   9    6.11    0.49
  -2   0   9    5.44    0.41
   2   0  -9    6.47    0.56
  -2   0   9    5.73    0.54
  -2   0   9    5.76    0.69
   2   0  -9    6.15    0.41
   2   0  -9    6.33    0.46
  -1   0   9    8.79    0.62
  -1   0   9    8.60    0.55
  -1   0   9    8.07    0.80
   1   0  -9    8.66    0.72
  -1   0   9    8.38    0.56
  -1   0   9    9.39    0.77
   1   0  -9    8.95    0.61
   1   0  -9    8.99    0.50
   1   0  -9    8.54    0.68
   1   0  -9    9.00    0.58
   1   0  -9    9.08    0.56
  -1   0   9    8.92    0.49
   0   0  -9   14.05    0.84
   0   0  -9   12.54    0.63
   0   0  -9   13.28    0.63
   0   0  -9   13.63    0.68
   0   0  -9   13.49    0.67
   0   0   9   12.24    0.68
   0   0  -9   13.84    0.90
   0   0  -9   12.85    0.63
   0   0  -9   12.74    0.68
   0   0   9   13.45    0.76
   0   0   9   12.43    0.69
   0   0  -9   13.21    0.76
   0   0   9   13.93    0.89
  -1   0  -9   27.68    1.30
   1   0   9   25.38    1.17
   1   0   9   27.76    1.23
  -1   0  -9   26.87    1.37
  -1   0  -9   26.75    1.16
  -1   0  -9   27.18    1.22
   1   0   9   28.34    1.27
   1   0   9   28.68    1.16
  -1   0  -9   28.09    1.15
   1   0   9   27.50    1.12
  -1   0  -9   27.61    1.15
  -1   0  -9   28.37    1.16
  -2   0  -9    1.46    0.29
   2   0   9    1.44    0.29
   2   0   9    1.36    0.33
   2   0   9    1.00    0.40
   2   0   9    1.69    0.22
   2   0   9    1.84    0.35
  -2   0  -9    1.56    0.24
  -2   0  -9    1.34    0.24
   2   0   9    0.84    0.28
   2   0   9    1.57    0.32
   2   0   9    1.44    0.29
  -2   0  -9    1.35    0.20
  -2   0  -9    1.79    0.29
  -2   0  -9    0.92    0.24
  -3   0  -9    4.37    0.54
  -3   0  -9    3.49    0.53
  -3   0  -9    5.01    0.45
   3   0   9    5.36    0.58
   3   0   9    3.81    0.52
   3   0   9    4.72    0.50
  -3   0  -9    3.86    0.57
   3   0   9    4.02    0.51
   3   0   9    2.21    0.90
  -3   0  -9    4.55    0.45
   3   0   9    4.36    0.58
   3   0   9    4.17    0.35
   3   0   9    4.36    0.52
  -3   0  -9    4.19    0.46
  -3   0  -9    3.56    0.43
  -4   0  -9    2.04    0.47
  -4   0  -9    1.74    0.28
  -4   0  -9    1.94    0.37
   4   0   9    2.55    0.39
   4   0   9    2.26    0.27
   4   0   9    1.82    0.42
   4   0   9    1.88    0.41
  -4   0  -9    1.75    0.30
   4   0   9    1.71    0.51
  -4   0  -9    2.27    0.32
  -4   0  -9    2.19    0.37
   4   0   9    1.88    0.34
  -4   0  -9    2.06    0.43
   4   0   9    2.02    0.36
   6   0   9    0.40    0.34
  -6   0  -9    0.55    0.30
   6   0   9   -0.04    0.28
   6   0   9    0.75    0.23
   6   0   9    0.25    0.34
  -6   0  -9    0.29    0.21
  -6   0  -9    0.68    0.58
   6   0   9    0.63    0.33
   7   0   9    0.51    0.28
  -7   0  -9    0.24    0.40
   7   0   9    0.39    0.36
  -7   0  -9    0.34    0.24
  -9  -1   9    1.44    0.18
  -9  -1   9    1.72    0.36
  -9  -1   9    1.51    0.21
   9   1  -9    1.88    0.23
  -9   1   9    1.46    0.18
  -9   1   9    1.87    0.28
  -9   1   9    1.47    0.31
  -8  -1   9    3.73    0.37
  -8  -1   9    3.76    0.58
  -8  -1   9    3.21    0.35
  -8   1   9    3.30    0.36
  -8   1   9    3.54    0.45
   8   1  -9    3.68    0.38
   8   1  -9    3.57    0.38
   8   1  -9    4.09    0.31
  -8   1   9    3.96    0.37
  -7  -1   9    2.10    0.36
  -7  -1   9    2.14    0.37
   7  -1  -9    2.92    0.33
  -7  -1   9    1.57    0.27
  -7   1   9    2.41    0.35
  -7   1   9    2.97    0.41
  -7   1   9    2.64    0.55
   7   1  -9    2.24    0.28
   7   1  -9    2.45    0.32
   7   1  -9    1.88    0.29
  -7   1   9    1.88    0.32
   7   1  -9    2.44    0.34
   7   1  -9    2.68    0.29
   6  -1  -9   30.04    1.53
  -6  -1   9   31.78    1.29
  -6  -1   9   28.74    1.28
  -6  -1   9   29.84    1.40
   6  -1  -9   32.99    1.26
  -6  -1   9   29.12    1.27
  -6   1   9   29.34    1.49
   6   1  -9   28.36    1.28
  -6   1   9   30.58    1.26
  -6   1   9   30.71    1.28
   6   1  -9   29.21    1.70
  -6   1   9   31.49    1.28
   6   1  -9   30.35    1.30
  -6   1   9   30.06    1.36
   6   1  -9   30.39    1.32
   5  -1  -9   18.48    0.90
   5  -1  -9   20.16    1.25
   5  -1  -9   20.07    0.87
   5  -1  -9   19.43    1.39
   5  -1  -9   18.56    1.09
   5   1  -9   20.20    0.94
   5   1  -9   18.04    0.91
  -5   1   9   20.92    0.87
   5   1  -9   20.36    0.91
   5   1  -9   21.40    0.90
  -5   1   9   19.73    1.02
  -5   1   9   20.18    1.12
   5   1  -9   20.38    1.27
  -5   1   9   20.74    0.97
  -5   1   9   20.10    1.13
  -4  -1   9   19.15    0.84
   4  -1  -9   18.46    1.20
  -4  -1   9   18.56    0.89
   4  -1  -9   15.79    0.82
   4  -1  -9   16.83    0.87
   4  -1  -9   19.09    0.82
   4  -1  -9   19.49    1.03
  -4  -1   9   18.20    0.89
  -4  -1   9   19.02    0.79
   4  -1  -9   18.59    1.16
   4   1  -9   19.84    1.35
  -4   1   9   19.11    0.87
  -4   1   9   18.09    1.06
  -4   1   9   18.61    0.83
   4   1  -9   19.16    1.15
   4   1  -9   18.45    0.87
   4   1  -9   20.66    1.00
   4   1  -9   18.50    0.84
  -3  -1   9   15.27    0.79
  -3  -1   9   15.28    0.90
  -3  -1   9   14.70    0.66
   3  -1  -9   14.59    1.00
  -3  -1   9   15.59    0.72
   3  -1  -9   15.21    0.70
  -3  -1   9   15.01    0.86
   3  -1  -9   15.80    0.98
  -3  -1   9   16.14    0.84
   3  -1  -9   15.48    0.84
   3  -1  -9   14.01    0.70
   3  -1  -9   14.45    0.74
  -3   1   9   15.18    0.70
   3   1  -9   13.95    0.71
   3   1  -9   14.31    0.70
   3   1  -9   15.78    0.97
   3   1  -9   15.00    0.73
   3   1  -9   14.02    1.08
  -3   1   9   14.50    0.73
  -3   1   9   13.41    0.82
  -3   1   9   15.65    0.74
   3   1  -9   14.49    0.69
  -3   1   9   14.53    0.92
  -3   1   9   14.94    0.84
  -3   1   9   15.41    0.95
   2  -1  -9    2.39    0.38
  -2  -1   9    2.16    0.36
  -2  -1   9    2.38    0.42
  -2  -1   9    3.08    0.40
   2  -1  -9    2.71    0.38
  -2  -1   9    1.88    0.29
   2  -1  -9    2.99    0.40
   2  -1  -9    2.00    0.28
   2  -1  -9    2.37    0.39
  -2  -1   9    2.57    0.25
  -2   1   9    2.08    0.33
   2   1  -9    2.98    0.30
  -2   1   9    2.62    0.37
   2   1  -9    2.97    0.39
  -2   1   9    2.11    0.42
   2   1  -9    2.20    0.30
  -2   1   9    2.33    0.50
   2   1  -9    3.15    0.50
   2   1  -9    2.60    0.39
  -2   1   9    3.07    0.36
   2   1  -9    2.69    0.39
  -2   1   9    2.65    0.27
   2   1  -9    2.29    0.47
  -1  -1   9    5.29    0.39
  -1  -1   9    6.52    0.69
  -1  -1   9    5.46    0.55
   1  -1  -9    5.46    0.49
  -1  -1   9    5.43    0.51
   1  -1  -9    5.15    0.46
   1  -1  -9    5.63    0.48
  -1  -1   9    5.58    0.42
  -1  -1   9    5.19    0.51
   1  -1  -9    4.95    0.62
   1  -1  -9    5.68    0.57
   1  -1  -9    6.06    0.44
  -1  -1   9    5.49    0.80
   1  -1  -9    4.93    0.37
   1   1  -9    4.98    0.47
   1   1  -9    5.00    0.61
   1   1  -9    5.52    0.45
  -1   1   9    5.58    0.49
   1   1  -9    5.21    0.58
  -1   1   9    5.48    0.84
   1   1  -9    5.03    0.37
   1   1  -9    4.92    0.42
  -1   1   9    5.39    0.43
   1   1  -9    5.31    0.44
  -1   1   9    4.65    0.67
  -1   1   9    5.68    0.41
   0  -1  -9   13.41    0.69
   0  -1   9   13.22    0.78
   0  -1   9   12.43    0.69
   0  -1  -9   14.20    0.67
   0  -1  -9   14.43    0.74
   0  -1  -9   13.63    0.76
   0  -1   9   13.88    0.81
   0  -1   9   13.26    1.07
   0  -1  -9   14.45    0.78
   0  -1  -9   14.57    0.66
   0  -1  -9   14.17    0.74
   0  -1  -9   13.67    0.93
   0  -1   9   14.55    0.66
   0   1  -9   14.35    0.70
   0   1  -9   13.70    0.77
   0   1   9   14.29    0.63
   0   1  -9   13.63    0.66
   0   1   9   14.13    0.71
   0   1  -9   14.06    0.94
   0   1   9   14.74    1.14
   0   1   9   14.63    0.79
   0   1  -9   14.37    0.82
   0   1  -9   13.49    0.79
   0   1   9   14.06    0.91
   1  -1   9    0.66    0.44
   1  -1   9    1.33    0.28
  -1  -1  -9    1.34    0.29
  -1  -1  -9    1.80    0.29
  -1  -1  -9    1.18    0.20
   1  -1   9    1.43    0.32
  -1  -1  -9    1.17    0.24
   1  -1   9    1.21    0.21
   1  -1   9    2.09    0.36
  -1  -1  -9    1.24    0.24
  -1  -1  -9    1.15    0.35
  -1  -1  -9    1.89    0.26
   1  -1   9    0.88    0.32
   1  -1   9    1.78    0.31
  -1   1  -9    1.27    0.23
  -1   1  -9    1.48    0.24
  -1   1  -9    1.36    0.31
  -1   1  -9    1.26    0.23
  -1   1  -9    1.43    0.21
  -1   1  -9    2.05    0.42
   1   1   9    1.22    0.30
   1   1   9    1.43    0.27
   1   1   9    1.40    0.42
   1   1   9    1.74    0.21
   1   1   9    0.83    0.18
   1   1   9    1.39    0.31
  -2  -1  -9   17.08    0.83
   2  -1   9   18.13    0.95
  -2  -1  -9   17.76    0.92
   2  -1   9   18.05    1.19
   2  -1   9   18.08    0.81
   2  -1   9   18.36    1.42
   2  -1   9   19.87    0.98
  -2  -1  -9   18.83    0.84
   2  -1   9   18.74    0.93
   2  -1   9   18.49    1.01
  -2  -1  -9   18.51    0.90
   2  -1   9   18.21    0.90
  -2  -1  -9   18.00    0.91
  -2  -1  -9   18.98    0.84
   2   1   9   17.67    0.88
  -2   1  -9   18.92    0.89
   2   1   9   18.67    0.93
   2   1   9   18.39    0.91
   2   1   9   19.31    0.81
  -2   1  -9   17.14    0.90
  -2   1  -9   19.44    0.89
   2   1   9   19.41    0.98
  -2   1  -9   18.39    0.84
  -2   1  -9   17.86    0.97
   3  -1   9   31.28    1.39
  -3  -1  -9   30.61    1.27
   3  -1   9   29.73    1.25
   3  -1   9   29.84    1.40
   3  -1   9   31.93    1.52
  -3  -1  -9   28.91    1.38
   3  -1   9   31.15    1.99
   3  -1   9   30.01    1.41
  -3  -1  -9   32.71    1.50
   3  -1   9   31.16    1.47
   3  -1   9   30.53    1.34
  -3  -1  -9   30.11    1.37
  -3   1  -9   29.06    1.26
   3   1   9   30.44    1.35
  -3   1  -9   30.92    1.33
   3   1   9   29.94    1.33
   3   1   9   30.33    1.32
   3   1   9   30.51    1.41
  -3   1  -9   29.55    1.30
  -3   1  -9   29.58    1.47
   3   1   9   30.33    1.42
   3   1   9   30.91    1.53
   3   1   9   31.72    1.39
  -3   1  -9   28.34    1.38
  -3   1  -9   30.46    1.45
  -4  -1  -9    2.33    0.38
   4  -1   9    3.21    0.62
   4  -1   9    3.29    0.45
  -4  -1  -9    3.22    0.42
   4  -1   9    2.88    0.48
  -4  -1  -9    2.94    0.38
   4  -1   9    2.30    1.01
  -4  -1  -9    1.74    0.32
  -4  -1  -9    2.89    0.35
   4  -1   9    3.00    0.47
   4  -1   9    2.86    0.33
   4  -1   9    3.57    0.64
   4   1   9    2.35    0.37
  -4   1  -9    3.13    0.46
  -4   1  -9    2.91    0.32
  -4   1  -9    3.17    0.51
   4   1   9    3.09    0.42
   4   1   9    2.69    0.41
  -4   1  -9    2.00    0.31
   4   1   9    2.90    0.35
  -4   1  -9    3.09    0.41
  -4   1  -9    2.42    0.27
  -4   1  -9    3.37    0.48
  -4   1  -9    3.01    0.39
   4   1   9    2.94    0.47
   4   1   9    3.57    0.42
   4   1   9    2.40    0.58
  -5  -1  -9    5.45    0.64
   5  -1   9    6.20    0.37
  -5  -1  -9    5.10    0.49
   5  -1   9    5.56    0.60
  -5  -1  -9    4.01    0.58
   5  -1   9    5.10    0.64
   5  -1   9    4.57    0.57
   5  -1   9    5.67    0.65
  -5  -1  -9    4.52    0.72
  -5   1  -9    5.68    0.39
  -5   1  -9    4.85    0.47
  -5   1  -9    5.08    0.62
   5   1   9    5.32    0.52
   5   1   9    5.20    0.39
  -5   1  -9    4.52    0.37
  -5   1  -9    6.52    0.89
   5   1   9    5.44    0.57
   5   1   9    4.97    0.60
  -5   1  -9    5.57    0.47
  -5   1  -9    5.16    0.51
   5   1   9    5.50    0.58
  -5   1  -9    4.79    0.51
  -6  -1  -9    1.67    0.32
  -6  -1  -9    1.94    0.62
  -6  -1  -9    2.21    0.42
   6  -1   9    1.73    0.36
   6  -1   9    2.11    0.39
   6  -1   9    2.44    0.38
   6  -1   9    1.88    0.33
  -6   1  -9    1.94    0.39
  -6   1  -9    2.07    0.35
   6   1   9    2.10    0.41
   6   1   9    1.77    0.26
   6   1   9    2.11    0.35
   6   1   9    1.71    0.35
  -6   1  -9    2.10    0.62
  -6   1  -9    2.38    0.33
   6   1   9    1.35    0.33
   7  -1   9    1.80    0.36
  -7  -1  -9    1.16    0.26
  -7   1  -9    0.53    0.42
   7   1   9    1.53    0.28
  -9  -2   9    3.76    0.29
  -9  -2   9    3.61    0.45
   9   2  -9    3.46    0.30
  -8  -2   9    5.43    0.39
  -8  -2   9    5.72    0.61
  -8  -2   9    5.58    0.34
  -8  -2   9    5.45    0.53
  -8  -2   9    5.60    0.34
   8   2  -9    5.61    0.39
  -8   2   9    6.03    0.44
   8   2  -9    5.59    0.41
  -8   2   9    5.30    0.60
   8   2  -9    5.60    0.44
  -7  -2   9    9.80    0.50
  -7  -2   9    9.37    0.76
  -7  -2   9    9.72    0.51
  -7  -2   9    9.52    0.53
  -7  -2   9    9.93    0.56
   7   2  -9    9.92    0.53
   7   2  -9   10.40    0.62
  -7   2   9   10.39    0.77
  -7   2   9   10.40    0.56
   7   2  -9    9.93    0.61
   7   2  -9    9.42    0.62
  -7   2   9   10.49    0.74
  -6  -2   9   12.59    0.60
   6  -2  -9   10.93    0.81
  -6  -2   9   12.73    0.65
  -6  -2   9   13.14    0.61
  -6  -2   9   12.89    0.67
  -6  -2   9   11.93    0.83
  -6  -2   9   12.30    0.64
   6   2  -9   13.21    0.76
  -6   2   9   12.99    0.78
   6   2  -9   12.94    1.08
  -6   2   9   12.95    0.65
   6   2  -9   12.32    0.65
   6   2  -9   13.08    0.87
  -6   2   9   13.70    0.67
  -6   2   9   13.09    0.98
   6   2  -9   12.08    0.74
  -5  -2   9    3.13    0.41
  -5  -2   9    2.95    0.31
  -5  -2   9    3.10    0.39
   5  -2  -9    3.27    0.39
  -5   2   9    3.95    0.83
  -5   2   9    2.76    0.37
  -5   2   9    3.20    0.39
   5   2  -9    4.24    0.73
   5   2  -9    3.22    0.36
  -5   2   9    3.27    0.58
   5   2  -9    3.49    0.36
   5   2  -9    3.43    0.41
  -5   2   9    2.99    0.45
   5   2  -9    3.25    0.37
   5   2  -9    2.70    0.38
  -4  -2   9    1.74    0.25
   4  -2  -9    1.38    0.26
  -4  -2   9    1.92    0.35
  -4  -2   9    1.76    0.25
  -4  -2   9    1.77    0.24
   4  -2  -9    2.11    0.47
   4  -2  -9    1.86    0.27
   4  -2  -9    0.70    0.39
  -4   2   9    2.26    0.60
   4   2  -9    2.26    0.29
   4   2  -9    1.39    0.47
   4   2  -9    1.69    0.29
  -4   2   9    2.20    0.31
  -4   2   9    2.02    0.46
   4   2  -9    2.09    0.58
   4   2  -9    1.64    0.28
   4   2  -9    1.83    0.29
  -4   2   9    1.52    0.23
  -4   2   9    0.99    0.54
  -4   2   9    1.52    0.24
  -3  -2   9   14.56    0.71
   3  -2  -9   16.20    0.92
   3  -2  -9   13.95    0.87
  -3  -2   9   16.80    0.89
   3  -2  -9   15.70    0.75
  -3  -2   9   18.31    1.07
  -3  -2   9   15.38    0.93
   3  -2  -9   15.90    1.17
   3  -2  -9   15.51    0.77
  -3  -2   9   15.78    0.77
  -3  -2   9   16.60    0.89
   3  -2  -9   14.35    0.76
  -3  -2   9   16.60    0.74
  -3   2   9   15.46    1.19
  -3   2   9   17.60    0.77
   3   2  -9   14.80    0.78
   3   2  -9   16.10    0.76
   3   2  -9   15.25    1.18
  -3   2   9   15.94    0.98
  -3   2   9   16.29    0.72
  -3   2   9   15.69    0.92
  -3   2   9   15.36    0.72
   3   2  -9   15.26    0.76
   3   2  -9   14.81    1.02
   3   2  -9   16.04    0.78
   3   2  -9   15.75    0.79
  -2  -2   9    4.28    0.41
   2  -2  -9    3.69    0.38
  -2  -2   9    5.01    0.50
  -2  -2   9    4.50    0.72
  -2  -2   9    4.27    0.42
  -2  -2   9    5.19    0.59
   2  -2  -9    2.52    0.50
   2  -2  -9    4.82    0.36
   2  -2  -9    3.41    0.35
   2  -2  -9    3.02    0.35
  -2  -2   9    3.97    0.61
   2  -2  -9    3.53    0.46
   2  -2  -9    4.02    0.53
   2   2  -9    4.00    0.42
   2   2  -9    4.43    0.46
  -2   2   9    5.02    0.65
   2   2  -9    3.79    0.49
  -2   2   9    4.13    0.87
   2   2  -9    5.53    0.70
   2   2  -9    3.69    0.39
   2   2  -9    4.45    0.45
  -2   2   9    3.95    0.38
  -2   2   9    4.57    0.68
   2   2  -9    3.65    0.66
  -2   2   9    3.84    0.36
  -1  -2   9    0.14    0.32
   1  -2  -9    0.25    0.27
   1  -2  -9   -0.09    0.34
  -1  -2   9    0.42    0.19
  -1  -2   9   -0.07    0.28
   1  -2  -9   -0.02    0.28
  -1  -2   9   -0.13    0.13
  -1  -2   9   -0.33    0.31
   1  -2  -9   -0.41    0.23
  -1  -2   9   -0.03    0.47
  -1  -2   9   -0.26    0.23
  -1  -2   9   -0.13    0.20
   1  -2  -9    0.25    0.22
   1  -2  -9   -0.09    0.28
   1   2  -9    0.07    0.24
  -1   2   9   -0.20    0.55
   1   2  -9   -0.07    0.20
   1   2  -9   -0.25    0.27
   1   2  -9    0.04    0.21
   1   2  -9    0.36    0.22
   1   2  -9    0.13    0.24
  -1   2   9    0.02    0.19
  -1   2   9   -0.03    0.17
   1   2  -9    0.07    0.22
  -1   2   9   -0.20    0.39
   0  -2   9   55.36    2.18
   0  -2  -9   54.63    2.14
   0  -2   9   55.89    2.27
   0  -2   9   54.68    2.16
   0  -2   9   53.35    2.14
   0  -2  -9   54.22    2.17
   0  -2   9   49.88    2.57
   0  -2   9   55.73    2.33
   0  -2   9   52.69    2.27
   0  -2  -9   56.49    2.20
   0  -2  -9   53.86    2.21
   0  -2  -9   53.74    2.31
   0  -2  -9   55.81    2.18
   0  -2  -9   53.98    2.15
   0  -2   9   55.88    2.21
   0   2  -9   57.41    2.15
   0   2  -9   51.55    2.16
   0   2  -9   54.62    2.25
   0   2  -9   55.36    2.16
   0   2   9   54.56    2.33
   0   2  -9   55.93    2.34
   0   2   9   57.27    2.61
   0   2  -9   52.61    2.51
   0   2   9   54.25    2.17
   0   2   9   54.20    2.13
  -1  -2  -9   19.12    1.25
   1  -2   9   18.10    0.84
  -1  -2  -9   20.17    0.88
  -1  -2  -9   19.12    0.90
   1  -2   9   18.35    1.01
   1  -2   9   18.96    1.00
  -1  -2  -9   20.59    0.95
   1  -2   9   19.66    1.07
  -1  -2  -9   19.08    0.86
  -1  -2  -9   19.29    0.96
  -1  -2  -9   18.54    1.01
   1  -2   9   16.90    1.12
  -1  -2  -9   20.02    0.91
   1  -2   9   18.07    1.41
   1  -2   9   18.77    0.90
   1  -2   9   19.83    0.97
   1  -2   9   19.41    0.94
   1   2   9   20.07    0.99
  -1   2  -9   15.82    0.79
   1   2   9   19.60    0.91
   1   2   9   19.05    0.92
   1   2   9   18.43    1.47
  -1   2  -9   18.99    1.01
  -1   2  -9   19.68    0.87
   1   2   9   19.83    1.08
  -1   2  -9   18.68    1.02
  -1   2  -9   15.78    0.81
  -1   2  -9   18.42    0.82
   1   2   9   19.47    0.82
  -2  -2  -9    6.41    0.81
   2  -2   9    5.49    0.57
   2  -2   9    5.70    0.62
  -2  -2  -9    6.48    0.50
  -2  -2  -9    5.80    0.57
   2  -2   9    6.15    0.63
  -2  -2  -9    6.20    0.48
  -2  -2  -9    6.15    0.52
  -2  -2  -9    5.58    0.52
   2  -2   9    4.16    0.74
   2  -2   9    5.66    0.99
  -2  -2  -9    6.33    0.71
   2  -2   9    6.22    0.41
   2  -2   9    5.66    0.70
   2  -2   9    6.04    0.65
   2   2   9    5.35    0.93
   2   2   9    6.38    0.53
  -2   2  -9    6.20    0.57
  -2   2  -9    5.02    0.69
  -2   2  -9    5.52    0.41
   2   2   9    6.20    0.58
   2   2   9    5.81    0.54
  -2   2  -9    5.98    0.47
  -2   2  -9    5.63    0.42
   2   2   9    6.29    0.41
  -3  -2  -9   31.51    1.41
   3  -2   9   31.07    2.03
   3  -2   9   32.08    1.47
  -3  -2  -9   32.01    1.32
  -3  -2  -9   31.62    1.39
   3  -2   9   31.37    1.41
   3  -2   9   29.75    1.53
   3  -2   9   31.72    1.45
   3   2   9   31.41    1.44
   3   2   9   32.71    1.30
  -3   2  -9   30.02    1.29
  -3   2  -9   32.71    1.40
  -3   2  -9   31.97    1.52
  -3   2  -9   30.80    1.35
   3   2   9   28.08    2.15
   3   2   9   31.21    1.39
   3   2   9   31.16    1.40
  -3   2  -9   30.56    1.29
  -3   2  -9   32.73    1.70
  -3   2  -9   29.65    1.40
   4  -2   9   18.81    1.04
   4  -2   9   18.96    1.10
   4  -2   9   19.46    1.06
  -4  -2  -9   19.13    0.99
   4  -2   9   18.82    1.79
  -4  -2  -9   18.71    0.97
  -4  -2  -9   19.78    0.99
  -4  -2  -9   18.00    0.95
   4  -2   9   17.89    1.17
   4  -2   9   18.66    1.00
  -4   2  -9   18.04    0.98
   4   2   9   20.01    0.86
  -4   2  -9   16.55    1.29
  -4   2  -9   19.24    0.95
  -4   2  -9   18.22    0.96
   4   2   9   18.72    0.97
  -4   2  -9   17.89    0.95
  -4   2  -9   18.42    1.31
   4   2   9   20.68    1.17
  -4   2  -9   17.60    0.84
   4   2   9   22.50    1.02
   4   2   9   17.69    1.65
   4   2   9   19.91    1.02
  -4   2  -9   19.46    1.19
  -5  -2  -9    0.47    0.34
   5  -2   9    0.26    0.37
  -5  -2  -9    1.00    0.39
  -5  -2  -9    0.55    0.33
   5  -2   9    0.81    0.36
   5  -2   9    0.62    0.37
   5  -2   9    0.15    0.37
  -5   2  -9    0.81    0.36
  -5   2  -9    0.64    0.61
  -5   2  -9    0.59    0.42
  -5   2  -9    0.72    0.23
   5   2   9    0.66    0.31
  -5   2  -9    0.68    0.31
  -5   2  -9    0.75    0.32
  -5   2  -9    0.25    0.22
   5   2   9    0.47    0.19
   5   2   9    0.40    0.27
   5   2   9    0.59    0.33
   5   2   9    0.36    0.34
  -6  -2  -9    4.56    0.72
   6  -2   9    4.27    0.44
  -6  -2  -9    4.77    0.47
   6  -2   9    4.71    0.54
  -6  -2  -9    4.71    0.51
   6  -2   9    4.16    0.45
   6   2   9    3.71    0.40
  -6   2  -9    4.40    0.42
  -6   2  -9    5.52    0.87
  -6   2  -9    5.05    0.75
   7  -2   9    4.98    0.34
  -8  -3   9    5.70    0.33
  -8  -3   9    6.25    0.38
  -8  -3   9    5.60    0.32
  -8  -3   9    6.23    0.53
   8   3  -9    6.62    0.47
  -7  -3   9   16.77    0.75
  -7  -3   9   17.51    0.76
  -7  -3   9   17.52    0.81
  -7  -3   9   18.05    0.77
  -7  -3   9   17.84    0.94
   7   3  -9   19.37    0.85
   7   3  -9   18.08    0.87
   7   3  -9   17.37    0.88
   7   3  -9   18.05    0.79
  -7   3   9   19.72    1.09
   6  -3  -9   -0.29    0.21
  -6  -3   9   -0.02    0.33
  -6  -3   9    0.11    0.24
  -6  -3   9    0.44    0.17
  -6   3   9   -0.26    0.36
  -6   3   9    0.12    0.47
   6   3  -9    0.29    0.23
   6   3  -9    0.25    0.28
   6   3  -9   -0.11    0.27
   6   3  -9    0.11    0.27
  -6   3   9    0.08    0.07
  -6   3   9    0.18    0.47
  -5  -3   9    4.65    0.41
  -5  -3   9    4.26    0.33
  -5  -3   9    5.43    0.60
  -5  -3   9    4.01    0.33
   5  -3  -9    3.23    0.46
   5  -3  -9    3.57    0.51
   5  -3  -9    5.61    0.58
  -5   3   9    5.97    0.80
   5   3  -9    4.08    0.43
  -5   3   9    3.32    0.66
   5   3  -9    5.62    0.76
  -5   3   9    4.24    0.54
   5   3  -9    4.17    0.51
   5   3  -9    4.61    0.66
   5   3  -9    4.39    0.51
   5   3  -9    4.63    0.44
  -5   3   9    6.07    0.81
  -4  -3   9    0.52    0.27
   4  -3  -9    0.34    0.29
   4  -3  -9    0.80    0.49
   4  -3  -9    0.69    0.29
  -4  -3   9    0.38    0.18
   4  -3  -9    0.53    0.26
  -4  -3   9    0.87    0.32
  -4  -3   9    0.35    0.18
  -4   3   9    0.59    0.64
  -4   3   9    0.53    0.29
   4   3  -9    0.41    0.23
   4   3  -9    0.15    0.30
   4   3  -9    0.86    0.49
   4   3  -9    0.38    0.28
  -4   3   9    0.82    0.45
  -4   3   9    1.03    0.47
   4   3  -9    0.45    0.29
   4   3  -9    0.29    0.25
   3  -3  -9    5.67    0.55
   3  -3  -9    5.46    0.67
   3  -3  -9    3.85    0.47
  -3  -3   9    5.21    0.48
  -3  -3   9    6.79    0.50
   3  -3  -9    5.38    0.54
   3  -3  -9    4.83    0.49
  -3  -3   9    4.50    0.36
  -3  -3   9    4.37    0.36
  -3   3   9    4.33    0.76
   3   3  -9    5.41    0.71
  -3   3   9    7.53    0.94
   3   3  -9    5.01    0.52
  -3   3   9    4.95    0.78
  -3   3   9    5.92    0.49
   3   3  -9    5.64    0.54
   3   3  -9    5.24    0.53
   3   3  -9    4.87    0.48
   3   3  -9    4.14    0.51
   2  -3  -9    3.19    0.47
  -2  -3   9    3.10    0.52
  -2  -3   9    4.18    0.45
   2  -3  -9    2.82    0.38
  -2  -3   9    2.85    0.46
   2  -3  -9    2.81    0.32
   2  -3  -9    3.80    0.52
   2  -3  -9    2.83    0.37
  -2  -3   9    2.85    0.44
   2  -3  -9    2.93    0.59
  -2  -3   9    2.07    0.42
  -2  -3   9    2.53    0.31
   2   3  -9    2.67    0.32
   2   3  -9    2.69    0.34
   2   3  -9    3.28    0.54
  -2   3   9    3.83    0.86
   2   3  -9    2.10    0.28
  -2   3   9    2.96    0.52
   2   3  -9    2.73    0.45
   2   3  -9    2.61    0.29
   2   3  -9    2.87    0.34
   2   3  -9    3.45    0.40
   2   3  -9    2.84    0.36
  -1  -3   9   23.56    1.29
   1  -3  -9   24.03    1.09
  -1  -3   9   25.03    1.10
   1  -3  -9   26.05    1.16
  -1  -3   9   26.31    1.17
   1  -3  -9   24.40    1.06
   1  -3  -9   24.57    1.12
   1  -3  -9   24.40    1.30
  -1  -3   9   23.13    1.06
   1  -3  -9   25.07    1.13
  -1  -3   9   24.81    1.22
  -1  -3   9   24.01    1.59
  -1  -3   9   24.38    1.63
   1   3  -9   23.79    1.26
   1   3  -9   24.59    1.09
   1   3  -9   24.68    1.27
   1   3  -9   24.56    1.08
  -1   3   9   24.14    1.05
   1   3  -9   24.83    1.06
  -1   3   9   23.75    1.31
   1   3  -9   22.43    1.48
   1   3  -9   23.73    1.18
  -1   3   9   24.88    1.68
   1   3  -9   23.27    1.08
  -1   3   9   25.59    1.09
   0  -3   9   69.84    2.86
   0  -3  -9   71.58    2.79
   0  -3   9   70.06    2.74
   0  -3  -9   69.48    2.74
   0  -3  -9   66.37    2.82
   0  -3  -9   74.21    2.81
   0  -3   9   68.28    3.29
   0  -3  -9   66.72    2.73
   0  -3  -9   68.48    2.78
   0  -3  -9   68.03    2.96
   0  -3   9   69.91    2.94
   0  -3   9   71.12    2.80
   0  -3   9   72.92    2.77
   0  -3   9   70.49    2.81
   0  -3  -9   68.63    2.78
   0   3  -9   73.46    2.73
   0   3  -9   69.99    2.75
   0   3   9   71.70    3.07
   0   3   9   71.79    2.73
   0   3  -9   69.33    2.94
   0   3  -9   72.74    2.72
   0   3   9   69.00    3.27
   0   3   9   69.31    2.76
   0   3  -9   66.52    2.87
   0   3  -9   73.03    2.72
   1  -3   9    9.72    0.74
   1  -3   9    8.77    0.63
  -1  -3  -9    9.41    0.54
  -1  -3  -9    8.57    0.57
   1  -3   9    8.47    0.72
  -1  -3  -9    8.83    0.67
   1  -3   9    8.47    1.27
  -1  -3  -9   11.06    0.90
   1  -3   9    9.70    0.70
  -1  -3  -9    9.53    0.60
  -1  -3  -9    8.34    0.47
  -1  -3  -9   10.63    0.73
   1  -3   9    9.03    0.82
  -1  -3  -9    9.23    0.71
   1  -3   9    9.10    0.80
  -1  -3  -9    8.87    0.65
   1  -3   9    9.57    0.67
  -1   3  -9    9.26    0.53
  -1   3  -9    8.40    0.82
   1   3   9    9.05    0.79
   1   3   9    9.36    1.32
  -1   3  -9    9.66    0.75
  -1   3  -9    8.67    0.79
  -1   3  -9    8.70    0.66
   1   3   9    7.82    0.64
   1   3   9    9.11    0.61
  -2  -3  -9    1.04    0.25
   2  -3   9    0.74    0.30
   2  -3   9    1.22    0.39
  -2  -3  -9    1.39    0.31
  -2  -3  -9    1.10    0.40
   2  -3   9    0.81    0.43
   2  -3   9    0.69    0.39
   2  -3   9    1.19    0.38
   2  -3   9    0.61    0.60
  -2  -3  -9    1.00    0.28
   2  -3   9    0.83    0.40
   2  -3   9    1.12    0.38
  -2  -3  -9    0.69    0.31
  -2  -3  -9    0.65    0.30
   2   3   9    0.66    0.69
   2   3   9    1.19    0.31
   2   3   9    0.87    0.22
  -2   3  -9    1.27    0.60
  -2   3  -9    1.01    0.46
   2   3   9    1.02    0.29
  -2   3  -9    0.94    0.26
  -2   3  -9    0.89    0.26
   3  -3   9    4.79    0.66
   3  -3   9    5.85    0.66
   3  -3   9    3.57    0.89
   3  -3   9    3.79    0.49
  -3  -3  -9    4.87    0.48
   3  -3   9    3.76    0.43
   3  -3   9    4.14    0.57
  -3  -3  -9    3.96    0.55
  -3  -3  -9    4.70    0.54
   3  -3   9    4.56    0.53
   3   3   9    4.13    0.38
  -3   3  -9    5.16    0.46
  -3   3  -9    3.44    0.65
  -3   3  -9    3.75    0.60
  -3   3  -9    4.24    0.63
   3   3   9    3.09    0.78
  -3   3  -9    4.58    0.59
   4  -3   9    0.20    0.38
   4  -3   9    0.00    0.32
   4  -3   9    0.20    0.34
   4  -3   9    0.04    0.41
  -4  -3  -9    0.17    0.21
   4  -3   9   -0.12    0.31
  -4  -3  -9    0.02    0.38
  -4   3  -9    0.22    0.23
   4   3   9    0.13    0.20
  -4   3  -9    0.10    0.23
  -4   3  -9   -0.04    0.56
   4   3   9   -0.09    0.24
  -4   3  -9    0.06    0.45
  -4   3  -9    0.23    0.33
  -4   3  -9    0.66    0.32
  -4   3  -9    0.08    0.33
   5  -3   9    1.00    0.31
   5  -3   9    0.81    0.35
  -5  -3  -9    1.15    0.33
   5  -3   9    1.00    0.31
  -5  -3  -9    0.84    0.34
   5  -3   9    0.91    0.33
   5  -3   9    0.66    0.30
   5   3   9    1.10    0.30
  -5   3  -9    0.58    0.54
  -5   3  -9    1.18    0.21
   5   3   9    1.18    0.27
  -5   3  -9    1.05    0.27
   5   3   9    1.10    0.21
  -5   3  -9    0.35    0.56
  -5   3  -9    0.64    0.54
  -6  -3  -9    2.65    0.39
   6  -3   9    2.76    0.33
   6  -3   9    2.16    0.28
   6  -3   9    1.80    0.29
   6  -3   9    3.23    0.40
   6   3   9    2.46    0.25
  -6   3  -9    3.15    0.63
  -7  -4   9    0.87    0.19
  -7  -4   9    0.67    0.15
  -7  -4   9    1.04    0.17
  -7   4   9    1.28    0.44
   7   4  -9    0.68    0.19
  -6  -4   9    0.20    0.20
   6   4  -9    0.23    0.26
  -6   4   9    0.32    0.46
   6   4  -9    0.43    0.18
   6   4  -9    0.32    0.23
   6   4  -9    0.37    0.22
  -6   4   9    0.29    0.47
  -5  -4   9    1.63    0.30
   5  -4  -9    1.82    0.32
  -5  -4   9    1.83    0.27
   5  -4  -9    1.89    0.34
   5   4  -9    1.46    0.31
   5   4  -9    1.40    0.38
   5   4  -9    2.61    0.39
  -5   4   9    2.40    0.54
   5   4  -9    1.80    0.28
  -5   4   9    2.14    0.55
   4  -4  -9   -0.17    0.30
  -4  -4   9    0.42    0.27
   4  -4  -9   -0.07    0.25
   4  -4  -9   -0.06    0.32
  -4  -4   9    0.03    0.20
   4  -4  -9    0.09    0.28
  -4   4   9   -0.04    0.63
   4   4  -9    1.09    0.34
   4   4  -9    0.02    0.26
  -4   4   9    0.28    0.50
   4   4  -9    0.16    0.25
   4   4  -9   -0.16    0.26
   4   4  -9   -0.15    0.24
  -3  -4   9    3.15    0.37
   3  -4  -9    2.99    0.35
   3  -4  -9    3.22    0.43
   3  -4  -9    3.09    0.42
  -3  -4   9    2.36    0.32
   3  -4  -9    2.94    0.33
   3  -4  -9    2.85    0.54
  -3   4   9    2.99    0.54
   3   4  -9    3.44    0.47
   3   4  -9    2.47    0.31
  -3   4   9    3.51    0.82
  -3   4   9    3.12    0.46
   3   4  -9    2.91    0.42
   3   4  -9    4.64    0.88
   3   4  -9    2.90    0.46
  -3   4   9    3.28    0.48
  -2  -4   9    1.97    0.36
   2  -4  -9    2.30    0.37
   2  -4  -9    1.80    0.48
   2  -4  -9    2.80    0.31
   2  -4  -9    2.32    0.41
  -2  -4   9    2.54    0.38
   2  -4  -9    2.73    0.34
  -2   4   9    2.73    0.57
  -2   4   9    2.30    0.75
  -2   4   9    2.42    0.27
   2   4  -9    2.21    0.45
  -2   4   9    3.27    0.63
   2   4  -9    1.79    0.46
   2   4  -9    2.46    0.33
   2   4  -9    1.88    0.45
   1  -4  -9    5.12    0.47
  -1  -4   9    6.25    0.59
   1  -4  -9    5.27    0.68
  -1  -4   9    4.94    0.48
   1  -4  -9    5.04    0.54
  -1  -4   9    5.07    0.55
   1  -4  -9    6.04    0.70
   1  -4  -9    4.63    0.65
  -1  -4   9    5.22    0.89
   1  -4  -9    4.99    0.60
   1   4  -9    3.35    0.54
  -1   4   9    4.54    0.81
   1   4  -9    4.52    0.43
  -1   4   9    6.11    1.07
  -1   4   9    4.33    0.43
   0  -4  -9   14.16    0.74
   0  -4  -9   13.82    0.98
   0  -4   9   14.56    0.81
   0  -4  -9   14.22    0.77
   0  -4  -9   15.05    0.89
   0  -4   9   14.66    1.03
   0  -4   9   13.72    0.87
   0  -4   9   14.91    1.50
   0  -4  -9   15.13    0.90
   0  -4  -9   13.82    0.83
   0  -4  -9   13.48    1.03
   0  -4   9   13.40    0.76
   0  -4   9   14.08    0.83
   0   4   9   13.59    0.98
   0   4   9   13.90    0.74
   0   4   9   12.50    1.46
   0   4  -9   17.17    1.08
   0   4  -9   14.26    1.01
   0   4  -9   13.97    0.69
  -1  -4  -9    1.00    0.37
   1  -4   9    0.71    0.80
  -1  -4  -9    0.97    0.37
  -1  -4  -9    0.73    0.33
   1  -4   9    0.14    0.32
  -1  -4  -9    1.39    0.44
   1  -4   9    0.93    0.36
  -1  -4  -9    0.71    0.35
   1  -4   9   -0.09    0.35
   1  -4   9    0.57    0.32
  -1  -4  -9    1.22    0.30
   1  -4   9    0.51    0.36
  -1  -4  -9    0.79    0.27
   1  -4   9    0.41    0.44
   1  -4   9    0.69    0.40
  -1   4  -9    0.99    0.47
   1   4   9    1.55    0.72
  -1   4  -9    0.66    0.44
  -1   4  -9    0.59    0.27
   1   4   9    0.71    0.28
   2  -4   9   10.52    0.79
  -2  -4  -9   12.15    0.65
  -2  -4  -9   11.21    0.63
   2  -4   9   11.27    0.81
   2  -4   9   11.53    0.81
   2  -4   9   10.80    0.74
  -2  -4  -9   11.28    0.75
  -2  -4  -9   11.24    0.73
   2  -4   9   11.10    0.75
   2   4   9   12.71    1.40
  -2   4  -9   11.76    0.62
  -2   4  -9   11.45    0.86
  -2   4  -9   12.47    0.91
  -2   4  -9   14.58    1.11
   2   4   9   11.34    0.67
   2   4   9   12.58    0.69
  -2   4  -9   11.37    0.62
   3  -4   9    0.92    0.33
   3  -4   9    1.93    0.65
  -3  -4  -9    1.48    0.26
  -3  -4  -9    2.09    0.37
   3  -4   9    1.29    0.40
   3  -4   9    1.47    0.37
   3  -4   9    1.70    0.38
  -3   4  -9    1.28    0.26
  -3   4  -9    1.57    0.51
   3   4   9    2.00    0.39
  -3   4  -9    1.29    0.39
  -3   4  -9    1.52    0.27
   3   4   9    1.41    0.22
   4  -4   9    2.29    0.44
   4  -4   9    2.62    0.44
   4  -4   9    2.43    0.40
  -4  -4  -9    2.34    0.29
  -4  -4  -9    2.07    0.33
   4  -4   9    2.30    0.36
   4  -4   9    1.98    0.34
   4   4   9    2.92    0.34
  -4   4  -9    1.11    0.84
  -4   4  -9    1.65    0.51
  -4   4  -9    2.06    0.25
  -4   4  -9    2.08    0.31
   4   4   9    2.09    0.32
  -4   4  -9    2.39    0.31
   5  -4   9    0.79    0.26
  -5  -4  -9    1.30    0.30
   5  -4   9    0.80    0.23
   5  -4   9    0.88    0.27
   5  -4   9    0.76    0.26
  -5  -4  -9    1.16    0.27
  -5   4  -9    0.95    0.19
   5   4   9    1.33    0.23
  -5   4  -9    1.06    0.50
  -6  -5   9    0.56    0.15
  -6  -5   9    0.61    0.13
  -6   5   9    0.12    0.43
   6   5  -9    1.11    0.31
  -6   5   9    0.91    0.39
  -5  -5   9    0.19    0.16
   5  -5  -9    0.08    0.23
   5  -5  -9   -0.16    0.20
  -5   5   9    0.73    0.43
   5   5  -9    0.14    0.21
  -4  -5   9    3.24    0.45
   4  -5  -9    3.09    0.33
  -4  -5   9    3.36    0.35
   4  -5  -9    3.64    0.49
   4  -5  -9    3.51    0.40
   4  -5  -9    4.38    0.44
  -4   5   9    4.59    0.73
  -4   5   9    5.15    0.76
   4   5  -9    3.52    0.37
   4   5  -9    3.56    0.42
   4   5  -9    3.60    0.39
  -3  -5   9    1.54    0.28
   3  -5  -9    1.60    0.37
   3  -5  -9    1.42    0.33
  -3  -5   9    1.13    0.24
   3  -5  -9    1.50    0.29
  -3   5   9    2.35    0.52
  -3   5   9    1.80    0.50
   3   5  -9    1.76    0.37
   3   5  -9    1.48    0.27
   3   5  -9    1.39    0.32
   2  -5  -9    0.66    0.33
   2  -5  -9    0.49    0.34
   2  -5  -9    0.45    0.35
  -2  -5   9   -0.27    0.25
  -2  -5   9    0.38    0.28
   2  -5  -9    0.31    0.22
   2  -5  -9    0.29    0.28
  -2  -5   9    0.15    0.30
  -2   5   9    0.80    0.46
   2   5  -9    0.64    0.25
   2   5  -9    0.31    0.17
   2   5  -9    0.04    0.36
   1  -5  -9    1.48    0.30
   1  -5  -9    1.35    0.26
  -1  -5   9    1.78    0.35
   1  -5  -9    1.06    0.34
   1  -5  -9    1.04    0.49
  -1  -5   9    0.55    0.31
  -1  -5   9    1.51    0.37
   1  -5  -9    1.39    0.37
  -1   5   9    1.22    0.25
   1   5  -9    1.20    0.42
  -1   5   9    1.62    0.24
   1   5  -9    1.46    0.27
   1   5  -9    1.61    0.50
  -1   5   9    1.70    0.47
   0  -5  -9    5.97    0.50
   0  -5  -9    5.53    0.46
   0  -5   9    4.56    0.57
   0  -5  -9    5.89    0.56
   0  -5  -9    5.37    0.67
   0  -5   9    5.26    0.59
   0  -5  -9    5.88    0.59
   0  -5   9    5.13    0.48
   0  -5   9    6.47    0.54
   0  -5  -9    5.51    0.77
   0   5  -9    6.33    0.91
   0   5   9    5.25    0.43
   0   5  -9    5.60    0.69
   1  -5   9    0.11    0.30
  -1  -5  -9    0.47    0.31
  -1  -5  -9    0.02    0.28
   1  -5   9   -0.11    0.31
   1  -5   9    0.15    0.26
  -1  -5  -9    0.55    0.24
   1  -5   9    0.74    0.30
   1  -5   9    0.43    0.39
  -1  -5  -9    0.56    0.26
  -1  -5  -9    0.46    0.29
   1   5   9    0.31    0.22
  -1   5  -9    0.44    0.36
  -1   5  -9   -0.33    0.58
   2  -5   9    2.50    0.36
   2  -5   9    2.40    0.36
   2  -5   9    2.76    0.44
   2  -5   9    2.99    0.39
  -2  -5  -9    3.12    0.37
  -2  -5  -9    3.51    0.45
   2  -5   9    3.50    0.39
  -2   5  -9    2.91    0.41
  -2   5  -9    1.52    0.87
   2   5   9    3.33    0.38
   3  -5   9    0.75    0.26
   3  -5   9    0.32    0.28
  -3  -5  -9    0.14    0.25
   3  -5   9    0.07    0.26
  -3  -5  -9    0.58    0.18
   3  -5   9    0.17    0.24
   3  -5   9    0.02    0.33
  -3   5  -9    0.25    0.23
   3   5   9    0.53    0.22
  -3   5  -9    0.15    0.52
   4  -5   9    0.90    0.20
   4  -5   9    0.71    0.19
   4   5   9    1.15    0.20
  -4   5  -9    0.69    0.36
   4  -6  -9    2.57    0.38
  -4   6   9    3.49    0.50
   3  -6  -9    4.01    0.55
   3  -6  -9    2.94    0.37
  -3  -6   9    3.38    0.34
   3   6  -9    2.40    0.27
  -3   6   9    3.09    0.45
   3   6  -9    3.34    0.37
  -2  -6   9    0.82    0.20
   2  -6  -9    0.85    0.21
   2  -6  -9    0.70    0.26
   2  -6  -9    0.76    0.16
  -2  -6   9    0.66    0.22
   2  -6  -9    0.75    0.27
   2   6  -9    0.74    0.27
   1  -6  -9    0.64    0.18
  -1  -6   9    0.35    0.21
   1  -6  -9    0.65    0.25
  -1  -6   9    0.69    0.22
   1  -6  -9    0.61    0.25
   1  -6  -9    0.85    0.22
   1   6  -9    0.59    0.28
   0  -6  -9    0.36    0.17
   0  -6  -9    0.21    0.22
   0  -6  -9    0.41    0.19
   0  -6   9   -0.02    0.21
   0  -6   9    0.20    0.19
   0   6   9    0.07    0.15
   0   6  -9    0.07    0.24
  -1  -6  -9    7.15    0.44
  -1  -6  -9    7.61    0.40
   1  -6   9    7.41    0.48
   1   6   9    6.80    0.38
  -1   6  -9    7.02    0.53
  -2  -6  -9    1.65    0.19
   2  -6   9    1.28    0.17
   2   6   9    1.50    0.20
  -9   0  10    2.83    0.30
  -9   0  10    3.64    0.52
  -9   0  10    2.65    0.28
   8   0 -10    0.97    0.18
   8   0 -10    0.52    0.20
  -8   0  10    0.97    0.37
  -8   0  10    0.77    0.22
  -8   0  10    0.82    0.23
   7   0 -10    3.74    0.41
  -7   0  10    4.37    0.39
  -7   0  10    3.76    0.41
  -7   0  10    3.54    0.42
   7   0 -10    4.43    0.43
  -7   0  10    3.99    0.47
   6   0 -10    1.82    0.49
   6   0 -10    1.59    0.28
  -6   0  10    2.11    0.34
  -6   0  10    1.96    0.28
   6   0 -10    1.66    0.27
  -6   0  10    1.08    0.25
  -6   0  10    1.06    0.35
  -5   0  10    1.77    0.60
  -5   0  10    1.62    0.30
  -5   0  10    1.77    0.30
  -5   0  10    0.94    0.27
  -5   0  10    1.17    0.25
   5   0 -10    1.28    0.26
   5   0 -10    1.28    0.26
   5   0 -10    1.21    0.45
   4   0 -10   12.25    0.61
  -4   0  10   10.81    0.64
   4   0 -10   11.70    0.88
   4   0 -10   12.58    0.66
  -4   0  10   12.77    0.63
   4   0 -10   11.72    0.64
   4   0 -10   11.66    1.00
  -4   0  10   12.06    0.95
  -4   0  10   11.96    0.66
  -3   0  10    4.71    0.60
   3   0 -10    3.47    0.37
  -3   0  10    4.43    0.41
  -3   0  10    4.48    0.73
   3   0 -10    4.27    0.55
  -3   0  10    4.13    0.52
   3   0 -10    3.27    0.41
   3   0 -10    4.28    0.62
   3   0 -10    4.20    0.44
  -3   0  10    3.83    0.48
   3   0 -10    4.35    0.44
   3   0 -10    4.36    0.64
   2   0 -10  100.85    4.08
   2   0 -10  103.83    4.03
   2   0 -10  105.18    4.06
   2   0 -10  107.20    4.36
   2   0 -10  107.95    4.45
  -2   0  10  114.75    4.16
   2   0 -10   99.80    4.03
   2   0 -10  107.71    4.23
  -2   0  10  107.63    4.17
  -2   0  10  101.85    4.05
   2   0 -10  103.08    4.03
  -2   0  10  104.53    4.08
  -2   0  10  107.48    4.21
   1   0 -10    0.17    0.19
  -1   0  10   -0.01    0.24
  -1   0  10   -0.26    0.37
   1   0 -10    0.14    0.23
   1   0 -10    0.25    0.24
  -1   0  10    0.05    0.30
   1   0 -10    0.07    0.26
   1   0 -10    0.08    0.25
  -1   0  10   -0.14    0.20
   1   0 -10    0.10    0.25
   1   0 -10   -0.03    0.21
  -1   0  10    0.10    0.45
   1   0 -10    0.15    0.21
  -1   0  10   -0.09    0.21
   0   0  10   18.06    0.82
   0   0 -10   17.72    1.11
   0   0 -10   18.42    0.87
   0   0  10   17.70    0.92
   0   0 -10   17.18    0.82
   0   0 -10   18.10    0.82
   0   0 -10   19.07    0.85
   0   0  10   18.75    0.98
   0   0  10   17.90    0.89
   0   0 -10   18.43    0.83
   0   0 -10   18.26    0.97
   0   0 -10   18.43    0.95
   0   0 -10   17.19    1.06
   1   0  10    4.65    0.37
  -1   0 -10    4.89    0.46
  -1   0 -10    5.38    0.46
  -1   0 -10    4.82    0.52
  -1   0 -10    5.21    0.44
   1   0  10    5.09    0.49
  -1   0 -10    4.38    0.37
  -1   0 -10    5.42    0.46
   1   0  10    5.58    0.52
   1   0  10    4.77    0.46
   1   0  10    5.26    0.60
  -2   0 -10    0.14    0.27
  -2   0 -10   -0.03    0.20
  -2   0 -10    0.28    0.21
   2   0  10   -0.08    0.21
  -2   0 -10    0.13    0.23
   2   0  10   -0.48    0.34
   2   0  10    0.02    0.18
  -2   0 -10   -0.13    0.30
   2   0  10    0.00    0.30
   2   0  10   -0.10    0.32
   2   0  10   -0.01    0.31
  -2   0 -10   -0.29    0.27
   2   0  10   -0.02    0.28
  -2   0 -10    0.25    0.23
   3   0  10    4.34    0.59
   3   0  10    4.19    0.54
   3   0  10    4.41    0.55
   3   0  10    4.80    0.61
  -3   0 -10    4.68    0.61
  -3   0 -10    3.73    0.45
  -3   0 -10    4.64    0.55
  -3   0 -10    5.06    0.44
   3   0  10    4.29    0.65
   3   0  10    5.20    0.39
  -3   0 -10    3.51    0.46
  -3   0 -10    4.82    0.55
   4   0  10    2.07    0.44
  -4   0 -10    2.41    0.35
  -4   0 -10    2.25    0.49
  -4   0 -10    1.91    0.32
   4   0  10    1.73    0.35
   4   0  10    1.19    0.40
  -4   0 -10    2.11    0.37
   4   0  10    2.09    0.38
   4   0  10    1.91    0.27
  -4   0 -10    1.78    0.37
   4   0  10    1.65    0.39
   4   0  10    1.55    0.48
   5   0  10    1.47    0.37
   5   0  10    1.84    0.38
  -5   0 -10    2.48    0.42
  -5   0 -10    1.47    0.26
   5   0  10    1.68    0.39
  -5   0 -10    1.81    0.33
   5   0  10    1.57    0.24
   6   0  10    1.94    0.32
   6   0  10    2.92    0.49
  -6   0 -10    2.54    0.38
   6   0  10    2.17    0.37
  -6   0 -10    3.58    0.84
  -9  -1  10    0.98    0.16
  -9  -1  10    0.92    0.31
  -9  -1  10    1.10    0.20
   9   1 -10    0.77    0.15
  -9   1  10    1.10    0.17
  -9   1  10    0.90    0.32
  -8  -1  10    3.51    0.57
  -8  -1  10    3.90    0.36
  -8  -1  10    3.59    0.35
   8   1 -10    2.66    0.43
   8   1 -10    3.63    0.36
  -8   1  10    3.52    0.32
  -8   1  10    3.45    0.36
   8   1 -10    3.28    0.37
  -8   1  10    3.53    0.58
  -7  -1  10    0.94    0.24
  -7  -1  10    1.74    0.28
   7  -1 -10    1.06    0.23
  -7  -1  10    1.10    0.41
  -7  -1  10    0.91    0.25
   7   1 -10    1.55    0.27
   7   1 -10    1.68    0.39
  -7   1  10    1.16    0.25
   7   1 -10    0.86    0.29
  -7   1  10    1.54    0.26
   7   1 -10    1.39    0.31
  -7   1  10    1.38    0.39
   7   1 -10    1.08    0.29
   6  -1 -10    6.29    0.46
   6  -1 -10    4.88    0.66
  -6  -1  10    6.39    0.49
  -6  -1  10    5.77    0.47
  -6  -1  10    5.12    0.64
  -6  -1  10    6.44    0.48
  -6   1  10    6.28    0.48
  -6   1  10    5.22    0.81
   6   1 -10    8.05    0.86
  -6   1  10    6.54    0.49
  -6   1  10    5.43    0.61
   6   1 -10    5.52    0.52
   6   1 -10    5.57    0.52
   6   1 -10    5.60    0.50
   5  -1 -10   15.03    0.78
  -5  -1  10   17.69    0.81
   5  -1 -10   16.94    0.79
  -5  -1  10   17.59    0.83
  -5  -1  10   17.15    0.92
   5  -1 -10   17.01    0.99
   5  -1 -10   14.70    0.81
  -5   1  10   17.01    0.81
   5   1 -10   17.58    0.86
  -5   1  10   16.56    1.14
   5   1 -10   18.35    0.92
  -5   1  10   16.54    0.86
  -5   1  10   17.31    0.82
   5   1 -10   16.75    1.52
   5   1 -10   16.80    0.83
   4  -1 -10   12.43    1.04
   4  -1 -10   13.63    0.69
  -4  -1  10   13.70    0.76
   4  -1 -10   13.77    0.69
  -4  -1  10   13.73    0.76
  -4  -1  10   14.89    0.94
   4  -1 -10   12.45    0.73
  -4  -1  10   13.73    0.68
   4  -1 -10   12.01    0.95
   4  -1 -10   13.33    0.84
  -4   1  10   13.92    0.69
   4   1 -10   13.64    0.74
   4   1 -10   13.85    0.70
  -4   1  10   13.93    1.01
   4   1 -10   13.16    0.99
   4   1 -10   13.25    0.70
  -4   1  10   14.60    0.74
   4   1 -10   15.23    0.70
   4   1 -10   16.30    1.18
  -3  -1  10   13.16    0.79
   3  -1 -10   12.24    0.96
   3  -1 -10   12.72    0.66
   3  -1 -10   12.58    0.77
  -3  -1  10   12.29    0.67
  -3  -1  10   14.02    0.91
   3  -1 -10   11.44    0.90
   3  -1 -10   11.82    0.68
  -3  -1  10   12.60    0.91
   3  -1 -10   12.52    0.71
  -3  -1  10   12.43    0.76
  -3   1  10   13.06    0.65
   3   1 -10   13.55    0.65
   3   1 -10   13.00    0.64
   3   1 -10   13.71    0.71
   3   1 -10   12.71    0.90
   3   1 -10   12.53    0.66
   3   1 -10   12.48    0.69
  -3   1  10   13.78    0.88
  -3   1  10   12.55    0.70
   3   1 -10   13.15    1.06
  -3   1  10   13.22    0.96
   2  -1 -10   18.59    1.08
  -2  -1  10   15.94    0.79
  -2  -1  10   16.97    0.80
   2  -1 -10   17.72    0.86
  -2  -1  10   18.04    1.07
   2  -1 -10   17.76    0.79
   2  -1 -10   16.46    0.87
   2  -1 -10   15.24    0.82
   2  -1 -10   18.40    1.16
  -2  -1  10   17.74    0.95
   2  -1 -10   17.13    1.08
  -2  -1  10   18.04    0.92
  -2  -1  10   18.15    1.02
  -2  -1  10   16.75    0.77
   2   1 -10   18.53    0.83
   2   1 -10   16.09    1.15
   2   1 -10   18.78    1.04
   2   1 -10   16.76    0.88
  -2   1  10   18.74    1.09
  -2   1  10   19.05    0.83
  -2   1  10   18.41    0.83
  -2   1  10   18.57    1.18
   2   1 -10   19.03    0.86
  -2   1  10   17.53    0.87
  -2   1  10   18.76    0.99
   2   1 -10   18.19    0.84
   1  -1 -10   15.46    0.73
   1  -1 -10   16.76    1.00
   1  -1 -10   16.83    0.83
   1  -1 -10   15.44    1.07
  -1  -1  10   15.95    0.88
  -1  -1  10   17.30    1.34
   1  -1 -10   16.62    0.87
  -1  -1  10   15.20    0.73
   1  -1 -10   15.92    0.83
   1  -1 -10   14.76    0.73
  -1  -1  10   15.16    0.91
   1  -1 -10   16.12    0.88
   1  -1 -10   15.64    0.77
  -1  -1  10   15.43    0.87
  -1  -1  10   15.61    0.76
   1   1 -10   15.51    0.84
  -1   1  10   15.64    1.06
   1   1 -10   16.45    0.78
   1   1 -10   15.00    0.74
  -1   1  10   17.36    1.24
   1   1 -10   14.76    1.04
   1   1 -10   16.59    0.80
  -1   1  10   15.50    0.77
  -1   1  10   16.26    0.89
  -1   1  10   15.95    1.04
   1   1 -10   17.25    0.94
   1   1 -10   15.99    0.77
  -1   1  10   15.81    0.75
   0  -1 -10    5.42    0.57
   0  -1 -10    6.21    0.52
   0  -1  10    5.68    0.44
   0  -1 -10    5.64    0.43
   0  -1 -10    6.30    0.57
   0  -1 -10    5.68    0.52
   0  -1 -10    6.22    0.55
   0  -1  10    6.08    0.58
   0  -1  10    5.89    0.96
   0  -1 -10    5.40    0.66
   0  -1  10    6.10    0.44
   0  -1  10    5.98    0.58
   0  -1 -10    5.60    0.46
   0  -1  10    5.32    0.42
   0   1  10    5.82    0.60
   0   1 -10    5.29    0.56
   0   1 -10    6.25    0.50
   0   1  10    6.65    0.81
   0   1 -10    5.54    0.43
   0   1 -10    5.43    0.48
   0   1 -10    6.03    0.48
   0   1  10    5.69    0.39
   0   1  10    5.68    0.48
   0   1 -10    5.51    0.63
   0   1  10    6.97    1.04
   0   1  10    5.47    0.52
   1  -1  10    4.11    0.38
   1  -1  10    3.12    0.40
   1  -1  10    4.20    0.56
  -1  -1 -10    4.26    0.42
  -1  -1 -10    3.87    0.46
   1  -1  10    3.67    0.58
   1  -1  10    2.58    0.61
  -1  -1 -10    3.07    0.49
   1  -1  10    4.04    0.54
   1  -1  10    4.22    0.51
  -1  -1 -10    4.37    0.42
  -1  -1 -10    4.36    0.52
  -1  -1 -10    4.28    0.47
  -1  -1 -10    4.93    0.49
  -1  -1 -10    3.87    0.50
   1   1  10    3.88    0.46
  -1   1 -10    4.28    0.44
   1   1  10    4.10    0.81
   1   1  10    4.37    0.70
  -1   1 -10    3.88    0.41
   1   1  10    4.42    0.46
  -1   1 -10    3.59    0.54
  -1   1 -10    3.74    0.50
   1   1  10    4.10    0.34
   1   1  10    3.89    0.55
   2  -1  10   22.97    1.15
   2  -1  10   23.74    1.03
   2  -1  10   24.28    1.25
   2  -1  10   22.88    1.11
   2  -1  10   25.05    1.75
  -2  -1 -10   23.43    1.04
  -2  -1 -10   23.18    1.03
   2  -1  10   27.18    1.27
  -2  -1 -10   23.08    1.16
  -2  -1 -10   23.81    1.14
   2  -1  10   23.86    1.14
  -2  -1 -10   22.72    1.08
  -2   1 -10   24.93    1.10
  -2   1 -10   23.03    1.19
   2   1  10   23.42    1.13
  -2   1 -10   22.53    1.13
   2   1  10   24.13    1.01
  -2   1 -10   23.85    1.04
   2   1  10   23.32    1.20
   2   1  10   23.23    1.11
  -3  -1 -10    2.52    0.39
  -3  -1 -10    2.38    0.32
  -3  -1 -10    1.95    0.29
  -3  -1 -10    2.69    0.30
   3  -1  10    2.62    0.41
  -3  -1 -10    2.97    0.45
   3  -1  10    2.31    0.40
   3  -1  10    1.73    0.45
   3  -1  10    3.24    1.14
   3  -1  10    2.02    0.51
   3  -1  10    2.33    0.35
   3  -1  10    2.76    0.45
  -3  -1 -10    2.89    0.47
   3   1  10    2.95    0.35
  -3   1 -10    2.24    0.32
   3   1  10    2.99    0.46
   3   1  10    2.50    0.41
   3   1  10    3.25    0.41
   3   1  10    2.36    0.38
  -3   1 -10    3.46    0.40
  -3   1 -10    3.75    0.51
  -3   1 -10    2.60    0.45
  -3   1 -10    3.05    0.30
  -3   1 -10    3.10    0.39
   4  -1  10   18.88    1.01
   4  -1  10   20.77    0.90
  -4  -1 -10   19.70    0.98
   4  -1  10   19.85    1.05
  -4  -1 -10   19.54    1.03
  -4  -1 -10   19.30    1.02
  -4  -1 -10   19.21    1.01
  -4  -1 -10   19.75    1.03
   4  -1  10   20.01    1.04
   4  -1  10   20.84    1.63
   4  -1  10   19.99    1.15
  -4   1 -10   18.98    1.00
   4   1  10   19.82    0.99
   4   1  10   20.05    1.10
   4   1  10   21.52    0.90
   4   1  10   19.87    1.01
  -4   1 -10   20.67    1.13
  -4   1 -10   19.43    1.02
  -4   1 -10   21.31    0.98
   4   1  10   21.11    1.06
  -4   1 -10   19.96    0.96
  -4   1 -10   20.34    1.04
  -5  -1 -10    0.29    0.31
  -5  -1 -10    0.23    0.35
   5  -1  10    0.56    0.35
   5  -1  10    0.40    0.38
   5  -1  10   -0.09    0.31
   5  -1  10    0.16    0.36
  -5   1 -10    0.08    0.25
   5   1  10   -0.67    0.30
   5   1  10    0.54    0.32
   5   1  10    0.30    0.38
   5   1  10    0.33    0.20
   5   1  10    0.00    0.31
  -5   1 -10    0.19    0.59
  -5   1 -10    0.81    0.29
  -6  -1 -10    0.98    0.31
   6  -1  10    1.75    0.34
   6  -1  10    1.34    0.33
  -6  -1 -10    1.60    0.32
  -6  -1 -10    1.21    0.52
   6   1  10    0.96    0.29
  -6   1 -10    1.21    0.54
   6   1  10    1.37    0.38
   6   1  10    0.77    0.32
  -6   1 -10    1.43    0.26
   6   1  10    1.64    0.26
  -9  -2  10    1.35    0.30
  -9  -2  10    0.92    0.21
  -8  -2  10   17.08    0.79
  -8  -2  10   22.02    1.10
  -8  -2  10   20.29    0.84
   8   2 -10   17.96    0.83
   8   2 -10   17.24    0.85
  -8   2  10   18.29    0.80
  -8   2  10   19.34    0.97
  -7  -2  10    5.46    0.63
  -7  -2  10    5.05    0.40
  -7  -2  10    5.53    0.43
  -7   2  10    6.00    0.74
   7   2 -10    5.22    0.49
   7   2 -10    4.82    0.45
  -7   2  10    5.14    0.60
  -7   2  10    5.80    0.42
   7   2 -10    4.90    0.38
  -6  -2  10    3.13    0.39
   6  -2 -10    2.28    0.28
   6  -2 -10    2.54    0.45
  -6  -2  10    3.13    0.40
  -6  -2  10    2.67    0.47
  -6  -2  10    2.62    0.38
   6   2 -10    3.19    0.43
   6   2 -10    2.66    0.65
   6   2 -10    2.17    0.30
  -6   2  10    2.86    0.33
  -6   2  10    3.88    0.44
   6   2 -10    2.50    0.37
  -6   2  10    2.11    0.36
   6   2 -10    2.39    0.36
   5  -2 -10    8.14    0.74
   5  -2 -10    7.68    0.52
  -5  -2  10    7.51    0.51
  -5  -2  10    7.83    0.51
  -5  -2  10    8.20    0.47
   5  -2 -10    6.52    0.62
  -5  -2  10    7.85    0.70
  -5   2  10    8.02    0.52
  -5   2  10    7.88    0.52
   5   2 -10    8.46    0.62
   5   2 -10    7.60    0.86
   5   2 -10    7.90    0.61
   5   2 -10    7.75    0.59
  -5   2  10    8.05    0.58
  -5   2  10    7.63    0.91
   5   2 -10    8.03    0.60
   5   2 -10    7.69    0.54
  -4  -2  10    2.02    0.27
  -4  -2  10    2.17    0.28
   4  -2 -10    2.05    0.30
   4  -2 -10    1.49    0.34
   4  -2 -10    1.50    0.29
   4  -2 -10    1.91    0.52
  -4  -2  10    1.91    0.26
  -4   2  10    2.31    0.29
   4   2 -10    2.15    0.33
   4   2 -10    1.18    0.49
   4   2 -10    1.69    0.31
  -4   2  10    1.76    0.53
  -4   2  10    2.12    0.28
  -4   2  10    2.27    0.33
   4   2 -10    2.03    0.32
  -4   2  10    2.15    0.52
  -4   2  10    2.01    0.48
   4   2 -10    1.83    0.31
   3  -2 -10    2.75    0.64
  -3  -2  10    2.68    0.37
  -3  -2  10    3.91    0.50
  -3  -2  10    2.56    0.45
   3  -2 -10    2.87    0.35
  -3  -2  10    3.42    0.40
   3  -2 -10    4.26    0.62
   3  -2 -10    3.68    0.46
  -3  -2  10    2.99    0.44
  -3  -2  10    3.94    0.45
   3  -2 -10    2.00    0.32
   3   2 -10    3.01    0.61
   3   2 -10    3.13    0.42
  -3   2  10    3.25    0.38
  -3   2  10    4.14    0.70
   3   2 -10    2.72    0.41
  -3   2  10    3.53    0.77
   3   2 -10    1.93    0.43
   3   2 -10    3.20    0.44
  -3   2  10    3.27    0.73
   3   2 -10    3.43    0.49
  -3   2  10    4.24    0.49
   3   2 -10    2.92    0.44
  -3   2  10    3.01    0.37
  -2  -2  10    1.25    0.37
  -2  -2  10    1.62    0.29
  -2  -2  10    1.05    0.28
   2  -2 -10    1.51    0.24
   2  -2 -10    1.51    0.49
  -2  -2  10    0.90    0.40
  -2  -2  10    1.44    0.42
   2  -2 -10    1.62    0.30
  -2  -2  10    1.21    0.63
   2  -2 -10    1.34    0.22
   2  -2 -10    1.78    0.35
   2  -2 -10    1.40    0.32
   2  -2 -10    1.52    0.26
   2  -2 -10    1.10    0.40
  -2   2  10    2.25    0.55
  -2   2  10    0.93    0.61
   2   2 -10    1.25    0.33
  -2   2  10    1.53    0.28
   2   2 -10    1.25    0.27
   2   2 -10    0.90    0.25
  -2   2  10    1.74    0.27
   2   2 -10    1.49    0.28
   2   2 -10    1.01    0.34
   2   2 -10    1.45    0.28
   1  -2 -10   19.56    0.97
   1  -2 -10   19.47    1.07
  -1  -2  10   19.26    0.93
   1  -2 -10   23.01    1.61
  -1  -2  10   19.42    1.42
   1  -2 -10   18.93    0.98
  -1  -2  10   19.43    1.10
   1  -2 -10   19.10    0.90
  -1  -2  10   18.90    1.06
   1  -2 -10   19.41    0.93
  -1  -2  10   19.07    0.89
  -1  -2  10   19.47    1.05
  -1  -2  10   18.30    0.84
   1  -2 -10   18.87    0.87
   1  -2 -10   19.56    0.90
   1   2 -10   18.90    1.02
   1   2 -10   19.45    0.91
   1   2 -10   19.76    1.29
   1   2 -10   20.89    0.92
  -1   2  10   19.21    1.17
  -1   2  10   19.83    0.90
  -1   2  10   19.12    1.44
   1   2 -10   19.69    0.91
   1   2 -10   18.56    0.91
   1   2 -10   20.23    1.10
  -1   2  10   20.50    0.89
   0  -2 -10    8.07    0.57
   0  -2 -10    8.23    0.69
   0  -2 -10    8.96    0.54
   0  -2  10    8.26    0.55
   0  -2 -10    6.87    0.85
   0  -2 -10    8.76    0.65
   0  -2  10    8.20    0.75
   0  -2 -10    9.38    0.59
   0  -2  10    8.52    1.12
   0  -2  10    8.51    0.72
   0  -2  10    8.71    0.58
   0  -2 -10   10.35    0.62
   0  -2 -10    9.43    0.67
   0  -2  10    8.10    0.62
   0  -2  10    8.50    0.78
   0   2  10    9.12    1.24
   0   2 -10    8.91    0.70
   0   2 -10    8.51    0.69
   0   2 -10    8.71    0.57
   0   2 -10    8.09    0.54
   0   2  10    8.51    0.85
   0   2  10    9.26    0.50
   0   2 -10    7.37    0.78
   0   2 -10    8.58    0.55
   0   2  10    8.97    0.56
   1  -2  10    0.54    0.33
   1  -2  10    0.52    0.32
   1  -2  10   -0.18    0.36
  -1  -2 -10    0.10    0.25
   1  -2  10    0.40    0.60
  -1  -2 -10    0.25    0.28
  -1  -2 -10    0.38    0.24
   1  -2  10    0.01    0.41
  -1  -2 -10    0.54    0.27
  -1  -2 -10    0.23    0.32
  -1  -2 -10    0.30    0.40
   1  -2  10    0.24    0.22
   1  -2  10    0.15    0.37
  -1  -2 -10    0.51    0.23
   1  -2  10    0.28    0.29
   1  -2  10    0.16    0.26
  -1  -2 -10    0.65    0.32
   1   2  10   -0.14    0.44
   1   2  10   -0.08    0.67
   1   2  10    0.25    0.21
  -1   2 -10    0.36    0.20
  -1   2 -10   -0.02    0.34
   1   2  10    0.16    0.27
   1   2  10    0.14    0.32
   1   2  10    0.66    0.30
  -1   2 -10    0.47    0.32
  -1   2 -10    0.16    0.26
   2  -2  10   36.21    1.50
  -2  -2 -10   35.93    1.58
  -2  -2 -10   35.52    1.56
   2  -2  10   35.60    1.62
   2  -2  10   34.95    1.63
  -2  -2 -10   33.78    1.51
   2  -2  10   35.27    1.58
   2  -2  10   35.40    2.21
  -2  -2 -10   35.90    1.47
   2  -2  10   33.07    1.53
  -2  -2 -10   35.61    1.45
   2  -2  10   35.18    1.69
  -2   2 -10   35.66    1.45
  -2   2 -10   32.31    1.42
  -2   2 -10   34.37    1.66
  -2   2 -10   36.37    1.56
   2   2  10   34.83    1.44
   2   2  10   36.02    1.61
   2   2  10   35.74    1.53
   2   2  10   38.59    2.24
   3  -2  10    1.67    0.40
  -3  -2 -10    1.86    0.37
   3  -2  10    1.25    0.41
   3  -2  10    1.34    0.46
  -3  -2 -10    1.73    0.27
   3  -2  10    1.56    0.42
   3  -2  10    0.79    0.68
  -3  -2 -10    1.91    0.39
  -3  -2 -10    1.77    0.32
  -3  -2 -10    1.34    0.27
   3   2  10    1.66    0.38
  -3   2 -10    1.47    0.30
  -3   2 -10    2.29    0.41
  -3   2 -10    1.50    0.24
  -3   2 -10    1.74    0.31
   3   2  10    1.80    0.88
   3   2  10    1.59    0.31
   3   2  10    1.98    0.27
  -3   2 -10    1.32    0.46
   3   2  10    1.69    0.45
  -3   2 -10    1.94    0.66
  -3   2 -10    1.48    0.24
   3   2  10    2.27    0.40
   4  -2  10    8.14    0.71
   4  -2  10    8.60    0.71
  -4  -2 -10    8.72    0.50
   4  -2  10    7.71    0.75
   4  -2  10    7.38    0.65
  -4  -2 -10    9.62    0.67
  -4  -2 -10    8.19    0.65
  -4   2 -10    7.53    0.46
  -4   2 -10    7.87    1.06
  -4   2 -10    7.05    0.61
   4   2  10    8.29    0.67
  -4   2 -10    8.36    0.87
  -4   2 -10    6.26    0.47
  -4   2 -10    8.72    0.62
   4   2  10    8.48    0.48
   4   2  10   12.37    1.64
   4   2  10    8.10    0.65
   4   2  10    8.37    0.60
   5  -2  10    3.31    0.51
  -5  -2 -10    2.48    0.35
   5  -2  10    1.77    0.38
   5  -2  10    1.72    0.34
   5  -2  10    2.17    0.41
  -5  -2 -10    2.67    0.48
  -5  -2 -10    2.01    0.36
  -5   2 -10    2.83    0.51
   5   2  10    2.75    0.44
   5   2  10    2.05    0.34
  -5   2 -10    2.41    0.62
   5   2  10    1.49    0.33
   5   2  10    2.03    0.30
  -5   2 -10    1.47    0.30
  -6  -2 -10    5.40    0.44
   6  -2  10    5.01    0.45
   6  -2  10    5.49    0.43
   6  -2  10    5.84    0.45
   6   2  10    6.06    0.45
  -6   2 -10    4.27    0.70
   6   2  10    5.49    0.34
  -8  -3  10   14.62    0.66
  -8  -3  10   14.71    0.66
  -8  -3  10   17.49    0.70
  -8  -3  10   16.51    0.78
   8   3 -10   17.30    0.72
  -7  -3  10    2.45    0.34
  -7  -3  10    2.60    0.23
  -7  -3  10    2.52    0.26
  -7  -3  10    2.60    0.38
  -7  -3  10    2.35    0.25
  -7   3  10    2.47    0.80
   7   3 -10    2.78    0.40
  -7   3  10    2.69    0.35
   7   3 -10    3.21    0.40
   7   3 -10    2.41    0.36
   7   3 -10    2.74    0.30
  -6  -3  10    1.11    0.22
  -6  -3  10    1.13    0.20
  -6  -3  10    1.68    0.21
  -6  -3  10    1.87    0.39
   6   3 -10    1.17    0.27
   6   3 -10    1.64    0.32
   6   3 -10    1.35    0.25
  -6   3  10    1.00    0.47
   6   3 -10    1.52    0.32
  -6   3  10    1.90    0.55
  -6   3  10    1.84    0.38
  -5  -3  10    3.86    0.32
   5  -3 -10    3.16    0.38
  -5  -3  10    3.78    0.32
  -5  -3  10    4.16    0.40
   5  -3 -10    3.17    0.44
  -5  -3  10    5.00    0.55
   5   3 -10    5.29    0.65
   5   3 -10    3.39    0.47
   5   3 -10    3.98    0.52
   5   3 -10    3.59    0.43
   5   3 -10    4.83    0.70
  -5   3  10    2.48    0.56
  -5   3  10    3.78    0.49
  -5   3  10    4.71    0.75
   5   3 -10    3.98    0.50
   4  -3 -10    1.24    0.32
   4  -3 -10    1.46    0.33
  -4  -3  10    1.17    0.28
  -4  -3  10    1.83    0.22
   4  -3 -10    1.19    0.42
  -4  -3  10    1.52    0.46
  -4  -3  10    1.17    0.21
   4   3 -10    1.47    0.36
  -4   3  10    1.45    0.54
  -4   3  10    1.59    0.53
   4   3 -10    1.43    0.30
  -4   3  10    1.51    0.32
   4   3 -10    1.59    0.34
   4   3 -10    1.39    0.35
   4   3 -10    0.65    0.42
   4   3 -10    1.07    0.32
  -4   3  10    1.09    0.63
   3  -3 -10    2.94    0.38
   3  -3 -10    2.18    0.46
  -3  -3  10    3.61    0.46
  -3  -3  10    2.37    0.31
   3  -3 -10    2.49    0.27
   3  -3 -10    3.57    0.47
   3  -3 -10    2.66    0.34
  -3  -3  10    2.79    0.32
  -3  -3  10    2.85    0.32
  -3   3  10    4.62    0.80
   3   3 -10    2.95    0.37
   3   3 -10    2.45    0.36
  -3   3  10    1.78    0.79
   3   3 -10    2.93    0.34
  -3   3  10    3.13    0.58
   3   3 -10    4.79    0.63
   3   3 -10    3.00    0.35
   3   3 -10    2.37    0.50
   3   3 -10    2.57    0.38
   2  -3 -10   11.45    0.68
  -2  -3  10   10.69    0.70
   2  -3 -10   12.14    0.73
   2  -3 -10   11.35    0.62
  -2  -3  10   11.17    0.65
  -2  -3  10   11.49    0.87
  -2  -3  10   11.46    0.88
   2  -3 -10   12.18    0.79
  -2  -3  10   10.96    0.91
   2  -3 -10   10.68    0.67
   2  -3 -10   10.62    0.88
  -2   3  10   11.97    1.00
  -2   3  10   10.66    1.29
   2   3 -10   11.38    0.67
  -2   3  10   12.29    0.98
   2   3 -10   11.55    0.67
   2   3 -10   11.19    0.86
   2   3 -10   12.01    0.69
   2   3 -10   11.04    0.73
  -2   3  10   11.16    0.61
   2   3 -10   11.92    0.89
   2   3 -10   10.73    0.68
   2   3 -10   10.48    0.74
   2   3 -10   10.34    0.62
   1  -3 -10   17.53    1.08
   1  -3 -10   21.50    1.12
   1  -3 -10   17.89    0.97
  -1  -3  10   18.12    0.89
  -1  -3  10   17.48    1.12
   1  -3 -10   20.15    1.24
  -1  -3  10   17.62    1.08
  -1  -3  10   16.03    0.81
   1  -3 -10   17.58    0.93
  -1  -3  10   16.63    0.94
   1  -3 -10   18.64    0.85
  -1  -3  10   18.10    1.06
   1  -3 -10   17.59    0.88
   1   3 -10   19.96    1.16
  -1   3  10   19.63    0.87
   1   3 -10   17.98    0.85
   1   3 -10   17.66    0.89
  -1   3  10   18.63    1.17
   1   3 -10   14.66    0.95
  -1   3  10   17.69    0.85
  -1   3  10   17.83    1.54
   1   3 -10   17.00    1.00
   1   3 -10   17.36    1.08
   0  -3  10    4.71    0.61
   0  -3  10    5.14    0.75
   0  -3 -10    6.70    0.66
   0  -3  10    4.43    0.76
   0  -3  10    5.50    0.66
   0  -3 -10    5.53    0.59
   0  -3 -10    5.66    0.53
   0  -3  10    5.08    0.56
   0  -3 -10    6.53    0.65
   0  -3  10    5.80    0.95
   0  -3 -10    5.39    0.56
   0  -3 -10    5.35    0.42
   0  -3  10    5.87    0.65
   0  -3  10    4.69    0.54
   0  -3 -10    5.62    0.70
   0  -3 -10    5.55    0.50
   0   3  10    4.38    0.92
   0   3 -10    5.28    0.53
   0   3  10    6.01    0.44
   0   3  10    5.38    0.80
   0   3 -10    5.28    0.68
   0   3 -10    5.79    0.41
   0   3 -10    5.12    0.57
   0   3  10    5.53    0.50
   1  -3  10    1.66    0.51
  -1  -3 -10    2.04    0.46
   1  -3  10    1.51    0.38
  -1  -3 -10    1.55    0.28
   1  -3  10    1.83    0.42
  -1  -3 -10    1.62    0.39
  -1  -3 -10    1.70    0.34
   1  -3  10    1.96    0.38
  -1  -3 -10    2.12    0.33
   1  -3  10    1.90    0.48
  -1  -3 -10    1.45    0.36
   1  -3  10    2.00    0.81
   1  -3  10    1.62    0.44
  -1  -3 -10    2.33    0.40
   1  -3  10    1.80    0.33
   1   3  10    1.56    0.31
  -1   3 -10    1.74    0.26
  -1   3 -10    1.44    0.45
   1   3  10    1.61    0.47
   1   3  10    1.28    0.24
  -1   3 -10    1.93    0.49
  -1   3 -10    1.34    0.24
   1   3  10    1.98    0.79
   2  -3  10    7.02    0.68
   2  -3  10    5.10    0.92
   2  -3  10    7.85    0.80
   2  -3  10    6.83    0.67
   2  -3  10    7.90    0.64
  -2  -3 -10    7.76    0.54
  -2  -3 -10    7.31    0.54
   2  -3  10    7.60    0.60
  -2  -3 -10    7.24    0.61
   2  -3  10    7.69    0.86
   2  -3  10    6.99    0.72
  -2  -3 -10    8.30    0.68
   2   3  10    7.62    0.57
  -2   3 -10    7.18    0.47
  -2   3 -10    7.55    0.87
   2   3  10    7.26    1.09
  -2   3 -10    8.20    0.82
   2   3  10    7.85    0.48
  -2   3 -10    7.08    0.49
   3  -3  10    0.64    0.44
   3  -3  10    0.40    0.34
  -3  -3 -10    0.47    0.33
   3  -3  10    0.49    0.40
  -3  -3 -10    0.74    0.25
   3  -3  10    0.58    0.38
   3  -3  10    0.51    0.30
   3  -3  10    0.30    0.36
  -3   3 -10    0.79    0.49
   3   3  10    0.96    0.23
   3   3  10    1.56    0.82
   3   3  10    0.57    0.13
  -3   3 -10    0.50    0.22
   3   3  10    0.63    0.27
  -3   3 -10    0.71    0.23
  -4  -3 -10    0.75    0.21
  -4  -3 -10    0.46    0.31
   4  -3  10    0.74    0.33
   4  -3  10    0.61    0.36
   4  -3  10    0.42    0.33
   4  -3  10    0.64    0.29
   4  -3  10    1.19    0.34
   4  -3  10    0.69    0.33
  -4   3 -10    0.64    0.20
   4   3  10    0.78    0.26
  -4   3 -10    0.99    0.54
   4   3  10    0.86    0.22
  -4   3 -10    0.88    0.43
   4   3  10    0.36    0.14
  -4   3 -10    0.74    0.36
  -4   3 -10    0.57    0.20
   5  -3  10    0.15    0.26
  -5  -3 -10    0.20    0.29
   5  -3  10    0.17    0.27
   5  -3  10    0.28    0.31
  -5  -3 -10    0.08    0.29
   5  -3  10    0.01    0.28
  -5  -3 -10   -0.10    0.23
  -5   3 -10    0.22    0.18
   5   3  10    0.07    0.18
   5   3  10    0.31    0.24
  -5   3 -10   -0.29    0.44
  -5   3 -10    0.42    0.45
  -7  -4  10    1.69    0.24
  -7  -4  10    1.83    0.19
  -7  -4  10    1.42    0.17
  -7   4  10    2.22    0.44
   7   4 -10    1.74    0.26
  -6  -4  10    1.04    0.17
  -6  -4  10    0.67    0.33
   6   4 -10    1.32    0.24
  -6   4  10    1.15    0.57
   6   4 -10    0.97    0.25
   6   4 -10    0.82    0.28
  -6   4  10    1.16    0.75
   6   4 -10    0.88    0.24
   5  -4 -10    3.94    0.46
   5  -4 -10    4.25    0.51
  -5  -4  10    4.50    0.39
  -5  -4  10    4.31    0.40
  -5   4  10    5.49    0.78
  -5   4  10    5.33    0.76
   5   4 -10    5.02    0.43
   5   4 -10    4.87    0.45
   5   4 -10    5.05    0.41
   4  -4 -10    3.43    0.50
   4  -4 -10    3.26    0.46
   4  -4 -10    2.97    0.35
  -4  -4  10    3.88    0.42
   4   4 -10    2.88    0.42
  -4   4  10    5.01    0.79
   4   4 -10    2.56    0.32
   4   4 -10    2.39    0.35
   4   4 -10    3.69    0.40
  -4   4  10    3.05    0.59
  -4   4  10    4.21    1.01
  -4   4  10    3.72    0.45
  -3  -4  10    1.22    0.30
   3  -4 -10    1.16    0.38
   3  -4 -10    1.54    0.66
  -3  -4  10    0.63    0.26
   3  -4 -10    1.06    0.35
   3  -4 -10    0.86    0.22
   3  -4 -10    0.90    0.32
   3  -4 -10    0.96    0.30
   3   4 -10    0.43    0.37
   3   4 -10    1.06    0.32
  -3   4  10    1.94    0.64
  -3   4  10    1.04    0.28
   3   4 -10    0.78    0.26
  -3   4  10    1.14    0.53
   3   4 -10    0.94    0.26
  -3   4  10    2.37    0.71
   2  -4 -10    4.91    0.67
   2  -4 -10    5.73    0.66
  -2  -4  10    7.09    0.92
   2  -4 -10    5.65    0.57
   2  -4 -10    6.02    0.51
  -2  -4  10    5.72    0.53
   2  -4 -10    6.22    0.63
   2   4 -10    5.00    0.45
   2   4 -10    5.32    0.47
   2   4 -10    5.51    0.90
  -2   4  10    5.13    0.91
   2   4 -10    4.64    0.53
   1  -4 -10    2.84    0.46
   1  -4 -10    3.23    0.45
   1  -4 -10    2.93    0.45
  -1  -4  10    1.23    0.37
   1  -4 -10    3.03    0.52
   1  -4 -10    2.19    0.37
   1  -4 -10    2.20    0.37
  -1  -4  10    1.05    0.80
  -1  -4  10    2.50    0.37
   1  -4 -10    1.99    0.40
  -1   4  10    2.58    0.31
   1   4 -10    2.34    0.30
  -1   4  10    1.64    0.74
   1   4 -10    1.99    0.64
   0  -4  10    0.55    0.33
   0  -4  10   -0.29    0.41
   0  -4  10    0.42    0.45
   0  -4  10   -0.17    0.82
   0  -4 -10    0.62    0.33
   0  -4 -10    0.52    0.35
   0  -4 -10    0.44    0.39
   0  -4  10    0.49    0.40
   0  -4  10    0.44    0.26
   0  -4 -10    0.73    0.26
   0  -4 -10    0.77    0.34
   0  -4 -10    0.73    0.35
   0  -4  10    1.13    0.34
   0  -4 -10    1.01    0.39
   0   4 -10    0.59    0.46
   0   4 -10   -0.17    0.55
   0   4  10    0.46    0.26
   0   4  10    0.45    0.44
   0   4  10    0.60    0.71
   1  -4  10    8.41    0.75
  -1  -4 -10    7.03    0.59
   1  -4  10    5.70    0.75
   1  -4  10    6.41    0.57
  -1  -4 -10    6.91    0.51
   1  -4  10    7.88    0.62
  -1  -4 -10    6.88    0.62
  -1  -4 -10    5.66    0.58
  -1  -4 -10    7.03    0.55
  -1  -4 -10    7.39    0.68
   1  -4  10    6.12    0.66
  -1   4 -10    7.02    0.82
   1   4  10   10.04    1.19
  -1   4 -10    6.03    0.73
   1   4  10    6.55    0.52
   2  -4  10    6.07    0.63
  -2  -4 -10    6.45    0.56
   2  -4  10    5.71    0.62
   2  -4  10    5.50    0.57
   2  -4  10    6.67    0.58
  -2  -4 -10    6.22    0.46
   2  -4  10    6.51    0.66
  -2  -4 -10    6.04    0.56
  -2  -4 -10    5.72    0.44
   2   4  10    5.76    0.49
  -2   4 -10    5.23    0.40
   2   4  10    5.83    0.40
  -2   4 -10    5.08    0.69
   3  -4  10    0.83    0.36
  -3  -4 -10    0.84    0.22
  -3  -4 -10    0.43    0.29
   3  -4  10    0.56    0.31
   3  -4  10    0.66    0.32
   3  -4  10    1.95    0.36
   3  -4  10    0.35    0.33
  -3   4 -10    0.61    0.34
   3   4  10    0.96    0.28
  -3   4 -10    0.52    0.19
   3   4  10    0.89    0.21
  -3   4 -10   -0.17    0.40
  -4  -4 -10    0.38    0.27
   4  -4  10    1.26    0.29
   4  -4  10    0.77    0.28
  -4  -4 -10    0.99    0.18
   4  -4  10    1.17    0.33
  -4  -4 -10    1.11    0.28
   4  -4  10    1.33    0.31
   4   4  10    1.27    0.26
   4   4  10    1.63    0.24
  -4   4 -10    2.50    0.52
  -4   4 -10    1.07    0.24
   5  -4  10    1.06    0.17
   5  -4  10    1.38    0.24
  -5   4 -10    0.95    0.35
  -6   5  10    2.36    0.39
  -5  -5  10    1.91    0.25
   5   5 -10    2.28    0.26
  -5   5  10    2.69    0.47
   4  -5 -10    3.78    0.44
  -4  -5  10    3.65    0.33
  -4  -5  10    4.40    0.35
   4  -5 -10    3.18    0.39
   4  -5 -10    4.13    0.54
   4  -5 -10    3.66    0.47
   4   5 -10    4.46    0.49
  -4   5  10    4.85    0.75
   4   5 -10    4.18    0.37
   4   5 -10    4.00    0.38
  -3  -5  10    2.28    0.29
   3  -5 -10    2.97    0.39
   3  -5 -10    2.14    0.45
   3  -5 -10    2.24    0.35
   3  -5 -10    2.06    0.24
   3  -5 -10    2.54    0.35
  -3  -5  10    1.89    0.21
   3   5 -10    3.14    0.31
   3   5 -10    1.89    0.36
   3   5 -10    2.24    0.38
  -3   5  10    2.98    0.54
   2  -5 -10    0.55    0.31
   2  -5 -10    0.26    0.37
   2  -5 -10    0.72    0.27
   2  -5 -10    0.54    0.34
   2  -5 -10    0.49    0.30
   2  -5 -10    0.45    0.29
  -2  -5  10    0.43    0.29
  -2  -5  10    0.26    0.26
  -2   5  10    0.66    0.45
   2   5 -10    0.62    0.24
   2   5 -10    0.64    0.37
   1  -5 -10    3.35    0.44
   1  -5 -10    3.31    0.50
  -1  -5  10    3.50    0.45
   1  -5 -10    3.22    0.39
   1  -5 -10    3.53    0.43
   1  -5 -10    2.95    0.40
   1  -5 -10    3.77    0.45
  -1  -5  10    2.82    0.35
   1   5 -10    2.87    0.33
  -1   5  10    3.23    0.49
   1   5 -10    3.08    0.46
   1   5 -10    4.00    0.63
  -1   5  10    3.01    0.33
  -1   5  10    4.07    0.44
   0  -5  10    4.95    0.50
   0  -5  10    4.29    0.57
   0  -5 -10    4.45    0.49
   0  -5 -10    4.80    0.52
   0  -5 -10    5.42    0.47
   0  -5  10    5.30    0.47
   0  -5 -10    5.64    0.58
   0  -5 -10    5.06    0.53
   0  -5 -10    4.92    0.42
   0   5  10    4.92    0.41
   0   5 -10    5.23    0.66
   0   5 -10    6.93    1.03
   1  -5  10    0.58    0.22
  -1  -5 -10    0.73    0.23
   1  -5  10    0.48    0.29
  -1  -5 -10    0.93    0.29
   1  -5  10    0.40    0.42
  -1  -5 -10    1.11    0.33
  -1  -5 -10    1.17    0.23
   1  -5  10    0.66    0.29
  -1  -5 -10    0.72    0.29
  -1   5 -10    0.52    0.35
   1   5  10    0.86    0.22
  -1   5 -10    0.10    0.58
   2  -5  10    0.41    0.29
   2  -5  10   -0.09    0.23
   2  -5  10    0.07    0.27
   2  -5  10   -0.10    0.21
  -2  -5 -10    0.02    0.25
  -2  -5 -10    0.37    0.19
  -2   5 -10    0.07    0.52
  -2   5 -10    0.08    0.29
   2   5  10    0.01    0.20
   3  -5  10    1.59    0.31
  -3  -5 -10    1.34    0.33
  -3  -5 -10    1.76    0.22
   3  -5  10    1.88    0.28
   3  -5  10    1.59    0.21
  -3   5 -10    1.93    0.24
  -3   5 -10    1.76    0.42
   3   5  10    2.20    0.30
   3  -6 -10    1.16    0.18
   3   6 -10    1.50    0.23
  -2  -6  10   -0.03    0.15
   2  -6 -10    0.61    0.33
   2  -6 -10   -0.01    0.27
   2   6 -10    0.17    0.21
   1  -6 -10    0.49    0.14
  -1  -6  10   -0.02    0.17
  -1  -6  10    0.04    0.15
   1  -6 -10    0.29    0.20
   1   6 -10   -0.20    0.25
   0  -6 -10    0.30    0.19
   0  -6 -10    0.31    0.17
   0  -6  10    0.35    0.16
   0   6 -10    0.43    0.20
   1  -6  10    5.11    0.31
  -1  -6 -10    4.65    0.27
  -1   6 -10    5.35    0.33
  -9   0  11    0.77    0.16
  -9   0  11    0.86    0.17
  -9   0  11    0.38    0.30
  -8   0  11   21.65    0.91
  -8   0  11   22.13    1.05
   8   0 -11   19.50    0.91
  -7   0  11    4.51    0.39
  -7   0  11    3.98    0.41
  -7   0  11    3.91    0.61
   7   0 -11    4.84    0.48
  -7   0  11    4.23    0.41
   7   0 -11    4.12    0.44
   6   0 -11    6.96    0.53
  -6   0  11    6.35    0.66
   6   0 -11    8.43    0.58
   6   0 -11    6.27    0.75
  -6   0  11    6.21    0.51
  -6   0  11    6.82    0.51
  -6   0  11    7.53    0.49
  -5   0  11   29.91    1.21
  -5   0  11   26.94    1.47
   5   0 -11   27.67    1.24
   5   0 -11   28.79    1.55
   5   0 -11   29.58    1.26
   5   0 -11   29.35    1.23
  -5   0  11   29.04    1.24
  -5   0  11   27.67    1.29
  -5   0  11   28.57    1.22
  -4   0  11    4.55    0.95
  -4   0  11    3.95    0.50
   4   0 -11    3.20    0.38
  -4   0  11    3.21    0.37
   4   0 -11    2.63    0.31
   4   0 -11    3.36    0.45
   4   0 -11    3.24    0.60
   4   0 -11    2.94    0.39
   4   0 -11    2.76    0.34
   4   0 -11    3.49    0.63
  -4   0  11    2.85    0.45
   3   0 -11    1.56    0.48
   3   0 -11    2.11    0.26
   3   0 -11    1.58    0.27
  -3   0  11    1.86    0.46
  -3   0  11    2.34    0.41
   3   0 -11    1.64    0.27
   3   0 -11    1.94    0.32
   3   0 -11    1.88    0.35
   3   0 -11    2.36    0.47
   3   0 -11    1.85    0.63
  -3   0  11    2.03    0.56
  -3   0  11    2.05    0.29
  -3   0  11    1.96    0.34
   2   0 -11   34.16    1.50
  -2   0  11   33.44    1.52
   2   0 -11   32.80    1.80
   2   0 -11   36.51    1.64
   2   0 -11   34.25    1.44
  -2   0  11   33.80    1.49
  -2   0  11   34.51    1.42
  -2   0  11   33.33    1.45
   2   0 -11   34.32    1.42
  -2   0  11   37.39    1.71
   2   0 -11   34.81    1.47
   2   0 -11   32.78    1.42
   2   0 -11   33.70    1.79
  -2   0  11   38.70    1.69
   1   0 -11   10.26    0.59
   1   0 -11   10.69    0.63
   1   0 -11   10.11    0.67
  -1   0  11   10.00    0.78
   1   0 -11   10.46    0.65
  -1   0  11   10.75    0.95
   1   0 -11   11.38    0.87
   1   0 -11   10.39    0.60
  -1   0  11   10.28    0.65
  -1   0  11   11.52    0.72
   1   0 -11   10.16    0.84
  -1   0  11   10.15    0.61
   1   0 -11   10.47    0.73
   0   0 -11    3.05    0.44
   0   0 -11    2.14    0.29
   0   0  11    2.20    0.42
   0   0  11    2.63    0.39
   0   0  11    3.02    0.44
   0   0 -11    2.50    0.30
   0   0 -11    2.30    0.40
   0   0 -11    2.41    0.32
   0   0  11    2.06    0.63
   0   0  11    1.99    0.53
   0   0 -11    1.59    0.39
   0   0 -11    2.50    0.39
   0   0 -11    2.78    0.46
   0   0  11    2.77    0.32
  -1   0 -11    0.10    0.36
   1   0  11   -0.06    0.20
  -1   0 -11    0.06    0.24
  -1   0 -11    0.14    0.19
  -1   0 -11    0.19    0.26
   1   0  11    0.34    0.48
  -1   0 -11    0.04    0.23
   1   0  11   -0.05    0.26
   1   0  11    0.07    0.34
  -1   0 -11    0.33    0.27
   2   0  11    4.25    0.57
  -2   0 -11    4.62    0.63
  -2   0 -11    4.83    0.48
  -2   0 -11    5.22    0.50
   2   0  11    4.72    0.57
  -2   0 -11    4.86    0.56
   2   0  11    4.72    0.43
   2   0  11    4.66    0.53
   2   0  11    4.86    0.69
   3   0  11    1.47    0.36
  -3   0 -11    0.53    0.37
   3   0  11    0.56    0.22
  -3   0 -11    0.96    0.24
   3   0  11    0.53    0.32
   3   0  11    0.99    0.42
  -3   0 -11    0.63    0.22
   3   0  11    0.49    0.29
  -3   0 -11    1.52    0.50
   3   0  11    0.18    0.13
  -3   0 -11    0.48    0.19
   3   0  11    0.07    0.34
  -4   0 -11    0.39    0.24
   4   0  11    1.32    0.37
   4   0  11    0.70    0.42
   4   0  11    1.15    0.32
  -4   0 -11    1.03    0.26
  -4   0 -11    1.31    0.34
  -4   0 -11    1.49    0.28
  -4   0 -11    1.08    0.49
   4   0  11    0.78    0.34
  -5   0 -11    5.28    0.74
   5   0  11    5.56    0.38
   5   0  11    5.04    0.59
  -5   0 -11    5.33    0.50
   5   0  11    6.22    0.50
   5   0  11    5.00    0.55
   5   0  11    4.68    0.51
  -6   0 -11    0.17    0.38
   6   0  11    0.16    0.30
  -9  -1  11    1.29    0.16
  -9  -1  11    1.22    0.30
  -9  -1  11    1.51    0.23
  -9   1  11    1.45    0.37
  -9   1  11    1.13    0.16
  -8  -1  11    1.63    0.38
  -8  -1  11    1.91    0.26
  -8  -1  11    1.29    0.21
   8   1 -11    1.17    0.22
  -8   1  11    1.43    0.22
  -8   1  11    1.15    0.36
   8   1 -11    1.26    0.24
  -7  -1  11    5.51    0.44
  -7  -1  11    5.20    0.63
  -7  -1  11    5.26    0.44
  -7  -1  11    6.10    0.44
   7   1 -11    5.02    0.41
   7   1 -11    6.87    0.65
   7   1 -11    5.31    0.49
   7   1 -11    5.59    0.50
  -7   1  11    5.67    0.45
   7   1 -11    5.72    0.52
  -7   1  11    5.26    0.63
  -7   1  11    5.63    0.44
  -6  -1  11    2.83    0.31
   6  -1 -11    2.08    0.30
  -6  -1  11    2.79    0.32
  -6  -1  11    2.71    0.32
   6  -1 -11    2.14    0.30
  -6  -1  11    2.04    0.41
   6   1 -11    2.37    0.32
  -6   1  11    2.71    0.31
   6   1 -11    3.08    0.37
   6   1 -11    4.42    0.99
  -6   1  11    2.54    0.40
  -6   1  11    2.21    0.29
   6   1 -11    2.43    0.36
  -6   1  11    1.99    0.57
   5  -1 -11    1.84    0.32
  -5  -1  11    1.90    0.39
   5  -1 -11    1.09    0.41
  -5  -1  11    2.04    0.32
   5  -1 -11    1.81    0.29
  -5  -1  11    1.74    0.27
   5   1 -11    1.88    0.34
  -5   1  11    0.96    0.27
  -5   1  11    1.96    0.59
   5   1 -11    1.96    0.52
  -5   1  11    1.64    0.29
   5   1 -11    1.79    0.31
   5   1 -11    2.29    0.30
   5   1 -11    1.54    0.29
  -5   1  11    1.56    0.29
  -4  -1  11    8.93    0.66
  -4  -1  11    8.87    0.64
  -4  -1  11    8.77    0.56
   4  -1 -11    9.43    0.59
   4  -1 -11    9.10    0.60
   4  -1 -11    9.14    0.72
   4  -1 -11    8.61    0.64
   4   1 -11    9.13    0.57
   4   1 -11   10.82    0.72
   4   1 -11    8.58    0.84
  -4   1  11    9.18    0.62
   4   1 -11    9.49    0.63
  -4   1  11    9.80    0.96
  -4   1  11    9.29    0.56
   3  -1 -11    6.98    0.56
   3  -1 -11    6.58    0.83
   3  -1 -11    6.45    0.57
   3  -1 -11    6.15    0.51
  -3  -1  11    6.36    0.83
   3  -1 -11    6.35    0.58
   3  -1 -11    5.66    0.52
   3  -1 -11    5.44    0.45
  -3  -1  11    5.89    0.50
  -3  -1  11    6.06    0.64
   3  -1 -11    4.98    0.64
  -3  -1  11    6.39    0.74
  -3  -1  11    5.66    0.66
  -3   1  11    7.24    0.55
  -3   1  11    7.64    0.89
   3   1 -11    6.24    0.54
   3   1 -11    5.95    0.53
  -3   1  11    7.77    0.93
  -3   1  11    6.43    0.55
   3   1 -11    5.98    0.80
   3   1 -11    6.25    0.49
  -3   1  11    7.25    0.49
   3   1 -11    6.30    0.47
   3   1 -11    6.80    0.55
   3   1 -11    6.51    0.69
  -2  -1  11   17.49    0.97
  -2  -1  11   17.09    0.83
   2  -1 -11   19.42    0.93
   2  -1 -11   17.38    0.95
   2  -1 -11   17.63    1.25
   2  -1 -11   17.01    1.09
   2  -1 -11   17.85    0.83
   2  -1 -11   19.49    0.87
  -2  -1  11   17.79    1.06
   2  -1 -11   18.78    0.98
   2  -1 -11   17.75    0.86
  -2  -1  11   18.66    1.17
  -2  -1  11   17.55    0.84
  -2  -1  11   22.20    1.16
   2   1 -11   17.06    0.92
  -2   1  11   16.50    1.18
  -2   1  11   18.13    0.88
   2   1 -11   15.81    1.21
  -2   1  11   19.78    1.06
   2   1 -11   17.51    0.85
   2   1 -11   17.93    1.06
  -2   1  11   18.42    1.15
  -2   1  11   18.02    0.86
   2   1 -11   19.56    0.90
  -2   1  11   19.51    0.95
   2   1 -11   17.91    0.87
   2   1 -11   17.43    0.84
   1  -1 -11    9.53    0.57
   1  -1 -11    9.87    0.61
   1  -1 -11    9.83    0.67
   1  -1 -11   10.23    0.55
  -1  -1  11    9.50    0.73
   1  -1 -11    9.64    0.60
  -1  -1  11    9.26    0.58
   1  -1 -11   10.57    0.68
  -1  -1  11    8.65    0.52
   1  -1 -11    9.08    0.70
  -1  -1  11    9.14    0.78
  -1  -1  11    9.16    0.71
   1   1 -11   10.01    0.81
  -1   1  11    9.75    0.93
   1   1 -11    9.70    0.60
   1   1 -11    9.30    0.56
  -1   1  11    9.18    1.09
   1   1 -11   10.35    0.62
  -1   1  11    9.07    0.67
  -1   1  11    9.77    0.60
   1   1 -11    8.46    0.83
  -1   1  11   11.80    1.05
   1   1 -11   10.39    0.63
  -1   1  11    9.54    0.57
   1   1 -11    9.88    0.69
   0  -1  11    0.97    0.28
   0  -1  11    1.04    0.73
   0  -1 -11    1.14    0.28
   0  -1 -11    0.98    0.28
   0  -1  11    0.89    0.38
   0  -1 -11    1.11    0.26
   0  -1 -11    0.93    0.24
   0  -1 -11    0.89    0.33
   0  -1  11    1.12    0.21
   0  -1  11    0.66    0.34
   0  -1 -11    1.34    0.33
   0  -1  11    1.75    0.29
   0  -1 -11    1.11    0.51
   0  -1  11    1.07    0.40
   0  -1 -11    0.99    0.40
   0   1  11    0.94    0.52
   0   1 -11    0.67    0.26
   0   1  11    0.96    0.65
   0   1 -11    0.70    0.30
   0   1  11    1.01    0.31
   0   1  11    1.28    0.31
   0   1 -11    1.45    0.28
   0   1  11    0.97    0.37
   0   1 -11    1.00    0.36
   0   1 -11    0.96    0.26
   0   1 -11    1.10    0.27
   0   1 -11    0.93    0.27
   0   1  11    1.13    0.26
  -1  -1 -11    7.11    0.64
   1  -1  11    8.60    1.45
  -1  -1 -11    8.14    0.56
   1  -1  11    6.83    0.53
   1  -1  11    7.47    0.68
  -1  -1 -11    7.11    0.56
   1  -1  11    6.37    0.50
  -1  -1 -11    6.61    0.54
   1  -1  11    6.71    0.71
  -1  -1 -11    6.72    0.51
  -1  -1 -11    7.56    0.51
   1  -1  11    6.10    0.53
   1  -1  11    6.78    0.66
   1   1  11    7.47    1.03
  -1   1 -11    7.23    0.53
  -1   1 -11    6.85    0.50
   1   1  11    6.75    0.46
   1   1  11    6.81    0.61
  -1   1 -11    6.73    0.63
   1   1  11    7.56    0.59
  -1   1 -11    7.27    0.74
   1   1  11    6.25    0.71
  -2  -1 -11   17.34    0.83
   2  -1  11   17.84    1.09
   2  -1  11   18.27    1.03
   2  -1  11   18.38    0.86
  -2  -1 -11   17.44    1.00
  -2  -1 -11   18.59    0.87
   2  -1  11   18.49    1.02
   2  -1  11   19.78    1.84
  -2  -1 -11   17.93    0.93
   2  -1  11   16.39    0.95
  -2   1 -11   18.42    0.86
   2   1  11   18.40    1.05
  -2   1 -11   18.67    1.07
   2   1  11   18.59    0.95
   2   1  11   18.23    0.97
   2   1  11   18.82    0.84
   3  -1  11    2.14    0.30
  -3  -1 -11    1.90    0.31
   3  -1  11    2.52    0.46
  -3  -1 -11    2.18    0.29
  -3  -1 -11    1.63    0.36
   3  -1  11    2.00    0.39
  -3  -1 -11    2.12    0.38
   3  -1  11    1.47    0.46
  -3  -1 -11    1.94    0.35
   3  -1  11    2.45    0.47
   3  -1  11    2.29    0.40
  -3  -1 -11    1.21    0.24
   3   1  11    1.82    0.37
  -3   1 -11    1.23    0.26
   3   1  11    1.42    0.38
   3   1  11    1.64    0.42
  -3   1 -11    1.59    0.48
   3   1  11    1.22    0.23
  -3   1 -11    1.10    0.23
   4  -1  11    0.52    0.35
   4  -1  11    1.05    0.41
  -4  -1 -11    1.42    0.39
   4  -1  11    1.10    0.44
  -4  -1 -11    1.79    0.33
   4  -1  11    2.11    0.32
   4  -1  11    1.76    0.37
  -4  -1 -11    0.77    0.39
   4   1  11    0.87    0.37
   4   1  11    2.19    0.39
   4   1  11    1.53    0.40
  -4   1 -11    1.29    0.40
   5  -1  11    0.53    0.33
   5  -1  11    0.40    0.33
   5  -1  11    1.25    0.27
  -5  -1 -11    0.84    0.32
   5  -1  11    0.21    0.34
  -5  -1 -11    1.02    0.24
   5   1  11    1.46    0.46
   5   1  11    1.56    0.29
   5   1  11    0.69    0.34
   5   1  11    0.78    0.33
  -5   1 -11    0.75    0.55
   5   1  11    0.55    0.21
  -6  -1 -11    6.09    0.62
   6  -1  11    5.20    0.44
   6  -1  11    5.31    0.57
  -6   1 -11    7.61    0.87
   6   1  11    5.88    0.45
  -9  -2  11    2.67    0.23
  -9  -2  11    3.45    0.33
  -8  -2  11    2.16    0.21
  -8  -2  11    1.86    0.37
  -8   2  11    2.15    0.28
   8   2 -11    1.54    0.40
  -8   2  11    2.08    0.36
   8   2 -11    2.34    0.35
  -7  -2  11    1.02    0.21
  -7  -2  11    1.42    0.38
  -7  -2  11    1.40    0.25
   7   2 -11    1.66    0.27
   7   2 -11    1.28    0.29
  -7   2  11    1.44    0.36
  -7   2  11    1.15    0.23
  -7   2  11    1.05    0.49
   7   2 -11    1.10    0.28
  -6  -2  11   17.44    0.82
  -6  -2  11   17.02    0.81
   6  -2 -11   18.53    0.83
  -6  -2  11   16.56    0.96
  -6  -2  11   17.92    0.84
   6   2 -11   17.86    0.90
   6   2 -11   17.75    0.92
  -6   2  11   18.76    0.82
   6   2 -11   17.89    0.91
  -6   2  11   18.12    0.94
   6   2 -11   17.69    0.83
  -6   2  11   17.33    0.81
   6   2 -11   17.49    0.90
  -6   2  11   17.93    1.15
  -5  -2  11    6.92    0.50
   5  -2 -11    6.35    0.70
  -5  -2  11    6.57    0.66
   5  -2 -11    5.77    0.52
  -5  -2  11    6.59    0.49
   5   2 -11    6.61    0.53
  -5   2  11    7.39    0.50
   5   2 -11    7.23    0.83
  -5   2  11    6.68    0.91
   5   2 -11    7.32    0.60
  -5   2  11    7.67    0.51
   5   2 -11    7.02    0.58
  -5   2  11    7.08    0.57
  -4  -2  11    5.61    0.47
  -4  -2  11    6.15    0.47
   4  -2 -11    6.13    0.54
  -4  -2  11    5.84    0.61
   4  -2 -11    5.67    0.61
  -4  -2  11    5.88    0.45
   4  -2 -11    6.75    0.70
  -4   2  11    6.80    0.79
   4   2 -11    6.43    0.59
   4   2 -11    5.46    0.55
  -4   2  11    6.20    0.47
   4   2 -11    5.51    0.54
  -4   2  11    6.89    0.58
  -4   2  11    5.67    0.92
   4   2 -11    6.10    0.78
   4   2 -11    7.10    0.56
  -4   2  11    5.24    0.46
  -3  -2  11   10.08    0.65
   3  -2 -11   10.11    0.73
   3  -2 -11   10.61    0.66
  -3  -2  11   11.14    0.82
   3  -2 -11    9.76    0.69
  -3  -2  11   10.13    0.58
  -3  -2  11    9.79    0.87
   3  -2 -11    8.42    0.55
  -3  -2  11   10.49    0.59
  -3  -2  11    9.58    0.78
  -3   2  11   10.16    0.59
  -3   2  11   11.57    0.64
   3   2 -11   10.18    0.65
   3   2 -11    9.98    0.64
   3   2 -11    9.99    0.67
  -3   2  11   10.77    0.58
   3   2 -11    9.84    0.65
   3   2 -11    9.70    0.64
  -3   2  11   10.86    1.01
  -2  -2  11    9.05    0.81
   2  -2 -11    9.12    0.54
   2  -2 -11    8.63    0.76
  -2  -2  11    8.20    0.53
  -2  -2  11   10.82    1.33
   2  -2 -11    9.37    0.64
   2  -2 -11    9.08    0.69
   2  -2 -11    8.27    0.53
  -2  -2  11    8.30    0.83
  -2  -2  11    8.73    0.77
   2  -2 -11    9.00    0.68
   2   2 -11    8.81    0.61
  -2   2  11    8.22    0.56
   2   2 -11    8.27    0.59
   2   2 -11    8.15    0.60
   2   2 -11    7.86    0.69
   2   2 -11    7.89    0.75
  -2   2  11    8.68    1.14
  -2   2  11    8.66    0.60
   2   2 -11    9.32    0.60
  -2   2  11    8.93    0.96
  -1  -2  11    7.12    0.61
   1  -2 -11    7.60    0.62
  -1  -2  11    7.64    0.74
  -1  -2  11    8.12    0.84
   1  -2 -11    8.68    0.67
   1  -2 -11    7.71    0.65
  -1  -2  11    8.62    1.23
   1  -2 -11    7.69    0.54
   1  -2 -11    8.55    0.60
   1  -2 -11    7.98    0.54
   1  -2 -11    8.18    0.73
  -1  -2  11    7.62    0.55
   1   2 -11    6.97    0.71
  -1   2  11    7.92    0.90
   1   2 -11    7.39    0.67
  -1   2  11    7.48    0.55
   1   2 -11    7.71    0.58
  -1   2  11    7.89    0.55
  -1   2  11    8.72    1.20
   1   2 -11    7.73    0.58
   1   2 -11    7.78    0.57
   1   2 -11    7.33    0.54
   0  -2  11   22.64    1.02
   0  -2  11   18.77    2.00
   0  -2  11   23.73    1.24
   0  -2 -11   24.07    1.25
   0  -2  11   22.19    1.05
   0  -2 -11   22.49    1.03
   0  -2 -11   21.90    1.05
   0  -2 -11   23.73    1.07
   0  -2 -11   22.27    1.18
   0  -2  11   23.46    1.23
   0  -2  11   23.27    1.30
   0  -2 -11   25.66    1.14
   0  -2 -11   22.86    1.09
   0   2  11   24.85    1.70
   0   2 -11   23.45    1.04
   0   2 -11   23.87    1.06
   0   2  11   22.61    1.07
   0   2  11   24.22    1.35
   0   2  11   24.77    1.17
   0   2 -11   23.45    1.21
   1  -2  11   18.63    1.16
  -1  -2 -11   19.59    0.95
  -1  -2 -11   20.15    1.15
  -1  -2 -11   20.29    1.05
  -1  -2 -11   20.21    0.98
   1  -2  11   21.69    1.75
   1  -2  11   19.28    1.11
  -1  -2 -11   19.84    0.90
   1  -2  11   18.52    1.08
   1  -2  11   18.23    0.92
  -1  -2 -11   19.85    0.97
  -1  -2 -11   19.11    0.95
   1  -2  11   18.90    0.91
  -1  -2 -11   20.07    0.93
   1  -2  11   17.56    1.25
   1   2  11   18.81    1.14
  -1   2 -11   19.50    0.91
  -1   2 -11   19.59    0.96
   1   2  11   19.81    0.96
  -1   2 -11   17.92    1.07
   1   2  11   18.87    0.87
  -1   2 -11   18.41    1.09
   1   2  11   16.08    1.03
   2  -2  11   11.16    0.85
  -2  -2 -11   12.17    0.66
   2  -2  11   10.74    0.69
   2  -2  11   11.42    0.77
  -2  -2 -11   11.41    0.73
   2  -2  11   11.54    0.68
  -2  -2 -11   12.05    0.71
   2  -2  11   12.08    0.63
   2  -2  11    9.00    1.30
  -2  -2 -11   11.85    0.64
   2  -2  11   10.39    1.51
   2  -2  11   10.61    0.86
   2   2  11   12.23    1.51
  -2   2 -11   11.64    0.69
  -2   2 -11   11.09    1.07
  -2   2 -11   12.18    0.65
   2   2  11   12.08    0.72
   2   2  11   11.69    0.75
   2   2  11   11.52    0.62
   3  -2  11    3.00    0.45
  -3  -2 -11    3.52    0.42
   3  -2  11    3.22    0.49
   3  -2  11    2.59    0.51
   3  -2  11    3.53    0.43
  -3  -2 -11    5.02    0.61
  -3  -2 -11    3.70    0.43
   3  -2  11    3.15    0.41
  -3  -2 -11    3.80    0.55
  -3  -2 -11    3.52    0.35
  -3  -2 -11    3.26    0.39
  -3   2 -11    2.92    0.49
   3   2  11    3.24    1.50
   3   2  11    3.44    0.38
  -3   2 -11    3.78    0.37
   3   2  11    3.72    0.52
  -3   2 -11    3.64    0.69
   3   2  11    3.34    0.55
  -3   2 -11    2.81    0.37
   3   2  11    3.56    0.51
   4  -2  11    1.10    0.37
   4  -2  11    1.32    0.42
   4  -2  11    0.64    0.40
  -4  -2 -11    1.14    0.34
  -4  -2 -11    1.20    0.21
  -4  -2 -11    0.75    0.29
   4  -2  11    1.02    0.35
   4  -2  11    0.91    0.33
  -4  -2 -11    1.40    0.39
   4   2  11    0.75    0.28
   4   2  11    1.23    0.35
   4   2  11    0.76    0.23
  -4   2 -11    1.25    0.62
  -4   2 -11    1.02    0.45
   4   2  11    1.07    0.33
   5  -2  11    1.45    0.33
   5  -2  11    1.65    0.29
   5  -2  11    1.94    0.35
   5  -2  11    1.97    0.33
  -5  -2 -11    2.00    0.51
  -5   2 -11    1.81    0.58
   5   2  11    1.39    0.30
   5   2  11    2.51    0.33
   5   2  11    1.44    0.27
   6  -2  11    2.24    0.30
   6  -2  11    2.13    0.26
  -8  -3  11    8.44    0.43
   8   3 -11    8.69    0.44
  -7  -3  11    2.02    0.33
   7   3 -11    2.22    0.37
   7   3 -11    1.38    0.26
   7   3 -11    1.33    0.21
  -7   3  11    1.84    0.49
   7   3 -11    2.53    0.33
  -7   3  11    2.01    0.33
  -6  -3  11   -0.27    0.27
  -6  -3  11    0.34    0.33
  -6  -3  11    0.02    0.20
  -6  -3  11   -0.14    0.07
   6  -3 -11   -0.18    0.21
   6   3 -11    0.09    0.26
   6   3 -11    0.32    0.29
  -6   3  11    0.08    0.33
   6   3 -11    0.01    0.29
   6   3 -11    0.12    0.24
  -6   3  11    0.63    0.53
  -5  -3  11   -0.14    0.22
   5  -3 -11   -0.33    0.34
  -5  -3  11    0.00    0.17
  -5  -3  11    0.52    0.17
   5  -3 -11    0.18    0.35
   5  -3 -11   -0.26    0.24
   5   3 -11   -0.03    0.26
   5   3 -11    0.06    0.27
   5   3 -11    0.08    0.32
  -5   3  11    0.39    0.49
   5   3 -11    0.16    0.29
  -5   3  11    0.09    0.06
  -5   3  11    0.37    0.54
   5   3 -11   -0.03    0.29
  -5   3  11   -0.20    0.28
   4  -3 -11    0.21    0.33
  -4  -3  11    0.60    0.26
   4  -3 -11    0.37    0.30
   4  -3 -11    0.93    0.41
  -4   3  11    0.51    0.30
   4   3 -11    0.70    0.25
   4   3 -11    0.35    0.29
   4   3 -11    0.23    0.26
  -4   3  11    1.26    0.54
  -4   3  11    1.35    0.51
   4   3 -11    0.34    0.29
  -4   3  11    1.08    0.58
   4   3 -11    0.18    0.31
   3  -3 -11    2.67    0.41
   3  -3 -11    2.30    0.33
   3  -3 -11    3.45    0.51
   3  -3 -11    3.65    0.63
  -3  -3  11    2.34    0.31
   3  -3 -11    2.00    0.26
   3  -3 -11    2.46    0.39
  -3  -3  11    2.07    0.25
   3  -3 -11    2.54    0.40
  -3  -3  11    2.90    0.36
  -3   3  11    3.52    0.81
   3   3 -11    1.96    0.49
  -3   3  11    3.03    0.45
   3   3 -11    2.15    0.33
   3   3 -11    2.20    0.35
   3   3 -11    2.46    0.33
   3   3 -11    2.79    0.42
   3   3 -11    2.53    0.45
  -3   3  11    2.49    0.60
   3   3 -11    3.24    0.46
   2  -3 -11   30.21    1.39
  -2  -3  11   28.67    1.30
   2  -3 -11   30.74    1.35
  -2  -3  11   30.78    1.45
  -2  -3  11   30.76    1.44
   2  -3 -11   28.03    1.23
  -2  -3  11   29.33    1.55
   2  -3 -11   30.69    1.32
  -2  -3  11   26.27    1.20
   2  -3 -11   29.20    1.27
   2  -3 -11   30.13    1.27
  -2  -3  11   29.38    1.27
   2  -3 -11   28.94    1.51
   2   3 -11   27.94    1.51
   2   3 -11   29.77    1.28
  -2   3  11   29.85    1.55
   2   3 -11   28.97    1.26
  -2   3  11   29.22    1.25
   2   3 -11   30.03    1.39
   2   3 -11   28.05    1.28
  -2   3  11   28.03    1.85
   2   3 -11   30.17    1.46
   2   3 -11   28.36    1.29
   1  -3 -11   25.39    1.19
   1  -3 -11   24.71    1.09
   1  -3 -11   25.39    1.22
  -1  -3  11   23.89    1.10
   1  -3 -11   24.09    1.15
   1  -3 -11   24.06    1.10
   1  -3 -11   23.88    1.06
  -1  -3  11   28.72    1.51
  -1  -3  11   23.53    1.35
  -1  -3  11   24.18    1.27
  -1  -3  11   23.27    1.15
   1  -3 -11   21.12    1.29
  -1  -3  11   26.90    1.93
  -1   3  11   24.90    1.08
  -1   3  11   23.60    1.38
   1   3 -11   23.36    1.29
  -1   3  11   23.27    1.72
   1   3 -11   23.95    1.05
   1   3 -11   23.23    1.05
   1   3 -11   23.91    1.31
   1   3 -11   22.80    1.22
  -1   3  11   23.26    1.08
   1   3 -11   23.20    1.10
   0  -3  11   22.40    1.07
   0  -3  11   21.90    1.25
   0  -3  11   22.65    1.12
   0  -3 -11   23.14    1.02
   0  -3  11   23.19    1.21
   0  -3 -11   23.66    1.19
   0  -3  11   21.26    1.01
   0  -3 -11   23.03    1.13
   0  -3 -11   23.44    1.15
   0  -3  11   23.21    1.33
   0  -3 -11   23.67    1.06
   0  -3 -11   22.09    1.27
   0  -3 -11   21.63    1.06
   0  -3 -11   20.21    1.06
   0  -3  11   24.03    1.85
   0   3  11   24.39    1.74
   0   3  11   24.47    1.03
   0   3 -11   21.72    1.03
   0   3  11   21.70    1.04
   0   3  11   22.05    1.29
   0   3 -11   24.17    1.24
   0   3 -11   21.75    1.20
  -1  -3 -11   14.64    0.82
   1  -3  11   13.82    1.03
  -1  -3 -11   15.31    0.93
   1  -3  11   15.13    0.86
   1  -3  11   16.42    0.96
  -1  -3 -11   14.45    0.75
   1  -3  11   13.77    0.85
   1  -3  11   13.63    0.81
  -1  -3 -11   14.31    1.37
  -1  -3 -11   15.50    0.78
  -1  -3 -11   14.07    0.80
   1  -3  11   14.56    0.79
  -1  -3 -11   14.50    0.83
   1  -3  11   14.66    1.07
  -1   3 -11   13.52    1.06
   1   3  11   15.25    0.73
  -1   3 -11   13.70    0.98
   1   3  11   14.15    0.78
   1   3  11   17.32    1.58
   2  -3  11    7.09    0.67
   2  -3  11    6.98    0.59
  -2  -3 -11    7.69    0.62
   2  -3  11    7.54    0.80
  -2  -3 -11    7.08    0.51
   2  -3  11    6.42    0.73
  -2  -3 -11    8.25    0.67
   2  -3  11    7.71    0.68
   2  -3  11    7.61    0.62
   2  -3  11    7.40    0.68
  -2  -3 -11    7.53    0.52
  -2   3 -11    7.11    0.79
   2   3  11    7.89    0.57
   2   3  11    8.93    1.32
   2   3  11    7.06    0.48
  -2   3 -11    7.74    0.42
   3  -3  11    1.68    0.32
   3  -3  11    1.69    0.39
   3  -3  11    1.58    0.39
   3  -3  11    1.44    0.35
   3  -3  11    2.17    0.50
  -3  -3 -11    2.02    0.36
  -3  -3 -11    1.82    0.25
   3  -3  11    1.84    0.38
   3   3  11    2.02    0.27
  -3   3 -11    2.43    0.49
   3   3  11    2.00    0.32
  -3   3 -11    1.59    0.52
  -4  -3 -11    1.76    0.34
   4  -3  11    1.80    0.48
   4  -3  11    1.43    0.34
   4  -3  11    1.77    0.34
  -4  -3 -11    2.29    0.35
   4  -3  11    1.61    0.32
  -4  -3 -11    1.81    0.20
   4   3  11    1.26    0.22
   4   3  11    1.84    0.31
  -4   3 -11    1.21    0.37
  -4   3 -11    1.54    0.48
   5  -3  11    8.24    0.50
   5  -3  11   10.27    0.58
   5  -3  11    8.32    0.55
  -5   3 -11    9.72    0.62
   5   3  11    8.30    0.56
  -7  -4  11    0.27    0.17
  -7   4  11    0.40    0.37
  -6  -4  11    3.81    0.33
  -6  -4  11    3.74    0.32
  -6  -4  11    3.38    0.31
  -6   4  11    4.54    0.74
   6   4 -11    3.60    0.36
   6   4 -11    3.97    0.33
   6   4 -11    4.00    0.38
  -5  -4  11   25.15    1.00
  -5  -4  11   23.62    1.03
   5  -4 -11   20.78    1.03
   5  -4 -11   23.31    1.04
   5  -4 -11   22.74    1.07
   5  -4 -11   23.58    1.14
   5   4 -11   24.63    1.10
   5   4 -11   24.62    1.03
  -5   4  11   24.76    1.31
   5   4 -11   25.75    1.05
  -4  -4  11    1.38    0.28
   4  -4 -11    1.43    0.35
   4  -4 -11    1.74    0.33
   4  -4 -11    0.95    0.41
   4  -4 -11    0.98    0.28
   4   4 -11    1.63    0.28
   4   4 -11    1.44    0.30
   4   4 -11    1.28    0.27
  -4   4  11    1.23    0.28
  -4   4  11    1.58    0.53
   3  -4 -11    1.96    0.40
   3  -4 -11    1.79    0.26
  -3  -4  11    2.11    0.34
   3  -4 -11    1.83    0.32
   3  -4 -11    1.86    0.46
   3  -4 -11    2.48    0.38
   3  -4 -11    2.31    0.33
  -3   4  11    2.47    0.32
   3   4 -11    1.98    0.43
   3   4 -11    2.00    0.31
   3   4 -11    1.92    0.31
  -3   4  11    2.19    0.58
  -2  -4  11    0.63    0.33
   2  -4 -11    0.74    0.43
  -2  -4  11    0.57    0.31
   2  -4 -11    0.42    0.22
   2  -4 -11    0.59    0.34
   2  -4 -11    0.70    0.29
   2  -4 -11    0.67    0.37
   2  -4 -11    0.47    0.37
   2   4 -11   -0.11    0.40
  -2   4  11    0.39    0.51
  -2   4  11    1.18    0.62
   2   4 -11    0.03    0.26
  -2   4  11    0.63    0.29
  -2   4  11    0.51    0.22
   2   4 -11    0.30    0.13
   1  -4 -11    3.05    0.42
   1  -4 -11    3.71    0.50
   1  -4 -11    3.40    0.49
  -1  -4  11    2.90    0.40
   1  -4 -11    3.73    0.46
   1  -4 -11    3.49    0.49
   1  -4 -11    3.25    0.42
  -1  -4  11    2.63    0.37
  -1   4  11    3.18    0.40
  -1   4  11    3.73    0.60
   1   4 -11    3.63    0.54
  -1   4  11    3.49    0.81
   1   4 -11    3.58    0.42
   0  -4  11   13.56    0.83
   0  -4 -11   14.10    0.79
   0  -4 -11   14.35    0.75
   0  -4 -11   14.39    0.82
   0  -4 -11   15.64    0.90
   0  -4 -11   10.89    1.01
   0  -4  11   14.66    0.79
   0  -4  11   14.41    0.85
   0  -4 -11   14.16    0.71
   0  -4  11   11.79    0.67
   0  -4  11   13.57    1.06
   0   4  11   13.15    0.70
   0   4 -11   15.51    0.99
   0   4 -11   13.49    0.88
   0   4  11   13.98    0.93
  -1  -4 -11    1.44    0.26
   1  -4  11    0.90    0.36
  -1  -4 -11    1.47    0.28
   1  -4  11    1.24    0.35
   1  -4  11    0.94    0.27
  -1  -4 -11    2.05    0.49
  -1  -4 -11    0.97    0.32
   1  -4  11    0.99    0.36
  -1  -4 -11    1.58    0.32
  -1   4 -11    0.98    0.42
  -1   4 -11    0.95    0.41
   1   4  11    0.98    0.26
   2  -4  11    0.43    0.31
  -2  -4 -11    0.53    0.30
  -2  -4 -11    1.17    0.28
   2  -4  11    0.66    0.31
   2  -4  11    0.32    0.27
  -2  -4 -11    0.76    0.22
   2   4  11    0.99    0.33
   2   4  11    0.88    0.22
  -2   4 -11    0.29    0.35
   3  -4  11    0.34    0.25
  -3  -4 -11    0.41    0.31
   3  -4  11    0.54    0.37
  -3  -4 -11    0.87    0.20
   3  -4  11    0.18    0.28
  -3   4 -11    0.73    0.31
   3   4  11    0.65    0.19
  -3   4 -11   -0.35    0.56
   3   4  11    0.90    0.26
   4  -4  11    0.02    0.25
   4  -4  11    0.08    0.19
   4  -4  11    0.34    0.29
  -4  -4 -11    0.38    0.30
   4   4  11    0.11    0.21
  -4   4 -11    0.20    0.55
  -6   5  11    1.80    0.32
  -5  -5  11    2.00    0.22
  -5  -5  11    2.82    0.24
  -5   5  11    4.12    0.60
   5   5 -11    3.07    0.27
  -4  -5  11    4.59    0.33
  -4  -5  11    4.16    0.34
   4  -5 -11    4.11    0.38
   4  -5 -11    4.39    0.45
   4   5 -11    4.70    0.40
  -4   5  11    4.93    0.66
   4   5 -11    5.07    0.36
   3  -5 -11    1.36    0.26
   3  -5 -11    0.43    0.34
  -3  -5  11    0.95    0.25
   3  -5 -11    1.74    0.33
   3  -5 -11    1.02    0.29
   3  -5 -11    1.44    0.21
   3   5 -11    1.22    0.30
  -3   5  11    1.53    0.46
   3   5 -11    1.47    0.25
   2  -5 -11    0.96    0.21
  -2  -5  11    0.83    0.23
   2  -5 -11    1.12    0.31
  -2  -5  11    0.64    0.26
   2  -5 -11    1.35    0.37
   2  -5 -11    1.13    0.27
   2  -5 -11    1.10    0.40
   2  -5 -11    1.11    0.33
   2   5 -11    1.01    0.31
  -2   5  11    0.64    0.42
   2   5 -11    0.73    0.35
  -2   5  11    1.21    0.22
   1  -5 -11    1.19    0.27
  -1  -5  11    0.89    0.32
   1  -5 -11    1.75    0.37
   1  -5 -11    0.95    0.22
   1  -5 -11    1.28    0.32
   1  -5 -11    0.57    0.38
   1  -5 -11    1.00    0.30
  -1  -5  11    1.62    0.32
   1   5 -11    1.21    0.37
  -1   5  11    0.89    0.22
  -1   5  11    0.51    0.40
   1   5 -11    1.66    0.42
  -1   5  11    1.10    0.20
   1   5 -11    1.01    0.19
   0  -5 -11   10.17    0.68
   0  -5  11    9.80    0.56
   0  -5 -11    9.50    0.52
   0  -5  11    8.60    0.62
   0  -5 -11    9.32    0.68
   0  -5 -11    9.82    0.55
   0  -5 -11   10.18    0.81
   0   5 -11   10.35    0.72
   0   5  11    9.45    0.51
   0   5 -11    8.58    0.80
   1  -5  11    1.25    0.29
   1  -5  11    1.02    0.25
  -1  -5 -11    1.18    0.19
  -1  -5 -11    1.41    0.22
  -1  -5 -11    1.21    0.27
   1   5  11    1.69    0.23
  -1   5 -11    1.53    0.34
  -1   5 -11    1.09    0.48
  -2  -5 -11    1.67    0.31
   2  -5  11    0.77    0.22
   2  -5  11    0.95    0.27
  -2  -5 -11    1.23    0.19
   2   5  11    1.27    0.21
  -2   5 -11    0.67    0.25
  -2   5 -11    1.04    0.42
   3  -5  11    0.94    0.17
   3   5  11    0.97    0.17
  -3   5 -11    0.73    0.27
   2   6 -11    2.02    0.25
   1   6 -11    3.55    0.29
   0   6 -11    1.77    0.21
  -9   0  12    2.27    0.30
  -9   0  12    1.56    0.42
  -8   0  12   22.65    1.45
   8   0 -12   27.79    1.11
  -8   0  12   28.50    1.09
  -7   0  12    4.95    0.44
  -7   0  12    4.81    0.63
   7   0 -12    6.32    0.49
  -7   0  12    5.33    0.43
  -7   0  12    5.77    0.40
   7   0 -12    5.70    0.48
   7   0 -12    5.23    0.60
  -6   0  12    0.56    0.35
  -6   0  12    0.83    0.24
   6   0 -12    0.57    0.28
  -6   0  12    0.55    0.42
  -6   0  12    0.54    0.31
   6   0 -12    0.39    0.23
   6   0 -12    0.49    0.27
   5   0 -12   20.90    0.96
   5   0 -12   20.81    1.25
   5   0 -12   20.94    1.00
  -5   0  12   19.91    0.97
  -5   0  12   21.52    0.94
  -5   0  12   21.60    1.04
  -5   0  12   20.71    0.96
   5   0 -12   20.52    0.98
   5   0 -12   21.20    0.98
  -5   0  12   21.89    1.27
  -4   0  12    3.75    0.68
   4   0 -12    3.44    0.44
  -4   0  12    3.76    0.41
   4   0 -12    3.13    0.61
   4   0 -12    4.20    0.54
   4   0 -12    3.52    0.48
  -4   0  12    3.24    0.48
  -4   0  12    3.97    0.45
   4   0 -12    4.35    0.42
  -3   0  12    2.92    0.47
  -3   0  12    3.12    0.35
   3   0 -12    2.75    0.39
   3   0 -12    2.58    0.36
   3   0 -12    3.52    0.55
   3   0 -12    3.19    0.46
  -3   0  12    3.44    0.44
  -3   0  12    2.36    0.49
  -3   0  12    3.13    0.67
   3   0 -12    2.76    0.41
   2   0 -12    4.46    0.53
   2   0 -12    5.97    0.58
  -2   0  12    4.38    0.60
   2   0 -12    4.21    0.57
   2   0 -12    4.47    0.60
  -2   0  12    4.37    0.52
  -2   0  12    4.57    0.71
   2   0 -12    4.19    0.44
  -2   0  12    4.56    0.57
  -2   0  12    3.49    0.49
  -2   0  12    4.20    0.71
  -1   0  12   13.49    0.85
   1   0 -12   12.81    0.72
  -1   0  12   13.49    0.94
   1   0 -12   13.31    0.82
  -1   0  12   14.13    1.10
  -1   0  12   13.63    0.78
   1   0 -12   13.58    0.88
   1   0 -12   13.93    0.74
   1   0 -12   14.32    0.78
  -1   0  12   13.56    0.75
   1   0 -12   14.66    0.73
  -1   0  12   15.33    0.75
   1   0 -12    9.91    1.25
   0   0 -12   10.82    0.65
   0   0 -12   10.74    0.76
   0   0 -12   11.32    0.67
   0   0 -12   10.76    0.78
   0   0 -12   11.64    0.65
   0   0  12   10.64    0.85
   0   0  12   11.00    0.72
   0   0 -12   11.13    0.68
   0   0  12   11.98    1.18
   0   0  12   11.27    0.66
   0   0  12   11.90    0.78
   0   0 -12   11.08    0.63
   1   0  12   -0.07    0.26
   1   0  12   -0.08    0.36
  -1   0 -12    0.09    0.11
   1   0  12   -0.19    0.39
   1   0  12    0.04    0.34
  -1   0 -12    0.12    0.33
  -1   0 -12    0.02    0.28
  -1   0 -12    0.13    0.25
  -1   0 -12   -0.06    0.25
  -1   0 -12    0.70    0.23
   2   0  12    6.21    0.63
  -2   0 -12    5.48    0.50
   2   0  12    5.08    0.64
   2   0  12    5.87    0.49
  -2   0 -12    5.32    0.48
   3   0  12    0.23    0.36
  -3   0 -12    0.16    0.42
  -3   0 -12    0.21    0.44
   3   0  12   -0.14    0.39
   3   0  12    0.25    0.12
  -3   0 -12    0.69    0.34
   3   0  12   -0.19    0.36
  -3   0 -12    0.20    0.23
   3   0  12    0.02    0.23
   4   0  12    0.54    0.37
   4   0  12    0.67    0.36
   4   0  12    0.49    0.15
   4   0  12    0.04    0.40
   4   0  12    0.59    0.24
  -5   0 -12    3.29    0.82
   5   0  12    2.97    0.33
   5   0  12    2.73    0.46
   5   0  12    1.73    0.35
  -9  -1  12    4.51    0.42
  -9  -1  12    4.36    0.25
  -9  -1  12    4.25    0.26
  -9   1  12    4.35    0.25
  -9   1  12    4.70    0.41
  -8  -1  12    4.88    0.37
  -8  -1  12    5.55    0.38
  -8  -1  12    5.35    0.56
  -8   1  12    5.05    0.57
   8   1 -12    5.08    0.40
   8   1 -12    5.49    0.37
  -8   1  12    4.75    0.36
  -7  -1  12    4.34    0.52
   7  -1 -12    4.89    0.42
  -7  -1  12    4.30    0.40
  -7  -1  12    4.75    0.39
  -7  -1  12    4.45    0.41
   7  -1 -12    4.72    0.41
  -7   1  12    4.30    0.60
   7   1 -12    4.26    0.46
  -7   1  12    4.83    0.41
   7   1 -12    4.12    0.46
  -7   1  12    4.34    0.41
   7   1 -12    4.21    0.49
   7   1 -12    4.32    0.39
  -6  -1  12    5.82    0.65
   6  -1 -12    5.28    0.50
  -6  -1  12    6.32    0.46
   6  -1 -12    6.86    0.49
  -6  -1  12    6.40    0.49
  -6  -1  12    5.83    0.50
  -6   1  12    5.86    0.50
  -6   1  12    6.31    0.61
  -6   1  12    5.72    0.83
   6   1 -12    6.72    0.56
   6   1 -12    6.36    0.55
  -6   1  12    6.53    0.48
   6   1 -12    7.10    0.56
  -5  -1  12   12.68    0.67
  -5  -1  12   13.28    0.71
   5  -1 -12   10.75    0.76
   5  -1 -12   13.20    0.72
  -5  -1  12   11.96    0.81
  -5  -1  12   12.54    0.71
   5   1 -12   13.06    0.70
   5   1 -12   12.97    0.76
  -5   1  12   13.62    0.71
   5   1 -12   12.69    0.73
   5   1 -12   13.23    1.00
  -5   1  12   12.65    0.75
  -5   1  12   13.13    0.69
  -5   1  12   13.61    1.06
   4  -1 -12    1.82    0.41
   4  -1 -12    1.24    0.30
   4  -1 -12    1.70    0.38
   4  -1 -12    1.52    0.35
  -4  -1  12    1.63    0.33
  -4  -1  12    1.77    0.30
   4  -1 -12    1.51    0.31
  -4  -1  12    1.50    0.38
   4  -1 -12    1.45    0.26
   4   1 -12    1.76    0.29
   4   1 -12    1.50    0.30
  -4   1  12    1.42    0.28
   4   1 -12    2.06    0.35
  -4   1  12    0.99    0.23
  -4   1  12    1.20    0.56
   4   1 -12    1.72    0.50
   4   1 -12    1.74    0.31
  -4   1  12    1.81    0.33
  -3  -1  12    0.37    0.33
  -3  -1  12    0.45    0.27
   3  -1 -12    0.21    0.28
  -3  -1  12    0.10    0.43
   3  -1 -12    0.50    0.27
  -3  -1  12    0.26    0.11
   3  -1 -12    0.28    0.27
   3  -1 -12    0.82    0.34
   3  -1 -12    0.86    0.32
  -3  -1  12    0.81    0.42
   3  -1 -12    0.37    0.27
  -3   1  12    0.97    0.62
   3   1 -12    0.42    0.28
  -3   1  12    0.62    0.45
   3   1 -12    0.44    0.26
  -3   1  12    0.35    0.30
   3   1 -12    0.71    0.30
  -3   1  12    1.07    0.28
   3   1 -12    0.49    0.26
   3   1 -12    0.64    0.30
  -3   1  12    0.07    0.30
  -2  -1  12    2.28    0.46
   2  -1 -12    2.69    0.58
   2  -1 -12    2.09    0.32
   2  -1 -12    2.99    0.42
   2  -1 -12    2.20    0.33
   2  -1 -12    2.48    0.41
   2  -1 -12    2.17    0.40
   2  -1 -12    2.25    0.38
  -2  -1  12    2.61    0.38
  -2  -1  12    2.46    0.45
   2  -1 -12    1.90    0.45
  -2  -1  12    2.05    0.49
   2   1 -12    2.49    0.33
   2   1 -12    2.24    0.30
  -2   1  12    2.49    0.36
  -2   1  12    3.28    0.46
   2   1 -12    2.36    0.48
  -2   1  12    2.37    0.63
  -2   1  12    2.88    0.42
   2   1 -12    2.26    0.34
   2   1 -12    1.59    0.36
  -2   1  12    2.26    0.34
  -2   1  12    2.31    0.50
   2   1 -12    1.73    0.29
  -1  -1  12    0.54    0.42
   1  -1 -12    0.81    0.29
   1  -1 -12    1.01    0.34
   1  -1 -12    0.52    0.31
  -1  -1  12    0.77    0.23
  -1  -1  12    0.91    0.42
   1  -1 -12    0.63    0.23
  -1  -1  12    0.34    0.36
   1  -1 -12    0.77    0.42
   1  -1 -12    1.06    0.22
   1  -1 -12    1.02    0.34
  -1  -1  12    0.38    0.27
   1  -1 -12    1.02    0.31
   1   1 -12    0.94    0.39
   1   1 -12    0.33    0.32
  -1   1  12    1.09    0.38
  -1   1  12    0.28    0.40
   1   1 -12    0.79    0.27
   1   1 -12    1.15    0.27
   1   1 -12    0.76    0.30
  -1   1  12    0.85    0.55
  -1   1  12    0.55    0.63
   1   1 -12    0.82    0.29
  -1   1  12    0.66    0.28
  -1   1  12    0.55    0.29
   0  -1 -12    2.75    0.50
   0  -1 -12    2.48    0.31
   0  -1  12    2.82    0.57
   0  -1 -12    2.65    0.34
   0  -1 -12    2.50    0.38
   0  -1  12    2.84    0.50
   0  -1 -12    2.60    0.35
   0  -1 -12    3.52    0.58
   0  -1  12    1.79    0.45
   0  -1  12    2.50    0.46
   0  -1 -12    2.60    0.31
   0   1 -12    2.64    0.32
   0   1 -12    2.58    0.46
   0   1 -12    3.04    0.45
   0   1  12    2.26    0.58
   0   1  12    2.14    0.33
   0   1  12    2.26    0.81
   0   1  12    2.21    0.33
   0   1  12    2.50    0.46
   0   1 -12    2.30    0.31
   0   1  12    2.72    0.44
  -1  -1 -12    2.64    0.34
  -1  -1 -12    2.64    0.33
   1  -1  12    2.61    0.52
   1  -1  12    2.45    0.44
   1  -1  12    2.47    0.34
  -1  -1 -12    2.15    0.42
  -1  -1 -12    3.53    0.35
  -1  -1 -12    3.10    0.47
   1  -1  12    2.56    0.29
   1  -1  12    1.61    0.29
  -1  -1 -12    2.68    0.36
   1  -1  12    3.33    0.51
  -1   1 -12    3.21    0.51
   1   1  12    2.57    0.42
  -1   1 -12    2.76    0.33
   1   1  12    2.96    0.39
   1   1  12    2.33    0.41
   1   1  12    3.05    1.08
   1   1  12    3.24    0.52
  -1   1 -12    2.35    0.48
  -1   1 -12    2.92    0.42
  -2  -1 -12   24.57    1.22
  -2  -1 -12   23.29    1.17
   2  -1  12   23.96    1.32
  -2  -1 -12   23.75    1.13
  -2  -1 -12   25.40    1.08
   2  -1  12   24.11    1.08
   2  -1  12   24.78    1.25
   2  -1  12   24.01    1.23
   2  -1  12   24.30    1.08
   2   1  12   23.47    1.16
  -2   1 -12   23.31    1.17
   2   1  12   24.59    1.07
   2   1  12   23.52    1.28
   2   1  12   24.41    1.80
  -2   1 -12   23.55    1.06
   2   1  12   23.59    1.19
  -2   1 -12   24.41    1.29
  -3  -1 -12    2.28    0.33
   3  -1  12    3.76    0.65
   3  -1  12    3.76    0.43
  -3  -1 -12    3.78    0.41
  -3  -1 -12    3.67    0.56
   3  -1  12    2.22    0.51
   3  -1  12    5.07    0.54
  -3  -1 -12    3.59    0.43
   3  -1  12    3.76    0.52
   3  -1  12    2.79    0.49
  -3  -1 -12    3.71    0.49
  -3   1 -12    4.56    0.60
   3   1  12    4.14    0.46
   3   1  12    3.74    0.63
  -3   1 -12    3.84    0.46
   3   1  12    2.06    0.88
   3   1  12    3.19    0.39
   3   1  12    3.37    0.44
   4  -1  12    2.60    0.37
   4  -1  12    2.63    0.46
   4  -1  12    2.07    0.33
   4  -1  12    1.81    0.42
  -4   1 -12    2.35    0.68
   4   1  12    2.32    0.33
  -4   1 -12    2.45    0.47
   4   1  12    2.06    0.37
   4   1  12    2.31    0.43
   4   1  12    2.37    0.38
   5  -1  12   -0.16    0.21
   5  -1  12   -0.06    0.22
   5  -1  12   -0.05    0.30
   5   1  12    0.13    0.18
   5   1  12    0.02    0.28
  -5   1 -12   -0.18    0.47
   6  -1  12    0.18    0.18
  -8  -2  12   -0.04    0.28
  -8  -2  12   -0.06    0.18
  -8  -2  12    0.22    0.16
  -8   2  12    0.29    0.30
  -8   2  12    0.34    0.20
   8   2 -12    0.21    0.18
  -7  -2  12    0.40    0.43
  -7  -2  12    0.07    0.20
  -7  -2  12    0.14    0.23
  -7   2  12   -0.53    0.33
  -7   2  12   -0.14    0.32
   7   2 -12    0.12    0.22
   7   2 -12    0.06    0.24
   7   2 -12    0.11    0.22
  -7   2  12    0.22    0.43
   7   2 -12    0.20    0.25
  -6  -2  12    2.44    0.28
  -6  -2  12    2.16    0.42
   6  -2 -12    2.06    0.28
  -6  -2  12    2.08    0.26
  -6  -2  12    1.73    0.26
   6  -2 -12    2.23    0.31
   6   2 -12    2.39    0.36
   6   2 -12    3.17    0.34
  -6   2  12    2.26    0.27
   6   2 -12    2.21    0.36
   6   2 -12    2.26    0.32
  -6   2  12    2.13    0.26
  -6   2  12    2.45    0.59
   6   2 -12    2.73    0.41
  -6   2  12    1.91    0.36
  -5  -2  12    2.83    0.43
  -5  -2  12    3.76    0.47
  -5  -2  12    3.85    0.49
   5  -2 -12    4.73    0.54
   5  -2 -12    3.21    0.56
   5  -2 -12    3.02    0.45
   5  -2 -12    3.26    0.49
   5   2 -12    3.14    0.49
  -5   2  12    2.77    1.11
  -5   2  12    3.25    0.42
   5   2 -12    3.28    0.43
   5   2 -12    3.39    0.65
   5   2 -12    3.49    0.38
  -5   2  12    3.81    0.44
   5   2 -12    3.20    0.41
   5   2 -12    2.27    0.37
  -5   2  12    3.89    0.75
  -4  -2  12   -0.02    0.24
   4  -2 -12   -0.14    0.40
  -4  -2  12    0.04    0.26
   4  -2 -12   -0.13    0.30
   4  -2 -12    0.07    0.44
  -4  -2  12   -0.01    0.09
  -4  -2  12   -0.11    0.30
   4  -2 -12    0.00    0.45
   4   2 -12   -0.43    0.26
   4   2 -12    0.27    0.41
  -4   2  12   -0.06    0.23
   4   2 -12    0.31    0.51
   4   2 -12    0.16    0.29
  -4   2  12    0.04    0.25
  -4   2  12    0.31    0.58
  -4   2  12    0.11    0.31
   4   2 -12   -0.11    0.27
   3  -2 -12    9.52    0.66
  -3  -2  12    9.41    0.62
  -3  -2  12    8.83    0.79
  -3  -2  12    9.59    0.80
   3  -2 -12    8.22    0.55
   3  -2 -12    9.44    0.70
  -3  -2  12    9.08    0.90
  -3  -2  12    8.96    0.57
   3  -2 -12    8.67    0.72
   3  -2 -12    8.62    0.62
   3  -2 -12    8.72    0.81
   3   2 -12    9.56    0.67
  -3   2  12    8.82    0.61
   3   2 -12    9.13    0.64
   3   2 -12    8.72    0.81
  -3   2  12    8.86    1.00
   3   2 -12    8.65    0.62
  -3   2  12    8.63    0.55
   3   2 -12    9.73    0.66
   3   2 -12    8.41    0.62
  -3   2  12    9.66    0.60
  -2  -2  12   79.93    3.12
   2  -2 -12   78.89    3.38
  -2  -2  12   80.96    3.40
  -2  -2  12   81.59    3.28
   2  -2 -12   80.24    3.15
   2  -2 -12   79.57    3.25
   2  -2 -12   79.62    3.17
   2  -2 -12   85.53    3.20
  -2  -2  12   81.85    3.30
   2  -2 -12   78.45    3.13
  -2  -2  12   81.79    3.16
   2   2 -12   83.91    3.15
  -2   2  12   78.60    3.15
  -2   2  12   78.40    3.38
   2   2 -12   74.86    3.17
   2   2 -12   82.07    3.16
  -2   2  12   83.37    3.65
   2   2 -12   81.51    3.18
   2   2 -12   79.53    3.25
   2   2 -12   79.13    3.42
  -2   2  12   83.95    3.18
   1  -2 -12    6.21    0.59
  -1  -2  12    5.46    0.73
  -1  -2  12    6.47    0.53
  -1  -2  12    6.02    0.85
   1  -2 -12    6.66    0.57
  -1  -2  12    5.83    0.63
   1  -2 -12    6.19    0.70
   1  -2 -12    6.06    0.50
   1  -2 -12    6.92    0.71
   1  -2 -12    7.28    0.66
  -1  -2  12    5.60    0.73
   1  -2 -12    5.80    0.60
   1   2 -12    6.31    0.53
   1   2 -12    6.70    0.56
  -1   2  12    6.11    0.54
   1   2 -12    6.14    0.72
  -1   2  12    5.73    0.51
  -1   2  12    6.37    0.95
   1   2 -12    5.64    0.54
  -1   2  12    6.73    0.99
   1   2 -12    5.81    0.65
   0  -2  12    9.25    1.63
   0  -2 -12    9.89    0.69
   0  -2  12    9.57    0.84
   0  -2  12    9.39    0.89
   0  -2 -12    9.86    0.78
   0  -2 -12    9.75    0.82
   0  -2 -12   10.55    0.74
   0  -2 -12   10.43    0.67
   0  -2  12    9.87    0.83
   0  -2 -12   10.81    0.62
   0  -2  12    9.37    0.63
   0  -2 -12   10.20    0.65
   0   2  12   11.35    1.37
   0   2 -12   10.02    0.64
   0   2 -12    9.74    0.61
   0   2  12    8.62    0.97
   0   2  12    9.92    0.61
   0   2 -12    8.76    0.75
   0   2  12    9.70    0.66
   0   2 -12    9.51    0.82
   0   2 -12    9.57    0.99
   1  -2  12   42.97    2.71
  -1  -2 -12   38.10    1.65
  -1  -2 -12   38.17    1.66
  -1  -2 -12   38.74    1.73
  -1  -2 -12   40.23    1.85
   1  -2  12   39.98    1.90
   1  -2  12   39.64    1.81
  -1  -2 -12   43.33    1.81
   1  -2  12   39.16    1.78
  -1  -2 -12   39.67    1.63
   1  -2  12   38.28    1.63
   1  -2  12   38.55    1.61
  -1  -2 -12   38.86    1.62
   1   2  12   38.05    1.68
   1   2  12   39.33    1.62
  -1   2 -12   38.55    1.84
  -1   2 -12   39.70    1.73
  -1   2 -12   39.03    1.62
  -1   2 -12   41.20    1.83
   1   2  12   39.87    2.27
  -2  -2 -12    9.74    0.67
   2  -2  12    9.65    0.63
  -2  -2 -12    9.27    0.66
  -2  -2 -12    9.89    0.72
   2  -2  12    9.49    0.62
  -2  -2 -12   10.14    0.74
   2  -2  12   10.17    0.79
   2  -2  12    8.99    0.84
  -2  -2 -12    9.90    0.59
   2  -2  12   13.82    2.45
  -2  -2 -12    8.75    0.54
   2  -2  12    9.02    0.78
   2   2  12    9.40    0.57
  -2   2 -12   10.22    0.67
   2   2  12   12.48    1.84
   2   2  12    9.53    0.67
   2   2  12    9.80    0.72
  -2   2 -12   10.21    0.87
  -2   2 -12   10.99    0.70
  -2   2 -12    9.41    0.93
   2   2  12   10.53    0.76
  -2   2 -12    8.88    0.59
   3  -2  12    1.07    0.28
  -3  -2 -12    1.51    0.36
  -3  -2 -12    1.19    0.43
   3  -2  12    1.43    0.35
  -3  -2 -12    1.61    0.27
  -3  -2 -12    2.41    0.40
   3  -2  12    1.76    0.45
   3  -2  12    1.79    0.59
   3  -2  12    1.09    0.43
   3  -2  12    1.47    0.35
   3   2  12    1.52    0.38
   3   2  12    0.90    0.23
   3   2  12    1.60    0.40
  -3   2 -12    1.79    0.57
   3   2  12    2.12    0.36
  -3   2 -12    1.14    0.47
  -4  -2 -12    1.75    0.33
   4  -2  12    1.20    0.37
   4  -2  12    0.63    0.44
   4  -2  12    1.05    0.31
   4   2  12    1.35    0.32
   4   2  12    0.79    0.21
  -4   2 -12    1.76    0.59
   4   2  12    1.29    0.30
  -4   2 -12    1.00    0.41
   5  -2  12    0.76    0.26
   5  -2  12    0.64    0.26
   5  -2  12    0.32    0.38
  -5   2 -12    0.81    0.48
  -5   2 -12    0.29    0.28
   5   2  12    1.12    0.21
  -8  -3  12    2.28    0.22
  -7  -3  12    2.88    0.35
  -7  -3  12    2.51    0.31
  -7   3  12    2.76    0.50
  -7   3  12    3.26    0.47
   7   3 -12    2.92    0.43
   7   3 -12    3.17    0.27
  -6  -3  12    1.29    0.24
   6  -3 -12    1.10    0.23
   6  -3 -12    0.89    0.26
  -6  -3  12    2.17    0.32
  -6  -3  12    1.85    0.19
   6   3 -12    1.58    0.32
   6   3 -12    1.51    0.28
  -6   3  12    1.81    0.54
   6   3 -12    1.33    0.29
   6   3 -12    1.24    0.25
  -6   3  12    1.80    0.36
   5  -3 -12    2.33    0.34
  -5  -3  12    1.95    0.23
   5  -3 -12    2.35    0.40
  -5  -3  12    2.12    0.22
  -5  -3  12    2.40    0.26
   5  -3 -12    1.88    0.31
   5   3 -12    1.91    0.34
   5   3 -12    1.56    0.28
  -5   3  12    2.51    0.59
  -5   3  12    1.69    0.31
   5   3 -12    1.54    0.29
   5   3 -12    2.37    0.36
   5   3 -12    1.97    0.34
   4  -3 -12    0.21    0.33
  -4  -3  12    0.29    0.19
   4  -3 -12    0.35    0.30
   4  -3 -12   -0.14    0.25
  -4  -3  12    0.61    0.26
  -4  -3  12    0.79    0.20
   4  -3 -12    0.38    0.33
   4   3 -12    0.07    0.31
   4   3 -12    0.15    0.26
  -4   3  12    0.14    0.06
   4   3 -12   -0.07    0.27
  -4   3  12    1.25    0.48
  -4   3  12    0.09    0.07
   4   3 -12   -0.06    0.23
  -4   3  12    0.11    0.30
   4   3 -12    0.08    0.27
  -4   3  12    0.53    0.57
   3  -3 -12   12.52    0.85
   3  -3 -12   12.99    0.91
   3  -3 -12   13.79    0.77
  -3  -3  12   11.82    0.61
   3  -3 -12   12.69    0.80
   3  -3 -12   12.51    0.64
   3  -3 -12   13.54    0.76
  -3  -3  12   11.98    0.61
  -3  -3  12   13.22    0.69
   3   3 -12   13.15    0.88
   3   3 -12   13.20    0.82
   3   3 -12   12.19    0.67
   3   3 -12   12.49    0.73
  -3   3  12   10.98    0.91
   3   3 -12   11.81    0.90
  -3   3  12   11.43    1.18
   3   3 -12   12.56    0.73
   2  -3 -12   10.96    0.75
  -2  -3  12   10.46    0.84
  -2  -3  12    9.38    0.93
   2  -3 -12    9.69    0.77
   2  -3 -12    9.92    0.62
   2  -3 -12    6.96    0.80
   2  -3 -12   10.43    0.65
  -2  -3  12   10.49    0.84
   2  -3 -12    9.72    0.70
  -2  -3  12    9.64    0.68
  -2  -3  12    9.93    0.62
   2  -3 -12    9.16    0.58
   2   3 -12    9.48    0.61
  -2   3  12   10.09    0.58
   2   3 -12    9.69    0.65
   2   3 -12    9.20    0.60
   2   3 -12    9.70    0.74
   2   3 -12    9.05    0.58
  -2   3  12   11.87    1.26
  -2   3  12    9.65    0.98
   2   3 -12    8.98    0.61
  -1  -3  12    0.70    0.52
   1  -3 -12    0.36    0.33
  -1  -3  12    0.80    0.33
   1  -3 -12    1.00    0.42
  -1  -3  12    0.02    0.40
   1  -3 -12    0.97    0.32
  -1  -3  12    0.25    0.35
  -1  -3  12    0.60    0.41
   1  -3 -12    0.58    0.30
   1  -3 -12    0.59    0.37
   1  -3 -12    0.18    0.75
  -1  -3  12    0.20    1.04
   1  -3 -12    0.74    0.25
   1   3 -12    0.79    0.42
  -1   3  12    0.90    0.29
  -1   3  12    0.81    0.32
   1   3 -12    0.61    0.27
  -1   3  12    1.99    0.76
   1   3 -12    1.10    0.45
  -1   3  12    0.66    0.56
   1   3 -12    1.10    0.22
   1   3 -12    0.58    0.40
   1   3 -12    0.61    0.30
   0  -3 -12   28.62    1.28
   0  -3 -12   28.40    1.37
   0  -3  12   27.09    1.44
   0  -3  12   31.42    2.23
   0  -3 -12   25.68    1.43
   0  -3  12   31.41    1.42
   0  -3  12   27.68    1.48
   0  -3 -12   26.95    1.24
   0  -3  12   27.56    1.39
   0  -3  12   27.33    1.23
   0  -3 -12   25.87    1.36
   0  -3 -12   29.07    1.24
   0  -3 -12   28.13    1.29
   0   3 -12   27.90    1.24
   0   3 -12   24.90    1.35
   0   3  12   27.74    1.44
   0   3  12   29.85    1.98
   0   3 -12   26.76    1.38
   0   3 -12   30.95    1.47
   0   3  12   28.70    1.22
  -1  -3 -12   19.79    0.92
   1  -3  12   19.53    0.95
   1  -3  12   19.06    1.06
  -1  -3 -12   19.25    0.95
   1  -3  12   19.24    0.91
   1  -3  12   19.19    1.12
   1  -3  12   19.74    1.01
  -1  -3 -12   20.62    1.07
  -1  -3 -12   20.36    0.91
  -1  -3 -12   19.85    0.97
   1  -3  12   19.13    1.18
   1   3  12   21.75    1.71
   1   3  12   18.50    0.94
  -1   3 -12   18.92    1.12
   1   3  12   20.12    0.91
   2  -3  12    2.98    0.54
   2  -3  12    3.29    0.42
  -2  -3 -12    4.53    0.57
  -2  -3 -12    3.19    0.38
  -2  -3 -12    3.08    0.39
   2  -3  12    3.27    0.48
   2  -3  12    2.94    0.40
   2  -3  12    2.62    0.43
   2  -3  12    2.44    0.33
  -2   3 -12    3.02    0.53
  -2   3 -12    2.91    0.50
   2   3  12    2.49    0.33
   2   3  12    3.13    0.36
   3  -3  12   -0.15    0.29
   3  -3  12    0.47    0.31
  -3  -3 -12    0.04    0.29
   3  -3  12    0.33    0.27
   3  -3  12    0.46    0.34
  -3  -3 -12    0.61    0.24
   3   3  12    0.44    0.32
   3   3  12    0.21    0.21
  -3   3 -12    0.31    0.37
  -3   3 -12    0.19    0.35
  -3   3 -12    0.37    0.43
   4  -3  12    2.51    0.31
  -4  -3 -12    2.15    0.31
   4  -3  12    1.93    0.25
   4  -3  12    2.53    0.32
   4   3  12    2.73    0.31
  -4   3 -12    2.28    0.31
   4   3  12    2.55    0.29
  -4   3 -12    2.31    0.51
   5  -3  12    2.57    0.25
  -7  -4  12    0.21    0.11
  -7   4  12    0.56    0.36
  -6  -4  12   -0.10    0.16
   6   4 -12    0.51    0.22
   6   4 -12    0.05    0.18
  -6   4  12   -0.04    0.44
   5  -4 -12    2.35    0.32
  -5   4  12    4.01    0.81
  -5   4  12    3.62    0.44
   5   4 -12    3.38    0.39
   5   4 -12    2.81    0.33
   5   4 -12    4.10    0.42
   4  -4 -12    0.85    0.27
  -4  -4  12    0.71    0.23
   4  -4 -12    0.07    0.32
   4  -4 -12    0.97    0.29
   4  -4 -12    0.89    0.31
   4   4 -12    1.11    0.21
  -4   4  12    0.75    0.27
   4   4 -12    0.58    0.23
  -4   4  12    1.24    0.55
   4   4 -12    0.71    0.27
   3  -4 -12    3.44    0.48
   3  -4 -12    2.96    0.34
   3  -4 -12    3.11    0.39
   3  -4 -12    3.07    0.41
   3  -4 -12    3.44    0.45
  -3  -4  12    3.35    0.42
  -3   4  12    3.51    0.62
   3   4 -12    5.02    0.64
  -3   4  12    3.18    0.43
   3   4 -12    3.01    0.39
   3   4 -12    2.89    0.38
   2  -4 -12    2.50    0.44
   2  -4 -12    2.84    0.44
   2  -4 -12    2.16    0.28
  -2  -4  12    1.95    0.31
   2  -4 -12    2.16    0.37
   2  -4 -12    1.81    0.42
   2  -4 -12    2.74    0.34
  -2   4  12    2.70    0.31
  -2   4  12    2.03    0.53
  -2   4  12    2.88    0.43
   2   4 -12    2.24    0.30
   2   4 -12    2.12    0.47
   1  -4 -12    3.51    0.47
   1  -4 -12    3.51    0.42
  -1  -4  12    3.31    0.38
   1  -4 -12    3.72    0.40
  -1  -4  12    2.68    0.37
   1  -4 -12    3.56    0.45
   1  -4 -12    4.09    0.49
   1  -4 -12    3.59    0.48
  -1   4  12    3.10    0.57
  -1   4  12    3.67    0.39
   1   4 -12    4.30    0.66
   1   4 -12    3.41    0.34
   0  -4 -12    0.13    0.31
   0  -4  12    0.15    0.32
   0  -4  12    0.13    0.26
   0  -4 -12    0.32    0.37
   0  -4 -12    0.34    0.28
   0  -4 -12    0.53    0.23
   0  -4 -12    0.26    0.30
   0  -4 -12    0.60    0.27
   0   4 -12    0.46    0.40
   0   4  12    0.43    0.37
   0   4  12    0.34    0.24
  -1  -4 -12    1.30    0.24
  -1  -4 -12    1.42    0.30
   1  -4  12    1.10    0.34
  -1  -4 -12    1.16    0.25
  -1  -4 -12    1.28    0.31
   1  -4  12    1.09    0.33
  -1   4 -12    0.93    0.39
   1   4  12    1.61    0.28
  -2  -4 -12    1.71    0.22
   2  -4  12    1.36    0.33
   2  -4  12    2.75    0.37
   2  -4  12    1.66    0.21
  -2   4 -12    1.72    0.37
   2   4  12    2.02    0.29
   3  -4  12    5.97    0.42
   3  -4  12    6.09    0.48
  -3  -4 -12    6.64    0.45
  -3  -4 -12    5.98    0.45
  -3   4 -12    6.14    0.48
  -3   4 -12    4.40    0.70
   3   4  12    6.73    0.44
   4  -4  12    0.75    0.16
  -5  -5  12    5.86    0.31
  -5   5  12    6.20    0.56
   4  -5 -12    1.10    0.24
   4  -5 -12    0.55    0.20
  -4  -5  12    1.14    0.19
  -4  -5  12    1.27    0.19
   4   5 -12    1.20    0.19
  -4   5  12    1.61    0.41
   3  -5 -12    0.48    0.22
   3  -5 -12    1.12    0.28
  -3  -5  12    0.84    0.21
   3   5 -12    0.74    0.21
   3   5 -12    0.82    0.27
  -3   5  12    0.77    0.38
   2  -5 -12    1.84    0.36
  -2  -5  12    1.54    0.24
   2  -5 -12    1.62    0.46
   2  -5 -12    1.77    0.27
   2  -5 -12    1.86    0.23
  -2  -5  12    1.93    0.21
  -2   5  12    1.95    0.30
   2   5 -12    1.58    0.34
  -2   5  12    1.67    0.43
   2   5 -12    1.96    0.22
  -1  -5  12    1.80    0.26
   1  -5 -12    2.48    0.32
   1  -5 -12    3.39    0.46
  -1  -5  12    1.93    0.27
   1  -5 -12    2.28    0.31
   1  -5 -12    2.90    0.38
   1   5 -12    2.04    0.36
  -1   5  12    1.85    0.30
   0  -5 -12    7.59    0.55
   0  -5  12    7.02    0.49
   0  -5 -12    5.99    0.49
   0  -5 -12    7.36    0.43
   0  -5 -12    7.63    0.43
   0  -5  12    7.10    0.44
   0   5 -12    7.60    0.58
   0   5 -12    6.75    0.66
   0   5  12    7.54    0.41
   0   5  12    7.13    0.39
   1  -5  12    2.36    0.35
  -1  -5 -12    1.50    0.18
   1  -5  12    1.07    0.24
   1   5  12    1.63    0.21
  -1   5 -12    1.63    0.39
  -1   5 -12    1.29    0.27
   2  -5  12    1.43    0.19
  -2  -5 -12    1.63    0.19
  -2   5 -12    2.19    0.38
   2   5  12    1.36    0.17
  -2   5 -12    1.09    0.20
   2   5  12    1.47    0.17
  -9   0  13    2.51    0.33
  -9   0  13    2.45    0.19
  -8   0  13    2.23    0.29
  -8   0  13    2.23    0.22
  -8   0  13    1.58    0.34
  -7   0  13    1.50    0.26
   7   0 -13    1.44    0.29
   7   0 -13    1.22    0.28
  -7   0  13    1.40    0.23
  -7   0  13    1.53    0.24
  -7   0  13    1.09    0.39
   7   0 -13    1.08    0.26
   7   0 -13    1.77    0.27
  -6   0  13    4.52    0.46
   6   0 -13    4.99    0.51
  -6   0  13    3.88    0.61
   6   0 -13    5.02    0.50
   6   0 -13    4.76    0.51
  -6   0  13    5.24    0.46
  -5   0  13    0.17    0.89
  -5   0  13    0.12    0.24
   5   0 -13   -0.09    0.28
  -5   0  13    0.19    0.27
   5   0 -13    1.44    0.38
   5   0 -13    0.18    0.27
  -5   0  13   -0.02    0.33
  -4   0  13    6.62    0.97
   4   0 -13    6.21    0.57
   4   0 -13    6.53    0.56
  -4   0  13    6.21    0.59
   4   0 -13    6.41    0.70
  -4   0  13    6.23    0.56
   4   0 -13    7.65    0.61
   4   0 -13    6.50    0.53
  -4   0  13    6.53    0.51
   4   0 -13    5.91    0.50
   3   0 -13    3.44    0.46
   3   0 -13    3.20    0.56
  -3   0  13    4.18    0.47
   3   0 -13    3.74    0.53
  -3   0  13    3.85    0.51
  -3   0  13    4.50    0.55
  -3   0  13    4.02    0.70
   3   0 -13    3.47    0.52
   3   0 -13    3.41    0.43
   3   0 -13    3.69    0.46
  -3   0  13    4.01    0.66
   2   0 -13    2.17    0.30
   2   0 -13    2.82    0.54
  -2   0  13    2.05    0.54
  -2   0  13    1.50    0.37
   2   0 -13    1.50    0.38
   2   0 -13    1.59    0.31
  -2   0  13    1.63    0.60
   2   0 -13    1.93    0.32
  -2   0  13    2.52    0.32
  -2   0  13    1.31    0.63
   2   0 -13    1.57    0.34
  -1   0  13    3.77    0.44
   1   0 -13    3.27    0.59
   1   0 -13    3.61    0.52
  -1   0  13    3.64    0.41
  -1   0  13    3.33    0.56
   1   0 -13    3.14    0.53
   1   0 -13    2.94    0.40
   1   0 -13    2.67    0.45
  -1   0  13    2.73    0.39
   1   0 -13    3.04    0.33
  -1   0  13    2.87    0.45
  -1   0  13    2.55    0.67
   1   0 -13    3.35    0.47
   0   0  13    5.09    0.75
   0   0 -13    4.31    0.65
   0   0 -13    4.41    0.52
   0   0 -13    5.47    0.53
   0   0  13    4.47    0.51
   0   0 -13    5.46    0.49
   0   0  13    5.36    0.64
   0   0  13    4.73    0.65
  -1   0 -13    4.04    0.46
  -1   0 -13    4.07    0.45
   1   0  13    4.23    0.48
   1   0  13    4.51    0.59
   1   0  13    4.08    0.97
  -1   0 -13    5.30    0.76
   1   0  13    4.42    0.62
  -1   0 -13    4.78    0.49
   1   0  13    4.42    0.70
  -2   0 -13   14.23    0.71
   2   0  13   13.27    0.87
   2   0  13   13.75    0.96
   2   0  13   14.68    0.74
  -2   0 -13   13.32    0.91
   2   0  13   14.72    0.88
  -2   0 -13   13.38    0.83
   2   0  13   11.12    1.67
  -3   0 -13    1.51    0.46
   3   0  13    0.69    0.26
  -3   0 -13    0.78    0.24
   3   0  13    0.96    0.39
   3   0  13    0.72    0.38
   3   0  13    0.84    0.42
   4   0  13    0.62    0.33
   4   0  13    0.08    0.21
   4   0  13   -0.17    0.34
   4   0  13   -0.09    0.30
  -5   0 -13    0.08    0.66
   5   0  13    0.15    0.24
  -9  -1  13    4.62    0.32
  -8  -1  13    0.61    0.20
  -8  -1  13    0.49    0.30
  -8  -1  13    0.55    0.18
  -8   1  13    0.54    0.18
   8   1 -13    0.34    0.18
  -8   1  13    0.35    0.30
  -7  -1  13    4.23    0.37
  -7  -1  13    4.65    0.39
   7  -1 -13    4.01    0.48
  -7  -1  13    3.99    0.59
  -7  -1  13    4.25    0.39
   7  -1 -13    4.31    0.39
  -7   1  13    4.65    0.38
   7   1 -13    4.78    0.45
   7   1 -13    4.74    0.47
  -7   1  13    4.45    0.58
   7   1 -13    4.97    0.47
  -7   1  13    4.74    0.39
   7   1 -13    4.91    0.45
   7   1 -13    4.91    0.39
  -6  -1  13    2.62    0.32
  -6  -1  13    3.03    0.37
  -6  -1  13    2.78    0.44
   6  -1 -13    3.20    0.41
  -6  -1  13    2.67    0.31
   6  -1 -13    3.17    0.46
   6  -1 -13    3.20    0.42
  -6   1  13    2.99    0.40
   6   1 -13    3.28    0.38
   6   1 -13    3.11    0.39
  -6   1  13    3.02    0.32
   6   1 -13    2.95    0.34
  -6   1  13    2.61    0.40
  -6   1  13    2.42    0.58
   5  -1 -13   16.93    0.84
  -5  -1  13   17.51    0.97
  -5  -1  13   14.17    0.88
  -5  -1  13   18.30    0.83
   5  -1 -13   15.98    0.86
   5  -1 -13   15.38    0.83
  -5   1  13   18.17    0.99
   5   1 -13   16.69    0.82
  -5   1  13   17.48    1.25
  -5   1  13   16.17    0.90
   5   1 -13   16.69    0.88
   5   1 -13   16.65    1.12
   5   1 -13   17.14    0.87
   5   1 -13   16.70    0.86
   4  -1 -13   35.29    1.66
  -4  -1  13   35.21    1.56
  -4  -1  13   36.82    1.51
   4  -1 -13   34.72    1.48
  -4  -1  13   35.78    1.58
   4  -1 -13   36.91    1.56
   4  -1 -13   34.41    1.52
   4   1 -13   38.12    1.53
  -4   1  13   36.46    1.82
  -4   1  13   37.87    1.51
   4   1 -13   37.39    1.57
   4   1 -13   36.23    1.53
   4   1 -13   35.51    1.82
  -4   1  13   36.17    1.53
  -3  -1  13    4.80    0.48
   3  -1 -13    4.49    0.55
   3  -1 -13    4.30    0.61
   3  -1 -13    4.63    0.67
   3  -1 -13    4.56    0.45
  -3  -1  13    4.76    0.64
  -3  -1  13    4.49    0.57
   3  -1 -13    4.81    0.51
   3  -1 -13    5.05    0.60
   3  -1 -13    4.92    0.51
  -3  -1  13    5.69    0.51
  -3  -1  13    4.77    0.84
   3   1 -13    4.20    0.65
  -3   1  13    4.06    0.47
  -3   1  13    4.95    0.53
   3   1 -13    4.87    0.60
   3   1 -13    4.62    0.54
   3   1 -13    4.90    0.56
   3   1 -13    4.74    0.49
  -3   1  13    4.74    0.56
  -3   1  13    4.98    0.74
   3   1 -13    5.12    0.51
  -2  -1  13   16.49    0.82
   2  -1 -13   16.23    0.83
   2  -1 -13   16.60    0.97
   2  -1 -13   17.88    0.93
   2  -1 -13   16.40    1.03
  -2  -1  13   17.01    1.05
   2  -1 -13   16.55    0.86
  -2  -1  13   16.25    0.99
   2  -1 -13   16.27    0.95
   2  -1 -13   17.00    0.88
  -2  -1  13   17.35    1.15
  -2   1  13   17.09    1.21
   2   1 -13   16.05    0.83
  -2   1  13   18.36    1.03
   2   1 -13   16.60    0.87
   2   1 -13   15.91    0.97
   2   1 -13   16.58    1.05
  -2   1  13   16.36    0.89
   2   1 -13   15.44    0.85
   2   1 -13   17.01    0.90
  -2   1  13   17.30    0.91
  -2   1  13   18.42    1.14
  -2   1  13   18.13    0.85
   1  -1 -13    5.26    0.57
   1  -1 -13    4.28    0.49
   1  -1 -13    4.94    0.59
   1  -1 -13    5.13    0.67
  -1  -1  13    3.26    0.49
  -1  -1  13    4.87    0.45
  -1  -1  13    4.06    0.41
   1  -1 -13    4.08    0.59
  -1  -1  13    3.66    0.58
   1  -1 -13    4.36    0.52
  -1  -1  13    4.27    0.51
   1   1 -13    4.39    0.51
  -1   1  13    4.04    0.53
  -1   1  13    5.52    0.69
  -1   1  13    4.13    0.70
   1   1 -13    4.00    0.48
  -1   1  13    4.77    0.53
  -1   1  13    3.92    0.53
   1   1 -13    3.75    0.50
   1   1 -13    4.04    0.51
   1   1 -13    3.83    0.57
   1   1 -13    4.73    0.53
   0  -1 -13    1.59    0.31
   0  -1 -13    1.35    0.42
   0  -1  13    1.25    0.46
   0  -1 -13    1.85    0.30
   0  -1  13    1.78    0.35
   0  -1 -13    2.61    0.53
   0  -1  13    1.04    0.45
   0  -1 -13    1.27    0.33
   0  -1 -13    1.42    0.30
   0  -1 -13    1.75    0.34
   0  -1  13    1.02    0.49
   0   1  13    1.62    0.48
   0   1 -13    1.49    0.30
   0   1  13    1.18    0.32
   0   1 -13    1.18    0.29
   0   1 -13    1.78    0.40
   0   1 -13    1.62    0.44
   0   1  13    1.20    0.60
   0   1  13    1.06    0.80
   0   1 -13    1.56    0.29
   0   1  13    1.22    0.32
   0   1  13    1.68    0.42
   1  -1  13    8.10    0.84
  -1  -1 -13    8.17    0.57
  -1  -1 -13    8.19    0.59
  -1  -1 -13    8.28    0.61
   1  -1  13    8.26    0.60
   1  -1  13    8.60    0.79
  -1  -1 -13    8.69    0.59
   1  -1  13    8.07    0.75
  -1  -1 -13    7.69    0.75
  -1   1 -13    8.05    0.79
   1   1  13    8.58    0.59
   1   1  13   11.03    1.41
   1   1  13    8.31    0.73
   1   1  13    9.12    0.66
   1   1  13    8.54    0.77
  -1   1 -13    7.77    0.58
  -1   1 -13    8.46    0.57
  -2  -1 -13    4.92    0.48
  -2  -1 -13    5.03    0.66
  -2  -1 -13    5.15    0.56
   2  -1  13    6.35    0.79
   2  -1  13    4.88    0.46
   2  -1  13    5.12    0.48
   2  -1  13    5.03    0.71
   2  -1  13    4.78    0.66
  -2  -1 -13    5.58    0.47
  -2   1 -13    5.19    0.73
  -2   1 -13    5.11    0.48
   2   1  13    4.89    0.60
  -2   1 -13    4.59    0.45
   2   1  13    5.53    0.57
   2   1  13    4.95    0.46
   2   1  13    4.48    0.66
   3  -1  13    1.55    0.26
   3  -1  13    0.83    0.22
   3  -1  13    0.66    0.66
   3  -1  13    1.12    0.39
   3  -1  13    1.90    0.45
  -3  -1 -13    1.62    0.25
   3  -1  13    1.49    0.28
  -3  -1 -13    1.83    0.42
   3   1  13    1.44    0.38
   3   1  13    0.96    0.26
   3   1  13    1.21    0.32
  -3   1 -13    3.13    0.75
   3   1  13    0.96    0.38
   4  -1  13    0.92    0.47
   4  -1  13    1.25    0.22
   4  -1  13    2.01    0.26
   4  -1  13    1.75    0.36
   4   1  13    1.43    0.28
   4   1  13    2.56    0.45
   4   1  13    2.25    0.37
  -4   1 -13    3.03    0.85
   4   1  13    1.55    0.35
  -5  -1 -13    8.15    0.81
   5  -1  13    7.29    0.47
   5   1  13    7.61    0.54
  -8  -2  13    0.16    0.23
  -8  -2  13    0.11    0.13
  -8  -2  13   -0.17    0.18
  -8   2  13    0.02    0.26
  -8   2  13    0.01    0.11
   8   2 -13    0.06    0.19
  -7  -2  13    0.16    0.17
  -7  -2  13   -0.07    0.19
  -7  -2  13   -0.07    0.29
   7   2 -13    0.20    0.22
   7   2 -13    0.02    0.24
  -7   2  13    0.15    0.40
   7   2 -13    0.20    0.24
   7   2 -13    0.03    0.20
  -7   2  13   -0.01    0.32
  -7   2  13   -0.12    0.17
   6  -2 -13    2.68    0.39
  -6  -2  13    2.65    0.27
  -6  -2  13    2.40    0.27
  -6  -2  13    2.82    0.41
   6  -2 -13    3.80    0.39
  -6  -2  13    2.31    0.35
  -6   2  13    2.44    0.33
   6   2 -13    3.60    0.45
  -6   2  13    2.58    0.38
   6   2 -13    2.63    0.36
  -6   2  13    2.69    0.36
  -6   2  13    2.37    0.58
   6   2 -13    2.03    0.28
   6   2 -13    2.71    0.33
   5  -2 -13    0.85    0.28
   5  -2 -13    0.99    0.38
  -5  -2  13    1.21    0.36
   5  -2 -13    1.23    0.37
  -5  -2  13    0.94    0.25
  -5  -2  13    1.06    0.26
   5  -2 -13    0.39    0.28
  -5   2  13    1.14    0.26
  -5   2  13    1.13    0.25
   5   2 -13    1.01    0.34
   5   2 -13    0.88    0.30
   5   2 -13    0.87    0.30
  -5   2  13    0.71    0.28
   5   2 -13    1.18    0.31
   5   2 -13    0.97    0.33
  -5   2  13    1.15    0.52
   4  -2 -13    8.77    0.73
   4  -2 -13    8.56    0.53
   4  -2 -13    9.60    0.65
   4  -2 -13    9.32    0.63
  -4  -2  13   10.58    0.64
   4  -2 -13   10.09    0.67
  -4  -2  13    9.43    0.64
   4  -2 -13    8.65    0.78
  -4  -2  13    9.88    0.59
   4   2 -13    8.29    0.63
  -4   2  13    7.62    0.99
   4   2 -13    9.50    0.68
   4   2 -13    8.66    0.63
   4   2 -13    8.67    0.82
  -4   2  13   10.92    0.60
   4   2 -13    9.18    0.66
  -4   2  13    9.82    0.58
   4   2 -13   10.76    0.90
  -3  -2  13   35.35    1.52
  -3  -2  13   37.03    1.71
  -3  -2  13   36.77    1.67
   3  -2 -13   37.76    1.68
   3  -2 -13   34.86    1.78
   3  -2 -13   38.13    1.60
   3  -2 -13   34.72    1.51
  -3  -2  13   37.67    1.85
   3  -2 -13   35.80    1.54
   3  -2 -13   37.17    1.58
  -3   2  13   37.69    1.52
  -3   2  13   39.61    1.56
  -3   2  13   36.58    1.53
   3   2 -13   35.40    1.81
   3   2 -13   36.50    1.61
   3   2 -13   36.30    1.55
   3   2 -13   37.03    1.55
  -3   2  13   38.67    1.86
   3   2 -13   38.00    1.60
   3   2 -13   35.05    1.57
   2  -2 -13    3.45    0.45
   2  -2 -13    3.02    0.42
  -2  -2  13    3.77    0.82
  -2  -2  13    3.62    0.58
   2  -2 -13    4.26    0.56
   2  -2 -13    3.97    0.53
  -2  -2  13    2.80    0.50
   2  -2 -13    2.93    0.54
   2  -2 -13    4.94    0.77
   2   2 -13    3.68    0.52
  -2   2  13    3.42    0.69
   2   2 -13    4.12    0.70
  -2   2  13    4.03    0.47
  -2   2  13    1.67    0.77
   2   2 -13    4.06    0.72
   2   2 -13    3.08    0.58
   2   2 -13    3.31    0.48
   2   2 -13    3.56    0.39
  -2   2  13    3.82    0.46
  -2   2  13    3.39    0.44
   2   2 -13    3.18    0.49
   1  -2 -13    6.25    0.62
  -1  -2  13    4.02    0.40
  -1  -2  13    4.74    0.71
   1  -2 -13    4.88    0.67
  -1  -2  13    4.49    0.59
  -1  -2  13    5.75    0.63
   1  -2 -13    4.71    0.59
  -1  -2  13    4.15    0.45
   1  -2 -13    5.38    0.46
   1  -2 -13    5.00    0.66
   1  -2 -13    4.98    0.48
   1  -2 -13    4.96    0.56
   1   2 -13    4.44    0.52
   1   2 -13    4.01    0.49
  -1   2  13    4.84    0.50
  -1   2  13    5.20    0.94
   1   2 -13    4.61    0.43
  -1   2  13    4.52    0.53
  -1   2  13    4.02    0.73
   1   2 -13    4.22    0.59
   1   2 -13    3.38    0.48
   1   2 -13    4.43    0.51
   0  -2  13   21.96    1.04
   0  -2 -13   23.56    1.11
   0  -2  13   23.79    1.24
   0  -2  13   22.73    1.33
   0  -2  13   24.10    1.11
   0  -2 -13   23.58    1.07
   0  -2 -13   24.34    1.08
   0  -2  13   22.64    1.22
   0  -2 -13   23.82    1.04
   0  -2 -13   23.28    1.10
   0  -2 -13   23.08    1.19
   0   2  13   23.50    1.07
   0   2 -13   20.89    1.34
   0   2 -13   22.56    1.05
   0   2 -13   23.60    1.12
   0   2  13   26.29    1.82
   0   2 -13   21.96    1.23
   0   2  13   22.96    1.09
   0   2  13   22.43    1.32
   1  -2  13    3.70    0.63
  -1  -2 -13    3.78    0.55
  -1  -2 -13    3.89    0.46
  -1  -2 -13    3.86    0.44
  -1  -2 -13    3.94    0.47
  -1  -2 -13    3.13    0.39
   1  -2  13    3.48    0.52
  -1  -2 -13    4.21    0.42
   1  -2  13    3.33    0.52
   1  -2  13    3.01    0.37
   1   2  13    4.82    1.36
   1   2  13    3.90    0.51
  -1   2 -13    3.52    0.45
   1   2  13    3.63    0.44
  -1   2 -13    4.12    0.41
   1   2  13    4.36    0.29
  -1   2 -13    2.91    0.51
  -2  -2 -13    1.33    0.41
   2  -2  13    0.96    0.40
   2  -2  13    1.39    0.27
   2  -2  13    0.83    0.59
  -2  -2 -13    1.38    0.33
  -2  -2 -13    1.63    0.27
   2  -2  13    1.58    0.48
   2  -2  13    1.57    0.33
   2   2  13    0.93    0.26
  -2   2 -13    1.67    0.55
  -2   2 -13    1.17    0.43
   2   2  13    1.88    0.38
   2   2  13    1.38    0.29
  -2   2 -13    1.09    0.18
   2   2  13    1.20    0.36
  -3  -2 -13    1.46    0.31
   3  -2  13    1.16    0.38
  -3  -2 -13    1.75    0.31
   3  -2  13    1.70    0.37
   3  -2  13    1.71    0.31
   3  -2  13    1.68    0.43
  -3   2 -13    1.53    0.42
   3   2  13    1.32    0.27
   3   2  13    1.42    0.34
  -3   2 -13    1.70    0.53
   3   2  13    1.69    0.34
   4  -2  13   -0.03    0.31
   4  -2  13    0.18    0.29
   4  -2  13   -0.18    0.24
   4  -2  13   -0.01    0.22
   4   2  13    0.00    0.21
   4   2  13   -0.16    0.31
  -4   2 -13    0.44    0.44
   5  -2  13    3.16    0.27
  -8  -3  13    1.29    0.19
  -7  -3  13    4.58    0.33
   7   3 -13    4.36    0.32
   7   3 -13    4.74    0.35
  -7   3  13    4.57    0.43
  -7   3  13    4.11    0.57
   6  -3 -13    0.18    0.20
  -6  -3  13    0.33    0.35
   6   3 -13    0.53    0.24
  -6   3  13    0.54    0.31
   6   3 -13    0.33    0.30
   6   3 -13    0.66    0.24
   6   3 -13    0.52    0.25
  -6   3  13    0.58    0.48
   5  -3 -13    2.28    0.32
   5  -3 -13    1.58    0.28
  -5  -3  13    3.00    0.27
  -5  -3  13    1.92    0.21
   5  -3 -13    2.31    0.31
   5  -3 -13    3.48    0.46
   5   3 -13    1.59    0.31
  -5   3  13    2.11    0.59
   5   3 -13    2.82    0.39
   5   3 -13    2.29    0.33
  -5   3  13    2.27    0.35
   5   3 -13    2.76    0.33
   4  -3 -13    0.55    0.28
   4  -3 -13    0.46    0.30
   4  -3 -13    0.25    0.34
   4  -3 -13    1.14    0.34
  -4  -3  13    0.83    0.23
  -4  -3  13    1.11    0.21
  -4  -3  13    1.09    0.21
   4   3 -13    0.49    0.29
  -4   3  13    1.30    0.60
   4   3 -13    0.86    0.30
   4   3 -13    0.82    0.29
   4   3 -13    0.88    0.32
   4   3 -13    0.74    0.45
  -4   3  13    0.93    0.31
   3  -3 -13    2.22    0.40
  -3  -3  13    2.57    0.42
  -3  -3  13    2.19    0.25
  -3  -3  13    2.76    0.28
   3  -3 -13    1.99    0.33
   3  -3 -13    2.19    0.37
   3  -3 -13    2.06    0.27
   3  -3 -13    2.47    0.42
  -3   3  13    2.86    0.45
   3   3 -13    1.96    0.31
   3   3 -13    1.66    0.35
   3   3 -13    1.88    0.32
   3   3 -13    2.00    0.33
   3   3 -13    1.88    0.40
   3   3 -13    2.41    0.34
  -3   3  13    2.70    0.66
  -2  -3  13    7.71    0.54
  -2  -3  13    7.55    0.76
  -2  -3  13    8.14    0.47
  -2  -3  13    7.37    0.84
   2  -3 -13    7.87    0.61
  -2  -3  13    5.89    0.55
   2  -3 -13    8.74    0.69
   2  -3 -13    8.11    0.73
   2  -3 -13    7.93    0.52
   2  -3 -13    7.82    0.64
   2   3 -13    7.57    0.51
  -2   3  13    9.39    0.57
  -2   3  13    8.71    0.94
   2   3 -13    7.95    0.65
  -2   3  13    7.47    0.51
  -2   3  13    9.97    1.07
   2   3 -13    8.29    0.77
   2   3 -13    7.23    0.54
   1  -3 -13   13.14    0.90
   1  -3 -13   13.59    0.73
   1  -3 -13   14.17    0.75
   1  -3 -13   14.22    0.82
   1  -3 -13   12.94    0.69
  -1  -3  13   13.09    0.81
  -1  -3  13   12.97    0.64
   1  -3 -13   13.02    0.78
  -1  -3  13   12.77    0.72
  -1  -3  13   13.25    0.91
  -1  -3  13   13.11    0.91
  -1  -3  13   13.55    1.01
   1   3 -13   13.76    0.94
   1   3 -13   14.41    0.83
  -1   3  13   15.47    1.47
  -1   3  13   11.70    0.93
   1   3 -13   12.73    0.86
  -1   3  13   12.16    1.00
  -1   3  13   12.69    0.70
   0  -3 -13   -0.41    0.29
   0  -3 -13    0.26    0.25
   0  -3  13    0.04    0.41
   0  -3  13    0.47    0.43
   0  -3 -13    0.08    0.27
   0  -3  13    0.19    0.31
   0  -3  13   -0.11    0.32
   0  -3 -13   -0.09    0.31
   0  -3  13    0.23    0.50
   0  -3 -13    0.28    0.32
   0  -3 -13   -0.01    0.27
   0   3 -13    0.06    0.38
   0   3 -13    0.20    0.40
   0   3  13   -0.30    0.44
   0   3  13    0.22    0.25
   0   3  13    0.17    0.27
   1  -3  13    1.30    0.49
   1  -3  13    0.65    0.38
  -1  -3 -13    1.19    0.26
  -1  -3 -13    0.88    0.25
   1  -3  13    1.25    0.36
   1  -3  13    1.24    0.40
  -1  -3 -13    1.11    0.30
  -1  -3 -13    1.44    0.26
  -1  -3 -13    1.16    0.50
   1  -3  13    1.09    0.32
   1   3  13    1.22    0.28
  -1   3 -13    0.90    0.41
  -1   3 -13    1.03    0.42
   1   3  13    0.94    0.27
   2  -3  13    2.42    0.34
  -2  -3 -13    2.99    0.44
   2  -3  13    2.34    0.29
  -2  -3 -13    2.11    0.33
   2  -3  13    1.57    0.38
   2  -3  13    2.08    0.38
   2  -3  13    1.52    0.35
  -2  -3 -13    2.53    0.27
  -2   3 -13    2.10    0.41
   2   3  13    2.27    0.33
   2   3  13    2.50    0.36
  -2   3 -13    1.91    0.44
  -3  -3 -13    0.25    0.26
   3  -3  13    0.45    0.31
  -3  -3 -13    0.53    0.19
   3  -3  13    0.34    0.26
   3  -3  13    0.32    0.27
   3   3  13    0.35    0.20
   3   3  13    0.36    0.24
  -3   3 -13    0.51    0.34
  -3   3 -13    0.44    0.32
   4  -3  13    5.01    0.37
  -4   3 -13    3.95    0.29
  -4   3 -13    4.48    0.50
   4   3  13    4.10    0.39
  -6  -4  13    0.16    0.21
   6   4 -13   -0.15    0.15
  -6   4  13    0.15    0.45
   5  -4 -13    0.17    0.21
  -5  -4  13    0.25    0.19
   5  -4 -13   -0.20    0.20
  -5   4  13    0.10    0.46
  -5   4  13    0.14    0.27
   5   4 -13    0.22    0.18
   4  -4 -13    4.10    0.44
  -4  -4  13    4.72    0.38
   4  -4 -13    3.37    0.41
   4  -4 -13    3.44    0.47
   4  -4 -13    3.45    0.52
   4   4 -13    3.94    0.35
   4   4 -13    4.94    0.38
  -4   4  13    3.86    0.41
   3  -4 -13    3.66    0.50
  -3  -4  13    3.51    0.37
   3  -4 -13    3.56    0.48
   3  -4 -13    3.05    0.46
   3  -4 -13    3.77    0.34
  -3   4  13    3.57    0.45
   3   4 -13    3.66    0.36
   3   4 -13    4.14    0.56
  -3   4  13    3.12    0.56
   2  -4 -13    1.81    0.30
   2  -4 -13    1.63    0.42
  -2  -4  13    1.59    0.29
   2  -4 -13    1.44    0.27
  -2  -4  13    2.02    0.27
   2  -4 -13    1.47    0.33
   2  -4 -13    1.46    0.34
  -2   4  13    1.82    0.28
   2   4 -13    1.52    0.42
   2   4 -13    1.43    0.26
  -2   4  13    1.64    0.50
   1  -4 -13    1.75    0.26
  -1  -4  13    1.23    0.34
   1  -4 -13    1.12    0.31
   1  -4 -13    1.60    0.28
   1  -4 -13    1.78    0.35
   1  -4 -13    1.67    0.39
   1  -4 -13    1.54    0.29
  -1  -4  13    1.45    0.30
  -1   4  13    1.84    0.26
  -1   4  13    1.19    0.43
   1   4 -13    1.29    0.47
  -1   4  13    1.55    0.25
   0  -4  13    1.02    0.30
   0  -4 -13    1.01    0.25
   0  -4 -13    0.76    0.28
   0  -4  13    0.43    0.41
   0  -4 -13    0.90    0.24
   0  -4 -13    0.81    0.32
   0  -4 -13    1.06    0.30
   0   4  13    0.68    0.24
   0   4 -13    0.94    0.47
   1  -4  13    4.23    0.41
   1  -4  13    3.83    0.46
  -1  -4 -13    3.40    0.32
  -1  -4 -13    3.89    0.35
  -1  -4 -13    4.32    0.42
   1   4  13    3.77    0.38
  -1   4 -13    4.17    0.57
  -2  -4 -13    5.24    0.50
   2  -4  13    4.67    0.45
   2  -4  13    4.21    0.38
  -2  -4 -13    4.90    0.34
   2   4  13    4.68    0.39
  -2   4 -13    4.41    0.48
   3  -4  13    8.38    0.45
  -3   4 -13    7.47    0.56
   3   4  13    9.13    0.44
  -3   4 -13    8.47    0.48
  -4  -5  13    0.89    0.14
   4  -5 -13    0.47    0.28
  -4   5  13    0.88    0.30
   3  -5 -13    0.21    0.24
   3  -5 -13    0.27    0.19
  -3   5  13    0.40    0.27
  -2  -5  13   15.59    0.69
   2  -5 -13   13.71    0.63
   2  -5 -13   14.69    0.70
   2  -5 -13   15.08    0.68
  -2   5  13   15.29    0.68
   2   5 -13   15.35    0.74
   1  -5 -13    0.39    0.21
   1  -5 -13    0.29    0.18
  -1  -5  13    0.40    0.21
   1  -5 -13    0.41    0.16
   1   5 -13    0.24    0.27
  -1   5  13    0.55    0.17
   0  -5  13    2.44    0.27
   0  -5 -13    2.29    0.26
   0   5 -13    1.83    0.27
   0   5  13    2.13    0.23
  -1  -5 -13    0.62    0.12
   1  -5  13    0.96    0.21
  -1   5 -13    0.41    0.17
  -8   0  14    2.70    0.26
  -8   0  14    2.34    0.33
   7   0 -14    0.78    0.24
   7   0 -14    0.62    0.23
  -7   0  14    0.28    0.20
  -7   0  14    0.06    0.34
   7   0 -14    0.53    0.29
   7   0 -14    0.50    0.33
  -7   0  14    0.24    0.20
   6   0 -14   -0.06    0.25
  -6   0  14    0.14    0.22
  -6   0  14    0.15    0.21
  -6   0  14    0.46    0.35
  -6   0  14   -0.15    0.11
   6   0 -14    0.27    0.31
   5   0 -14    2.20    0.34
   5   0 -14    1.72    0.30
  -5   0  14    2.43    0.40
  -5   0  14    2.19    0.34
  -5   0  14    1.61    0.60
  -5   0  14    1.90    0.30
   5   0 -14    3.10    0.40
   5   0 -14    1.93    0.35
   4   0 -14    0.03    0.27
  -4   0  14   -0.15    0.46
   4   0 -14   -0.29    0.27
   4   0 -14    0.64    0.30
  -4   0  14    0.18    0.26
   4   0 -14   -0.08    0.25
   4   0 -14    0.00    0.29
   3   0 -14    0.36    0.36
  -3   0  14   -0.13    0.32
   3   0 -14    0.04    0.28
  -3   0  14   -0.15    0.39
   3   0 -14    0.03    0.32
  -3   0  14   -0.31    0.57
  -3   0  14   -0.11    0.24
   3   0 -14    0.08    0.30
  -3   0  14    0.12    0.36
  -3   0  14   -0.22    0.53
   3   0 -14   -0.04    0.24
   3   0 -14    0.32    0.29
  -2   0  14    1.25    0.63
   2   0 -14    1.55    0.55
  -2   0  14    2.01    0.42
  -2   0  14    1.86    0.73
  -2   0  14    1.43    0.48
   2   0 -14    1.60    0.34
   2   0 -14    1.65    0.34
   2   0 -14    1.61    0.30
   2   0 -14    1.30    0.35
  -2   0  14    1.43    0.30
   1   0 -14    1.30    0.39
   1   0 -14   -0.80    0.37
   1   0 -14    0.42    0.40
   1   0 -14    0.46    0.32
   1   0 -14    0.37    0.31
  -1   0  14    0.20    0.34
   1   0 -14    0.61    0.30
  -1   0  14    0.47    0.25
  -1   0  14    0.33    0.44
  -1   0  14    0.24    0.39
  -1   0  14    0.75    0.38
   1   0 -14    0.39    0.26
   0   0 -14    6.71    0.55
   0   0 -14    6.10    0.70
   0   0 -14    6.29    0.53
   0   0  14    5.31    0.77
   0   0  14    6.09    0.57
   0   0  14    5.58    0.71
   0   0 -14    6.13    0.53
   0   0  14    6.50    0.65
   1   0  14   12.77    0.85
   1   0  14   13.16    0.94
   1   0  14   12.97    0.73
   1   0  14   13.93    0.84
  -1   0 -14   11.94    0.89
  -1   0 -14   13.35    0.69
  -1   0 -14   12.70    0.77
   1   0  14   12.00    0.63
   2   0  14   10.72    0.85
   2   0  14   10.85    0.65
  -2   0 -14   10.83    0.85
   2   0  14   14.47    1.00
  -2   0 -14   10.77    0.60
   2   0  14   10.69    0.78
   3   0  14    0.60    0.34
   3   0  14    0.47    0.25
   3   0  14    0.38    0.31
   3   0  14    0.13    0.34
  -3   0 -14    1.20    0.42
  -4   0 -14   10.76    0.85
   4   0  14   12.94    0.70
   4   0  14   10.37    0.65
  -8  -1  14    3.74    0.29
  -8  -1  14    3.69    0.24
  -8  -1  14    3.14    0.47
  -8   1  14    4.03    0.45
  -8   1  14    3.96    0.36
   8   1 -14    3.72    0.31
  -7  -1  14    1.18    0.21
   7  -1 -14    1.38    0.25
  -7  -1  14    1.19    0.34
   7  -1 -14    1.33    0.30
  -7  -1  14    1.35    0.20
  -7  -1  14    1.40    0.22
  -7   1  14    1.65    0.49
  -7   1  14    1.21    0.22
  -7   1  14    1.13    0.22
   7   1 -14    1.29    0.29
   7   1 -14    0.89    0.25
   7   1 -14    0.93    0.26
   7   1 -14    1.15    0.23
   7   1 -14    1.38    0.26
   6  -1 -14    6.22    0.53
   6  -1 -14    6.67    0.51
  -6  -1  14    7.16    0.44
  -6  -1  14    6.94    0.47
  -6  -1  14    6.85    0.48
  -6  -1  14    6.72    0.62
   6  -1 -14    7.58    0.51
  -6   1  14    6.43    0.79
  -6   1  14    7.03    0.47
  -6   1  14    6.26    0.60
   6   1 -14    4.44    0.67
  -6   1  14    6.75    0.48
   6   1 -14    6.70    0.56
   6   1 -14    6.64    0.54
   6   1 -14    6.83    0.53
   5  -1 -14    2.40    0.34
   5  -1 -14    1.90    0.32
  -5  -1  14    1.79    0.38
  -5  -1  14    1.96    0.27
   5  -1 -14    1.92    0.32
  -5  -1  14    1.80    0.30
  -5  -1  14    1.78    0.31
  -5   1  14    2.04    0.29
  -5   1  14    1.87    0.36
  -5   1  14    2.09    0.31
  -5   1  14    1.75    0.60
   5   1 -14    1.93    0.36
   5   1 -14    2.10    0.30
   5   1 -14    1.54    0.34
   5   1 -14    1.67    0.31
   4  -1 -14   34.31    1.45
   4  -1 -14   34.72    1.46
   4  -1 -14   33.22    1.47
  -4  -1  14   32.91    1.46
   4  -1 -14   32.42    1.66
   4  -1 -14   35.90    1.54
  -4  -1  14   34.44    1.43
   4  -1 -14   32.82    1.40
  -4  -1  14   33.59    1.48
  -4   1  14   33.75    1.74
  -4   1  14   34.11    1.42
  -4   1  14   33.39    1.44
   4   1 -14   33.17    1.48
   4   1 -14   34.69    1.43
   4   1 -14   33.63    1.75
   4   1 -14   34.99    1.47
   4   1 -14   34.22    1.44
   3  -1 -14   10.83    1.25
   3  -1 -14   11.71    0.81
   3  -1 -14   11.21    0.76
   3  -1 -14   11.66    0.71
  -3  -1  14   11.09    0.83
   3  -1 -14   11.21    0.66
   3  -1 -14   10.82    0.73
  -3  -1  14   11.88    1.00
  -3  -1  14   13.85    0.91
  -3  -1  14   11.59    0.67
  -3  -1  14   12.54    0.90
   3  -1 -14   11.82    0.73
   3   1 -14   12.74    0.70
  -3   1  14   12.04    1.10
  -3   1  14   12.04    0.74
   3   1 -14   11.88    0.71
  -3   1  14   12.83    0.72
   3   1 -14   11.97    0.74
  -3   1  14   11.94    0.67
   3   1 -14   11.64    0.72
   3   1 -14   12.21    0.81
  -2  -1  14   11.60    0.90
  -2  -1  14   11.73    0.82
   2  -1 -14   11.06    0.65
   2  -1 -14   10.95    0.71
  -2  -1  14   11.23    1.00
   2  -1 -14   11.77    0.90
   2  -1 -14   13.09    0.77
  -2  -1  14   10.74    0.64
   2  -1 -14   11.25    0.82
   2  -1 -14   11.84    0.75
   2  -1 -14   11.85    0.73
  -2   1  14   10.94    1.11
  -2   1  14   11.66    0.99
  -2   1  14   11.77    0.65
  -2   1  14   11.08    0.72
   2   1 -14   12.33    0.72
  -2   1  14   10.63    0.83
   2   1 -14   10.44    0.82
   2   1 -14   11.94    0.67
   2   1 -14   11.73    0.72
   2   1 -14   11.73    0.82
   2   1 -14   11.44    0.70
   1  -1 -14    2.10    0.31
   1  -1 -14    1.67    0.36
  -1  -1  14    1.53    0.33
  -1  -1  14    2.42    0.48
   1  -1 -14    1.59    0.34
   1  -1 -14    1.43    0.35
  -1  -1  14    1.81    0.49
   1  -1 -14    1.76    0.97
   1  -1 -14    1.51    0.32
  -1  -1  14    1.62    0.56
   1   1 -14    1.73    0.41
   1   1 -14    1.64    0.30
   1   1 -14    1.97    0.35
  -1   1  14    0.78    0.54
  -1   1  14    1.20    0.29
   1   1 -14    1.42    0.32
  -1   1  14    1.28    0.41
  -1   1  14    1.08    0.35
   1   1 -14    1.03    0.37
  -1   1  14    1.79    0.52
   1   1 -14    1.55    0.31
   1   1 -14    3.36    0.84
  -1   1  14    1.18    0.64
  -1   1  14    2.79    0.43
   0  -1 -14    4.98    0.66
   0  -1 -14    5.76    0.61
   0  -1  14    8.58    1.06
   0  -1 -14    5.10    0.50
   0  -1  14    5.40    0.77
   0  -1 -14    6.67    0.74
   0  -1  14    5.59    0.70
   0  -1 -14    4.97    0.53
   0   1  14    5.51    0.53
   0   1 -14    5.73    0.70
   0   1 -14    6.51    0.56
   0   1  14    5.69    0.76
   0   1  14    6.05    0.70
   0   1  14    5.12    0.68
   0   1 -14    5.40    0.49
   1  -1  14   -0.02    0.40
   1  -1  14    0.39    0.31
  -1  -1 -14    0.31    0.25
  -1  -1 -14    0.48    0.29
  -1  -1 -14   -0.10    0.12
   1  -1  14    0.29    0.46
  -1  -1 -14   -0.36    0.23
  -1  -1 -14    0.09    0.37
   1  -1  14   -0.12    0.39
  -1  -1 -14    0.18    0.23
  -1   1 -14   -0.05    0.21
   1   1  14    0.43    0.37
   1   1  14    0.90    0.43
  -1   1 -14    0.31    0.39
  -1   1 -14    0.43    0.25
   1   1  14    0.22    0.29
   1   1  14    0.23    0.28
  -2  -1 -14    0.40    0.49
   2  -1  14    0.42    0.27
   2  -1  14    0.73    0.39
   2  -1  14    0.81    0.38
  -2  -1 -14    0.49    0.24
   2  -1  14    0.62    0.53
  -2   1 -14    0.23    0.42
  -2   1 -14    0.35    0.24
   2   1  14    0.64    0.33
   2   1  14    0.15    0.26
   2   1  14    0.29    0.37
   2   1  14    0.54    0.38
   3  -1  14    1.98    0.45
  -3  -1 -14    3.40    0.32
   3  -1  14    2.79    0.38
   3  -1  14    2.22    0.41
  -3   1 -14    3.48    0.92
   3   1  14    2.53    0.37
   3   1  14    2.30    0.38
   3   1  14    2.06    0.30
   3   1  14    1.91    0.50
  -3   1 -14    2.84    0.41
   4  -1  14    0.88    0.31
   4   1  14    0.77    0.26
  -4   1 -14    0.53    0.55
   4   1  14    0.10    0.25
   4   1  14    0.30    0.25
  -8  -2  14    1.85    0.23
  -8   2  14    2.47    0.37
  -7  -2  14    3.67    0.31
  -7  -2  14    3.47    0.43
  -7  -2  14    3.41    0.28
  -7   2  14    3.80    0.27
   7   2 -14    3.26    0.29
  -7   2  14    3.57    0.52
   7   2 -14    3.39    0.38
  -7   2  14    3.29    0.47
  -6  -2  14    1.96    0.24
  -6  -2  14    2.16    0.33
   6  -2 -14    1.13    0.27
  -6  -2  14    1.73    0.25
  -6  -2  14    1.98    0.24
   6  -2 -14    1.93    0.25
   6   2 -14    1.80    0.29
   6   2 -14    1.78    0.31
  -6   2  14    1.40    0.78
   6   2 -14    1.57    0.29
  -6   2  14    1.76    0.23
   6   2 -14    1.68    0.30
  -6   2  14    1.81    0.35
   6   2 -14    2.44    0.31
  -6   2  14    2.22    0.25
   5  -2 -14   15.75    0.86
  -5  -2  14   15.90    0.77
  -5  -2  14   16.59    1.02
  -5  -2  14   15.51    0.78
   5  -2 -14   17.26    0.84
  -5  -2  14   16.44    0.78
  -5   2  14   17.10    1.14
   5   2 -14   17.40    0.88
   5   2 -14   16.90    0.79
   5   2 -14   16.44    0.83
  -5   2  14   17.41    0.77
  -5   2  14   16.99    0.85
   5   2 -14   16.47    0.94
   5   2 -14   16.47    0.87
  -5   2  14   17.11    0.78
  -4  -2  14    1.37    0.27
   4  -2 -14    1.39    0.36
  -4  -2  14    1.48    0.31
   4  -2 -14    1.42    0.31
   4  -2 -14    1.50    0.36
   4  -2 -14    1.39    0.25
   4  -2 -14    1.18    0.30
  -4  -2  14    1.30    0.27
   4   2 -14    1.41    0.36
   4   2 -14    1.48    0.32
   4   2 -14    1.46    0.32
  -4   2  14    1.72    0.27
   4   2 -14    0.82    0.30
  -4   2  14    1.41    0.27
   4   2 -14    1.38    0.31
   4   2 -14    1.38    0.31
  -4   2  14    1.44    0.62
  -4   2  14    1.25    0.29
   3  -2 -14    4.22    0.58
  -3  -2  14    4.39    0.58
  -3  -2  14    3.55    0.43
  -3  -2  14    3.16    0.46
   3  -2 -14    3.86    0.41
   3  -2 -14    4.00    0.54
   3  -2 -14    3.27    0.45
   3  -2 -14    4.01    0.53
   3   2 -14    3.23    0.48
  -3   2  14    3.80    0.47
  -3   2  14    3.75    0.41
   3   2 -14    4.35    0.59
   3   2 -14    3.56    0.50
  -3   2  14    3.89    0.45
   3   2 -14    3.89    0.45
   3   2 -14    3.61    0.47
   3   2 -14    4.09    0.46
  -3   2  14    3.49    0.68
   2  -2 -14   14.01    0.77
  -2  -2  14   12.95    0.69
   2  -2 -14   13.72    0.79
   2  -2 -14   13.97    0.89
   2  -2 -14   13.14    0.70
  -2  -2  14   14.14    0.95
  -2  -2  14   13.43    0.91
  -2  -2  14   14.88    1.06
   2  -2 -14   13.95    0.83
   2   2 -14   14.40    0.90
   2   2 -14   13.22    0.72
  -2   2  14   13.81    0.69
  -2   2  14   14.42    0.73
   2   2 -14   12.99    0.73
  -2   2  14   12.75    0.71
   2   2 -14   13.54    0.70
   2   2 -14   13.30    0.83
   2   2 -14   12.13    0.79
  -2   2  14   12.66    1.08
   2   2 -14   12.69    0.75
   2   2 -14   12.85    0.73
   1  -2 -14    4.37    0.46
  -1  -2  14    4.17    0.58
  -1  -2  14    4.00    0.43
   1  -2 -14    4.02    0.55
  -1  -2  14    3.47    0.50
   1  -2 -14    4.07    0.55
   1  -2 -14    3.79    0.53
   1  -2 -14    3.96    0.54
  -1  -2  14    4.32    0.69
   1   2 -14    3.60    0.45
  -1   2  14    3.96    0.47
   1   2 -14    2.73    0.42
   1   2 -14    3.51    0.47
  -1   2  14    3.58    0.66
  -1   2  14    3.34    0.50
   1   2 -14    3.60    0.38
   0  -2 -14   12.12    0.86
   0  -2 -14   12.86    0.68
   0  -2  14   11.57    0.96
   0  -2 -14   13.36    0.68
   0  -2  14   11.93    0.88
   0  -2 -14   12.76    0.72
   0  -2  14   12.10    0.78
   0  -2  14   11.25    0.87
   0  -2 -14   12.41    0.69
   0  -2 -14   11.73    0.71
   0   2  14   11.81    0.70
   0   2 -14   11.15    0.85
   0   2  14   11.81    0.71
   0   2 -14   11.64    0.66
   1  -2  14    0.25    0.34
  -1  -2 -14    1.01    0.28
   1  -2  14    0.21    0.35
  -1  -2 -14    0.78    0.25
  -1  -2 -14    0.32    0.32
   1  -2  14    0.66    0.46
   1  -2  14    0.12    0.41
   1  -2  14    0.25    0.23
  -1  -2 -14    0.67    0.23
   1   2  14    0.70    0.27
  -1   2 -14    0.77    0.43
  -1   2 -14    0.35    0.26
   1   2  14    0.20    0.28
  -2  -2 -14    0.31    0.22
  -2  -2 -14    1.27    0.39
  -2  -2 -14    0.57    0.28
   2  -2  14    0.54    0.47
   2  -2  14    0.63    0.32
   2  -2  14    0.32    0.36
   2  -2  14    1.16    0.36
   2  -2  14    0.53    0.46
  -2   2 -14    0.69    0.38
   2   2  14    1.59    0.35
   2   2  14    0.46    0.27
  -2   2 -14    0.60    0.44
   2   2  14    0.48    0.28
   3  -2  14    3.37    0.39
  -3  -2 -14    2.70    0.29
   3  -2  14    3.89    0.36
   3  -2  14    2.49    0.36
   3  -2  14    2.22    0.33
  -3   2 -14    2.54    0.50
   3   2  14    2.83    0.35
   3   2  14    2.40    0.34
  -3   2 -14    3.03    0.57
   4  -2  14   -0.12    0.20
  -4   2 -14    0.00    0.21
   4   2  14    0.05    0.21
  -7  -3  14    1.67    0.21
   6  -3 -14    1.12    0.19
  -6  -3  14    0.90    0.19
   6   3 -14    1.08    0.23
  -6   3  14    1.31    0.29
   6   3 -14    1.06    0.24
  -6   3  14    0.97    0.46
  -5  -3  14    0.59    0.23
   5  -3 -14    0.40    0.26
   5  -3 -14    0.64    0.25
   5  -3 -14    0.97    0.24
  -5  -3  14    0.95    0.20
  -5  -3  14    0.60    0.23
  -5   3  14    0.87    0.55
  -5   3  14    1.35    0.63
   5   3 -14    0.45    0.25
   5   3 -14    0.59    0.23
   5   3 -14    0.39    0.25
   5   3 -14    0.63    0.26
  -4  -3  14    1.30    0.19
  -4  -3  14    1.27    0.19
   4  -3 -14    1.54    0.36
   4  -3 -14    1.26    0.34
   4  -3 -14    1.53    0.31
   4   3 -14    1.11    0.28
   4   3 -14    1.59    0.30
   4   3 -14    1.40    0.30
  -4   3  14    1.46    0.29
  -4   3  14    1.26    0.53
   4   3 -14    1.39    0.30
   4   3 -14    1.50    0.26
  -3  -3  14    0.34    0.20
  -3  -3  14    1.01    0.22
   3  -3 -14    1.07    0.51
   3  -3 -14    0.97    0.35
   3  -3 -14    1.07    0.32
  -3  -3  14    0.62    0.23
   3  -3 -14    0.74    0.29
  -3   3  14    0.57    0.50
   3   3 -14    0.66    0.25
   3   3 -14    0.85    0.27
   3   3 -14    0.39    0.24
   3   3 -14    0.92    0.27
  -3   3  14    0.81    0.28
  -2  -3  14   14.33    0.72
   2  -3 -14   14.77    0.73
   2  -3 -14   15.57    0.84
   2  -3 -14   15.83    0.83
  -2  -3  14   15.18    0.85
   2  -3 -14   15.64    0.93
   2  -3 -14   14.95    0.79
   2   3 -14   15.94    0.97
   2   3 -14   15.83    0.83
   2   3 -14   14.98    0.71
  -2   3  14   15.89    0.75
  -2   3  14   15.15    1.07
  -2   3  14   13.88    0.72
  -1  -3  14   11.70    0.65
  -1  -3  14   12.55    0.84
  -1  -3  14   14.97    1.12
   1  -3 -14   10.63    0.88
   1  -3 -14   12.37    0.65
   1  -3 -14   12.64    0.84
  -1  -3  14   12.70    0.67
  -1  -3  14   12.49    0.72
  -1  -3  14   12.72    0.85
   1  -3 -14   12.81    0.71
   1  -3 -14   12.64    0.76
  -1   3  14   15.03    0.69
   1   3 -14   11.83    0.78
  -1   3  14   12.56    0.96
   1   3 -14   12.80    0.92
  -1   3  14   12.94    0.67
   0  -3 -14    2.22    0.31
   0  -3 -14    2.42    0.28
   0  -3 -14    2.14    0.33
   0  -3 -14    1.69    0.37
   0  -3  14    2.18    0.31
   0  -3  14    1.85    0.23
   0  -3  14    1.73    0.35
   0  -3 -14    3.32    0.45
   0  -3  14    1.51    0.39
   0  -3  14    2.35    0.52
   0  -3  14    1.48    0.46
   0  -3 -14    2.19    0.30
   0   3  14    1.84    0.28
   0   3 -14    2.26    0.45
   0   3  14    2.29    0.34
   1  -3  14    7.32    0.63
   1  -3  14    7.38    0.70
   1  -3  14    7.96    0.59
  -1  -3 -14    8.34    0.58
  -1  -3 -14    8.55    0.62
  -1  -3 -14    8.42    0.49
   1  -3  14    7.50    0.64
   1  -3  14    7.88    0.57
  -1  -3 -14    7.25    0.44
   1   3  14    8.02    0.53
   1   3  14    8.33    0.52
  -1   3 -14    8.38    0.73
  -1   3 -14    7.54    0.67
   2  -3  14    4.91    0.47
  -2  -3 -14    5.07    0.42
  -2  -3 -14    5.12    0.37
   2  -3  14    4.24    0.50
   2  -3  14    4.65    0.40
  -2   3 -14    5.30    0.58
  -2   3 -14    5.16    0.54
   2   3  14    5.16    0.44
   2   3  14    4.88    0.39
   3  -3  14    1.42    0.34
  -3   3 -14    1.44    0.31
   3   3  14    1.98    0.26
  -6  -4  14   -0.09    0.10
  -6   4  14    0.19    0.27
  -5  -4  14    2.95    0.27
   5   4 -14    2.73    0.27
  -5   4  14    2.35    0.44
  -5   4  14    2.86    0.32
   4  -4 -14    1.83    0.25
   4  -4 -14    1.93    0.29
  -4  -4  14    1.34    0.17
   4   4 -14    1.75    0.22
  -4   4  14    1.60    0.49
  -4   4  14    1.98    0.27
   3  -4 -14    1.60    0.26
   3  -4 -14    0.88    0.28
  -3  -4  14    0.98    0.19
   3  -4 -14    1.18    0.29
   3  -4 -14    1.04    0.19
   3  -4 -14    0.98    0.33
   3   4 -14    1.79    0.32
   3   4 -14    1.26    0.22
  -3   4  14    1.40    0.25
  -3   4  14    1.08    0.47
   2  -4 -14   10.18    0.57
  -2  -4  14    9.83    0.50
   2  -4 -14    9.59    0.52
   2  -4 -14    9.37    0.65
   2  -4 -14   10.74    0.62
   2  -4 -14    9.08    0.73
  -2   4  14    9.47    0.76
   2   4 -14    9.70    0.48
  -2   4  14   10.58    0.55
   2   4 -14   10.71    0.70
   1  -4 -14    0.81    0.20
   1  -4 -14    0.25    0.38
  -1  -4  14    0.77    0.20
  -1  -4  14    0.82    0.24
   1  -4 -14    0.77    0.24
   1  -4 -14    0.77    0.26
   1   4 -14    1.12    0.38
  -1   4  14    1.03    0.23
  -1   4  14    0.76    0.19
   0  -4  14    0.21    0.25
   0  -4  14    0.54    0.22
   0  -4 -14    0.34    0.25
   0  -4 -14    0.44    0.20
   0  -4 -14    0.34    0.20
   0   4  14    0.67    0.21
   0   4 -14    0.38    0.31
   0   4  14    0.43    0.20
  -1  -4 -14    0.52    0.18
   1  -4  14    0.20    0.23
   1  -4  14    0.12    0.20
   1   4  14    0.36    0.19
   1   4  14    0.88    0.19
  -1   4 -14    0.69    0.30
   2  -4  14    0.18    0.17
  -2  -4 -14    0.15    0.12
   2   4  14    0.42    0.13
  -2   4 -14   -0.27    0.31
   2   4  14    0.17    0.18
  -2   4 -14    0.16    0.18
  -3  -5  14    0.85    0.13
   2  -5 -14    8.34    0.40
   1   5 -14    0.71    0.19
  -8   0  15    1.13    0.24
  -8   0  15    0.91    0.14
  -7   0  15    4.06    0.33
  -7   0  15    4.16    0.49
   7   0 -15    4.24    0.39
   7   0 -15    3.89    0.32
   7   0 -15    4.50    0.55
  -7   0  15    4.20    0.33
   6   0 -15    9.49    0.61
   6   0 -15    9.54    0.61
  -6   0  15    8.43    0.65
  -6   0  15    9.19    0.53
   6   0 -15    9.68    0.58
  -6   0  15    9.86    0.54
   5   0 -15    0.29    0.26
  -5   0  15    0.08    0.29
  -5   0  15    0.30    0.26
  -5   0  15    0.18    0.25
   5   0 -15    0.36    0.26
   5   0 -15    0.02    0.28
   5   0 -15    0.65    0.29
   4   0 -15    7.78    0.53
  -4   0  15    8.36    0.55
  -4   0  15    7.48    0.54
  -4   0  15    7.71    0.58
   4   0 -15    7.76    0.59
   4   0 -15    9.04    0.60
   4   0 -15    8.31    0.61
  -3   0  15    3.92    0.52
  -3   0  15    3.36    0.45
   3   0 -15    3.50    0.49
   3   0 -15    3.97    0.58
   3   0 -15    3.36    0.40
   3   0 -15    4.10    0.52
  -3   0  15    4.02    0.45
   3   0 -15    3.30    0.43
  -3   0  15    3.66    0.64
  -3   0  15    3.29    0.42
   2   0 -15    2.30    0.31
   2   0 -15    2.16    0.36
  -2   0  15    2.98    0.51
   2   0 -15    1.77    0.36
  -2   0  15    2.20    0.42
   2   0 -15    1.73    0.41
   2   0 -15    2.00    0.34
  -2   0  15    2.12    0.31
  -1   0  15    3.76    0.50
  -1   0  15    3.77    0.62
  -1   0  15    3.69    0.48
   1   0 -15    3.46    0.50
   1   0 -15    3.78    0.50
   1   0 -15    4.03    0.49
   1   0 -15    3.34    0.46
  -1   0  15    3.42    0.41
   1   0 -15    3.28    0.50
   0   0  15   14.75    0.88
   0   0  15   14.43    0.92
   0   0  15   14.60    0.71
   0   0 -15   14.35    0.74
   0   0  15   16.43    0.83
   0   0 -15   13.99    0.72
   0   0 -15   14.48    0.96
   0   0  15   14.71    1.03
  -1   0 -15    8.25    0.72
  -1   0 -15    7.76    0.51
   1   0  15    7.63    0.67
   1   0  15    7.52    0.56
   1   0  15    5.21    0.87
   1   0  15    7.38    0.68
  -2   0 -15    0.96    0.39
   2   0  15    0.73    0.38
  -2   0 -15    0.86    0.32
   2   0  15    0.48    0.27
   2   0  15    0.42    0.40
   2   0  15    0.58    0.39
   3   0  15    0.27    0.31
   3   0  15    0.45    0.22
  -3   0 -15    0.35    0.45
   3   0  15   -0.41    0.36
   4   0  15    9.32    0.54
  -8  -1  15    2.36    0.33
  -8  -1  15    2.39    0.20
  -8   1  15    2.26    0.33
  -8   1  15    2.28    0.20
  -7  -1  15    0.50    0.17
  -7  -1  15    0.39    0.17
   7  -1 -15    0.36    0.21
  -7  -1  15    0.29    0.14
  -7  -1  15    0.30    0.28
  -7   1  15    0.23    0.29
  -7   1  15    0.31    0.17
  -7   1  15    0.31    0.17
   7   1 -15    0.42    0.22
   7   1 -15    0.38    0.18
   7   1 -15    0.25    0.21
  -6  -1  15    5.91    0.41
  -6  -1  15    5.89    0.37
   6  -1 -15    6.68    0.48
   6  -1 -15    5.89    0.47
   6  -1 -15    5.81    0.48
  -6  -1  15    6.14    0.55
  -6  -1  15    6.28    0.43
   6   1 -15    5.98    0.51
   6   1 -15    6.38    0.50
   6   1 -15    6.22    0.48
   6   1 -15    5.65    0.49
   6   1 -15    5.61    0.43
  -6   1  15    6.48    0.45
  -6   1  15    5.73    0.73
  -6   1  15    5.73    0.41
  -6   1  15    5.98    0.57
   5  -1 -15    7.07    0.61
  -5  -1  15    6.49    0.58
  -5  -1  15    6.87    0.50
   5  -1 -15    7.16    0.54
   5  -1 -15    7.14    0.55
  -5  -1  15    7.78    0.44
  -5  -1  15    6.95    0.50
  -5   1  15    7.16    0.57
  -5   1  15    6.77    0.84
   5   1 -15    7.32    0.57
  -5   1  15    6.74    0.49
   5   1 -15    6.96    0.56
   5   1 -15    7.61    0.50
  -5   1  15    7.43    0.50
  -4  -1  15    0.95    0.27
   4  -1 -15    1.17    0.33
   4  -1 -15    1.43    0.30
   4  -1 -15    2.49    0.51
   4  -1 -15    1.57    0.32
  -4  -1  15    1.37    0.32
   4  -1 -15    1.67    0.26
  -4   1  15    1.58    0.29
   4   1 -15    1.59    0.34
  -4   1  15    1.46    0.30
  -4   1  15    0.83    0.59
  -4   1  15    1.29    0.27
   4   1 -15    1.48    0.33
   4   1 -15    1.05    0.29
   4   1 -15    1.76    0.29
   3  -1 -15    7.33    0.59
  -3  -1  15    6.17    0.52
  -3  -1  15    6.74    0.83
   3  -1 -15    6.58    0.56
   3  -1 -15    6.42    0.49
  -3  -1  15    6.78    0.72
  -3  -1  15    6.05    0.54
  -3  -1  15    5.97    0.66
   3  -1 -15    7.41    0.68
   3  -1 -15    6.04    0.58
  -3   1  15    6.95    0.52
  -3   1  15    6.98    0.55
   3   1 -15    6.60    0.53
   3   1 -15    6.52    0.57
  -3   1  15    6.04    0.54
  -3   1  15    6.13    0.94
   3   1 -15    6.36    0.55
   3   1 -15    7.14    0.58
   2  -1 -15    2.18    0.35
   2  -1 -15    2.65    0.31
  -2  -1  15    2.83    0.58
  -2  -1  15    2.34    0.43
   2  -1 -15    2.16    0.45
  -2  -1  15    2.49    0.50
   2  -1 -15    1.93    0.36
   2  -1 -15    2.51    0.37
   2   1 -15    2.70    0.37
   2   1 -15    2.63    0.43
   2   1 -15    2.48    0.33
   2   1 -15    2.25    0.35
   2   1 -15    2.00    0.30
  -2   1  15    2.88    0.43
  -2   1  15    2.20    0.36
  -2   1  15    3.64    0.56
  -2   1  15    1.36    0.32
  -2   1  15    1.96    0.66
   1  -1 -15    0.20    0.41
  -1  -1  15    0.42    0.37
  -1  -1  15    0.34    0.48
   1  -1 -15   -0.01    0.30
   1  -1 -15    0.27    0.31
   1  -1 -15    0.45    0.25
   1  -1 -15    0.38    0.28
  -1  -1  15    0.32    0.43
   1   1 -15    0.26    0.25
   1   1 -15    0.06    0.38
   1   1 -15    0.37    0.31
  -1   1  15    0.16    0.33
  -1   1  15    0.80    0.48
  -1   1  15    0.54    0.24
   1   1 -15    0.27    0.26
  -1   1  15    0.04    0.32
   1   1 -15    0.23    0.17
  -1   1  15    0.48    0.45
   0  -1  15    2.07    0.43
   0  -1  15    2.40    0.50
   0  -1 -15    2.80    0.31
   0  -1 -15    4.15    0.64
   0  -1  15    2.32    0.43
   0  -1  15    3.48    0.42
   0  -1 -15    2.90    0.43
   0  -1 -15    3.09    0.44
   0   1 -15    2.36    0.47
   0   1 -15    1.92    0.30
   0   1  15    3.59    0.50
   0   1 -15    2.39    0.31
   0   1  15    2.64    0.39
   0   1  15    3.01    0.45
   0   1  15    3.50    0.39
   0   1  15    3.38    0.62
  -1  -1 -15    3.63    0.43
   1  -1  15    3.91    0.48
   1  -1  15    4.82    0.44
   1  -1  15    4.25    0.70
   1  -1  15    6.17    0.61
  -1  -1 -15    3.83    0.56
   1   1  15    4.10    0.55
   1   1  15    4.12    0.39
  -1   1 -15    4.02    0.40
   1   1  15    4.09    0.57
   1   1  15    3.85    0.65
  -1   1 -15    4.11    0.54
   1   1  15    3.90    0.46
  -2  -1 -15    2.39    0.27
   2  -1  15    1.37    0.38
   2  -1  15    2.23    0.38
   2  -1  15    2.05    0.44
  -2  -1 -15    2.30    0.40
  -2   1 -15    3.15    0.53
  -2   1 -15    1.76    0.40
   2   1  15    2.36    0.41
   2   1  15    2.05    0.31
  -2   1 -15    2.61    0.31
   2   1  15    2.03    0.23
   2   1  15    3.59    0.56
   2   1  15    2.53    0.41
   3  -1  15   -0.06    0.24
   3  -1  15    0.55    0.29
   3  -1  15    0.25    0.26
   3   1  15    0.14    0.27
   3   1  15    0.10    0.26
   3   1  15    0.25    0.22
   4  -1  15    2.56    0.32
  -7  -2  15    0.38    0.13
  -7  -2  15    0.36    0.15
  -7   2  15    0.40    0.27
  -7   2  15    0.56    0.13
   7   2 -15    0.34    0.17
  -6  -2  15    1.45    0.21
  -6  -2  15    1.13    0.19
  -6  -2  15    0.93    0.19
   6  -2 -15    1.22    0.24
   6  -2 -15    1.66    0.23
  -6   2  15    1.12    0.19
  -6   2  15    1.22    0.31
  -6   2  15    1.11    0.45
   6   2 -15    1.12    0.26
   6   2 -15    1.30    0.27
   6   2 -15    0.94    0.23
   6   2 -15    1.07    0.23
   6   2 -15    1.33    0.25
  -6   2  15    1.14    0.18
   5  -2 -15    9.69    0.57
  -5  -2  15   10.21    0.53
  -5  -2  15    8.91    0.54
   5  -2 -15    8.62    0.58
  -5  -2  15   10.05    0.58
   5  -2 -15    9.23    0.58
   5   2 -15    8.87    0.61
   5   2 -15    9.08    0.53
   5   2 -15    9.19    0.58
  -5   2  15    9.83    0.54
  -5   2  15    8.71    0.60
   5   2 -15    8.53    0.56
  -5   2  15    9.00    0.89
  -5   2  15    9.31    0.53
   5   2 -15    9.31    0.59
  -4  -2  15   33.12    1.39
   4  -2 -15   38.13    1.68
  -4  -2  15   32.30    1.39
   4  -2 -15   33.48    1.43
   4  -2 -15   33.79    1.45
   4  -2 -15   35.86    1.53
   4  -2 -15   32.90    1.38
  -4   2  15   34.64    1.69
  -4   2  15   34.12    1.38
   4   2 -15   32.61    1.45
   4   2 -15   34.02    1.46
   4   2 -15   33.52    1.40
  -4   2  15   35.93    1.39
   4   2 -15   33.60    1.46
   4   2 -15   33.49    1.41
  -4   2  15   33.61    1.43
   3  -2 -15    3.07    0.37
  -3  -2  15    3.15    0.39
   3  -2 -15    3.40    0.49
   3  -2 -15    3.02    0.36
   3  -2 -15    3.43    0.51
   3  -2 -15    3.33    0.47
  -3   2  15    3.59    0.34
   3   2 -15    2.99    0.38
   3   2 -15    3.13    0.43
   3   2 -15    3.16    0.45
   3   2 -15    3.38    0.41
  -3   2  15    3.32    0.46
   3   2 -15    3.10    0.43
  -3   2  15    3.32    0.66
  -3   2  15    3.47    0.39
   3   2 -15    3.31    0.49
   2  -2 -15    0.94    0.31
   2  -2 -15    0.95    0.25
  -2  -2  15    0.51    0.26
  -2  -2  15    0.66    0.41
   2  -2 -15    0.57    0.32
   2  -2 -15    0.96    0.38
   2  -2 -15    0.46    0.43
  -2  -2  15    0.23    0.52
  -2  -2  15    0.87    0.50
  -2   2  15    0.71    0.25
   2   2 -15    0.48    0.26
  -2   2  15    0.89    0.29
  -2   2  15    0.48    0.55
   2   2 -15    0.97    0.37
   2   2 -15    0.36    0.13
   2   2 -15    0.74    0.25
   2   2 -15    0.56    0.27
   2   2 -15    0.65    0.25
   2   2 -15    1.96    0.59
  -2   2  15    0.81    0.26
  -1  -2  15   11.12    0.79
   1  -2 -15   10.75    0.59
  -1  -2  15    9.92    0.87
   1  -2 -15    9.92    0.66
  -1  -2  15    9.10    0.78
   1  -2 -15   10.06    0.79
   1  -2 -15   10.52    0.63
  -1   2  15   10.58    0.66
   1   2 -15   11.02    0.86
  -1   2  15   11.22    0.59
  -1   2  15    9.68    0.61
  -1   2  15    8.76    0.91
   1   2 -15    9.40    0.86
   1   2 -15    8.37    0.50
   1   2 -15    9.73    0.59
   0  -2 -15    1.54    0.29
   0  -2 -15    1.50    0.27
   0  -2 -15    1.47    0.46
   0  -2  15    2.06    0.54
   0  -2  15    0.96    0.34
   0  -2 -15    1.50    0.27
   0  -2  15    1.12    0.51
   0  -2  15    2.09    0.46
   0   2 -15    1.32    0.28
   0   2 -15    0.85    0.35
   0   2  15    1.26    0.30
   0   2  15    0.97    0.32
   1  -2  15    1.27    0.42
  -1  -2 -15    1.81    0.39
   1  -2  15    2.00    0.48
   1  -2  15    1.92    0.40
  -1  -2 -15    1.96    0.26
   1  -2  15    2.00    0.41
  -1   2 -15    1.96    0.25
  -1   2 -15    1.87    0.42
   1   2  15    2.09    0.33
   1   2  15    1.38    0.29
   2  -2  15    1.39    0.34
  -2  -2 -15    0.94    0.21
   2  -2  15   -0.04    0.49
   2  -2  15    0.63    0.29
  -2   2 -15    0.82    0.33
   2   2  15    0.64    0.26
   2   2  15    0.65    0.29
   3  -2  15    1.60    0.32
   3  -2  15    2.78    0.34
   3   2  15    2.57    0.29
   3   2  15    2.13    0.28
  -3   2 -15    2.32    0.34
  -6  -3  15    0.04    0.16
   6   3 -15    0.02    0.17
  -6   3  15    0.16    0.46
   6   3 -15    0.14    0.16
  -6   3  15    0.19    0.24
   5  -3 -15    1.37    0.26
   5  -3 -15    1.00    0.28
  -5  -3  15    1.31    0.20
   5   3 -15    1.76    0.26
   5   3 -15    0.90    0.21
  -5   3  15    1.32    0.47
  -5   3  15    1.37    0.28
   4  -3 -15    0.84    0.25
   4  -3 -15    0.63    0.29
   4  -3 -15    0.71    0.26
   4   3 -15    0.60    0.23
   4   3 -15    0.38    0.22
  -4   3  15    0.54    0.56
  -4   3  15    0.58    0.24
   3  -3 -15    1.45    0.33
   3  -3 -15    1.06    0.22
   3  -3 -15    1.36    0.30
   3  -3 -15    1.98    0.37
   3   3 -15    1.10    0.23
  -3   3  15    1.56    0.27
  -3   3  15    1.10    0.55
   2  -3 -15   17.22    0.81
   2  -3 -15   18.08    0.84
  -2  -3  15   16.09    0.71
  -2  -3  15   14.39    0.71
   2  -3 -15   16.20    0.75
   2  -3 -15   16.59    0.92
   2  -3 -15   16.64    0.84
   2   3 -15   14.87    0.80
  -2   3  15   15.45    0.72
  -2   3  15   16.74    1.02
   2   3 -15   17.36    0.94
  -2   3  15   17.30    0.78
  -1  -3  15    6.32    0.70
   1  -3 -15    7.12    0.51
   1  -3 -15    7.67    0.64
  -1  -3  15    6.80    0.64
   1  -3 -15    8.26    0.78
   1  -3 -15    5.80    0.65
   1  -3 -15    6.82    0.53
  -1  -3  15    5.41    0.46
  -1   3  15    7.62    0.47
   1   3 -15    6.73    0.54
   1   3 -15    6.99    0.68
  -1   3  15    6.25    0.65
   0  -3 -15    0.15    0.22
   0  -3  15   -0.64    0.39
   0  -3  15    0.34    0.18
   0  -3 -15   -0.17    0.20
   0  -3  15    0.34    0.35
   0  -3 -15   -0.02    0.27
   0  -3  15    0.08    0.27
   0  -3 -15    0.24    0.20
   0   3 -15    0.03    0.27
   0   3 -15    0.13    0.36
   0   3  15    0.27    0.22
   0   3  15   -0.06    0.22
   1  -3  15    1.52    0.32
   1  -3  15    1.85    0.30
  -1  -3 -15    1.70    0.23
   1   3  15    2.58    0.30
   1   3  15    2.57    0.35
  -1   3 -15    1.52    0.36
   1   3  15    1.68    0.26
   2  -3  15    0.60    0.23
  -2  -3 -15    0.82    0.16
   2   3  15    0.85    0.29
  -2   3 -15    0.44    0.30
   2   3  15    1.01    0.17
  -5  -4  15    3.09    0.21
  -5   4  15    2.73    0.43
   4  -4 -15    1.36    0.23
  -4  -4  15    1.28    0.19
   4  -4 -15    1.28    0.20
  -4   4  15    1.21    0.55
  -4   4  15    1.45    0.21
   3  -4 -15    0.83    0.21
   3  -4 -15    0.56    0.24
  -3   4  15    0.41    0.23
  -3   4  15    0.25    0.37
   2  -4 -15    3.40    0.38
   2  -4 -15    3.13    0.29
   2  -4 -15    3.53    0.37
  -2   4  15    3.66    0.35
   2   4 -15    4.26    0.41
   1  -4 -15    1.42    0.21
   1  -4 -15    1.45    0.26
   1  -4 -15    1.43    0.21
   1   4 -15    1.33    0.30
  -1   4  15    1.54    0.22
   0  -4 -15    2.63    0.34
   0   4  15    2.39    0.22
   0   4 -15    2.62    0.32
   0   4  15    2.92    0.38
  -1  -4 -15    7.07    0.34
  -1   4 -15    6.99    0.42
   1   4  15    7.53    0.35
  -1   4 -15    7.67    0.55
  -7   0  16    1.86    0.24
   7   0 -16    1.92    0.28
  -7   0  16    1.95    0.37
   7   0 -16    1.80    0.27
  -7   0  16    1.81    0.24
   6   0 -16   10.73    0.59
  -6   0  16   10.86    0.54
  -6   0  16   10.89    0.55
  -6   0  16   11.20    0.64
   6   0 -16   11.29    0.61
   5   0 -16    0.54    0.22
  -5   0  16    0.34    0.24
   5   0 -16    0.50    0.28
  -5   0  16    0.16    0.35
   5   0 -16    0.41    0.36
   5   0 -16    0.55    0.27
  -5   0  16    0.55    0.25
  -4   0  16    2.63    0.32
  -4   0  16    2.82    0.35
  -4   0  16    3.06    0.40
   4   0 -16    2.71    0.38
   4   0 -16    3.23    0.46
   4   0 -16    2.75    0.38
   4   0 -16    3.04    0.38
   3   0 -16    6.11    0.59
   3   0 -16    6.29    0.56
  -3   0  16    6.30    0.50
  -3   0  16    6.32    0.50
   3   0 -16    5.84    0.48
  -3   0  16    5.56    0.55
   3   0 -16    6.26    0.53
   3   0 -16    7.08    0.63
  -2   0  16   21.54    1.41
  -2   0  16   19.35    0.99
   2   0 -16   20.26    0.97
   2   0 -16   19.86    0.93
  -2   0  16   21.00    1.07
   2   0 -16   20.84    1.23
   2   0 -16   20.05    0.92
  -2   0  16   19.60    0.91
  -1   0  16    0.41    0.46
  -1   0  16    0.59    0.35
   1   0 -16    0.61    0.17
  -1   0  16    1.11    0.42
   1   0 -16    0.43    0.25
   1   0 -16    0.72    0.24
   1   0 -16    0.49    0.27
  -1   0  16    0.57    0.37
   1   0 -16    1.51    0.53
   0   0  16    2.42    0.42
   0   0  16    2.53    0.43
   0   0  16    2.46    0.48
   0   0 -16    2.44    0.29
   0   0 -16    2.41    0.42
   1   0  16    0.14    0.39
   2   0  16    0.51    0.30
  -2   0 -16    0.45    0.22
   2   0  16   -0.01    0.28
   2   0  16    0.59    0.25
   3   0  16    1.64    0.34
  -7  -1  16    0.01    0.31
  -7  -1  16    0.40    0.13
  -7   1  16    0.17    0.38
  -7   1  16    0.42    0.14
   7   1 -16    0.44    0.17
   7   1 -16    0.35    0.19
  -6  -1  16   12.10    0.64
  -6  -1  16   11.65    0.57
   6  -1 -16   12.89    0.64
  -6  -1  16   12.21    0.57
   6  -1 -16   11.54    0.61
  -6   1  16   12.49    0.57
  -6   1  16   12.54    0.68
   6   1 -16   12.25    0.62
  -6   1  16   12.52    0.57
   6   1 -16   11.95    0.58
   5  -1 -16    8.56    0.61
   5  -1 -16    9.29    0.57
  -5  -1  16    8.89    0.52
  -5  -1  16    9.22    0.55
   5  -1 -16    8.89    0.58
  -5  -1  16    7.91    0.56
   5  -1 -16    8.20    0.56
   5   1 -16    9.04    0.59
   5   1 -16    9.39    0.59
  -5   1  16   11.48    0.92
   5   1 -16    9.79    0.61
  -5   1  16    8.08    0.53
  -5   1  16   11.30    0.60
   5   1 -16    7.97    0.55
  -5   1  16    9.51    0.64
   4  -1 -16    9.17    0.58
  -4  -1  16    7.63    0.50
   4  -1 -16    7.94    0.58
  -4  -1  16    8.02    0.51
  -4  -1  16    8.07    0.56
   4  -1 -16    7.93    0.56
   4  -1 -16    8.06    0.50
  -4   1  16    7.10    0.89
  -4   1  16    8.49    0.51
   4   1 -16    8.37    0.60
   4   1 -16    7.86    0.56
  -4   1  16    7.97    0.51
   4   1 -16    7.47    0.52
   4   1 -16    8.99    0.59
  -4   1  16    7.95    0.56
   3  -1 -16    1.37    0.35
  -3  -1  16    1.00    0.33
   3  -1 -16    1.31    0.47
   3  -1 -16    1.67    0.34
  -3  -1  16    1.54    0.30
   3  -1 -16    0.85    0.23
   3  -1 -16    1.23    0.30
   3   1 -16    1.22    0.31
   3   1 -16    0.99    0.32
  -3   1  16    0.93    0.28
  -3   1  16    0.99    0.27
   3   1 -16    1.14    0.28
  -3   1  16    1.37    0.30
   3   1 -16    0.78    0.26
  -3   1  16    0.96    0.57
  -2  -1  16    1.91    0.44
  -2  -1  16    2.98    0.83
   2  -1 -16    2.01    0.37
  -2  -1  16    1.28    0.28
   2  -1 -16    1.75    0.33
   2  -1 -16    1.62    0.42
   2  -1 -16    1.41    0.26
  -2  -1  16    1.58    0.39
   2  -1 -16    1.90    0.31
   2   1 -16    1.80    0.28
  -2   1  16    1.67    0.29
   2   1 -16    1.68    0.39
  -2   1  16    1.86    0.34
   2   1 -16    1.52    0.27
   2   1 -16    1.88    0.32
  -2   1  16    1.73    0.28
   1  -1 -16   14.07    0.71
  -1  -1  16   13.31    0.83
   1  -1 -16   14.96    0.90
   1  -1 -16   13.88    0.75
  -1  -1  16   13.81    0.89
   1  -1 -16   13.41    0.72
  -1  -1  16   13.99    0.98
  -1   1  16   13.43    0.78
   1   1 -16   13.07    0.68
  -1   1  16   15.32    0.81
   1   1 -16   13.73    0.71
   1   1 -16   13.86    0.90
  -1   1  16   16.21    0.88
  -1   1  16   14.55    0.70
   0  -1  16    1.01    0.43
   0  -1 -16    0.94    0.23
   0  -1 -16    1.28    0.25
   0  -1 -16    0.83    0.38
   0  -1  16    0.98    0.39
   0  -1  16    1.11    0.38
   0   1 -16    1.22    0.26
   0   1  16    1.12    0.38
   0   1  16    1.36    0.24
   0   1  16    1.04    0.32
   0   1 -16    1.68    0.42
   0   1  16    0.66    0.31
   1  -1  16    3.68    0.45
   1  -1  16    3.32    0.39
   1  -1  16    2.83    0.43
  -1  -1 -16    3.33    0.36
   1  -1  16    3.75    0.59
  -1  -1 -16    3.62    0.44
   1   1  16    2.88    0.39
  -1   1 -16    3.45    0.37
   1   1  16    2.64    0.32
  -1   1 -16    3.20    0.44
   1   1  16    3.70    0.40
   1   1  16    3.56    0.43
  -2  -1 -16    0.82    0.20
   2  -1  16    0.79    0.40
   2  -1  16    0.51    0.30
   2  -1  16    0.15    0.31
   2   1  16    0.61    0.25
   2   1  16    0.82    0.29
   2   1  16    1.10    0.35
   3   1  16    3.30    0.31
  -7   2  16    0.88    0.25
  -6  -2  16    0.65    0.15
   6  -2 -16    0.65    0.21
  -6  -2  16    0.69    0.13
   6  -2 -16    0.52    0.19
  -6  -2  16    0.62    0.13
  -6   2  16    0.83    0.13
  -6   2  16    1.12    0.44
   6   2 -16    0.47    0.19
   6   2 -16    0.38    0.18
  -6   2  16    0.64    0.12
  -6   2  16    0.73    0.26
  -5  -2  16    1.97    0.22
  -5  -2  16    2.37    0.27
   5  -2 -16    1.83    0.26
   5  -2 -16    2.12    0.28
  -5  -2  16    1.94    0.21
   5  -2 -16    2.04    0.29
   5   2 -16    1.94    0.47
   5   2 -16    2.01    0.25
  -5   2  16    2.07    0.26
  -5   2  16    2.03    0.48
  -5   2  16    1.89    0.25
   5   2 -16    2.70    0.33
  -5   2  16    1.52    0.27
  -4  -2  16    3.95    0.36
  -4  -2  16    4.02    0.36
   4  -2 -16    4.25    0.47
   4  -2 -16    4.37    0.47
   4  -2 -16    4.38    0.43
   4  -2 -16    4.27    0.37
   4   2 -16    4.64    0.39
   4   2 -16    3.71    0.37
  -4   2  16    4.96    0.75
   4   2 -16    4.00    0.44
  -4   2  16    4.42    0.44
  -4   2  16    3.93    0.37
   4   2 -16    5.45    0.45
   4   2 -16    4.09    0.45
  -4   2  16    3.72    0.34
   3  -2 -16    1.30    0.33
   3  -2 -16    1.67    0.29
  -3  -2  16    1.47    0.28
   3  -2 -16    1.51    0.23
   3  -2 -16    1.86    0.33
   3  -2 -16    1.67    0.32
  -3  -2  16    1.85    0.35
  -3   2  16    1.10    0.22
   3   2 -16    1.48    0.29
   3   2 -16    1.37    0.24
   3   2 -16    1.23    0.26
  -3   2  16    1.78    0.26
  -3   2  16    2.10    0.28
  -3   2  16    1.69    0.55
   3   2 -16    1.82    0.28
   2  -2 -16    8.71    0.56
  -2  -2  16    8.11    0.81
   2  -2 -16    8.10    0.52
   2  -2 -16    8.29    0.58
   2  -2 -16    8.76    0.68
  -2  -2  16    8.19    0.69
   2  -2 -16    8.68    0.57
  -2  -2  16    7.96    0.63
  -2   2  16    8.49    0.51
   2   2 -16    7.88    0.75
   2   2 -16    8.57    0.47
   2   2 -16    7.35    0.50
  -2   2  16    7.03    0.57
  -2   2  16    7.05    0.55
  -2   2  16    7.08    0.84
   2   2 -16    8.60    0.55
   1  -2 -16    0.51    0.30
  -1  -2  16    0.26    0.37
  -1  -2  16    0.70    0.45
   1  -2 -16    0.30    0.28
   1  -2 -16    0.30    0.27
   1  -2 -16    0.54    0.21
  -1  -2  16    0.62    0.24
   1  -2 -16    0.50    0.25
  -1  -2  16    0.21    0.36
   1   2 -16    0.44    0.29
   1   2 -16    0.36    0.23
   1   2 -16    0.66    0.36
  -1   2  16    0.78    0.24
  -1   2  16    0.63    0.27
  -1   2  16    0.43    0.24
   0  -2  16    4.50    0.68
   0  -2  16    5.14    0.37
   0  -2  16    4.83    0.59
   0  -2 -16    4.94    0.53
   0  -2  16    4.11    0.54
   0  -2 -16    4.49    0.37
   0  -2 -16    5.58    0.42
   0   2  16    4.32    0.46
   0   2 -16    4.61    0.58
   0   2 -16    4.86    0.69
   0   2  16    5.00    0.37
   0   2  16    5.13    0.52
   0   2 -16    3.63    0.38
  -1  -2 -16    2.24    0.24
   1  -2  16    1.86    0.37
   1  -2  16    1.94    0.32
   1  -2  16    2.25    0.37
   1   2  16    1.73    0.28
   1   2  16    2.94    0.39
   1   2  16    2.13    0.28
  -1   2 -16    2.46    0.40
   2  -2  16    0.62    0.27
   2  -2  16   -0.06    0.22
  -2  -2 -16    0.20    0.14
   2   2  16    0.26    0.27
  -2   2 -16    0.07    0.33
   2   2  16    0.34    0.21
  -5  -3  16    1.20    0.19
   5  -3 -16    0.73    0.18
   5  -3 -16    0.72    0.21
   5   3 -16    0.95    0.18
  -5   3  16    1.02    0.41
  -5   3  16    0.60    0.35
   4  -3 -16    2.95    0.38
  -4  -3  16    2.26    0.26
   4  -3 -16    2.71    0.37
   4   3 -16    2.55    0.27
  -4   3  16    2.30    0.46
  -4   3  16    2.65    0.36
   3  -3 -16   24.52    1.02
   3  -3 -16   22.92    0.97
   3  -3 -16   24.71    1.04
  -3   3  16   24.26    1.00
   3   3 -16   22.88    0.97
  -3   3  16   23.19    1.20
   2  -3 -16    3.25    0.32
   2  -3 -16    3.08    0.40
   2  -3 -16    2.96    0.34
   2   3 -16    3.99    0.42
  -2   3  16    3.04    0.37
   1  -3 -16   -0.06    0.20
   1  -3 -16    0.09    0.19
   1  -3 -16    0.17    0.20
  -1   3  16    0.26    0.20
  -1   3  16    0.13    0.19
   1   3 -16   -0.17    0.36
   0  -3 -16    0.29    0.17
   0   3 -16    0.26    0.37
   0   3  16    0.35    0.21
   0   3  16    0.07    0.18
  -1  -3 -16    1.19    0.16
   1   3  16    1.33    0.21
   1   3  16    1.52    0.22
  -1   3 -16    1.59    0.29
  -4  -4  16   16.22    0.66
  -3  -4  16    2.89    0.22
   3  -4 -16    3.79    0.27
  -3   4  16    3.46    0.32
   2  -4 -16    1.79    0.23
  -2   4  16    1.59    0.22
  -1   4  16    0.74    0.13
  -7   0  17   -0.01    0.10
  -6   0  17   10.19    0.64
   6   0 -17    9.05    0.52
  -6   0  17    9.54    0.46
   6   0 -17   10.16    0.50
  -6   0  17    9.12    0.46
  -5   0  17    0.40    0.18
   5   0 -17    0.45    0.22
  -5   0  17    0.64    0.18
   5   0 -17    0.35    0.25
  -5   0  17    0.11    0.24
   4   0 -17    4.74    0.40
   4   0 -17    5.42    0.48
  -4   0  17    4.70    0.44
   4   0 -17    5.01    0.47
   4   0 -17    5.32    0.47
   3   0 -17    0.20    0.28
  -3   0  17    0.08    0.22
  -3   0  17   -0.09    0.24
   3   0 -17   -0.02    0.26
   3   0 -17    0.20    0.24
   3   0 -17    0.26    0.25
  -3   0  17    0.02    0.29
   2   0 -17    6.72    0.49
   2   0 -17    6.81    0.46
  -2   0  17    6.85    0.48
   2   0 -17    6.44    0.48
  -2   0  17    5.87    0.52
   2   0 -17    7.02    0.59
   2   0 -17    6.94    0.51
  -2   0  17    6.68    0.60
  -2   0  17    8.08    0.95
  -2   0  17    6.49    0.45
  -1   0  17    3.16    0.42
   1   0 -17    3.93    0.55
   1   0 -17    3.47    0.36
   1   0 -17    4.25    0.42
  -1   0  17    4.13    0.64
  -1   0  17    3.38    0.49
   0   0 -17    1.33    0.38
   0   0 -17    1.49    0.24
   0   0  17    0.89    0.43
   0   0  17    0.86    0.32
  -1   0 -17    1.21    0.21
   1   0  17    1.11    0.30
   1   0  17    1.21    0.31
   2   0  17    3.47    0.35
   6  -1 -17    9.56    0.50
   6  -1 -17   10.89    0.53
  -6  -1  17   11.68    0.58
  -6  -1  17   10.20    0.53
   6   1 -17    9.76    0.53
   6   1 -17   10.39    0.49
  -6   1  17   11.15    0.53
  -6   1  17    9.90    0.51
  -6   1  17   12.00    0.65
   6   1 -17   10.34    0.61
   5  -1 -17    0.63    0.25
  -5  -1  17    0.85    0.20
  -5  -1  17    0.50    0.20
   5  -1 -17    0.53    0.21
  -5   1  17    0.58    0.20
  -5   1  17    0.22    0.25
   5   1 -17    0.37    0.21
  -5   1  17    0.63    0.19
   5   1 -17    0.71    0.21
   5   1 -17    0.51    0.25
   4  -1 -17    4.30    0.45
   4  -1 -17    3.90    0.35
  -4  -1  17    3.55    0.37
   4  -1 -17    4.22    0.43
  -4  -1  17    4.11    0.37
  -4   1  17    4.45    0.38
  -4   1  17    4.22    0.43
   4   1 -17    4.32    0.49
   4   1 -17    4.44    0.41
   4   1 -17    5.14    0.50
  -4   1  17    3.79    0.37
   4   1 -17    4.98    0.54
   4   1 -17    4.48    0.45
   4   1 -17    3.98    0.38
  -3  -1  17    3.28    0.39
   3  -1 -17    2.76    0.34
   3  -1 -17    2.80    0.34
   3  -1 -17    2.65    0.46
   3  -1 -17    2.56    0.34
  -3  -1  17    2.51    0.37
   3   1 -17    3.38    0.40
   3   1 -17    2.73    0.32
   3   1 -17    2.11    0.32
  -3   1  17    2.36    0.30
  -3   1  17    2.67    0.37
  -3   1  17    2.45    0.28
  -2  -1  17    7.52    0.62
   2  -1 -17    7.96    0.61
  -2  -1  17    8.14    0.75
   2  -1 -17    6.75    0.46
  -2  -1  17    7.61    0.67
   2  -1 -17    7.06    0.53
   2  -1 -17    5.90    0.49
   2  -1 -17    7.60    0.54
   2   1 -17    6.74    0.55
   2   1 -17    7.54    0.42
  -2   1  17    6.66    0.45
  -2   1  17    6.67    0.52
   2   1 -17    6.96    0.46
   2   1 -17    6.55    0.45
   2   1 -17    8.03    0.56
   1  -1 -17    8.08    0.47
  -1  -1  17    6.71    0.89
  -1  -1  17    7.94    0.61
   1  -1 -17    7.73    0.46
  -1  -1  17    7.59    0.63
  -1  -1  17    7.25    0.47
   1  -1 -17    7.77    0.46
   1  -1 -17    8.33    0.64
  -1   1  17    7.42    0.47
   1   1 -17    6.98    0.58
  -1   1  17    6.32    0.46
  -1   1  17    7.74    0.54
   1   1 -17    7.84    0.50
   1   1 -17    8.09    0.60
  -1   1  17    7.26    0.44
   0  -1 -17    1.32    0.22
   0  -1  17    1.18    0.33
   0  -1 -17    1.40    0.32
   0  -1  17    0.63    0.44
   0   1  17    1.53    0.32
   0   1  17    1.19    0.20
   0   1 -17    1.10    0.23
  -1  -1 -17    5.54    0.35
   1  -1  17    5.54    0.47
   1  -1  17    5.23    0.50
   1   1  17    5.97    0.47
  -2   1 -17    3.16    0.44
   2   1  17    3.15    0.30
  -6   2  17    0.11    0.17
  -5  -2  17    0.70    0.16
  -5  -2  17    0.65    0.12
   5  -2 -17    0.57    0.24
  -5  -2  17    1.00    0.12
   5  -2 -17    0.55    0.19
   5   2 -17    0.52    0.29
  -5   2  17    0.38    0.26
   5   2 -17    0.55    0.18
  -5   2  17    0.53    0.11
  -5   2  17    0.66    0.11
  -4  -2  17    3.99    0.34
  -4  -2  17    4.02    0.28
   4  -2 -17    4.69    0.44
   4  -2 -17    4.19    0.39
  -4  -2  17    3.43    0.36
   4  -2 -17    4.30    0.41
   4   2 -17    3.94    0.35
   4   2 -17    3.88    0.31
  -4   2  17    3.91    0.38
  -4   2  17    3.85    0.43
   4   2 -17    3.57    0.34
  -4   2  17    4.13    0.36
  -3  -2  17    3.85    0.32
  -3  -2  17    4.73    0.32
   3  -2 -17    4.73    0.42
   3  -2 -17    4.83    0.54
   3  -2 -17    3.95    0.33
   3   2 -17    3.98    0.33
  -3   2  17    4.27    0.32
   3   2 -17    3.73    0.31
  -3   2  17    4.34    0.31
  -3   2  17    4.15    0.38
  -2  -2  17    0.87    0.19
   2  -2 -17    1.15    0.26
   2  -2 -17    0.74    0.20
   2  -2 -17    1.16    0.24
  -2   2  17    1.17    0.20
  -2   2  17    1.02    0.20
  -2   2  17    1.15    0.20
  -2   2  17    1.18    0.19
  -1  -2  17   -0.02    0.29
   1  -2 -17    0.08    0.19
   1  -2 -17    0.41    0.26
  -1  -2  17    0.23    0.32
  -1  -2  17    0.11    0.17
   1  -2 -17    0.03    0.19
  -1   2  17    0.11    0.20
   1   2 -17    0.29    0.26
  -1   2  17    0.08    0.18
  -1   2  17    0.25    0.23
   0  -2  17    0.57    0.29
   0  -2 -17    0.44    0.17
   0  -2  17    0.45    0.16
   0  -2  17    0.24    0.29
   0   2 -17    0.53    0.29
   0   2  17    0.48    0.15
   0   2  17    0.20    0.24
   0   2  17    0.60    0.23
  -1  -2 -17    0.00    0.14
   1   2  17   -0.12    0.19
  -1   2 -17    0.38    0.21
   4  -3 -17    2.00    0.26
  -4  -3  17    1.81    0.20
  -4   3  17    1.61    0.27
   3  -3 -17    1.93    0.26
   3  -3 -17    2.05    0.29
  -3  -3  17    1.88    0.20
  -3   3  17    1.07    0.28
   2  -3 -17    1.61    0.28
  -2   3  17    1.34    0.28
   1  -3 -17    5.05    0.30
  -1   3  17    4.86    0.32
   0  -3 -17    0.87    0.13
   0   3  17    0.90    0.17
  -6   0  18    4.01    0.22
  -6   0  18    3.79    0.21
   5   0 -18    0.25    0.19
  -5   0  18    0.12    0.15
  -5   0  18    0.41    0.24
   5   0 -18   -0.03    0.22
  -5   0  18    0.30    0.18
   5   0 -18    0.36    0.18
   4   0 -18    1.60    0.22
   4   0 -18    1.60    0.27
   4   0 -18    1.38    0.22
  -4   0  18    1.46    0.21
  -4   0  18    1.57    0.22
  -4   0  18    1.59    0.21
   3   0 -18    0.65    0.21
  -3   0  18    0.31    0.20
   3   0 -18    0.78    0.24
  -3   0  18    0.37    0.21
   3   0 -18    0.47    0.19
   2   0 -18    0.25    0.21
  -2   0  18   -0.05    0.23
   2   0 -18    0.27    0.17
  -2   0  18    0.28    0.21
  -1   0  18   12.85    0.82
  -1   0  18   11.99    0.65
   1   0 -18   12.40    0.60
  -1   0  18   13.19    0.59
   0   0  18    0.32    0.19
   0   0 -18    0.29    0.20
   0   0  18    0.06    0.24
   1   0  18    1.55    0.20
   1   0  18    1.37    0.20
   5  -1 -18    0.51    0.19
   5  -1 -18    0.19    0.16
  -5  -1  18    0.17    0.13
  -5  -1  18    0.28    0.13
   5   1 -18    0.52    0.16
  -5   1  18    0.15    0.12
  -5   1  18    0.19    0.18
  -5   1  18    0.32    0.13
   4  -1 -18    3.25    0.34
  -4  -1  18    3.28    0.28
  -4  -1  18    2.90    0.28
   4  -1 -18    3.46    0.36
   4  -1 -18    3.04    0.27
  -4   1  18    2.31    0.33
  -4   1  18    3.15    0.27
   4   1 -18    2.64    0.32
  -4   1  18    3.05    0.28
   4   1 -18    3.25    0.42
   4   1 -18    3.37    0.30
   3  -1 -18    1.90    0.26
  -3  -1  18    1.77    0.22
   3  -1 -18    1.27    0.20
  -3  -1  18    1.64    0.22
   3  -1 -18    1.76    0.23
   3   1 -18    2.09    0.23
  -3   1  18    2.57    0.38
   3   1 -18    1.77    0.22
  -3   1  18    1.88    0.22
   3   1 -18    1.77    0.27
  -3   1  18    1.67    0.20
   2  -1 -18    0.98    0.20
  -2  -1  18    1.08    0.20
   2  -1 -18    1.06    0.19
   2  -1 -18    1.53    0.23
  -2  -1  18    0.99    0.26
  -2   1  18    1.07    0.19
   2   1 -18    1.38    0.22
  -2   1  18    1.12    0.21
  -2   1  18    0.94    0.26
  -1  -1  18    1.16    0.21
  -1  -1  18    0.61    0.28
  -1  -1  18    0.81    0.26
   1  -1 -18    0.80    0.19
  -1   1  18    0.98    0.20
  -1   1  18    0.96    0.24
   1   1 -18    0.87    0.19
   0  -1 -18    1.33    0.20
   0  -1  18    1.44    0.19
   0  -1  18    1.47    0.28
   0  -1  18    1.05    0.25
   0   1  18    1.40    0.26
   0   1  18    1.68    0.18
   1  -1  18   -0.25    0.25
   1   1  18    0.14    0.20
   4  -2 -18    1.35    0.18
  -4   2  18    1.03    0.17
   3  -2 -18    2.22    0.33
   3  -2 -18    1.88    0.23
   3  -2 -18    2.42    0.38
  -3   2  18    2.01    0.27
   2  -2 -18    1.34    0.17
   2  -2 -18    1.89    0.24
  -2   2  18    1.57    0.25
   1  -2 -18    3.70    0.27
  -1   2  18    2.86    0.26
   0  -2 -18    1.26    0.16
   4   0 -19    2.80    0.21
  -4   0  19    3.26    0.21
  -4   0  19    3.05    0.21
   3   0 -19    0.61    0.14
  -3   0  19    0.41    0.13
  -3   0  19    0.46    0.14
  -2   0  19    8.50    0.40
  -2   0  19    9.22    0.41
   2   0 -19    8.56    0.42
  -1   0  19    4.87    0.26
   1   0 -19    4.97    0.26
   3  -1 -19    2.79    0.28
  -3  -1  19    2.58    0.23
  -3  -1  19    2.72    0.25
  -3   1  19    2.95    0.27
  -3   1  19    2.51    0.22
   2  -1 -19    0.62    0.13
  -2  -1  19    0.95    0.18
  -2  -1  19    0.89    0.18
   1  -1 -19    1.82    0.20
   0   0   0    0.00    0.00
;
_shelx_hkl_checksum              31044
loop_
_space_group_symop_operation_xyz
'x, y, z'
'-x, y+1/2, -z'
loop_
_atom_site_label
_atom_site_type_symbol
_atom_site_fract_x
_atom_site_fract_y
_atom_site_fract_z
_atom_site_U_iso_or_equiv
_atom_site_adp_type
_atom_site_occupancy
_atom_site_site_symmetry_order
_atom_site_calc_flag
_atom_site_refinement_flags_posn
_atom_site_disorder_assembly
_atom_site_disorder_group
F1 F 0.78955(17) 0.4939(3) 0.21132(10) 0.0373(4) Uani 1 1 d . A 1
F2 F 0.5893(2) 0.6039(3) 0.09720(11) 0.0468(5) Uani 1 1 d . B 1
F3 F 0.7088(2) 0.2763(4) 0.09523(12) 0.0572(6) Uani 1 1 d . C 1
C1 C 0.6744(2) 0.3966(4) 0.39107(14) 0.0146(4) Uani 1 1 d . . .
H1 H 0.696803 0.254675 0.365213 0.017 Uiso 1 1 calc R . .
C2 C 0.7655(2) 0.4486(3) 0.48133(14) 0.0133(4) Uani 1 1 d . . .
C3 C 0.8877(2) 0.2941(4) 0.53447(14) 0.0156(4) Uani 1 1 d . . .
H3 H 0.910349 0.151654 0.508995 0.019 Uiso 1 1 calc R . .
C4 C 0.9732(3) 0.3471(4) 0.62169(15) 0.0186(5) Uani 1 1 d . . .
H4 H 1.054210 0.241338 0.656307 0.022 Uiso 1 1 calc R . .
C5 C 0.9416(3) 0.5587(4) 0.66063(14) 0.0203(5) Uani 1 1 d . . .
H5 H 1.001306 0.594218 0.721342 0.024 Uiso 1 1 calc R . .
C6 C 0.8249(3) 0.7132(4) 0.61109(14) 0.0185(4) Uani 1 1 d . . .
H6 H 0.804394 0.854757 0.637875 0.022 Uiso 1 1 calc R . .
C7 C 0.7350(2) 0.6630(3) 0.52044(14) 0.0140(4) Uani 1 1 d . . .
C8 C 0.6143(3) 0.8165(4) 0.46593(15) 0.0166(4) Uani 1 1 d . . .
H8 H 0.592845 0.960962 0.490297 0.020 Uiso 1 1 calc R . .
C9 C 0.5284(3) 0.7611(3) 0.37935(15) 0.0176(5) Uani 1 1 d . . .
H9 H 0.449291 0.868713 0.344559 0.021 Uiso 1 1 calc R . .
C10 C 0.5542(2) 0.5447(3) 0.33938(14) 0.0154(4) Uani 1 1 d . . .
C11 C 0.4497(3) 0.4825(4) 0.24683(13) 0.0186(4) Uani 1 1 d . . .
C12 C 0.2915(3) 0.5679(5) 0.21392(15) 0.0259(5) Uani 1 1 d . . .
H12 H 0.252333 0.676954 0.250563 0.031 Uiso 1 1 calc R . .
C13 C 0.1698(3) 0.5073(6) 0.12438(17) 0.0383(7) Uani 1 1 d . . .
H13A H 0.128731 0.651720 0.091210 0.046 Uiso 1 1 calc R . .
H13B H 0.068629 0.427741 0.135854 0.046 Uiso 1 1 calc R . .
C14 C 0.2483(3) 0.3540(5) 0.06431(17) 0.0359(6) Uani 1 1 d . . .
H14A H 0.155767 0.267907 0.021506 0.043 Uiso 1 1 calc R . .
H14B H 0.307497 0.451356 0.028393 0.043 Uiso 1 1 calc R . .
C15 C 0.3758(3) 0.1847(5) 0.12106(16) 0.0327(6) Uani 1 1 d . . .
H15A H 0.427360 0.090967 0.080588 0.039 Uiso 1 1 calc R . .
H15B H 0.314175 0.078797 0.152744 0.039 Uiso 1 1 calc R . .
C16 C 0.5200(3) 0.3078(4) 0.19153(15) 0.0219(5) Uani 1 1 d . . .
H16 H 0.582262 0.187486 0.234590 0.026 Uiso 1 1 calc R . .
C17 C 0.6504(3) 0.4198(5) 0.14894(15) 0.0305(6) Uani 1 1 d . . .
loop_
_atom_site_aniso_label
_atom_site_aniso_U_11
_atom_site_aniso_U_22
_atom_site_aniso_U_33
_atom_site_aniso_U_23
_atom_site_aniso_U_13
_atom_site_aniso_U_12
F1 0.0205(6) 0.0601(11) 0.0327(7) -0.0146(7) 0.0094(5) -0.0098(7)
F2 0.0402(9) 0.0631(12) 0.0402(9) 0.0199(8) 0.0159(7) -0.0087(8)
F3 0.0442(10) 0.0842(15) 0.0509(10) -0.0386(10) 0.0260(8) -0.0086(9)
C1 0.0132(8) 0.0115(9) 0.0207(9) 0.0001(8) 0.0076(8) -0.0004(8)
C2 0.0113(8) 0.0105(10) 0.0202(9) 0.0003(7) 0.0077(7) -0.0013(7)
C3 0.0128(9) 0.0107(10) 0.0246(10) 0.0020(8) 0.0072(8) -0.0003(8)
C4 0.0144(9) 0.0168(12) 0.0239(10) 0.0053(9) 0.0035(8) 0.0002(8)
C5 0.0181(9) 0.0246(12) 0.0180(10) -0.0015(9) 0.0043(8) -0.0066(9)
C6 0.0207(10) 0.0138(10) 0.0241(11) -0.0038(9) 0.0112(8) -0.0035(8)
C7 0.0119(8) 0.0092(10) 0.0233(10) -0.0002(8) 0.0089(8) -0.0014(7)
C8 0.0146(9) 0.0097(9) 0.0289(11) -0.0004(8) 0.0115(8) 0.0005(8)
C9 0.0126(9) 0.0146(11) 0.0267(11) 0.0059(8) 0.0072(8) 0.0028(8)
C10 0.0130(9) 0.0157(11) 0.0194(10) 0.0020(8) 0.0075(8) -0.0008(8)
C11 0.0172(9) 0.0202(10) 0.0189(10) 0.0049(9) 0.0056(8) -0.0032(8)
C12 0.0189(10) 0.0355(14) 0.0234(11) 0.0031(10) 0.0057(9) 0.0000(10)
C13 0.0197(11) 0.0626(19) 0.0283(12) 0.0029(13) -0.0017(10) 0.0000(13)
C14 0.0253(12) 0.0552(18) 0.0229(12) 0.0009(12) -0.0016(9) -0.0099(12)
C15 0.0354(13) 0.0339(14) 0.0258(12) -0.0068(11) 0.0024(10) -0.0116(11)
C16 0.0220(10) 0.0227(11) 0.0188(10) -0.0016(9) 0.0014(8) -0.0007(9)
C17 0.0235(11) 0.0460(16) 0.0228(11) -0.0086(11) 0.0075(10) -0.0008(11)
loop_
_atom_type_symbol
_atom_type_description
_atom_type_scat_dispersion_real
_atom_type_scat_dispersion_imag
_atom_type_scat_source
C C 0.0181 0.0091 'International Tables Vol C Tables 4.2.6.8 and 6.1.1.4'
H H 0.0000 0.0000 'International Tables Vol C Tables 4.2.6.8 and 6.1.1.4'
F F 0.0727 0.0534 'International Tables Vol C Tables 4.2.6.8 and 6.1.1.4'
loop_
_geom_angle_atom_site_label_1
_geom_angle_atom_site_label_2
_geom_angle_atom_site_label_3
_geom_angle
C2 C1 H1 118.8
C10 C1 H1 118.8
C10 C1 C2 122.36(19)
C1 C2 C3 122.01(18)
C1 C2 C7 119.36(17)
C3 C2 C7 118.63(18)
C2 C3 H3 119.5
C4 C3 C2 121.01(19)
C4 C3 H3 119.5
C3 C4 H4 119.9
C3 C4 C5 120.27(19)
C5 C4 H4 119.9
C4 C5 H5 119.8
C6 C5 C4 120.36(19)
C6 C5 H5 119.8
C5 C6 H6 119.7
C5 C6 C7 120.5(2)
C7 C6 H6 119.7
C6 C7 C2 119.19(18)
C6 C7 C8 122.98(19)
C8 C7 C2 117.82(18)
C7 C8 H8 119.3
C9 C8 C7 121.4(2)
C9 C8 H8 119.3
C8 C9 H9 119.1
C8 C9 C10 121.75(19)
C10 C9 H9 119.1
C1 C10 C9 117.29(19)
C1 C10 C11 122.22(19)
C9 C10 C11 120.47(18)
C10 C11 C16 119.22(17)
C12 C11 C10 121.1(2)
C12 C11 C16 119.6(2)
C11 C12 H12 117.0
C11 C12 C13 126.1(2)
C13 C12 H12 117.0
C12 C13 H13A 108.7
C12 C13 H13B 108.7
C12 C13 C14 114.1(2)
H13A C13 H13B 107.6
C14 C13 H13A 108.7
C14 C13 H13B 108.7
C13 C14 H14A 109.5
C13 C14 H14B 109.5
H14A C14 H14B 108.0
C15 C14 C13 110.9(2)
C15 C14 H14A 109.5
C15 C14 H14B 109.5
C14 C15 H15A 109.2
C14 C15 H15B 109.2
C14 C15 C16 112.0(2)
H15A C15 H15B 107.9
C16 C15 H15A 109.2
C16 C15 H15B 109.2
C11 C16 C15 112.08(19)
C11 C16 H16 107.2
C15 C16 H16 107.2
C17 C16 C11 110.54(19)
C17 C16 C15 112.33(19)
C17 C16 H16 107.2
F1 C17 F2 106.0(2)
F1 C17 C16 112.16(18)
F2 C17 C16 113.78(19)
F3 C17 F1 105.91(19)
F3 C17 F2 105.5(2)
F3 C17 C16 112.8(2)
loop_
_geom_bond_atom_site_label_1
_geom_bond_atom_site_label_2
_geom_bond_distance
F1 C17 1.340(3)
F2 C17 1.344(3)
F3 C17 1.335(3)
C1 H1 0.9500
C1 C2 1.416(3)
C1 C10 1.379(3)
C2 C3 1.420(3)
C2 C7 1.427(2)
C3 H3 0.9500
C3 C4 1.367(3)
C4 H4 0.9500
C4 C5 1.415(3)
C5 H5 0.9500
C5 C6 1.375(3)
C6 H6 0.9500
C6 C7 1.416(3)
C7 C8 1.419(3)
C8 H8 0.9500
C8 C9 1.363(3)
C9 H9 0.9500
C9 C10 1.433(3)
C10 C11 1.490(3)
C11 C12 1.338(3)
C11 C16 1.518(3)
C12 H12 0.9500
C12 C13 1.503(3)
C13 H13A 0.9900
C13 H13B 0.9900
C13 C14 1.525(4)
C14 H14A 0.9900
C14 H14B 0.9900
C14 C15 1.520(4)
C15 H15A 0.9900
C15 H15B 0.9900
C15 C16 1.539(3)
C16 H16 1.0000
C16 C17 1.515(3)
