#------------------------------------------------------------------------------
#$Date: 2019-11-02 07:11:45 +0200 (Sat, 02 Nov 2019) $
#$Revision: 220905 $
#$URL: file:///home/coder/svn-repositories/cod/cif/4/12/77/4127722.cif $
#------------------------------------------------------------------------------
#
# This file is available in the Crystallography Open Database (COD),
# http://www.crystallography.net/
#
# All data on this site have been placed in the public domain by the
# contributors.
#
data_4127722
loop_
_publ_author_name
'Li, Xiaotong'
'Ke, Weijun'
'Traor\'e, Boubacar'
'Guo, Peijun'
'Hadar, Ido'
'Kepenekian, Mika\"el'
'Even, Jacky'
'Katan, Claudine'
'Stoumpos, Constantinos C.'
'Schaller, Richard D.'
'Kanatzidis, Mercouri G.'
_publ_section_title
;
 Two-Dimensional Dion-Jacobson Hybrid Lead Iodide Perovskites with
 Aromatic Diammonium Cations.
;
_journal_issue                   32
_journal_name_full               'Journal of the American Chemical Society'
_journal_page_first              12880
_journal_page_last               12890
_journal_paper_doi               10.1021/jacs.9b06398
_journal_volume                  141
_journal_year                    2019
_chemical_formula_sum            'C7 H16 I7 N3 Pb2'
_chemical_formula_weight         1444.9
_space_group_IT_number           7
_space_group_name_Hall           'P -2yc'
_space_group_name_H-M_alt        'P 1 c 1'
_symmetry_cell_setting           monoclinic
_symmetry_Int_Tables_number      7
_symmetry_space_group_name_Hall  'P -2yc'
_symmetry_space_group_name_H-M   'P 1 c 1'
_cell_angle_alpha                90
_cell_angle_beta                 97.619(7)
_cell_angle_gamma                90
_cell_formula_units_Z            2
_cell_length_a                   16.2400(7)
_cell_length_b                   9.0384(5)
_cell_length_c                   8.8082(16)
_cell_measurement_reflns_used    8370
_cell_measurement_temperature    293
_cell_measurement_theta_max      29.37
_cell_measurement_theta_min      2.25
_cell_volume                     1281.5(3)
_computing_cell_refinement       'STOE X-AREA'
_computing_data_collection       'STOE X-AREA'
_computing_data_reduction        'STOE X-RED'
_computing_structure_refinement  JANA2006
_computing_structure_solution    JANA2006
_diffrn_ambient_temperature      293
_diffrn_detector                 'image plate (34 cm diameter)'
_diffrn_detector_area_resol_mean 6.67
_diffrn_measured_fraction_theta_full 0.99
_diffrn_measured_fraction_theta_max 0.99
_diffrn_measurement_device       'four-circle diffractometer'
_diffrn_measurement_device_type  'IPDS Stoe'
_diffrn_measurement_method       'rotation method'
_diffrn_radiation_monochromator  graphite
_diffrn_radiation_probe          x-ray
_diffrn_radiation_source         'X-ray tube'
_diffrn_radiation_type           'Mo K\a'
_diffrn_radiation_wavelength     0.71073
_diffrn_reflns_av_R_equivalents  0.0841
_diffrn_reflns_av_unetI/netI     0.053
_diffrn_reflns_limit_h_max       22
_diffrn_reflns_limit_h_min       -22
_diffrn_reflns_limit_k_max       12
_diffrn_reflns_limit_k_min       -10
_diffrn_reflns_limit_l_max       12
_diffrn_reflns_limit_l_min       -11
_diffrn_reflns_number            11987
_diffrn_reflns_theta_full        29.25
_diffrn_reflns_theta_max         29.25
_diffrn_reflns_theta_min         2.25
_diffrn_source
'sealed X-ray tube, 12 x 0.4 mm long-fine focus'
_diffrn_source_current           40
_diffrn_source_power             2.00
_diffrn_source_voltage           50
_exptl_absorpt_coefficient_mu    21.547
_exptl_absorpt_correction_T_max  0.6909
_exptl_absorpt_correction_T_min  0.1016
_exptl_absorpt_correction_type   numerical
_exptl_absorpt_process_details   X-SHAPE
_exptl_crystal_colour            'dark red'
_exptl_crystal_density_diffrn    3.7447
_exptl_crystal_description       'square plate'
_exptl_crystal_F_000             1228
_exptl_crystal_size_max          0.0774
_exptl_crystal_size_mid          0.0644
_exptl_crystal_size_min          0.0086
_refine_diff_density_max         7.83
_refine_diff_density_min         -2.39
_refine_ls_abs_structure_details
'  1924 of Friedel pairs used in the refinement'
_refine_ls_abs_structure_Flack   0.25(3)
_refine_ls_extinction_method     none
_refine_ls_goodness_of_fit_gt    3.78
_refine_ls_goodness_of_fit_ref   3.17
_refine_ls_hydrogen_treatment    constr
_refine_ls_number_constraints    74
_refine_ls_number_parameters     116
_refine_ls_number_reflns         4246
_refine_ls_number_restraints     25
_refine_ls_R_factor_all          0.1281
_refine_ls_R_factor_gt           0.0944
_refine_ls_shift/su_max          0.0448
_refine_ls_shift/su_mean         0.0040
_refine_ls_structure_factor_coef Fsqd
_refine_ls_weighting_details     w=1/(\s^2^(I)+0.0004I^2^)
_refine_ls_weighting_scheme      sigma
_refine_ls_wR_factor_gt          0.1640
_refine_ls_wR_factor_ref         0.1676
_reflns_number_gt                2902
_reflns_number_total             4246
_reflns_threshold_expression     I>2\s(I)
_cod_data_source_file            ja9b06398_si_002.cif
_cod_data_source_block           3AMPYPb2I7
_cod_depositor_comments
;
The following automatic conversions were performed:

'_diffrn_radiation_probe' value 'X-ray' changed to 'x-ray' according
to
/home/data/users/saulius/crontab/automatic-downloads/current/ACS/lib/dictionaries/cif_core.dic
dictionary named 'cif_core.dic' version 2.4.2 from 2011-04-26.

Automatic conversion script
Id: cif_fix_values 4973 2017-02-22 13:04:09Z antanas 
;
_cod_database_code               4127722
loop_
_space_group_symop_id
_space_group_symop_operation_xyz
1 x,y,z
2 x,-y,z+1/2
loop_
_atom_site_label
_atom_site_type_symbol
_atom_site_fract_x
_atom_site_fract_y
_atom_site_fract_z
_atom_site_adp_type
_atom_site_U_iso_or_equiv
_atom_site_site_symmetry_multiplicity
_atom_site_occupancy
_atom_site_calc_flag
Pb1 Pb 0.4621(3) 0.2501(3) 0.4037(4) Uani 0.0385(18) 2 1 d
Pb2 Pb 0.8570(3) 0.2503(3) 0.4970(4) Uani 0.0353(16) 2 1 d
I1 I 0.8744(7) 0.9884(12) 0.7387(10) Uani 0.093(4) 2 1 d
I2 I 0.4808(10) 0.5143(11) 0.6475(12) Uani 0.135(6) 2 1 d
I3 I 0.2723(6) 0.2931(15) 0.3695(12) Uani 0.112(4) 2 1 d
I4 I 0.6628(9) 0.2042(4) 0.4655(19) Uani 0.095(2) 2 1 d
I5 I 0.4434(6) 0.0098(8) 0.6581(10) Uani 0.074(3) 2 1 d
I6 I 0.8415(8) 0.5024(11) 0.7473(12) Uani 0.114(5) 2 1 d
I7 I 1.0515(7) 0.2927(16) 0.5612(13) Uani 0.120(4) 2 1 d
N2 N 1.000(3) 0.728(7) 0.482(9) Uiso 0.141(11) 2 1 d
C2 C 1.061(3) 0.850(6) 0.527(8) Uiso 0.141(11) 2 1 d
C6 C 1.235(4) 0.661(5) 0.378(10) Uiso 0.141(11) 2 1 d
C7 C 1.166(4) 0.685(4) 0.442(9) Uiso 0.141(11) 2 1 d
C3 C 1.138(3) 0.823(4) 0.455(6) Uiso 0.141(11) 2 1 d
N1 N 0.667(5) 0.730(5) 0.509(5) Uiso 0.102(16) 2 1 d
N3 N 1.248(3) 0.912(5) 0.340(8) Uiso 0.141(11) 2 1 d
C5 C 1.275(3) 0.774(6) 0.327(6) Uiso 0.141(11) 2 1 d
C4 C 1.179(3) 0.936(4) 0.403(8) Uiso 0.141(11) 2 1 d
C1 C 0.658(6) 0.853(6) 0.394(6) Uiso 0.102(16) 2 1 d
H1n1 H 0.618236 0.6995 0.524886 Uiso 0.1228 2 1 d
H2n1 H 0.693993 0.656745 0.473234 Uiso 0.1228 2 1 d
H3n1 H 0.694598 0.76114 0.593959 Uiso 0.1228 2 1 d
H1n2 H 0.952962 0.748592 0.516073 Uiso 0.1697 2 1 d
H2n2 H 0.990984 0.720747 0.38264 Uiso 0.1697 2 1 d
H3n2 H 1.019144 0.645151 0.521242 Uiso 0.1697 2 1 d
H1n3 H 1.274434 0.985755 0.306424 Uiso 0.1697 2 1 d
H1c5 H 1.324931 0.756961 0.281216 Uiso 0.1697 2 1 d
H1c4 H 1.159069 1.034943 0.412559 Uiso 0.1697 2 1 d
H1c1 H 0.601187 0.885752 0.378072 Uiso 0.1228 2 1 d
H2c1 H 0.693181 0.934137 0.43136 Uiso 0.1228 2 1 d
H3c1 H 0.673588 0.818813 0.298545 Uiso 0.1228 2 1 d
H1c2 H 1.037106 0.943042 0.491785 Uiso 0.1697 2 1 d
H2c2 H 1.074528 0.851839 0.635994 Uiso 0.1697 2 1 d
H1c6 H 1.254487 0.56203 0.368924 Uiso 0.1697 2 1 d
H1c7 H 1.136458 0.603586 0.478826 Uiso 0.1697 2 1 d
loop_
_atom_site_aniso_label
_atom_site_aniso_type_symbol
_atom_site_aniso_U_11
_atom_site_aniso_U_22
_atom_site_aniso_U_33
_atom_site_aniso_U_12
_atom_site_aniso_U_13
_atom_site_aniso_U_23
Pb1 Pb 0.054(4) 0.031(2) 0.031(3) 0.0098(17) 0.012(2) 0.0035(15)
Pb2 Pb 0.049(4) 0.0270(18) 0.031(3) -0.0027(17) 0.008(2) 0.0003(16)
I1 I 0.106(8) 0.117(6) 0.059(5) 0.012(6) 0.021(5) 0.065(4)
I2 I 0.259(17) 0.080(5) 0.063(7) 0.041(7) 0.010(8) -0.043(5)
I3 I 0.052(5) 0.176(9) 0.103(6) 0.066(5) -0.014(4) -0.066(6)
I4 I 0.039(2) 0.117(3) 0.129(5) -0.005(6) 0.005(3) -0.011(6)
I5 I 0.087(6) 0.056(3) 0.081(7) -0.005(4) 0.020(5) 0.037(4)
I6 I 0.187(12) 0.070(4) 0.089(7) -0.005(5) 0.029(8) -0.058(5)
I7 I 0.060(6) 0.168(8) 0.121(7) -0.053(5) -0.026(5) 0.066(6)
loop_
_atom_type_symbol
_atom_type_scat_dispersion_real
_atom_type_scat_dispersion_imag
_atom_type_scat_source
C 0.0033 0.0016 'International Tables Vol C tables 4.2.6.8 and 6.1.1.1'
H 0.0000 0.0000 'International Tables Vol C tables 4.2.6.8 and 6.1.1.1'
I -0.4742 1.8119 'International Tables Vol C tables 4.2.6.8 and 6.1.1.1'
N 0.0061 0.0033 'International Tables Vol C tables 4.2.6.8 and 6.1.1.1'
Pb -3.3944 10.1111 'International Tables Vol C tables 4.2.6.8 and 6.1.1.1'
loop_
_geom_angle_atom_site_label_1
_geom_angle_atom_site_label_2
_geom_angle_atom_site_label_3
_geom_angle_site_symmetry_1
_geom_angle_site_symmetry_3
_geom_angle
I2 Pb1 I2 . 2_564 88.1(3)
I2 Pb1 I3 . . 88.6(4)
I2 Pb1 I4 . . 88.8(4)
I2 Pb1 I5 . . 92.7(3)
I2 Pb1 I5 . 2_554 179.3(3)
I2 Pb1 I3 2_564 . 92.0(4)
I2 Pb1 I4 2_564 . 90.9(4)
I2 Pb1 I5 2_564 . 179.2(3)
I2 Pb1 I5 2_564 2_554 91.2(3)
I3 Pb1 I4 . . 176.0(4)
I3 Pb1 I5 . . 88.1(3)
I3 Pb1 I5 . 2_554 91.3(3)
I4 Pb1 I5 . . 89.0(3)
I4 Pb1 I5 . 2_554 91.3(3)
I5 Pb1 I5 . 2_554 88.0(2)
I1 Pb2 I1 1_545 2_564 88.0(3)
I1 Pb2 I4 1_545 . 87.7(3)
I1 Pb2 I6 1_545 . 94.4(3)
I1 Pb2 I6 1_545 2_564 177.3(3)
I1 Pb2 I7 1_545 . 88.4(3)
I1 Pb2 I4 2_564 . 91.7(3)
I1 Pb2 I6 2_564 . 177.4(3)
I1 Pb2 I6 2_564 2_564 89.3(3)
I1 Pb2 I7 2_564 . 91.7(3)
I4 Pb2 I6 . . 89.2(3)
I4 Pb2 I6 . 2_564 92.7(3)
I4 Pb2 I7 . . 174.8(4)
I6 Pb2 I6 . 2_564 88.2(3)
I6 Pb2 I7 . . 87.6(3)
I6 Pb2 I7 2_564 . 91.4(4)
Pb2 I1 Pb2 1_565 2_565 168.4(4)
Pb2 I1 N2 1_565 . 93.8(10)
Pb2 I1 N2 1_565 2_575 82.4(11)
Pb2 I1 N2 2_565 . 96.1(10)
Pb2 I1 N2 2_565 2_575 98.5(11)
N2 I1 N2 . 2_575 116.5(12)
Pb1 I2 Pb1 . 2_565 167.7(6)
Pb1 I2 N1 . . 99.7(8)
Pb1 I2 N1 2_565 . 92.3(7)
Pb1 I3 N3 . 1_445 89.2(9)
Pb1 I4 Pb2 . . 164.4(2)
Pb1 I4 N1 . 2_564 87.9(11)
Pb2 I4 N1 . 2_564 85.4(11)
Pb1 I5 Pb1 . 2_555 168.3(4)
Pb1 I5 N3 . 1_445 78.5(8)
Pb1 I5 N3 . 2_465 109.5(9)
Pb1 I5 N3 2_555 1_445 107.7(8)
Pb1 I5 N3 2_555 2_465 82.0(9)
N3 I5 N3 1_445 2_465 73.1(13)
Pb2 I6 Pb2 . 2_565 171.0(5)
Pb2 I6 N2 . 2_565 82.6(11)
Pb2 I6 N1 . . 97.0(7)
Pb2 I6 N2 2_565 2_565 91.4(11)
Pb2 I6 N1 2_565 . 89.3(7)
N2 I6 N1 2_565 . 176.9(13)
Pb2 I7 N2 . . 84.7(7)
Pb2 I7 N2 . 2_565 80.1(8)
Pb2 I7 N3 . 2_565 135.8(9)
N2 I7 N2 . 2_565 98.3(14)
N2 I7 N3 . 2_565 130.7(11)
N2 I7 N3 2_565 2_565 70.5(12)
I1 N2 I1 . 2_574 69.2(10)
I1 N2 I6 . 2_564 106.2(12)
I1 N2 I7 . . 125.5(19)
I1 N2 I7 . 2_564 138.9(17)
I1 N2 C2 . . 78(4)
I1 N2 H1n2 . . 31.81
I1 N2 H2n2 . . 126.1
I1 N2 H3n2 . . 118
I1 N2 I6 2_574 2_564 77.5(11)
I1 N2 I7 2_574 . 147.3(18)
I1 N2 I7 2_574 2_564 70.2(13)
I1 N2 C2 2_574 . 87(3)
I1 N2 H1n2 2_574 . 67.92
I1 N2 H2n2 2_574 . 58.53
I1 N2 H3n2 2_574 . 163.15
I6 N2 I7 2_564 . 70.4(10)
I6 N2 I7 2_564 2_564 70.5(13)
I6 N2 C2 2_564 . 161(5)
I6 N2 H1n2 2_564 . 75.05
I6 N2 H2n2 2_564 . 52.4
I6 N2 H3n2 2_564 . 85.72
I7 N2 I7 . 2_564 92.9(14)
I7 N2 C2 . . 123(3)
I7 N2 H1n2 . . 108.33
I7 N2 H2n2 . . 95.65
I7 N2 H3n2 . . 16
I7 N2 C2 2_564 . 94(4)
I7 N2 H1n2 2_564 . 130.09
I7 N2 H2n2 2_564 . 21.53
I7 N2 H3n2 2_564 . 102.8
C2 N2 H1n2 . . 109.47
C2 N2 H2n2 . . 109.47
C2 N2 H3n2 . . 109.47
H1n2 N2 H2n2 . . 109.47
H1n2 N2 H3n2 . . 109.47
H2n2 N2 H3n2 . . 109.47
N2 C2 C3 . . 109(5)
N2 C2 H1c2 . . 109.47
N2 C2 H2c2 . . 109.47
C3 C2 H1c2 . . 109.47
C3 C2 H2c2 . . 109.47
H1c2 C2 H2c2 . . 109.47
C7 C6 C5 . . 120(5)
C7 C6 H1c6 . . 120
C5 C6 H1c6 . . 120
C6 C7 C3 . . 120(5)
C6 C7 H1c7 . . 120
C3 C7 H1c7 . . 120
C2 C3 C7 . . 120(5)
C2 C3 C4 . . 120(4)
C7 C3 C4 . . 120(5)
I2 N1 I4 . 2_565 69.5(10)
I2 N1 I6 . . 96.1(10)
I2 N1 C1 . . 125(5)
I2 N1 H1n1 . . 15.12
I2 N1 H2n1 . . 100.31
I2 N1 H3n1 . . 102.7
I4 N1 I6 2_565 . 69.5(8)
I4 N1 C1 2_565 . 123(3)
I4 N1 H1n1 2_565 . 75.32
I4 N1 H2n1 2_565 . 122.58
I4 N1 H3n1 2_565 . 34.14
I6 N1 C1 . . 139(5)
I6 N1 H1n1 . . 111.14
I6 N1 H2n1 . . 55.18
I6 N1 H3n1 . . 56.72
C1 N1 H1n1 . . 109.47
C1 N1 H2n1 . . 109.47
C1 N1 H3n1 . . 109.47
H1n1 N1 H2n1 . . 109.47
H1n1 N1 H3n1 . . 109.47
H2n1 N1 H3n1 . . 109.47
I3 N3 I5 1_665 1_665 70.1(9)
I3 N3 I5 1_665 2_664 75.7(11)
I3 N3 I7 1_665 2_564 123.6(14)
I3 N3 C5 1_665 . 154(4)
I3 N3 C4 1_665 . 84(3)
I3 N3 H1n3 1_665 . 37.34
I5 N3 I5 1_665 2_664 68.2(9)
I5 N3 I7 1_665 2_564 165.8(14)
I5 N3 C5 1_665 . 91(3)
I5 N3 C4 1_665 . 107(4)
I5 N3 H1n3 1_665 . 71.6
I5 N3 I7 2_664 2_564 116.7(16)
I5 N3 C5 2_664 . 80(3)
I5 N3 C4 2_664 . 160(3)
I5 N3 H1n3 2_664 . 39.92
I7 N3 C5 2_564 . 77(3)
I7 N3 C4 2_564 . 73(3)
I7 N3 H1n3 2_564 . 121.13
C5 N3 C4 . . 120(5)
C5 N3 H1n3 . . 120
C4 N3 H1n3 . . 120
C6 C5 N3 . . 120(5)
C6 C5 H1c5 . . 120
N3 C5 H1c5 . . 120
C3 C4 N3 . . 120(4)
C3 C4 H1c4 . . 120
N3 C4 H1c4 . . 120
N1 C1 H1c1 . . 109.47
N1 C1 H2c1 . . 109.47
N1 C1 H3c1 . . 109.47
H1c1 C1 H2c1 . . 109.47
H1c1 C1 H3c1 . . 109.47
H2c1 C1 H3c1 . . 109.47
loop_
_geom_bond_atom_site_label_1
_geom_bond_atom_site_label_2
_geom_bond_site_symmetry_2
_geom_bond_distance
Pb1 I2 . 3.199(10)
Pb1 I2 2_564 3.146(11)
Pb1 I3 . 3.082(11)
Pb1 I4 . 3.260(15)
Pb1 I5 . 3.165(9)
Pb1 I5 2_554 3.180(9)
Pb2 I1 1_545 3.170(10)
Pb2 I1 2_564 3.176(11)
Pb2 I4 . 3.156(16)
Pb2 I6 . 3.204(11)
Pb2 I6 2_564 3.123(11)
Pb2 I7 . 3.158(11)
I1 N2 . 4.00(7)
I1 N2 2_575 3.76(6)
I2 N1 . 3.93(7)
I3 N3 1_445 3.48(5)
I4 N1 2_564 4.08(5)
I5 N3 1_445 4.05(6)
I5 N3 2_465 3.81(6)
I6 N2 2_565 3.72(6)
I6 N1 . 3.88(6)
I7 N2 . 4.07(6)
I7 N2 2_565 3.91(8)
I7 N3 2_565 4.19(5)
N2 C2 . 1.50(8)
N2 H1n2 . 0.87
N2 H2n2 . 0.87
N2 H3n2 . 0.87
C2 C3 . 1.50(8)
C2 H1c2 . 0.96
C2 H2c2 . 0.96
C6 C7 . 1.33(10)
C6 C5 . 1.33(8)
C6 H1c6 . 0.96
C7 C3 . 1.33(6)
C7 H1c7 . 0.96
C3 C4 . 1.33(7)
N1 C1 . 1.50(7)
N1 H1n1 . 0.87
N1 H2n1 . 0.87
N1 H3n1 . 0.87
N3 C5 . 1.33(7)
N3 C4 . 1.33(9)
N3 H1n3 . 0.87
C5 H1c5 . 0.96
C4 H1c4 . 0.96
C1 H1c1 . 0.96
C1 H2c1 . 0.96
C1 H3c1 . 0.96
loop_
_geom_hbond_atom_site_label_D
_geom_hbond_atom_site_label_H
_geom_hbond_atom_site_label_A
_geom_hbond_site_symmetry_A
_geom_hbond_distance_DH
_geom_hbond_distance_HA
_geom_hbond_distance_DA
_geom_hbond_angle_DHA
C6 H1c6 I3 1_655 0.96 2.45 3.39(5) 165.41
C7 H1c7 N2 . 0.96 2.50 2.80(9) 98.12
loop_
_refln_index_h
_refln_index_k
_refln_index_l
_refln_F_squared_calc
_refln_F_squared_meas
_refln_F_squared_sigma
_refln_observed_status
2 0 0 114043.00 198121.00 2649.31 o
-2 0 0 118394.00 185759.00 3077.93 o
3 0 0 97314.80 160332.00 2092.45 o
-3 0 0 97390.70 139398.00 2132.95 o
4 0 0 5653.05 8420.43 1123.85 o
-4 0 0 5771.67 5055.63 1120.47 o
6 0 0 25819.50 36128.50 786.36 o
-6 0 0 24411.30 29439.40 786.36 o
7 0 0 55445.40 83326.80 776.23 o
-7 0 0 59076.80 69948.60 769.48 o
8 0 0 5137.44 9065.04 502.86 o
-8 0 0 9501.81 8649.92 499.49 o
9 0 0 1571.00 863.98 293.62 o
-9 0 0 1991.85 320.62 411.74 <
10 0 0 122092.00 175351.00 755.98 o
-10 0 0 122283.00 162489.00 749.23 o
11 0 0 7101.53 5379.63 364.49 o
-11 0 0 6405.32 5619.25 367.87 o
12 0 0 12911.50 15237.80 361.12 o
-12 0 0 14956.70 13344.40 367.87 o
13 0 0 513.29 465.74 327.37 <
-13 0 0 2497.12 620.99 323.99 <
14 0 0 442.67 651.36 313.87 o
-14 0 0 419.12 620.99 286.87 o
15 0 0 18244.20 27330.10 401.62 o
-15 0 0 18314.40 27026.40 364.49 o
16 0 0 3169.35 3108.30 300.37 o
-16 0 0 2700.37 2885.56 290.24 o
17 0 0 1867.27 1856.21 303.74 o
-17 0 0 2384.66 1191.35 320.62 o
18 0 0 124.65 249.74 296.99 <
-18 0 0 582.99 772.86 293.62 o
19 0 0 77.12 391.49 296.99 <
-19 0 0 50.19 -101.25 293.62 <
0 1 0 2140.78 563.61 465.74 <
1 1 0 3578.33 543.36 313.87 <
-1 1 0 3530.65 475.86 327.37 <
2 1 0 1354.96 519.74 323.99 <
-2 1 0 1327.20 327.37 330.74 <
3 1 0 3598.97 1619.96 330.74 o
-3 1 0 3601.15 1964.20 340.87 o
4 1 0 43742.10 60876.80 485.99 o
-4 1 0 43681.10 61835.30 496.11 o
5 1 0 1026.08 263.24 340.87 <
-5 1 0 1007.02 644.61 357.74 <
6 1 0 7003.12 10894.20 404.99 o
-6 1 0 7036.25 10060.60 374.62 o
7 1 0 4014.01 6597.97 411.74 o
-7 1 0 4073.29 6179.48 425.24 o
8 1 0 653.71 263.24 428.61 <
-8 1 0 653.49 580.49 431.99 <
9 1 0 25211.50 30266.30 448.86 o
-9 1 0 25028.40 30813.00 442.11 o
10 1 0 1128.60 1798.83 323.99 o
-10 1 0 1121.02 1410.72 313.87 o
11 1 0 3867.77 3061.05 283.49 o
-11 1 0 3918.54 2497.44 266.62 o
12 1 0 700.54 -37.12 253.12 <
-12 1 0 731.05 485.99 239.62 o
13 1 0 243.90 283.49 242.99 <
-13 1 0 245.64 296.99 229.49 <
14 1 0 3933.19 3469.42 236.24 o
-14 1 0 3901.99 2490.69 229.49 o
15 1 0 127.29 577.11 232.87 o
-15 1 0 126.02 20.25 212.62 <
16 1 0 922.88 550.11 215.99 o
-16 1 0 948.32 239.62 212.62 <
17 1 0 324.80 108.00 215.99 <
-17 1 0 337.04 496.11 219.37 o
18 1 0 129.99 23.62 202.49 <
-18 1 0 129.53 222.74 209.24 <
19 1 0 240.31 256.49 219.37 <
-19 1 0 243.57 296.99 215.99 <
0 2 0 34069.50 67468.10 418.49 o
1 2 0 4091.72 3884.54 239.62 o
-1 2 0 3750.64 3935.16 242.99 o
2 2 0 26160.20 26273.80 300.37 o
-2 2 0 25512.40 26358.10 300.37 o
3 2 0 24853.30 40421.40 317.24 o
-3 2 0 25544.00 32544.40 307.12 o
4 2 0 3630.01 3007.06 219.37 o
-4 2 0 3255.44 3401.92 226.12 o
5 2 0 51962.90 68564.90 364.49 o
-5 2 0 47841.00 67977.70 367.87 o
6 2 0 2386.46 2426.57 232.87 o
-6 2 0 2219.90 2527.82 239.62 o
7 2 0 2569.97 776.23 229.49 o
-7 2 0 485.76 668.23 239.62 o
8 2 0 805.90 614.24 256.49 o
-8 2 0 483.20 735.73 263.24 o
9 2 0 4160.57 2251.07 286.87 o
-9 2 0 3914.29 2672.94 300.37 o
10 2 0 47699.20 62186.30 438.74 o
-10 2 0 44092.90 65149.50 472.49 o
11 2 0 9667.18 11420.70 364.49 o
-11 2 0 9213.47 10816.60 364.49 o
12 2 0 1548.38 1012.48 347.62 o
-12 2 0 611.11 1538.96 334.12 o
13 2 0 1396.42 1643.59 307.12 o
-13 2 0 1324.79 2058.70 286.87 o
14 2 0 1292.88 1748.21 276.74 o
-14 2 0 1361.46 1137.35 259.87 o
15 2 0 17163.10 19550.90 293.62 o
-15 2 0 15905.30 18396.70 286.87 o
16 2 0 5165.48 5858.87 253.12 o
-16 2 0 5053.22 4765.39 246.37 o
17 2 0 712.28 472.49 239.62 <
-17 2 0 572.68 404.99 229.49 <
18 2 0 439.25 816.73 232.87 o
-18 2 0 634.16 273.37 226.12 <
0 3 0 349.79 1690.84 205.87 o
1 3 0 24834.00 31960.50 253.12 o
-1 3 0 24977.50 28680.10 361.12 o
2 3 0 10237.90 6719.47 192.37 o
-2 3 0 10074.80 6550.72 195.74 o
3 3 0 2174.69 1609.84 192.37 o
-3 3 0 2066.12 1619.96 195.74 o
4 3 0 2321.27 2541.32 192.37 o
-4 3 0 2175.81 2240.95 195.74 o
5 3 0 1302.36 1741.46 189.00 o
-5 3 0 1305.51 1690.84 192.37 o
6 3 0 23939.10 31353.00 253.12 o
-6 3 0 23782.20 27532.60 249.74 o
7 3 0 25770.90 24633.60 242.99 o
-7 3 0 25770.20 25365.90 249.74 o
8 3 0 2452.62 2328.70 205.87 o
-8 3 0 2415.98 1950.70 212.62 o
9 3 0 295.76 84.37 219.37 <
-9 3 0 252.85 418.49 219.37 <
10 3 0 515.49 185.62 229.49 <
-10 3 0 553.03 290.24 236.24 <
11 3 0 4508.87 4188.28 266.62 o
-11 3 0 4542.01 3948.66 269.99 o
12 3 0 9474.21 10327.30 320.62 o
-12 3 0 9369.60 9794.02 323.99 o
13 3 0 1069.54 539.99 323.99 <
-13 3 0 1016.24 408.37 340.87 <
14 3 0 911.47 1660.46 391.49 o
-14 3 0 799.45 1468.09 350.99 o
15 3 0 621.67 13.50 347.62 <
-15 3 0 596.53 732.36 303.74 o
16 3 0 211.62 344.24 290.24 <
-16 3 0 201.64 60.75 269.99 <
17 3 0 1576.41 1457.97 273.37 o
-17 3 0 1581.44 2062.08 239.62 o
18 3 0 300.45 293.62 269.99 <
-18 3 0 289.62 479.24 242.99 <
1 4 0 18227.20 21397.00 178.87 o
-1 4 0 18621.60 20519.50 307.12 o
2 4 0 99799.40 106702.00 340.87 o
-2 4 0 100033.00 104481.00 340.87 o
3 4 0 102491.00 124170.00 357.74 o
-3 4 0 103191.00 120205.00 364.49 o
4 4 0 8870.98 8420.43 185.62 o
-4 4 0 8841.66 8332.68 185.62 o
5 4 0 165901.00 251087.00 475.86 o
-5 4 0 168956.00 247220.00 472.49 o
6 4 0 7456.63 9362.03 202.49 o
-6 4 0 7375.67 8433.93 202.49 o
7 4 0 29619.40 39314.50 256.49 o
-7 4 0 31150.90 35176.80 239.62 o
8 4 0 26934.60 34991.20 239.62 o
-8 4 0 28534.60 37272.60 246.37 o
9 4 0 2637.33 3034.06 195.74 o
-9 4 0 2822.03 2227.45 192.37 o
10 4 0 46715.90 60009.50 303.74 o
-10 4 0 48706.00 57967.70 303.74 o
11 4 0 593.41 256.49 219.37 <
-11 4 0 700.53 982.10 236.24 o
12 4 0 5524.49 5980.36 256.49 o
-12 4 0 6684.61 5970.24 256.49 o
13 4 0 3038.64 5437.00 276.74 o
-13 4 0 3550.21 5102.88 283.49 o
14 4 0 340.47 1022.60 296.99 o
-14 4 0 359.85 442.11 296.99 <
15 4 0 10343.10 13965.40 394.87 o
-15 4 0 10905.80 13371.40 391.49 o
16 4 0 156.94 -337.49 371.24 <
-16 4 0 93.86 108.00 340.87 <
17 4 0 690.01 826.86 330.74 o
-17 4 0 985.17 1549.09 307.12 o
0 5 0 86.59 479.24 158.62 o
1 5 0 4364.07 5612.50 168.75 o
-1 5 0 4300.94 5379.63 172.12 o
2 5 0 228.27 415.11 128.25 o
-2 5 0 215.44 347.62 229.49 <
3 5 0 2288.79 2089.08 162.00 o
-3 5 0 2336.10 2068.83 162.00 o
4 5 0 26088.10 32551.10 229.49 o
-4 5 0 25872.60 32193.40 229.49 o
5 5 0 295.02 -57.37 155.25 <
-5 5 0 268.89 145.12 162.00 <
6 5 0 554.45 303.74 172.12 <
-6 5 0 513.06 502.86 158.62 o
7 5 0 239.64 300.37 158.62 <
-7 5 0 273.45 452.24 175.50 o
8 5 0 1090.95 904.48 165.37 o
-8 5 0 1094.17 911.23 185.62 o
9 5 0 19632.40 19999.80 236.24 o
-9 5 0 19462.90 19341.70 212.62 o
10 5 0 340.89 425.24 185.62 o
-10 5 0 303.39 516.36 185.62 o
11 5 0 624.98 310.49 199.12 <
-11 5 0 646.29 -145.12 199.12 <
12 5 0 452.31 165.37 199.12 <
-12 5 0 545.29 114.75 202.49 <
13 5 0 169.22 -20.25 219.37 <
-13 5 0 168.40 -104.62 226.12 <
14 5 0 5522.27 4843.01 269.99 o
-14 5 0 5457.10 3975.66 266.62 o
15 5 0 85.88 425.24 293.62 <
-15 5 0 79.14 539.99 310.49 <
16 5 0 353.71 57.37 334.12 <
-16 5 0 404.31 -907.85 367.87 <
17 5 0 625.81 141.75 377.99 <
-17 5 0 690.61 128.25 377.99 <
0 6 0 801.89 4174.78 165.37 o
1 6 0 654.70 185.62 151.87 <
-1 6 0 160.25 236.24 165.37 <
2 6 0 1317.13 1940.58 155.25 o
-2 6 0 1039.41 2024.95 232.87 o
3 6 0 4183.98 6014.11 145.12 o
-3 6 0 2877.39 4805.89 239.62 o
4 6 0 11.98 327.37 155.25 o
-4 6 0 125.11 357.74 155.25 o
5 6 0 4562.06 8633.05 185.62 o
-5 6 0 3517.91 8113.31 175.50 o
6 6 0 786.90 492.74 155.25 o
-6 6 0 452.67 671.61 158.62 o
7 6 0 2102.42 2413.07 182.25 o
-7 6 0 864.73 1522.09 168.75 o
8 6 0 11436.50 14421.00 195.74 o
-8 6 0 9739.04 13432.20 192.37 o
9 6 0 66.53 -135.00 175.50 <
-9 6 0 47.80 499.49 185.62 o
10 6 0 8706.11 12693.10 205.87 o
-10 6 0 7627.97 11724.50 202.49 o
11 6 0 1182.73 742.48 178.87 o
-11 6 0 1204.42 1120.47 199.12 o
12 6 0 1114.63 1106.97 199.12 o
-12 6 0 533.72 870.73 192.37 o
13 6 0 7603.83 9706.28 236.24 o
-13 6 0 6726.36 8558.80 232.87 o
14 6 0 199.18 -229.49 229.49 <
-14 6 0 231.44 148.50 239.62 <
15 6 0 5279.27 5750.87 283.49 o
-15 6 0 4978.04 5511.25 283.49 o
16 6 0 384.07 -84.37 310.49 <
-16 6 0 485.08 -182.25 310.49 <
0 7 0 27.98 631.11 148.50 o
1 7 0 2062.87 789.73 165.37 o
-1 7 0 2051.53 928.10 151.87 o
2 7 0 750.57 961.85 165.37 o
-2 7 0 792.23 826.86 165.37 o
3 7 0 284.49 290.24 145.12 <
-3 7 0 304.57 -50.62 212.62 <
4 7 0 335.52 293.62 124.87 o
-4 7 0 386.06 -165.37 212.62 <
5 7 0 81.95 330.74 155.25 o
-5 7 0 90.09 276.74 246.37 <
6 7 0 3675.23 3091.43 162.00 o
-6 7 0 3708.42 2946.31 175.50 o
7 7 0 1443.86 708.73 178.87 o
-7 7 0 1512.02 924.73 162.00 o
8 7 0 158.95 442.11 165.37 o
-8 7 0 165.30 202.49 162.00 <
9 7 0 4.77 614.24 178.87 o
-9 7 0 25.22 337.49 165.37 o
10 7 0 93.89 114.75 175.50 <
-10 7 0 105.75 178.87 175.50 <
11 7 0 1287.24 762.73 178.87 o
-11 7 0 1287.45 1015.85 178.87 o
12 7 0 598.84 -229.49 195.74 <
-12 7 0 608.13 384.74 192.37 <
13 7 0 129.73 236.24 202.49 <
-13 7 0 113.69 283.49 212.62 <
14 7 0 322.24 880.85 249.74 o
-14 7 0 281.82 455.61 242.99 <
0 8 0 34858.60 54464.50 246.37 o
1 8 0 3675.20 1862.96 155.25 o
-1 8 0 3893.80 1960.83 165.37 o
2 8 0 27879.80 29702.70 215.99 o
-2 8 0 27283.00 28801.60 202.49 o
3 8 0 27983.80 31315.90 209.24 o
-3 8 0 29165.10 30138.10 202.49 o
4 8 0 2195.60 2038.45 175.50 o
-4 8 0 2164.82 1312.84 256.49 o
5 8 0 22564.60 34859.60 175.50 o
-5 8 0 23840.90 32213.60 296.99 o
6 8 0 1693.92 809.98 162.00 o
-6 8 0 1982.44 877.48 226.12 o
7 8 0 10547.20 12078.80 199.12 o
-7 8 0 10776.60 10195.60 175.50 o
8 8 0 12829.40 15065.70 192.37 o
-8 8 0 13547.70 13769.70 195.74 o
9 8 0 839.09 674.98 172.12 o
-9 8 0 850.86 820.11 178.87 o
10 8 0 7156.93 11555.70 212.62 o
-10 8 0 8257.33 10472.40 212.62 o
11 8 0 249.37 60.75 199.12 <
-11 8 0 355.85 290.24 182.25 <
12 8 0 2166.97 1957.45 209.24 o
-12 8 0 2373.88 1545.71 209.24 o
13 8 0 3564.67 4063.41 232.87 o
-13 8 0 3761.05 3850.79 229.49 o
0 9 0 7.75 256.49 148.50 <
1 9 0 504.91 -20.25 162.00 <
-1 9 0 503.15 70.87 151.87 <
2 9 0 128.01 202.49 145.12 <
-2 9 0 113.90 276.74 148.50 <
3 9 0 358.17 664.86 155.25 o
-3 9 0 348.45 590.61 151.87 o
4 9 0 1063.13 310.49 151.87 o
-4 9 0 1019.36 398.24 151.87 o
5 9 0 68.36 -189.00 158.62 <
-5 9 0 68.53 239.62 165.37 <
6 9 0 700.99 323.99 175.50 <
-6 9 0 640.40 310.49 222.74 <
7 9 0 516.52 590.61 135.00 o
-7 9 0 483.25 485.99 229.49 o
8 9 0 467.04 853.85 178.87 o
-8 9 0 469.76 779.61 239.62 o
9 9 0 1248.91 712.11 182.25 o
-9 9 0 1248.69 469.11 175.50 o
10 9 0 109.72 -178.87 195.74 <
-10 9 0 113.43 57.37 195.74 <
0 10 0 2066.69 6071.48 168.75 o
1 10 0 448.42 236.24 155.25 <
-1 10 0 245.32 108.00 155.25 <
2 10 0 1749.63 2676.31 175.50 o
-2 10 0 1751.05 2558.19 172.12 o
3 10 0 2807.30 3344.55 175.50 o
-3 10 0 2364.23 2494.07 165.37 o
4 10 0 59.66 391.49 162.00 o
-4 10 0 147.39 310.49 175.50 <
5 10 0 2541.01 5480.87 178.87 o
-5 10 0 2058.46 6111.98 182.25 o
6 10 0 770.77 276.74 175.50 <
-6 10 0 570.75 -30.37 178.87 <
7 10 0 1472.47 1819.08 178.87 o
-7 10 0 1248.33 1900.08 249.74 o
-19 1 1 44.50 84.37 202.49 <
19 1 -1 15.63 209.24 205.87 <
-18 1 1 527.58 -84.37 205.87 <
18 1 -1 210.95 681.73 209.24 o
-17 1 1 738.33 -172.12 209.24 <
17 1 -1 679.43 1194.72 209.24 o
-16 1 1 9887.40 5015.13 239.62 o
16 1 -1 10089.00 11859.50 256.49 o
-15 1 1 9156.89 4924.01 232.87 o
15 1 -1 9645.70 9335.04 239.62 o
-14 1 1 368.74 361.12 229.49 <
14 1 -1 317.24 242.99 232.87 <
-13 1 1 1219.39 313.87 256.49 <
13 1 -1 614.58 1032.73 242.99 o
-12 1 1 4387.35 2072.20 276.74 o
12 1 -1 4229.15 4880.14 286.87 o
-11 1 1 27302.50 14984.70 357.74 o
11 1 -1 27445.00 31018.90 377.99 o
-10 1 1 43014.00 26486.40 428.61 o
10 1 -1 43557.30 47461.50 448.86 o
-9 1 1 1669.42 769.48 334.12 o
9 1 -1 1568.29 988.85 330.74 o
-8 1 1 2290.83 1292.60 344.24 o
8 1 -1 2498.81 1950.70 334.12 o
-7 1 1 12717.80 8639.80 391.49 o
7 1 -1 12109.40 11272.20 388.12 o
-6 1 1 40242.30 21478.00 604.11 o
6 1 -1 39701.70 36688.80 516.36 o
-5 1 1 136265.00 116168.00 732.36 o
5 1 -1 136446.00 132003.00 803.23 o
-4 1 1 5054.40 4390.77 442.11 o
4 1 -1 5169.09 4930.76 512.99 o
-3 1 1 3250.02 5494.37 418.49 o
3 1 -1 4497.47 5760.99 496.11 o
-2 1 1 27172.70 21690.60 435.36 o
2 1 -1 28488.60 21984.20 502.86 o
-1 1 1 49079.90 32949.40 485.99 o
1 1 -1 49680.20 33438.70 543.36 o
0 1 1 195430.00 146772.00 863.98 o
0 1 -1 193452.00 136873.00 779.61 o
1 1 1 853.55 4046.53 377.99 o
-1 1 -1 866.45 3958.78 391.49 o
2 1 1 13922.60 13638.10 421.86 o
-2 1 -1 15849.20 14292.80 536.61 o
3 1 1 13063.50 9767.02 398.24 o
-3 1 -1 14822.80 10411.60 614.24 o
4 1 1 12152.30 9247.29 428.61 o
-4 1 -1 11741.40 9584.78 533.24 o
5 1 1 175497.00 185138.00 904.48 o
-5 1 -1 174133.00 181503.00 938.23 o
6 1 1 608.43 1630.09 479.24 o
-6 1 -1 539.70 1866.33 469.11 o
7 1 1 6256.99 6898.34 404.99 o
-7 1 -1 7747.19 5700.24 364.49 o
8 1 1 5388.55 3027.31 354.37 o
-8 1 -1 6151.63 2186.95 327.37 o
9 1 1 2561.65 2517.69 344.24 o
-9 1 -1 2338.67 1177.85 334.12 o
10 1 1 70561.70 90167.80 529.86 o
-10 1 -1 69378.10 53506.00 506.24 o
11 1 1 423.97 1076.60 283.49 o
-11 1 -1 315.57 1390.47 303.74 o
12 1 1 3540.64 4292.90 276.74 o
-12 1 -1 4173.52 3175.80 269.99 o
13 1 1 491.98 246.37 249.74 <
-13 1 -1 1091.08 0.00 239.62 <
14 1 1 224.35 469.11 236.24 <
-14 1 -1 252.92 0.00 236.24 <
15 1 1 18889.00 22048.40 286.87 o
-15 1 -1 18217.10 10880.70 259.87 o
16 1 1 728.18 158.62 222.74 <
-16 1 -1 680.84 401.62 219.37 <
17 1 1 1080.99 1208.22 222.74 o
-17 1 -1 1272.19 931.48 226.12 o
18 1 1 34.08 263.24 209.24 <
-18 1 -1 285.73 97.87 205.87 <
-19 2 1 37.47 249.74 215.99 <
19 2 -1 45.98 70.87 239.62 <
-18 2 1 52.18 344.24 222.74 <
18 2 -1 48.54 -16.87 222.74 <
-17 2 1 673.93 479.24 229.49 o
17 2 -1 654.74 836.98 236.24 o
-16 2 1 163.70 13.50 239.62 <
16 2 -1 155.07 -6.75 236.24 <
-15 2 1 938.90 509.61 246.37 o
15 2 -1 962.26 725.61 246.37 o
-14 2 1 415.02 728.98 266.62 o
14 2 -1 411.15 259.87 276.74 <
-13 2 1 18.70 688.48 317.24 o
13 2 -1 20.45 458.99 313.87 <
-12 2 1 3169.45 2980.06 310.49 o
12 2 -1 3080.07 3732.66 303.74 o
-11 2 1 478.49 445.49 307.12 <
11 2 -1 447.88 647.98 286.87 o
-10 2 1 1025.24 553.49 334.12 <
10 2 -1 1026.90 674.98 317.24 o
-9 2 1 3006.88 3202.80 307.12 o
9 2 -1 2961.25 3574.04 327.37 o
-8 2 1 177.63 253.12 266.62 <
8 2 -1 181.32 91.12 283.49 <
-7 2 1 5875.19 6668.85 273.37 o
7 2 -1 5743.33 6938.84 290.24 o
-6 2 1 24.97 -33.75 242.99 <
6 2 -1 30.73 -172.12 263.24 <
-5 2 1 252.13 749.23 236.24 o
5 2 -1 272.86 512.99 249.74 o
-4 2 1 12708.00 16584.40 269.99 o
4 2 -1 12425.30 16300.90 276.74 o
-3 2 1 1149.63 523.11 199.12 o
3 2 -1 1148.98 647.98 232.87 o
-2 2 1 4128.19 2625.69 263.24 o
2 2 -1 4031.85 2136.33 239.62 o
-1 2 1 350.50 458.99 226.12 o
1 2 -1 292.61 317.24 229.49 <
0 2 1 12.67 661.48 313.87 o
0 2 -1 16.43 256.49 280.12 <
1 2 1 15779.80 27819.50 323.99 o
-1 2 -1 15569.50 27252.50 327.37 o
2 2 1 0.20 323.99 212.62 <
-2 2 -1 0.42 455.61 253.12 <
3 2 1 258.85 499.49 212.62 o
-3 2 -1 220.67 597.36 259.87 o
4 2 1 2750.77 2220.70 226.12 o
-4 2 -1 2797.35 2973.31 246.37 o
5 2 1 1160.57 553.49 215.99 o
-5 2 -1 1219.87 479.24 280.12 <
6 2 1 7593.03 9365.41 259.87 o
-6 2 -1 7655.28 10388.00 296.99 o
7 2 1 406.18 539.99 253.12 o
-7 2 -1 400.17 506.24 300.37 <
8 2 1 183.54 148.50 276.74 <
-8 2 -1 162.15 519.74 323.99 <
9 2 1 3876.12 4873.39 320.62 o
-9 2 -1 3886.65 4053.28 371.24 o
10 2 1 238.01 182.25 334.12 <
-10 2 -1 248.76 512.99 313.87 <
11 2 1 1045.11 1130.60 347.62 o
-11 2 -1 1056.07 668.23 303.74 o
12 2 1 717.36 1069.85 330.74 o
-12 2 -1 765.98 732.36 303.74 o
13 2 1 327.07 469.11 320.62 <
-13 2 -1 307.82 182.25 313.87 <
14 2 1 1837.50 2740.44 283.49 o
-14 2 -1 1849.28 1410.72 273.37 o
15 2 1 2.71 418.49 259.87 <
-15 2 -1 2.46 -67.50 242.99 <
16 2 1 19.49 111.37 246.37 <
-16 2 -1 24.56 13.50 232.87 <
17 2 1 492.49 644.61 239.62 o
-17 2 -1 517.03 384.74 226.12 <
18 2 1 73.09 -33.75 229.49 <
-18 2 -1 64.62 -37.12 219.37 <
-18 3 1 556.36 317.24 256.49 <
18 3 -1 406.99 742.48 256.49 o
-17 3 1 814.56 317.24 263.24 <
17 3 -1 772.09 509.61 266.62 <
-16 3 1 4535.16 1748.21 280.12 o
16 3 -1 4469.15 3604.42 296.99 o
-15 3 1 9901.38 6462.98 334.12 o
15 3 -1 10257.10 9490.28 354.37 o
-14 3 1 1353.62 928.10 307.12 o
14 3 -1 1333.20 553.49 300.37 <
-13 3 1 3131.73 2710.06 344.24 o
13 3 -1 2859.41 2500.82 313.87 o
-12 3 1 3172.02 1576.09 296.99 o
12 3 -1 2993.09 1640.21 323.99 o
-11 3 1 13445.50 11420.70 283.49 o
11 3 -1 13277.40 10529.80 300.37 o
-10 3 1 39504.30 39604.70 313.87 o
10 3 -1 40203.40 33766.10 320.62 o
-9 3 1 3469.39 3361.42 222.74 o
9 3 -1 3413.45 3347.92 236.24 o
-8 3 1 14157.10 14529.00 229.49 o
8 3 -1 14097.80 14262.40 246.37 o
-7 3 1 8009.87 5403.25 209.24 o
7 3 -1 7726.13 5909.49 212.62 o
-6 3 1 28800.50 25025.00 242.99 o
6 3 -1 28086.30 26584.30 249.74 o
-5 3 1 102338.00 102378.00 371.24 o
5 3 -1 102765.00 100755.00 367.87 o
-4 3 1 4196.66 4745.14 199.12 o
4 3 -1 4144.09 4880.14 202.49 o
-3 3 1 32761.40 36857.50 280.12 o
3 3 -1 31903.40 36442.40 283.49 o
-2 3 1 17298.60 10161.90 212.62 o
2 3 -1 16408.30 10209.10 212.62 o
-1 3 1 31761.80 22679.50 334.12 o
1 3 -1 30527.20 23300.50 263.24 o
0 3 1 134280.00 135382.00 394.87 o
0 3 -1 132455.00 117441.00 448.86 o
1 3 1 1546.76 3472.79 165.37 o
-1 3 -1 1494.67 3185.93 273.37 o
2 3 1 23765.30 20222.50 229.49 o
-2 3 -1 23346.40 19665.70 236.24 o
3 3 1 16087.90 11319.50 205.87 o
-3 3 -1 14523.50 10766.00 212.62 o
4 3 1 16150.40 13678.60 212.62 o
-4 3 -1 16139.10 14218.50 239.62 o
5 3 1 84702.50 85193.20 350.99 o
-5 3 -1 83411.90 87899.90 357.74 o
6 3 1 866.36 1879.83 192.37 o
-6 3 -1 616.04 1403.97 209.24 o
7 3 1 8788.94 7563.20 242.99 o
-7 3 -1 9837.15 9220.29 263.24 o
8 3 1 7419.68 3196.05 215.99 o
-8 3 -1 7050.59 4134.28 236.24 o
9 3 1 4372.33 3422.17 239.62 o
-9 3 -1 4411.00 3401.92 269.99 o
10 3 1 37820.10 39152.50 350.99 o
-10 3 -1 37092.70 35379.30 371.24 o
11 3 1 171.08 202.49 273.37 <
-11 3 -1 36.25 415.11 303.74 <
12 3 1 2272.33 2230.82 317.24 o
-12 3 -1 2849.13 2770.81 320.62 o
13 3 1 2250.43 1727.96 384.74 o
-13 3 -1 2292.38 1491.72 290.24 o
14 3 1 440.61 830.23 361.12 o
-14 3 -1 466.95 20.25 296.99 <
15 3 1 11953.70 11204.70 357.74 o
-15 3 -1 11499.00 8710.67 330.74 o
16 3 1 118.48 685.11 296.99 o
-16 3 -1 69.15 -128.25 283.49 <
17 3 1 447.95 563.61 280.12 o
-17 3 -1 634.75 155.25 249.74 <
18 3 1 399.92 256.49 259.87 <
-18 3 -1 450.03 560.24 242.99 o
-18 4 1 25.28 -70.87 313.87 <
18 4 -1 27.74 749.23 323.99 o
-17 4 1 884.78 371.24 330.74 <
17 4 -1 842.09 715.48 344.24 o
-16 4 1 198.64 820.11 323.99 o
16 4 -1 176.88 593.99 323.99 <
-15 4 1 1208.84 1306.09 340.87 o
15 4 -1 1229.91 1727.96 300.37 o
-14 4 1 1495.21 911.23 300.37 o
14 4 -1 1498.05 1518.71 317.24 o
-13 4 1 537.47 -185.62 263.24 <
13 4 -1 568.62 118.12 266.62 <
-12 4 1 3139.05 1744.83 239.62 o
12 4 -1 3002.85 1383.72 273.37 o
-11 4 1 171.60 421.86 205.87 o
11 4 -1 129.58 290.24 229.49 <
-10 4 1 1658.17 2470.44 192.37 o
10 4 -1 1605.36 2402.94 205.87 o
-9 4 1 4965.75 5501.12 192.37 o
9 4 -1 4958.25 4981.39 212.62 o
-8 4 1 1398.29 813.36 189.00 o
8 4 -1 1464.50 313.87 185.62 <
-7 4 1 6167.43 5717.12 185.62 o
7 4 -1 6031.53 5163.63 189.00 o
-6 4 1 678.38 1063.10 168.75 o
6 4 -1 665.60 1191.35 175.50 o
-5 4 1 67.73 398.24 168.75 o
5 4 -1 46.26 408.37 189.00 o
-4 4 1 8239.99 8859.17 205.87 o
4 4 -1 7909.35 9048.17 209.24 o
-3 4 1 1543.68 1184.60 165.37 o
3 4 -1 1499.29 917.98 192.37 o
-2 4 1 9572.37 11792.00 209.24 o
2 4 -1 9303.59 11906.70 215.99 o
-1 4 1 7702.10 7978.32 249.74 o
1 4 -1 7813.94 7809.57 168.75 o
0 4 1 1678.00 890.98 162.00 o
0 4 -1 1736.35 614.24 202.49 o
1 4 1 5030.67 5632.75 168.75 o
-1 4 -1 4971.79 5885.86 323.99 o
2 4 1 1802.00 840.36 192.37 o
-2 4 -1 1726.41 570.36 259.87 o
3 4 1 5997.43 6837.59 199.12 o
-3 4 -1 5864.65 7080.59 185.62 o
4 4 1 11048.10 13739.30 192.37 o
-4 4 -1 11203.20 13759.60 215.99 o
5 4 1 1660.92 1309.47 185.62 o
-5 4 -1 1766.84 1316.22 172.12 o
6 4 1 2629.05 3547.04 189.00 o
-6 4 -1 2675.43 3580.79 185.62 o
7 4 1 1.31 199.12 168.75 <
-7 4 -1 0.18 350.99 182.25 <
8 4 1 558.79 1039.48 182.25 o
-8 4 -1 571.53 1390.47 222.74 o
9 4 1 7690.21 6847.72 205.87 o
-9 4 -1 7620.06 7893.94 222.74 o
10 4 1 1131.64 192.37 202.49 <
-10 4 -1 1154.38 674.98 249.74 o
11 4 1 965.31 1241.97 215.99 o
-11 4 -1 1001.22 782.98 236.24 o
12 4 1 500.18 816.73 236.24 o
-12 4 -1 569.95 890.98 263.24 o
13 4 1 29.65 -273.37 283.49 <
-13 4 -1 13.93 249.74 303.74 <
14 4 1 3084.21 2112.70 300.37 o
-14 4 -1 3096.10 2402.94 310.49 o
15 4 1 212.36 647.98 344.24 <
-15 4 -1 222.07 108.00 296.99 <
16 4 1 116.91 455.61 364.49 <
-16 4 -1 142.48 -84.37 317.24 <
17 4 1 479.61 479.24 344.24 <
-17 4 -1 517.76 1063.10 296.99 o
-17 5 1 249.25 499.49 371.24 <
17 5 -1 229.87 175.50 327.37 <
-16 5 1 1083.60 -816.73 344.24 <
16 5 -1 997.92 -185.62 330.74 <
-15 5 1 5668.32 6381.98 307.12 o
15 5 -1 5803.61 5572.00 334.12 o
-14 5 1 1538.53 1491.72 249.74 o
14 5 -1 1505.97 1761.71 266.62 o
-13 5 1 4469.37 3941.91 242.99 o
13 5 -1 4607.26 3800.16 256.49 o
-12 5 1 736.52 404.99 215.99 <
12 5 -1 673.91 448.86 229.49 <
-11 5 1 1978.73 1201.47 202.49 o
11 5 -1 2081.46 1147.47 215.99 o
-10 5 1 17296.40 17559.70 232.87 o
10 5 -1 17182.00 16864.50 246.37 o
-9 5 1 1036.98 928.10 178.87 o
9 5 -1 992.89 749.23 195.74 o
-8 5 1 12358.20 12645.80 195.74 o
8 5 -1 12602.80 12912.50 202.49 o
-7 5 1 3595.65 1873.08 178.87 o
7 5 -1 3132.04 2274.70 172.12 o
-6 5 1 3420.52 1866.33 165.37 o
6 5 -1 3810.02 1687.46 172.12 o
-5 5 1 28099.50 26624.80 212.62 o
5 5 -1 28833.30 27802.60 229.49 o
-4 5 1 146.97 904.48 155.25 o
4 5 -1 213.26 924.73 158.62 o
-3 5 1 21326.40 20320.40 195.75 o
3 5 -1 21772.80 21228.30 215.99 o
-2 5 1 7562.00 4812.64 219.37 o
2 5 -1 7814.38 4782.26 138.37 o
-1 5 1 7183.27 3874.41 155.25 o
1 5 -1 8140.10 3884.54 189.00 o
0 5 1 37306.00 36013.80 209.24 o
0 5 -1 39446.80 34724.60 236.24 o
1 5 1 288.63 1069.85 145.12 o
-1 5 -1 326.51 1157.60 182.25 o
2 5 1 25235.90 22834.70 158.62 o
-2 5 -1 25659.60 23290.30 303.74 o
3 5 1 15802.50 13816.90 185.62 o
-3 5 -1 17049.50 13813.60 185.62 o
4 5 1 8546.49 6675.60 182.25 o
-4 5 -1 8337.55 7154.83 189.00 o
5 5 1 34928.60 34437.70 232.87 o
-5 5 -1 35555.60 34333.10 236.24 o
6 5 1 836.69 1241.97 172.12 o
-6 5 -1 1048.07 1090.10 185.62 o
7 5 1 12454.60 10583.80 202.49 o
-7 5 -1 12383.60 10948.20 195.74 o
8 5 1 14194.00 13604.30 192.37 o
-8 5 -1 14341.90 14208.40 202.49 o
9 5 1 3993.44 2895.68 178.87 o
-9 5 -1 3641.94 3010.43 212.62 o
10 5 1 17495.20 16182.80 226.12 o
-10 5 -1 17718.50 18028.80 253.12 o
11 5 1 109.97 681.73 192.37 o
-11 5 -1 130.04 87.75 205.87 <
12 5 1 2866.82 2068.83 229.49 o
-12 5 -1 2863.23 2342.20 253.12 o
13 5 1 5805.12 4164.65 249.74 o
-13 5 -1 5915.67 4826.14 266.62 o
14 5 1 989.67 442.11 253.12 <
-14 5 -1 947.53 796.48 286.87 o
15 5 1 5967.40 3928.41 307.12 o
-15 5 -1 5921.46 4323.28 381.37 o
16 5 1 6.98 695.23 320.62 o
-16 5 -1 6.25 1036.10 310.49 o
-16 6 1 143.32 -13.50 307.12 <
16 6 -1 118.97 620.99 334.12 <
-15 6 1 59.09 374.62 266.62 <
15 6 -1 69.49 70.87 293.62 <
-14 6 1 1082.47 327.37 239.62 <
14 6 -1 1095.68 975.35 280.12 o
-13 6 1 47.73 269.99 215.99 <
13 6 -1 59.68 -94.50 239.62 <
-12 6 1 896.25 809.98 209.24 o
12 6 -1 876.20 705.36 212.62 o
-11 6 1 104.52 74.25 185.62 <
11 6 -1 69.75 -135.00 199.12 <
-10 6 1 14.34 215.99 178.87 <
10 6 -1 26.35 195.74 185.62 <
-9 6 1 2996.03 2170.07 172.12 o
9 6 -1 2996.99 1559.21 178.87 o
-8 6 1 23.71 263.24 165.37 <
8 6 -1 33.36 458.99 175.50 o
-7 6 1 843.08 857.23 162.00 o
7 6 -1 859.71 931.48 165.37 o
-6 6 1 19.48 300.37 155.25 <
6 6 -1 34.41 283.49 158.62 <
-5 6 1 62.63 509.61 155.25 o
5 6 -1 84.54 469.11 162.00 o
-4 6 1 5961.92 5167.01 165.37 o
4 6 -1 5976.63 5430.25 178.87 o
-3 6 1 75.81 982.10 209.24 o
3 6 -1 86.35 1002.35 155.25 o
-2 6 1 16.01 610.86 205.87 o
2 6 -1 17.95 641.23 189.00 o
-1 6 1 249.77 340.87 145.12 o
1 6 -1 249.27 475.86 172.12 o
0 6 1 38.09 742.48 141.75 o
0 6 -1 34.03 617.61 155.25 o
1 6 1 7828.99 7664.45 168.75 o
-1 6 -1 7827.95 8231.43 182.25 o
2 6 1 108.13 853.85 138.37 o
-2 6 -1 113.08 1140.72 178.87 o
3 6 1 35.23 823.48 128.25 o
-3 6 -1 55.41 597.36 269.99 o
4 6 1 180.69 526.49 148.50 o
-4 6 -1 175.32 573.74 229.49 o
5 6 1 32.25 310.49 148.50 o
-5 6 -1 39.76 374.62 151.87 o
6 6 1 3419.75 2963.18 162.00 o
-6 6 -1 3455.01 3057.68 165.37 o
7 6 1 187.31 391.49 155.25 o
-7 6 -1 208.02 303.74 158.62 <
8 6 1 80.99 475.86 175.50 o
-8 6 -1 54.29 111.37 158.62 <
9 6 1 1285.42 924.73 172.12 o
-9 6 -1 1266.60 1346.59 189.00 o
10 6 1 93.30 546.74 168.75 o
-10 6 -1 106.74 435.36 195.74 o
11 6 1 893.70 394.87 178.87 o
-11 6 -1 901.54 175.50 209.24 <
12 6 1 78.88 74.25 202.49 <
-12 6 -1 95.84 539.99 202.49 o
13 6 1 92.89 -185.62 212.62 <
-13 6 -1 59.27 -13.50 232.87 <
14 6 1 1241.37 843.73 229.49 o
-14 6 -1 1201.49 1208.22 269.99 o
15 6 1 54.11 -74.25 266.62 <
-15 6 -1 63.38 479.24 300.37 <
-14 7 1 623.27 232.87 229.49 <
14 7 -1 587.40 637.86 249.74 o
-13 7 1 6052.64 3779.91 219.37 o
13 7 -1 6174.69 3584.17 242.99 o
-12 7 1 738.12 715.48 195.74 o
12 7 -1 717.84 556.86 212.62 o
-11 7 1 2263.25 998.98 202.49 o
11 7 -1 2089.05 1063.10 199.12 o
-10 7 1 10246.30 9999.89 195.74 o
10 7 -1 10405.40 10259.80 219.37 o
-9 7 1 817.60 1636.84 178.87 o
9 7 -1 762.10 1292.60 175.50 o
-8 7 1 19079.70 17951.20 209.24 o
8 7 -1 19014.40 18261.70 205.87 o
-7 7 1 2867.23 2288.20 162.00 o
7 7 -1 3032.16 2321.95 172.12 o
-6 7 1 7851.16 4485.27 162.00 o
6 7 -1 7441.23 4660.77 172.12 o
-5 7 1 20409.40 20938.00 192.37 o
5 7 -1 20761.80 22061.90 212.62 o
-4 7 1 470.64 1373.59 222.74 o
4 7 -1 400.35 1549.09 128.25 o
-3 7 1 32411.50 30381.10 276.74 o
3 7 -1 31879.60 29773.60 209.24 o
-2 7 1 7413.57 6408.98 158.62 o
2 7 -1 6945.60 5757.62 162.00 o
-1 7 1 9012.36 6560.85 158.62 o
1 7 -1 8339.86 6446.10 175.50 o
0 7 1 23520.80 19588.00 182.25 o
0 7 -1 23255.10 19500.30 192.37 o
1 7 1 99.29 833.61 151.87 o
-1 7 -1 63.91 668.23 151.87 o
2 7 1 21102.90 22547.90 189.00 o
-2 7 -1 20913.20 21201.30 195.75 o
3 7 1 9333.92 6635.10 172.12 o
-3 7 -1 8182.93 6527.10 165.37 o
4 7 1 6283.91 4019.53 128.25 o
-4 7 -1 6477.91 3786.66 226.12 o
5 7 1 11687.90 12021.50 189.00 o
-5 7 -1 11695.40 11900.00 300.37 o
6 7 1 274.73 563.61 168.75 o
-6 7 -1 179.84 620.99 155.25 o
7 7 1 9274.78 8066.06 192.37 o
-7 7 -1 9694.88 8396.81 189.00 o
8 7 1 5926.36 5015.13 175.50 o
-8 7 -1 5456.71 5194.00 175.50 o
9 7 1 2617.96 1478.22 185.62 o
-9 7 -1 2773.61 1900.08 175.50 o
10 7 1 5332.16 5933.11 189.00 o
-10 7 -1 5463.89 5818.37 195.74 o
11 7 1 106.64 398.24 199.12 <
-11 7 -1 63.12 691.86 205.87 o
12 7 1 2163.72 1997.95 202.49 o
-12 7 -1 2332.65 1727.96 215.99 o
13 7 1 3400.99 2612.19 215.99 o
-13 7 -1 3212.59 2321.95 253.12 o
14 7 1 599.27 371.24 232.87 <
-14 7 -1 592.20 897.73 259.87 o
-13 8 1 173.79 458.99 202.49 o
13 8 -1 201.12 310.49 222.74 <
-12 8 1 15.66 246.37 205.87 <
12 8 -1 12.01 388.12 212.62 <
-11 8 1 3.71 283.49 182.25 <
11 8 -1 15.10 145.12 192.37 <
-10 8 1 57.00 647.98 175.50 o
10 8 -1 43.59 114.75 182.25 <
-9 8 1 584.41 1066.48 175.50 o
9 8 -1 600.35 1140.72 175.50 o
-8 8 1 124.72 -124.87 165.37 <
8 8 -1 151.55 23.62 175.50 <
-7 8 1 66.46 283.49 151.87 <
7 8 -1 38.05 -57.37 158.62 <
-6 8 1 102.61 604.11 212.62 o
6 8 -1 107.68 215.99 158.62 <
-5 8 1 12.16 391.49 212.62 <
5 8 -1 7.51 172.12 131.62 <
-4 8 1 79.25 87.75 215.99 <
4 8 -1 58.09 411.74 165.37 o
-3 8 1 14.50 431.99 151.87 o
3 8 -1 12.00 421.86 151.87 o
-2 8 1 467.36 546.74 158.62 o
2 8 -1 478.58 492.74 165.37 o
-1 8 1 1065.61 1255.47 151.87 o
1 8 -1 1079.20 1343.22 155.25 o
0 8 1 276.57 283.49 151.87 <
0 8 -1 292.33 290.24 148.50 <
1 8 1 124.08 698.61 151.87 o
-1 8 -1 116.74 647.98 148.50 o
2 8 1 195.76 320.62 145.12 o
-2 8 -1 181.24 607.49 168.75 o
3 8 1 1146.16 1643.59 155.25 o
-3 8 -1 1177.89 1579.46 155.25 o
4 8 1 1010.34 256.49 155.25 <
-4 8 -1 993.76 627.74 168.75 o
5 8 1 67.17 108.00 158.62 <
-5 8 -1 73.17 168.75 226.12 <
6 8 1 127.12 570.36 128.25 o
-6 8 -1 110.31 742.48 263.24 o
7 8 1 30.90 165.37 175.50 <
-7 8 -1 24.13 185.62 236.24 <
8 8 1 538.41 1052.98 172.12 o
-8 8 -1 576.47 671.61 189.00 o
9 8 1 566.16 502.86 199.12 o
-9 8 -1 533.73 -47.25 175.50 <
10 8 1 114.61 182.25 178.87 <
-10 8 -1 136.95 -6.75 182.25 <
11 8 1 5.73 145.12 185.62 <
-11 8 -1 29.42 64.12 199.12 <
12 8 1 14.73 -30.37 202.49 <
-12 8 -1 11.73 -519.74 209.24 <
-10 9 1 2928.24 2861.93 195.74 o
10 9 -1 2804.30 2774.19 202.49 o
-9 9 1 90.53 448.86 172.12 o
9 9 -1 136.76 374.62 182.25 o
-8 9 1 5386.72 4141.03 253.12 o
8 9 -1 5484.83 4147.78 182.25 o
-7 9 1 1556.93 1407.34 232.87 o
7 9 -1 1361.92 1559.21 151.87 o
-6 9 1 1499.20 1414.09 219.37 o
6 9 -1 1655.51 860.60 172.12 o
-5 9 1 5081.44 5494.37 165.37 o
5 9 -1 4968.15 6044.49 189.00 o
-4 9 1 117.40 715.48 148.50 o
4 9 -1 160.43 593.99 155.25 o
-3 9 1 7527.35 5757.62 158.62 o
3 9 -1 7895.18 5619.25 168.75 o
-2 9 1 3243.43 2564.94 155.25 o
2 9 -1 3064.60 2770.81 162.00 o
-1 9 1 2173.77 1427.59 162.00 o
1 9 -1 2241.02 1282.47 172.12 o
0 9 1 7401.85 7769.07 168.75 o
0 9 -1 7761.67 8231.43 175.50 o
1 9 1 59.03 317.24 148.50 o
-1 9 -1 77.40 300.37 172.12 <
2 9 1 9187.02 7580.08 175.50 o
-2 9 -1 9342.88 6871.34 175.50 o
3 9 1 4950.52 4492.02 168.75 o
-3 9 -1 5072.33 3840.66 172.12 o
4 9 1 2146.67 1424.22 158.62 o
-4 9 -1 1864.72 1316.22 178.87 o
5 9 1 7596.85 8187.56 182.25 o
-5 9 -1 7721.19 8025.56 178.87 o
6 9 1 275.86 300.37 168.75 <
-6 9 -1 356.67 509.61 273.37 <
7 9 1 6208.32 4576.39 151.87 o
-7 9 -1 5973.81 4849.76 296.99 o
8 9 1 4177.80 3513.29 199.12 o
-8 9 -1 4208.91 2733.69 263.24 o
9 9 1 1075.57 779.61 185.62 o
-9 9 -1 933.34 334.12 276.74 <
10 9 1 3813.32 3938.53 219.37 o
-10 9 -1 3824.19 4232.15 219.37 o
-7 10 1 55.04 695.23 236.24 o
7 10 -1 54.50 -23.62 192.37 <
-6 10 1 64.67 249.74 175.50 <
6 10 -1 60.03 489.36 189.00 o
-5 10 1 8.00 91.12 165.37 <
5 10 -1 8.16 381.37 192.37 <
-4 10 1 233.55 165.37 162.00 <
4 10 -1 246.31 290.24 168.75 <
-3 10 1 59.93 404.99 165.37 o
3 10 -1 63.85 236.24 182.25 <
-2 10 1 165.63 320.62 162.00 <
2 10 -1 155.20 155.25 172.12 <
-1 10 1 110.36 94.50 162.00 <
1 10 -1 107.80 307.12 182.25 <
0 10 1 56.89 394.87 158.62 o
0 10 -1 55.74 -33.75 168.75 <
1 10 1 265.43 111.37 158.62 <
-1 10 -1 263.37 -77.62 168.75 <
2 10 1 37.57 -40.50 158.62 <
-2 10 -1 38.52 74.25 168.75 <
3 10 1 61.19 209.24 162.00 <
-3 10 -1 62.66 408.37 165.37 o
4 10 1 18.71 27.00 165.37 <
-4 10 -1 24.58 84.37 182.25 <
5 10 1 18.72 135.00 165.37 <
-5 10 -1 12.40 131.62 195.74 <
6 10 1 27.85 286.87 168.75 <
-6 10 -1 31.15 367.87 189.00 <
7 10 1 10.50 -377.99 178.87 <
-7 10 -1 11.20 108.00 209.24 <
-19 0 2 368.57 334.12 273.37 <
19 0 -2 242.09 620.99 310.49 <
-18 0 2 958.63 -6.75 296.99 <
18 0 -2 1038.78 921.35 307.12 o
-17 0 2 140.60 -91.12 303.74 <
17 0 -2 115.29 394.87 307.12 <
-16 0 2 17508.80 26796.90 361.12 o
16 0 -2 17773.20 24977.80 374.62 o
-15 0 2 2899.42 654.73 317.24 o
15 0 -2 3707.85 2166.70 327.37 o
-14 0 2 2260.53 1981.08 337.49 o
14 0 -2 2068.20 2298.32 340.87 o
-13 0 2 740.57 901.10 361.12 o
13 0 -2 1712.95 1532.21 337.49 o
-12 0 2 25.92 -347.62 381.37 <
12 0 -2 85.79 917.98 381.37 o
-11 0 2 48323.90 73229.10 607.49 o
11 0 -2 48874.20 73235.80 610.86 o
-10 0 2 7059.15 8413.68 502.86 o
10 0 -2 9718.30 8808.55 539.99 o
-9 0 2 4739.22 4522.40 597.36 o
9 0 -2 4384.76 6533.85 577.11 o
-8 0 2 4071.19 8052.56 583.86 o
8 0 -2 5528.20 7910.82 516.36 o
-7 0 2 2098.46 3452.55 566.99 o
7 0 -2 2575.72 2237.57 492.74 o
-6 0 2 49974.20 71285.10 742.48 o
6 0 -2 48934.60 67603.10 708.73 o
-5 0 2 7311.13 11198.00 516.36 o
5 0 -2 8419.13 10361.00 425.24 o
-4 0 2 3437.47 1457.97 452.24 o
4 0 -2 1990.08 1299.35 469.11 o
-3 0 2 79810.60 149995.00 965.23 o
3 0 -2 80063.60 154625.00 843.73 o
-2 0 2 4012.51 3705.66 425.24 o
2 0 -2 2410.09 3793.41 381.37 o
-1 0 2 14532.00 13759.60 512.99 o
1 0 -2 7562.87 13519.90 425.24 o
0 0 2 21408.20 19351.80 526.49 o
1 0 2 10008.20 8714.05 462.36 o
-1 0 -2 9553.23 7769.07 384.74 o
2 0 2 127768.00 181949.00 1015.85 o
3 0 2 3358.93 1562.59 485.99 o
-3 0 -2 2446.37 1370.22 435.36 o
4 0 2 14162.60 12548.00 566.99 o
-4 0 -2 9432.32 11609.70 415.11 o
5 0 2 48896.40 58500.90 715.48 o
-5 0 -2 43434.10 57549.20 674.98 o
6 0 2 3777.45 3509.92 566.99 o
-6 0 -2 3038.73 2659.44 452.24 o
7 0 2 11019.50 9861.52 658.11 o
-7 0 -2 10023.70 10246.30 512.99 o
8 0 2 2187.10 3763.04 644.61 o
-8 0 -2 2690.83 3729.29 533.24 o
9 0 2 6552.66 6456.23 519.74 o
-9 0 -2 4003.39 9119.04 610.86 o
10 0 2 61323.80 71804.80 691.86 o
-10 0 -2 56928.70 74768.00 722.23 o
11 0 2 423.08 236.24 465.74 <
-11 0 -2 287.52 685.11 431.99 <
12 0 2 450.62 857.23 425.24 o
-12 0 -2 77.48 1181.22 388.12 o
13 0 2 1815.07 2159.95 384.74 o
-13 0 -2 2410.61 1748.21 398.24 o
14 0 2 2110.04 334.12 344.24 <
-14 0 -2 1307.96 928.10 357.74 o
15 0 2 23164.90 28231.20 388.12 o
-15 0 -2 21822.20 23948.40 388.12 o
16 0 2 16.60 -30.37 317.24 <
-16 0 -2 33.16 215.99 303.74 <
17 0 2 465.14 951.73 350.99 o
-17 0 -2 529.53 533.24 317.24 <
18 0 2 376.58 509.61 307.12 <
-18 0 -2 723.34 189.00 307.12 <
-19 1 2 196.26 283.49 219.37 <
19 1 -2 204.52 -23.62 219.37 <
-18 1 2 17.24 455.61 212.62 o
18 1 -2 16.54 391.49 215.99 <
-17 1 2 612.77 229.49 209.24 <
17 1 -2 613.37 374.62 219.37 <
-16 1 2 184.44 242.99 226.12 <
16 1 -2 188.08 600.74 239.62 o
-15 1 2 79.67 330.74 229.49 <
15 1 -2 89.30 681.73 232.87 o
-14 1 2 1569.98 840.36 249.74 o
14 1 -2 1575.09 911.23 249.74 o
-13 1 2 265.30 664.86 283.49 o
13 1 -2 251.85 614.24 269.99 o
-12 1 2 7481.60 7330.33 330.74 o
12 1 -2 7509.70 7843.32 327.37 o
-11 1 2 311.89 121.50 290.24 <
11 1 -2 311.88 -347.62 283.49 <
-10 1 2 1387.58 1869.71 286.87 o
10 1 -2 1383.31 1734.71 290.24 o
-9 1 2 6110.81 5244.63 293.62 o
9 1 -2 6058.73 6196.36 296.99 o
-8 1 2 1013.82 479.24 296.99 <
8 1 -2 974.66 1451.22 290.24 o
-7 1 2 32210.40 37789.00 401.62 o
7 1 -2 32380.80 42459.90 415.11 o
-6 1 2 1645.48 1687.46 388.12 o
6 1 -2 1644.24 2068.83 415.11 o
-5 1 2 3974.15 3135.30 435.36 o
5 1 -2 3954.87 4991.51 475.86 o
-4 1 2 5973.67 5885.86 539.99 o
4 1 -2 5920.00 8390.06 475.86 o
-3 1 2 268.09 438.74 914.60 <
3 1 -2 261.51 124.87 428.61 <
-2 1 2 19954.10 21251.90 1005.73 o
2 1 -2 19951.20 24539.10 496.11 o
-1 1 2 2273.89 1569.34 789.73 <
1 1 -2 2292.49 1349.97 388.12 o
0 1 2 164.96 671.61 317.24 o
1 1 2 11056.50 15058.90 762.73 o
-1 1 -2 11238.30 15112.90 438.74 o
2 1 2 667.44 121.50 772.86 <
-2 1 -2 679.29 249.74 371.24 <
3 1 2 312.71 3523.42 772.86 o
-3 1 -2 291.44 4627.02 428.61 o
4 1 2 3301.76 4745.14 509.61 o
-4 1 -2 3287.14 6122.11 472.49 o
5 1 2 1221.39 712.11 442.11 <
-5 1 -2 1231.08 985.48 408.37 o
6 1 2 27707.60 37505.50 442.11 o
-6 1 -2 27760.60 39500.10 485.99 o
7 1 2 1356.90 1208.22 320.62 o
-7 1 -2 1365.12 955.10 330.74 o
8 1 2 3960.41 3631.42 313.87 o
-8 1 -2 3939.19 4650.64 347.62 o
9 1 2 1969.66 2325.32 307.12 o
-9 1 -2 2000.88 1727.96 293.62 o
10 1 2 170.91 448.86 303.74 <
-10 1 -2 172.62 195.74 290.24 <
11 1 2 8991.35 7650.95 357.74 o
-11 1 -2 8967.33 7569.95 310.49 o
12 1 2 383.28 364.49 300.37 <
-12 1 -2 385.04 411.74 313.87 <
13 1 2 1466.72 573.74 256.49 o
-13 1 -2 1455.43 809.98 273.37 o
14 1 2 617.65 431.99 246.37 <
-14 1 -2 610.76 317.24 266.62 <
15 1 2 121.56 485.99 236.24 o
-15 1 -2 119.18 472.49 249.74 <
16 1 2 964.52 334.12 239.62 <
-16 1 -2 947.58 232.87 236.24 <
17 1 2 10.46 209.24 236.24 <
-17 1 -2 10.09 108.00 226.12 <
18 1 2 286.52 205.87 226.12 <
-18 1 -2 284.54 97.87 242.99 <
-19 2 2 17.19 418.49 212.62 <
19 2 -2 76.64 303.74 232.87 <
-18 2 2 709.41 978.73 215.99 o
18 2 -2 340.59 884.23 226.12 o
-17 2 2 662.66 1322.97 239.62 o
17 2 -2 664.43 955.10 246.37 o
-16 2 2 8957.25 13472.70 280.12 o
16 2 -2 8764.91 12902.30 310.49 o
-15 2 2 6597.83 6149.11 313.87 o
15 2 -2 6254.77 8309.06 296.99 o
-14 2 2 195.69 256.49 283.49 <
14 2 -2 202.02 367.87 283.49 <
-13 2 2 4616.89 4394.15 283.49 o
13 2 -2 3360.79 3648.29 269.99 o
-12 2 2 5351.76 6243.61 276.74 o
12 2 -2 5148.87 5811.62 276.74 o
-11 2 2 40414.50 56341.00 374.62 o
11 2 -2 39449.40 53276.50 350.99 o
-10 2 2 42594.00 43539.90 367.87 o
10 2 -2 41089.70 47815.90 344.24 o
-9 2 2 4244.56 4319.90 357.74 o
9 2 -2 4352.73 4380.65 286.87 o
-8 2 2 26820.60 42989.80 415.11 o
8 2 -2 25617.40 40951.30 384.74 o
-7 2 2 20557.90 19378.80 371.24 o
7 2 -2 19818.20 26128.60 431.99 o
-6 2 2 165629.00 253406.00 678.36 o
6 2 -2 165611.00 248104.00 806.61 o
-5 2 2 166751.00 217996.00 641.23 o
5 2 -2 165629.00 204301.00 833.61 o
-4 2 2 28992.70 29631.80 310.49 o
4 2 -2 29236.50 32868.40 482.61 o
-3 2 2 118481.00 202327.00 681.73 o
3 2 -2 122807.00 194223.00 728.98 o
-2 2 2 42621.10 44694.10 354.37 o
2 2 -2 42374.30 47545.90 452.24 o
1 2 2 39126.20 37164.60 371.24 o
-1 2 -2 38648.80 37400.90 755.98 o
2 2 2 118339.00 200025.00 678.36 o
-2 2 -2 126436.00 200960.00 681.73 o
3 2 2 40320.50 36331.00 337.49 o
-3 2 -2 40786.40 38376.20 485.99 o
4 2 2 156516.00 176839.00 553.49 o
-4 2 -2 158809.00 181250.00 840.36 o
5 2 2 195665.00 252262.00 661.48 o
-5 2 -2 195157.00 253268.00 877.48 o
6 2 2 15072.70 14647.20 317.24 o
-6 2 -2 14946.50 18089.60 425.24 o
7 2 2 29192.20 44842.60 377.99 o
-7 2 -2 36062.50 41862.50 435.36 o
8 2 2 5799.40 5821.74 323.99 o
-8 2 -2 6311.75 5413.38 334.12 o
9 2 2 34788.00 39324.60 445.49 o
-9 2 -2 36490.20 39189.60 384.74 o
10 2 2 48778.90 67373.60 479.24 o
-10 2 -2 48810.10 59810.40 377.99 o
11 2 2 5634.83 6533.85 323.99 o
-11 2 -2 5500.81 6169.36 269.99 o
12 2 2 3550.68 4583.14 310.49 o
-12 2 -2 6423.97 4319.90 273.37 o
13 2 2 193.95 -269.99 300.37 <
-13 2 -2 497.63 850.48 293.62 o
14 2 2 5171.23 6253.73 317.24 o
-14 2 -2 5645.12 5204.13 310.49 o
15 2 2 9891.55 13911.40 303.74 o
-15 2 -2 9556.29 12939.50 290.24 o
16 2 2 1127.17 1522.09 259.87 o
-16 2 -2 1033.04 853.85 246.37 o
17 2 2 357.22 678.36 249.74 o
-17 2 -2 1045.97 253.12 229.49 <
18 2 2 5.89 37.12 259.87 <
-18 2 -2 47.75 516.36 256.49 o
-18 3 2 329.39 509.61 259.87 <
18 3 -2 310.93 1343.22 273.37 o
-17 3 2 246.69 492.74 283.49 <
17 3 -2 203.70 -138.37 307.12 <
-16 3 2 671.37 357.74 300.37 <
16 3 -2 663.53 239.62 327.37 <
-15 3 2 4095.84 4606.77 293.62 o
15 3 -2 4116.36 4684.39 283.49 o
-14 3 2 1410.68 1113.72 276.74 o
14 3 -2 1411.13 1029.35 263.24 o
-13 3 2 100.68 398.24 293.62 <
13 3 -2 80.59 303.74 256.49 <
-12 3 2 374.37 -74.25 327.37 <
12 3 -2 327.23 84.37 273.37 <
-11 3 2 2133.18 1663.84 300.37 o
11 3 -2 2192.35 884.23 280.12 o
-10 3 2 15222.30 17391.00 286.87 o
10 3 -2 15483.60 17380.80 344.24 o
-9 3 2 11122.10 13962.10 286.87 o
9 3 -2 11076.80 14637.00 323.99 o
-8 3 2 898.15 799.86 219.37 o
8 3 -2 917.58 1214.97 273.37 o
-7 3 2 271.00 253.12 205.87 <
7 3 -2 289.59 502.86 256.49 <
-6 3 2 5053.49 4492.02 209.24 o
6 3 -2 5048.83 4603.39 253.12 o
-5 3 2 20866.00 20745.60 256.49 o
5 3 -2 20873.40 21559.00 303.74 o
-4 3 2 25734.40 37218.60 266.62 o
4 3 -2 26147.00 37613.50 323.99 o
-3 3 2 815.57 1012.48 205.87 o
3 3 -2 873.02 695.23 199.12 o
-2 3 2 3736.02 6172.73 219.37 o
2 3 -2 3969.31 7158.21 239.62 o
-1 3 2 775.73 550.11 242.99 o
1 3 -2 815.16 485.99 212.62 o
0 3 2 1006.09 674.98 168.75 o
0 3 -2 1022.70 499.49 232.87 o
1 3 2 6574.40 10199.00 185.62 o
-1 3 -2 6624.35 10212.50 384.74 o
2 3 2 842.90 1218.35 199.12 o
-2 3 -2 848.96 1059.73 212.62 o
3 3 2 23221.70 33540.00 276.74 o
-3 3 -2 23587.80 32112.40 300.37 o
4 3 2 15496.60 14917.20 236.24 o
-4 3 -2 15240.20 14059.90 266.62 o
5 3 2 2914.10 3111.68 205.87 o
-5 3 -2 2816.16 2561.57 226.12 o
6 3 2 221.61 350.99 185.62 <
-6 3 -2 285.58 458.99 239.62 <
7 3 2 1495.10 1694.21 219.37 o
-7 3 -2 1465.90 1484.97 269.99 o
8 3 2 12995.30 14086.90 232.87 o
-8 3 -2 13042.10 14586.40 361.12 o
9 3 2 16044.50 16300.90 259.87 o
-9 3 -2 15880.30 15642.80 361.12 o
10 3 2 1736.56 793.11 253.12 o
-10 3 -2 1761.88 725.61 283.49 o
11 3 2 494.84 823.48 276.74 o
-11 3 -2 579.86 374.62 283.49 <
12 3 2 763.76 276.74 317.24 <
-12 3 -2 816.48 60.75 249.74 <
13 3 2 2106.27 1113.72 327.37 o
-13 3 -2 2177.99 658.11 253.12 o
14 3 2 4417.56 4198.40 327.37 o
-14 3 -2 4285.47 3850.79 266.62 o
15 3 2 687.78 955.10 323.99 o
-15 3 -2 699.67 1214.97 286.87 o
16 3 2 492.17 -195.74 290.24 <
-16 3 -2 555.94 307.12 276.74 <
17 3 2 606.91 570.36 300.37 <
-17 3 -2 636.68 897.73 273.37 o
-18 4 2 590.64 776.23 344.24 o
18 4 -2 769.21 489.36 334.12 <
-17 4 2 12.71 938.23 313.87 o
17 4 -2 21.52 276.74 307.12 <
-16 4 2 7024.44 7748.82 334.12 o
16 4 -2 7014.76 8325.93 290.24 o
-15 4 2 3126.48 2119.45 320.62 o
15 4 -2 3677.36 2440.07 286.87 o
-14 4 2 5432.91 5730.62 317.24 o
14 4 -2 5345.40 6321.23 276.74 o
-13 4 2 1667.41 3449.17 276.74 o
13 4 -2 3021.95 4080.28 293.62 o
-12 4 2 2.46 469.11 242.99 <
12 4 -2 25.41 -84.37 300.37 <
-11 4 2 13668.20 17472.00 259.87 o
11 4 -2 13789.90 19075.10 317.24 o
-10 4 2 7157.95 8268.56 222.74 o
10 4 -2 8605.02 8265.18 273.37 o
-9 4 2 7021.81 7306.71 209.24 o
9 4 -2 6861.36 7799.45 273.37 o
-8 4 2 960.25 3752.91 195.74 o
8 4 -2 3599.39 3857.54 226.12 o
-7 4 2 19.47 -57.37 172.12 <
7 4 -2 182.24 290.24 199.12 <
-6 4 2 6452.58 9432.91 192.37 o
6 4 -2 6272.40 10431.90 209.24 o
-5 4 2 6355.89 7478.83 205.87 o
5 4 -2 6234.30 6432.60 199.12 o
-4 4 2 1750.12 1559.21 185.62 o
4 4 -2 1267.56 1596.34 182.25 o
-3 4 2 2128.97 2629.06 168.75 o
3 4 -2 3667.25 2571.69 175.50 o
-2 4 2 575.64 195.74 178.87 <
2 4 -2 94.84 229.49 165.37 <
-1 4 2 1616.45 1893.33 219.37 o
1 4 -2 239.12 2119.45 215.99 o
0 4 2 4354.74 2740.44 158.62 o
0 4 -2 1651.06 2865.31 215.99 o
1 4 2 187.34 361.12 151.87 o
-1 4 -2 59.73 158.62 182.25 <
2 4 2 3442.39 2774.19 141.75 o
-2 4 -2 2563.45 2585.19 307.12 o
3 4 2 1324.55 803.23 158.62 o
-3 4 -2 763.82 610.86 185.62 o
4 4 2 4336.70 3921.66 168.75 o
-4 4 -2 2160.77 3381.67 178.87 o
5 4 2 9679.21 10543.30 185.62 o
-5 4 -2 6797.69 10664.80 219.37 o
6 4 2 239.41 209.24 162.00 <
-6 4 -2 68.80 192.37 202.49 <
7 4 2 3017.12 3844.04 175.50 o
-7 4 -2 770.54 3320.92 229.49 o
8 4 2 5737.28 5936.49 209.24 o
-8 4 -2 5643.92 5345.88 259.87 o
9 4 2 5639.50 6824.09 202.49 o
-9 4 -2 4062.09 5831.87 263.24 o
10 4 2 14946.80 17701.50 232.87 o
-10 4 -2 12988.80 17819.60 344.24 o
11 4 2 183.82 145.12 215.99 <
-11 4 -2 157.98 -202.49 340.87 <
12 4 2 2566.71 3334.42 249.74 o
-12 4 -2 1740.89 3621.29 283.49 o
13 4 2 5024.13 5568.62 307.12 o
-13 4 -2 5009.75 5636.12 286.87 o
14 4 2 2463.59 1721.21 323.99 o
-14 4 -2 1872.12 1538.96 266.62 o
15 4 2 7296.55 7738.70 381.37 o
-15 4 -2 6878.03 7235.83 293.62 o
16 4 2 29.47 502.86 350.99 <
-16 4 -2 29.73 651.36 276.74 o
17 4 2 661.52 253.12 350.99 <
-17 4 -2 564.46 523.11 313.87 <
-17 5 2 1050.11 843.73 354.37 o
17 5 -2 1047.40 229.49 313.87 <
-16 5 2 27.88 266.62 344.24 <
16 5 -2 18.84 128.25 296.99 <
-15 5 2 700.80 1150.85 296.99 o
15 5 -2 735.59 1974.33 280.12 o
-14 5 2 144.61 212.62 269.99 <
14 5 -2 198.87 108.00 310.49 <
-13 5 2 72.39 300.37 229.49 <
13 5 -2 76.13 -310.49 280.12 <
-12 5 2 6377.44 5126.51 229.49 o
12 5 -2 6391.17 4940.89 266.62 o
-11 5 2 95.25 -43.87 192.37 <
11 5 -2 71.20 229.49 232.87 <
-10 5 2 30.11 189.00 182.25 <
10 5 -2 38.94 178.87 219.37 <
-9 5 2 211.30 108.00 172.12 <
9 5 -2 193.24 334.12 199.12 <
-8 5 2 152.26 445.49 185.62 o
8 5 -2 151.48 30.37 189.00 <
-7 5 2 17956.30 19594.80 215.99 o
7 5 -2 17959.10 19399.10 232.87 o
-6 5 2 1042.60 995.60 155.25 o
6 5 -2 1000.19 705.36 195.74 o
-5 5 2 70.29 54.00 151.87 <
5 5 -2 65.76 47.25 158.62 <
-4 5 2 654.79 239.62 165.37 <
4 5 -2 605.17 317.24 175.50 <
-3 5 2 295.55 141.75 148.50 <
3 5 -2 315.98 162.00 175.50 <
-2 5 2 11458.80 14164.50 242.99 o
2 5 -2 11547.40 14660.70 162.00 o
-1 5 2 921.27 1049.60 145.12 o
1 5 -2 896.66 1150.85 175.50 o
0 5 2 929.80 624.36 145.12 o
0 5 -2 925.91 526.49 189.00 o
1 5 2 9703.68 13270.20 172.12 o
-1 5 -2 9752.89 13378.20 219.37 o
2 5 2 22.12 158.62 145.12 <
-2 5 -2 18.68 104.62 256.49 <
3 5 2 414.55 485.99 165.37 o
-3 5 -2 456.81 573.74 266.62 o
4 5 2 44.43 317.24 162.00 <
-4 5 -2 54.95 364.49 155.25 o
5 5 2 885.21 539.99 165.37 o
-5 5 -2 891.70 442.11 162.00 o
6 5 2 17429.90 19517.20 205.87 o
-6 5 -2 17499.70 17944.50 215.99 o
7 5 2 222.54 317.24 155.25 o
-7 5 -2 247.13 128.25 199.12 <
8 5 2 153.69 283.49 182.25 <
-8 5 -2 151.46 131.62 182.25 <
9 5 2 280.05 145.12 189.00 <
-9 5 -2 239.99 232.87 215.99 <
10 5 2 158.40 -3.37 175.50 <
-10 5 -2 164.36 -3.37 212.62 <
11 5 2 6379.09 5015.13 205.87 o
-11 5 -2 6419.95 4387.40 286.87 o
12 5 2 49.33 47.25 209.24 <
-12 5 -2 56.97 199.12 307.12 <
13 5 2 148.27 -64.12 236.24 <
-13 5 -2 113.61 789.73 347.62 o
14 5 2 1012.75 884.23 269.99 o
-14 5 -2 911.31 928.10 293.62 o
15 5 2 9.28 -121.50 323.99 <
-15 5 -2 10.22 337.49 283.49 <
16 5 2 1035.07 469.11 361.12 <
-16 5 -2 1029.82 1130.60 293.62 o
-16 6 2 1667.15 1690.84 317.24 o
16 6 -2 1323.56 2332.07 334.12 o
-15 6 2 4219.05 4211.90 293.62 o
15 6 -2 4000.88 4087.03 357.74 o
-14 6 2 1977.75 2470.44 236.24 o
14 6 -2 1946.15 2521.07 293.62 o
-13 6 2 4711.71 5936.49 222.74 o
13 6 -2 4346.86 6047.86 269.99 o
-12 6 2 1346.74 1704.34 189.00 o
12 6 -2 1264.49 1403.97 222.74 o
-11 6 2 7282.33 7411.33 195.74 o
11 6 -2 6255.92 8494.68 226.12 o
-10 6 2 17284.80 18754.40 209.24 o
10 6 -2 16414.40 18805.10 232.87 o
-9 6 2 5070.47 5855.49 182.25 o
9 6 -2 4890.82 5774.49 195.74 o
-8 6 2 28409.00 37573.00 229.49 o
8 6 -2 27910.50 38399.90 263.24 o
-7 6 2 2706.63 2764.06 162.00 o
7 6 -2 2561.57 2888.93 175.50 o
-6 6 2 28050.80 31126.90 209.24 o
6 6 -2 26939.00 34265.60 226.12 o
-5 6 2 46645.00 53637.60 242.99 o
5 6 -2 45561.00 52871.50 249.74 o
-4 6 2 10955.30 9942.52 172.12 o
4 6 -2 10563.30 10583.80 195.74 o
-3 6 2 81600.90 119540.00 438.74 o
3 6 -2 82376.40 119563.00 273.37 o
-2 6 2 7568.77 7650.95 219.37 o
2 6 -2 7900.09 7769.07 189.00 o
-1 6 2 55615.70 70340.10 242.99 o
1 6 -2 55401.20 64066.10 290.24 o
0 6 2 61367.20 73310.10 249.74 o
0 6 -2 61452.90 69756.30 290.24 o
1 6 2 6908.69 7833.19 158.62 o
-1 6 -2 6658.82 7117.71 185.62 o
2 6 2 84354.60 115999.00 293.62 o
-2 6 -2 86271.10 116664.00 371.24 o
3 6 2 9423.91 10462.30 158.62 o
-3 6 -2 9932.18 9331.66 253.12 o
4 6 2 35603.20 44343.10 229.49 o
-4 6 -2 36410.30 47265.80 394.87 o
5 6 2 30297.50 38467.40 222.74 o
-5 6 -2 31803.90 37532.50 236.24 o
6 6 2 2767.82 2392.82 155.25 o
-6 6 -2 2774.84 2919.31 185.62 o
7 6 2 28603.80 40124.40 242.99 o
-7 6 -2 30507.30 37552.80 239.62 o
8 6 2 4444.16 5359.38 168.75 o
-8 6 -2 4679.26 4829.51 205.87 o
9 6 2 12445.80 15085.90 195.74 o
-9 6 -2 13283.00 14680.90 212.62 o
10 6 2 6101.06 8126.81 192.37 o
-10 6 -2 7230.93 7688.07 219.37 o
11 6 2 999.59 870.73 192.37 o
-11 6 -2 926.40 904.48 256.49 o
12 6 2 4912.01 6560.85 209.24 o
-12 6 -2 5841.98 5875.74 286.87 o
13 6 2 1559.67 2500.82 212.62 o
-13 6 -2 1468.89 2244.32 290.24 o
14 6 2 2750.79 3142.05 246.37 o
-14 6 -2 3014.14 3131.93 344.24 o
15 6 2 1065.06 2298.32 290.24 o
-15 6 -2 1386.31 1869.71 323.99 o
-14 7 2 1433.24 782.98 242.99 o
14 7 -2 1428.92 1522.09 276.74 o
-13 7 2 200.51 350.99 215.99 <
13 7 -2 204.96 620.99 246.37 o
-12 7 2 35.72 222.74 182.25 <
12 7 -2 38.41 249.74 242.99 <
-11 7 2 397.41 6.75 175.50 <
11 7 -2 395.83 -13.50 205.87 <
-10 7 2 2039.15 799.86 175.50 o
10 7 -2 2042.80 1096.85 195.74 o
-9 7 2 4127.30 4012.78 189.00 o
9 7 -2 4126.01 3361.42 209.24 o
-8 7 2 367.61 219.37 158.62 <
8 7 -2 368.81 189.00 172.12 <
-7 7 2 496.99 877.48 155.25 o
7 7 -2 581.69 1427.59 178.87 o
-6 7 2 495.79 151.87 151.87 <
6 7 -2 534.09 -118.12 182.25 <
-5 7 2 1477.17 1164.35 148.50 o
5 7 -2 1454.72 1410.72 172.12 o
-4 7 2 4340.50 3752.91 212.62 o
4 7 -2 4341.06 3604.42 128.25 o
-3 7 2 69.54 553.49 199.12 o
3 7 -2 68.28 408.37 151.87 o
-2 7 2 929.16 182.25 135.00 <
2 7 -2 985.62 67.50 148.50 <
-1 7 2 412.40 37.12 138.37 <
1 7 -2 413.35 141.75 158.62 <
0 7 2 140.57 266.62 141.75 <
0 7 -2 118.21 30.37 162.00 <
1 7 2 341.15 172.12 141.75 <
-1 7 -2 316.31 162.00 141.75 <
2 7 2 11.68 620.99 141.75 o
-2 7 -2 16.08 641.23 172.12 o
3 7 2 4488.69 3125.18 158.62 o
-3 7 -2 4407.29 3094.80 165.37 o
4 7 2 2358.98 1900.08 151.87 o
-4 7 -2 2277.85 1788.71 256.49 o
5 7 2 560.42 394.87 128.25 o
-5 7 -2 569.37 182.25 222.74 <
6 7 2 811.18 850.48 151.87 o
-6 7 -2 788.15 1295.97 276.74 o
7 7 2 253.52 195.74 151.87 <
-7 7 -2 241.74 -13.50 178.87 <
8 7 2 4044.90 3547.04 168.75 o
-8 7 -2 4001.77 3101.55 185.62 o
9 7 2 1998.47 1019.23 165.37 o
-9 7 -2 1929.09 998.98 209.24 o
10 7 2 388.93 172.12 189.00 <
-10 7 -2 400.16 -6.75 212.62 <
11 7 2 359.19 33.75 189.00 <
-11 7 -2 406.68 330.74 209.24 <
12 7 2 162.32 509.61 192.37 o
-12 7 -2 171.11 -131.62 253.12 <
13 7 2 1261.91 1086.72 219.37 o
-13 7 -2 1268.13 229.49 266.62 <
-13 8 2 2911.04 2841.68 209.24 o
13 8 -2 3494.45 2851.81 269.99 o
-12 8 2 14.73 404.99 189.00 o
12 8 -2 16.71 108.00 222.74 <
-11 8 2 1948.03 3570.67 192.37 o
11 8 -2 2365.63 3391.80 209.24 o
-10 8 2 2104.51 2703.31 178.87 o
10 8 -2 2351.80 3233.18 199.12 o
-9 8 2 1979.94 3108.30 178.87 o
9 8 -2 2019.10 3101.55 195.74 o
-8 8 2 4641.99 5784.62 172.12 o
8 8 -2 5720.96 6145.73 209.24 o
-7 8 2 42.86 404.99 168.75 o
7 8 -2 21.01 458.99 172.12 o
-6 8 2 1175.75 2689.81 226.12 o
6 8 -2 1977.84 3334.42 185.62 o
-5 8 2 1782.62 2737.06 226.12 o
5 8 -2 1769.91 3327.67 145.12 o
-4 8 2 622.70 1650.34 222.74 o
4 8 -2 836.72 2001.33 195.74 o
-3 8 2 3409.46 5119.76 158.62 o
3 8 -2 3878.82 4620.27 165.37 o
-2 8 2 372.45 641.23 151.87 o
2 8 -2 243.64 1056.35 162.00 o
-1 8 2 496.89 1751.58 151.87 o
1 8 -2 1198.95 1974.33 165.37 o
0 8 2 1604.11 2831.56 151.87 o
0 8 -2 836.98 2554.82 151.87 o
1 8 2 60.61 830.23 145.12 o
-1 8 -2 177.35 907.85 175.50 o
2 8 2 4519.40 4829.51 155.25 o
-2 8 -2 3701.93 4873.39 185.62 o
3 8 2 1242.37 1883.21 158.62 o
-3 8 -2 1011.69 1636.84 172.12 o
4 8 2 1043.36 2635.81 148.50 o
-4 8 -2 884.71 2514.32 178.87 o
5 8 2 3056.05 3999.28 155.25 o
-5 8 -2 2069.68 3165.68 242.99 o
6 8 2 4.00 523.11 135.00 o
-6 8 -2 10.07 215.99 276.74 <
7 8 2 5759.93 6223.36 175.50 o
-7 8 -2 4495.75 5183.88 317.24 o
8 8 2 2749.09 3182.55 192.37 o
-8 8 -2 2561.92 2595.32 178.87 o
9 8 2 1511.80 2213.95 199.12 o
-9 8 -2 1149.58 1289.22 185.62 o
10 8 2 3000.07 3810.29 182.25 o
-10 8 -2 2531.88 3300.67 195.74 o
11 8 2 25.76 -16.87 195.74 <
-11 8 -2 40.23 347.62 205.87 <
12 8 2 3471.74 2922.68 229.49 o
-12 8 -2 2854.72 2342.20 253.12 o
-10 9 2 61.06 40.50 175.50 <
10 9 -2 56.47 -3.37 199.12 <
-9 9 2 93.46 151.87 175.50 <
9 9 -2 52.20 128.25 189.00 <
-8 9 2 31.48 -50.62 239.62 <
8 9 -2 35.57 158.62 189.00 <
-7 9 2 407.81 -189.00 256.49 <
7 9 -2 383.82 229.49 162.00 <
-6 9 2 254.66 570.36 229.49 o
6 9 -2 229.22 222.74 172.12 <
-5 9 2 84.66 -121.50 162.00 <
5 9 -2 77.69 118.12 199.12 <
-4 9 2 328.04 523.11 155.25 o
4 9 -2 287.25 141.75 178.87 <
-3 9 2 34.70 141.75 151.87 <
3 9 -2 36.58 151.87 172.12 <
-2 9 2 242.92 222.74 148.50 <
2 9 -2 222.40 23.62 162.00 <
-1 9 2 108.66 111.37 155.25 <
1 9 -2 103.68 -54.00 162.00 <
0 9 2 157.68 340.87 148.50 o
0 9 -2 159.39 317.24 172.12 <
1 9 2 688.55 502.86 151.87 o
-1 9 -2 698.35 209.24 182.25 <
2 9 2 27.70 23.62 162.00 <
-2 9 -2 34.69 67.50 182.25 <
3 9 2 326.83 195.74 155.25 <
-3 9 -2 364.84 357.74 168.75 o
4 9 2 135.99 -141.75 158.62 <
-4 9 -2 168.89 162.00 172.12 <
5 9 2 184.48 266.62 155.25 <
-5 9 -2 181.29 394.87 175.50 o
6 9 2 631.40 -67.50 168.75 <
-6 9 -2 685.52 435.36 189.00 o
7 9 2 2.38 -131.62 162.00 <
-7 9 -2 5.86 118.12 310.49 <
8 9 2 97.24 205.87 138.37 <
-8 9 -2 113.66 -141.75 269.99 <
9 9 2 76.74 -77.62 199.12 <
-9 9 -2 90.34 -30.37 300.37 <
-7 10 2 593.48 1120.47 242.99 o
7 10 -2 622.40 1603.09 192.37 o
-6 10 2 5991.18 7468.70 185.62 o
6 10 -2 5615.46 7559.83 222.74 o
-5 10 2 6577.55 6965.84 175.50 o
5 10 -2 6517.11 7083.96 205.87 o
-4 10 2 1777.34 2585.19 172.12 o
4 10 -2 1557.17 2173.45 182.25 o
-3 10 2 15278.40 13307.30 185.62 o
3 10 -2 14907.90 13661.70 212.62 o
-2 10 2 1472.74 2490.69 162.00 o
2 10 -2 1584.19 2625.69 192.37 o
-1 10 2 8610.16 11137.20 178.87 o
1 10 -2 8477.89 10138.30 189.00 o
0 10 2 8864.93 10921.20 182.25 o
0 10 -2 9165.99 11191.20 212.62 o
1 10 2 1388.38 2575.07 172.12 o
-1 10 -2 1257.88 2581.82 192.37 o
2 10 2 13793.30 12996.80 199.12 o
-2 10 -2 13946.40 12895.60 212.62 o
3 10 2 1561.90 2186.95 175.50 o
-3 10 -2 1712.37 1792.08 192.37 o
4 10 2 5750.62 6290.85 185.62 o
-4 10 -2 6039.32 6203.11 226.12 o
5 10 2 5321.94 7937.82 192.37 o
-5 10 -2 5886.84 7590.20 215.99 o
6 10 2 576.16 1525.46 175.50 o
-6 10 -2 528.50 1451.22 192.37 o
-19 1 3 289.59 33.75 232.87 <
19 1 -3 225.68 222.74 239.62 <
-18 1 3 1380.24 661.48 236.24 o
18 1 -3 1116.84 742.48 219.37 o
-17 1 3 406.49 627.74 222.74 o
17 1 -3 440.57 401.62 219.37 <
-16 1 3 12659.00 7215.58 269.99 o
16 1 -3 13027.50 14377.20 269.99 o
-15 1 3 1050.13 1123.85 253.12 o
15 1 -3 1220.42 1667.21 283.49 o
-14 1 3 1160.14 300.37 280.12 <
14 1 -3 1126.75 317.24 303.74 <
-13 1 3 4929.41 3216.30 300.37 o
13 1 -3 4316.21 4022.91 303.74 o
-12 1 3 232.68 836.98 296.99 o
12 1 -3 308.01 519.74 283.49 <
-11 1 3 49160.50 36995.90 398.24 o
11 1 -3 49591.40 52088.60 398.24 o
-10 1 3 5370.18 4569.64 290.24 o
10 1 -3 5757.16 5379.63 303.74 o
-9 1 3 4978.18 2885.56 293.62 o
9 1 -3 5026.45 3115.05 344.24 o
-8 1 3 11118.00 8015.44 347.62 o
8 1 -3 11209.70 12028.20 361.12 o
-7 1 3 265.22 1511.97 361.12 o
7 1 -3 338.33 1376.97 313.87 o
-6 1 3 118217.00 90360.20 691.86 o
6 1 -3 117115.00 112760.00 523.11 o
-5 1 3 21784.00 15058.90 661.48 o
5 1 -3 22429.70 19041.30 320.62 o
-4 1 3 15647.00 11225.00 610.86 o
4 1 -3 16073.30 12703.20 269.99 o
-3 1 3 14567.10 22058.50 637.86 o
3 1 -3 15435.70 16942.10 296.99 o
-2 1 3 2989.11 4006.03 485.99 o
2 1 -3 3114.49 4721.52 283.49 o
-1 1 3 165474.00 153485.00 661.48 o
1 1 -3 165113.00 159705.00 668.23 o
0 1 3 36738.20 23081.10 313.87 o
1 1 3 14101.40 10111.30 266.62 o
2 1 3 13021.60 16284.00 580.49 o
-2 1 -3 15886.10 15207.40 293.62 o
3 1 3 3933.62 4870.01 610.86 o
-3 1 -3 3919.40 4738.39 283.49 o
4 1 3 88828.70 86573.50 843.73 o
-4 1 -3 86966.30 85010.90 448.86 o
5 1 3 39346.80 37708.00 533.24 o
-5 1 -3 37663.40 37954.40 377.99 o
6 1 3 12861.70 14238.80 374.62 o
-6 1 -3 13076.90 11380.20 293.62 o
7 1 3 2560.63 3989.16 323.99 o
-7 1 -3 5131.28 6260.48 300.37 o
8 1 3 3717.88 3283.80 286.87 o
-8 1 -3 3887.07 3067.80 303.74 o
9 1 3 30653.70 30566.70 384.74 o
-9 1 -3 29632.50 24370.30 391.49 o
10 1 3 20503.00 21390.30 350.99 o
-10 1 -3 19411.50 11167.60 421.86 o
11 1 3 4395.52 3857.54 327.37 o
-11 1 -3 4306.88 2899.06 317.24 o
12 1 3 810.83 1687.46 334.12 o
-12 1 -3 2137.60 1366.84 323.99 o
13 1 3 883.32 492.74 296.99 <
-13 1 -3 997.27 570.36 303.74 <
14 1 3 5613.02 5656.37 269.99 o
-14 1 -3 5346.06 2642.56 303.74 o
15 1 3 7781.06 8325.93 276.74 o
-15 1 -3 7259.21 2710.06 317.24 o
16 1 3 971.91 870.73 239.62 o
-16 1 -3 886.93 84.37 249.74 <
17 1 3 214.13 506.24 236.24 o
-17 1 -3 606.23 452.24 256.49 <
-18 2 3 224.87 580.49 256.49 o
18 2 -3 220.93 465.74 249.74 <
-17 2 3 66.55 -401.62 263.24 <
17 2 -3 52.58 60.75 266.62 <
-16 2 3 9.37 364.49 296.99 <
16 2 -3 12.23 880.85 307.12 o
-15 2 3 1298.84 1255.47 286.87 o
15 2 -3 1331.84 1626.71 286.87 o
-14 2 3 64.24 -212.62 269.99 <
14 2 -3 74.74 502.86 256.49 <
-13 2 3 353.03 57.37 256.49 <
13 2 -3 359.18 985.48 242.99 o
-12 2 3 228.02 209.24 253.12 <
12 2 -3 205.96 135.00 246.37 <
-11 2 3 60.38 256.49 276.74 <
11 2 -3 50.69 162.00 236.24 <
-10 2 3 4911.91 4049.91 286.87 o
10 2 -3 4892.51 6459.60 293.62 o
-9 2 3 81.98 -97.87 361.12 <
9 2 -3 93.58 111.37 300.37 <
-8 2 3 258.11 81.00 367.87 <
8 2 -3 264.55 519.74 276.74 <
-7 2 3 1713.38 2014.83 364.49 o
7 2 -3 1674.37 1866.33 310.49 o
-6 2 3 343.15 340.87 323.99 <
6 2 -3 308.05 384.74 357.74 <
-5 2 3 6219.83 5774.49 313.87 o
5 2 -3 6182.82 6685.72 482.61 o
-4 2 3 291.32 30.37 300.37 <
4 2 -3 279.44 435.36 445.49 <
-3 2 3 86.05 263.24 286.87 <
3 2 -3 91.14 489.36 475.86 <
-2 2 3 8996.62 9534.16 283.49 o
2 2 -3 8894.03 9432.91 469.11 o
-1 2 3 561.86 391.49 290.24 <
1 2 -3 568.44 566.99 384.74 <
0 2 3 2420.86 1387.09 195.74 o
1 2 3 700.41 192.37 175.50 <
2 2 3 85.17 111.37 263.24 <
-2 2 -3 70.42 185.62 367.87 <
3 2 3 10488.70 13857.40 303.74 o
-3 2 -3 10342.80 13779.80 462.36 o
4 2 3 63.58 354.37 280.12 <
-4 2 -3 59.55 118.12 408.37 <
5 2 3 175.63 -101.25 290.24 <
-5 2 -3 190.94 -37.12 442.11 <
6 2 3 1079.59 803.23 330.74 o
-6 2 -3 1108.36 70.87 391.49 <
7 2 3 482.09 135.00 354.37 <
-7 2 -3 476.31 57.37 327.37 <
8 2 3 4146.29 4090.41 435.36 o
-8 2 -3 4122.58 3344.55 269.99 o
9 2 3 452.89 40.50 377.99 <
-9 2 -3 411.86 445.49 249.74 <
10 2 3 289.30 384.74 290.24 <
-10 2 -3 314.68 249.74 242.99 <
11 2 3 1167.57 1268.97 307.12 o
-11 2 -3 1194.87 971.98 239.62 o
12 2 3 91.38 -286.87 280.12 <
-12 2 -3 82.80 -151.87 249.74 <
13 2 3 537.43 911.23 296.99 o
-13 2 -3 517.66 384.74 263.24 <
14 2 3 454.34 509.61 313.87 <
-14 2 -3 435.96 91.12 273.37 <
15 2 3 234.76 -337.49 293.62 <
-15 2 -3 247.85 701.98 327.37 o
16 2 3 378.40 344.24 273.37 <
-16 2 -3 396.28 398.24 283.49 <
17 2 3 16.93 310.49 256.49 <
-17 2 -3 15.48 -77.62 256.49 <
-18 3 3 710.06 452.24 300.37 <
18 3 -3 588.34 74.25 296.99 <
-17 3 3 58.16 -347.62 327.37 <
17 3 -3 71.00 307.12 317.24 <
-16 3 3 9084.24 6155.86 296.99 o
16 3 -3 9047.85 8764.67 290.24 o
-15 3 3 628.79 442.11 269.99 <
15 3 -3 807.84 867.35 269.99 o
-14 3 3 3141.12 1866.33 269.99 o
14 3 -3 3314.10 3148.80 249.74 o
-13 3 3 2276.12 1208.22 276.74 o
13 3 -3 1989.53 1079.98 242.99 o
-12 3 3 2.09 944.98 313.87 o
12 3 -3 21.07 465.74 239.62 <
-11 3 3 25912.10 23327.50 367.87 o
11 3 -3 25505.90 26148.90 303.74 o
-10 3 3 4248.63 4863.26 296.99 o
10 3 -3 4672.99 5190.63 276.74 o
-9 3 3 7520.12 5318.88 307.12 o
9 3 -3 7523.16 6290.85 290.24 o
-8 3 3 4937.21 2656.06 266.62 o
8 3 -3 4685.64 3540.29 313.87 o
-7 3 3 616.87 1741.46 215.99 o
7 3 -3 668.32 2335.45 350.99 o
-6 3 3 41093.50 40826.40 310.49 o
6 3 -3 39927.30 39024.20 485.99 o
-5 3 3 13935.40 12615.50 222.74 o
5 3 -3 14371.90 12689.70 462.36 o
-4 3 3 9875.00 6236.86 215.99 o
4 3 -3 9908.58 6719.47 398.24 o
-3 3 3 5966.99 5555.12 209.24 o
3 3 -3 6794.66 4370.52 364.49 o
-2 3 3 1774.11 3020.56 199.12 o
2 3 -3 1834.29 3297.30 337.49 o
-1 3 3 46282.70 42365.40 334.12 o
1 3 -3 45814.20 42692.80 337.49 o
0 3 3 21186.20 16665.40 189.00 o
0 3 -3 22280.50 15666.40 391.49 o
1 3 3 10172.90 6513.60 165.37 o
-1 3 -3 9927.51 6071.48 354.37 o
2 3 3 9120.18 7431.58 242.99 o
-2 3 -3 11045.20 7387.70 637.86 o
3 3 3 2624.27 3985.78 209.24 o
-3 3 -3 2910.14 4026.28 381.37 o
4 3 3 40264.90 37282.80 283.49 o
-4 3 -3 39244.40 35801.20 512.99 o
5 3 3 21803.90 17829.70 249.74 o
-5 3 -3 22561.10 15160.20 496.11 o
6 3 3 5539.14 3871.04 189.00 o
-6 3 -3 5038.72 3084.68 374.62 o
7 3 3 7264.40 7218.96 242.99 o
-7 3 -3 8272.40 6550.72 344.24 o
8 3 3 2684.08 2642.56 246.37 o
-8 3 -3 2938.88 2173.45 249.74 o
9 3 3 19332.40 14869.90 269.99 o
-9 3 -3 18431.10 12136.20 266.62 o
10 3 3 12131.20 10283.40 330.74 o
-10 3 -3 12115.20 8045.81 280.12 o
11 3 3 1884.43 975.35 303.74 o
-11 3 -3 1706.27 489.36 256.49 <
12 3 3 2372.40 2382.70 361.12 o
-12 3 -3 2963.03 2197.07 239.62 o
13 3 3 1256.12 705.36 320.62 o
-13 3 -3 1353.25 411.74 239.62 <
14 3 3 5521.76 4326.65 327.37 o
-14 3 -3 5236.53 2838.31 280.12 o
15 3 3 4193.33 3688.79 364.49 o
-15 3 -3 4093.42 1363.47 280.12 o
16 3 3 528.65 344.24 344.24 <
-16 3 -3 455.74 175.50 307.12 <
17 3 3 406.83 388.12 320.62 <
-17 3 -3 665.49 -54.00 327.37 <
-17 4 3 160.67 -168.75 303.74 <
17 4 -3 138.55 1147.47 280.12 o
-16 4 3 72.80 -101.25 290.24 <
16 4 -3 60.44 263.24 266.62 <
-15 4 3 1346.27 624.36 296.99 o
15 4 -3 1376.69 1471.47 249.74 o
-14 4 3 166.82 -145.12 361.12 <
14 4 -3 200.90 -114.75 256.49 <
-13 4 3 665.49 1235.22 283.49 o
13 4 -3 661.63 1964.20 242.99 o
-12 4 3 1432.50 745.86 259.87 o
12 4 -3 1414.44 644.61 253.12 o
-11 4 3 1005.52 404.99 256.49 <
11 4 -3 930.27 307.12 280.12 <
-10 4 3 3017.63 1700.96 236.24 o
10 4 -3 2969.46 1295.97 367.87 o
-9 4 3 434.83 259.87 195.74 <
9 4 -3 501.57 431.99 303.74 <
-8 4 3 874.20 1316.22 189.00 o
8 4 -3 873.59 1322.97 290.24 o
-7 4 3 4647.48 4525.77 205.87 o
7 4 -3 4711.00 4775.51 263.24 o
-6 4 3 1087.50 536.61 165.37 o
6 4 -3 1036.80 469.11 229.49 o
-5 4 3 4139.17 3776.54 189.00 o
5 4 -3 4156.38 3705.66 259.87 o
-4 4 3 1585.04 1282.47 178.87 o
4 4 -3 1573.83 1424.22 226.12 o
-3 4 3 74.42 340.87 165.37 o
3 4 -3 56.54 124.87 205.87 <
-2 4 3 6164.58 4893.64 182.25 o
2 4 -3 6097.34 4755.27 222.74 o
-1 4 3 895.01 806.61 209.24 o
1 4 -3 855.49 820.11 232.87 o
0 4 3 5315.09 6003.99 158.62 o
0 4 -3 5163.75 5686.74 242.99 o
1 4 3 6539.27 5531.50 158.62 o
-1 4 -3 6613.37 5214.25 242.99 o
2 4 3 793.36 519.74 145.12 o
-2 4 -3 753.93 465.74 296.99 <
3 4 3 3089.70 2294.95 182.25 o
-3 4 -3 3035.90 2102.58 337.49 o
4 4 3 684.25 519.74 182.25 o
-4 4 -3 706.48 462.36 212.62 o
5 4 3 1705.58 1451.22 175.50 o
-5 4 -3 1619.92 1792.08 242.99 o
6 4 3 5639.60 5666.49 189.00 o
-6 4 -3 5799.78 6115.36 293.62 o
7 4 3 830.94 209.24 185.62 <
-7 4 -3 787.93 50.62 303.74 <
8 4 3 1536.06 1397.22 175.50 o
-8 4 -3 1482.22 1451.22 361.12 o
9 4 3 63.83 394.87 205.87 <
-9 4 -3 48.89 138.37 317.24 <
10 4 3 57.27 -23.62 229.49 <
-10 4 -3 40.79 -20.25 242.99 <
11 4 3 2505.32 1495.09 215.99 o
-11 4 -3 2585.96 1478.22 256.49 o
12 4 3 451.00 445.49 286.87 <
-12 4 -3 402.64 553.49 269.99 o
13 4 3 658.04 276.74 300.37 <
-13 4 -3 590.44 101.25 229.49 <
14 4 3 411.52 624.36 381.37 <
-14 4 -3 395.92 681.73 239.62 o
15 4 3 95.39 -128.25 431.99 <
-15 4 -3 103.09 239.62 246.37 <
16 4 3 561.64 290.24 404.99 <
-16 4 -3 602.38 350.99 303.74 <
-16 5 3 5382.30 3246.68 354.37 o
16 5 -3 5051.83 4144.40 273.37 o
-15 5 3 1372.34 1559.21 310.49 o
15 5 -3 1406.71 1221.72 256.49 o
-14 5 3 5239.66 3742.79 269.99 o
14 5 -3 5429.06 4755.27 269.99 o
-13 5 3 3409.47 1910.21 226.12 o
13 5 -3 3512.79 2166.70 290.24 o
-12 5 3 63.64 499.49 205.87 o
12 5 -3 135.55 843.73 303.74 o
-11 5 3 15171.20 14853.00 226.12 o
11 5 -3 14849.20 13391.70 320.62 o
-10 5 3 7161.51 7053.59 215.99 o
10 5 -3 7093.37 5720.49 273.37 o
-9 5 3 17736.30 17708.20 222.74 o
9 5 -3 17824.20 16267.10 266.62 o
-8 5 3 14426.70 12281.30 195.74 o
8 5 -3 15097.50 15015.00 253.12 o
-7 5 3 47.64 1005.73 162.00 o
7 5 -3 95.31 934.85 212.62 o
-6 5 3 37809.20 38909.50 232.87 o
6 5 -3 37773.40 40613.80 293.62 o
-5 5 3 17487.70 18062.60 205.87 o
5 5 -3 17680.80 18994.10 242.99 o
-4 5 3 29344.00 26472.90 222.74 o
4 5 -3 29312.50 27539.40 256.49 o
-3 5 3 39273.30 35068.80 239.62 o
3 5 -3 38698.30 36985.80 266.62 o
-2 5 3 48.37 2460.32 212.62 o
2 5 -3 39.09 2342.20 155.25 o
-1 5 3 46132.40 50563.10 222.74 o
1 5 -3 46430.60 46651.60 310.49 o
0 5 3 24974.90 20927.90 185.62 o
0 5 -3 24227.60 20141.50 249.74 o
1 5 3 18592.00 14539.20 168.75 o
-1 5 -3 18603.20 13617.80 229.49 o
2 5 3 35606.60 35973.30 205.87 o
-2 5 -3 34193.20 33556.90 283.49 o
3 5 3 1055.45 2102.58 131.62 o
-3 5 -3 833.61 1970.95 293.62 o
4 5 3 26712.40 28923.10 229.49 o
-4 5 -3 27747.10 27735.10 425.24 o
5 5 3 12772.10 11839.20 192.37 o
-5 5 -3 12098.10 9453.16 212.62 o
6 5 3 5940.42 3904.78 175.50 o
-6 5 -3 6226.52 4934.14 222.74 o
7 5 3 14407.00 14201.70 189.00 o
-7 5 -3 14293.10 15376.10 273.37 o
8 5 3 1121.34 1231.85 168.75 o
-8 5 -3 861.87 462.36 276.74 <
9 5 3 11295.00 11130.50 219.37 o
-9 5 -3 11707.80 9983.02 293.62 o
10 5 3 3857.70 2548.07 189.00 o
-10 5 -3 3929.00 2996.93 354.37 o
11 5 3 1091.31 533.24 195.74 o
-11 5 -3 1225.47 1154.22 286.87 o
12 5 3 3688.09 4168.03 249.74 o
-12 5 -3 3625.34 3506.54 266.62 o
13 5 3 777.96 330.74 266.62 <
-13 5 -3 718.83 458.99 269.99 <
14 5 3 3437.04 2568.32 280.12 o
-14 5 -3 3485.80 2558.19 273.37 o
15 5 3 1116.83 745.86 347.62 o
-15 5 -3 1097.29 128.25 259.87 <
-15 6 3 1495.10 1673.96 263.24 o
15 6 -3 1497.76 877.48 286.87 o
-14 6 3 112.43 377.99 226.12 <
14 6 -3 149.67 674.98 307.12 o
-13 6 3 103.60 415.11 222.74 <
13 6 -3 111.02 -367.87 296.99 <
-12 6 3 174.83 74.25 182.25 <
12 6 -3 164.06 -323.99 266.62 <
-11 6 3 100.89 67.50 178.87 <
11 6 -3 84.05 290.24 246.37 <
-10 6 3 2584.59 2072.20 172.12 o
10 6 -3 2545.31 1754.96 229.49 o
-9 6 3 357.50 985.48 165.37 o
9 6 -3 380.38 388.12 212.62 <
-8 6 3 451.73 415.11 155.25 o
8 6 -3 450.29 425.24 192.37 o
-7 6 3 686.58 418.49 168.75 o
7 6 -3 676.70 232.87 212.62 <
-6 6 3 135.86 357.74 168.75 o
6 6 -3 123.83 394.87 182.25 o
-5 6 3 1409.62 843.73 168.75 o
5 6 -3 1360.57 1063.10 185.62 o
-4 6 3 453.11 1049.60 158.62 o
4 6 -3 430.02 688.48 158.62 o
-3 6 3 25.04 391.49 199.12 <
3 6 -3 22.25 212.62 121.50 <
-2 6 3 3367.11 2959.81 141.75 o
2 6 -3 3414.59 2936.18 175.50 o
-1 6 3 187.16 452.24 138.37 o
1 6 -3 184.24 465.74 182.25 o
0 6 3 63.31 539.99 141.75 o
0 6 -3 64.37 577.11 178.87 o
1 6 3 196.17 627.74 138.37 o
-1 6 -3 203.00 391.49 178.87 o
2 6 3 26.79 509.61 141.75 o
-2 6 -3 23.35 340.87 182.25 <
3 6 3 5902.23 6466.35 151.87 o
-3 6 -3 5968.11 6577.72 199.12 o
4 6 3 363.77 843.73 118.12 o
-4 6 -3 332.70 742.48 293.62 o
5 6 3 265.32 418.49 165.37 o
-5 6 -3 278.62 199.12 300.37 <
6 6 3 61.37 111.37 172.12 <
-6 6 -3 71.11 300.37 195.74 <
7 6 3 5.76 229.49 175.50 <
-7 6 -3 5.43 212.62 215.99 <
8 6 3 3125.67 2470.44 182.25 o
-8 6 -3 3161.23 2561.57 209.24 o
9 6 3 216.99 94.50 182.25 <
-9 6 -3 183.39 256.49 212.62 <
10 6 3 243.38 209.24 182.25 <
-10 6 -3 277.45 253.12 290.24 <
11 6 3 99.63 60.75 202.49 <
-11 6 -3 148.16 84.37 313.87 <
12 6 3 8.01 -178.87 199.12 <
-12 6 -3 5.25 -310.49 340.87 <
13 6 3 912.83 482.61 229.49 o
-13 6 -3 933.70 560.24 317.24 <
14 6 3 91.41 60.75 239.62 <
-14 6 -3 74.19 347.62 266.62 <
-14 7 3 3810.35 3418.80 232.87 o
14 7 -3 3899.51 3084.68 323.99 o
-13 7 3 1448.10 1923.71 219.37 o
13 7 -3 1728.52 1059.73 317.24 o
-12 7 3 16.26 310.49 192.37 <
12 7 -3 44.97 668.23 249.74 o
-11 7 3 3787.07 3516.67 202.49 o
11 7 -3 3465.35 3732.66 273.37 o
-10 7 3 2335.01 1680.71 189.00 o
10 7 -3 2306.76 1957.45 222.74 o
-9 7 3 5188.86 4184.90 168.75 o
9 7 -3 5223.03 4593.27 205.87 o
-8 7 3 4589.49 3266.92 165.37 o
8 7 -3 4636.39 3688.79 199.12 o
-7 7 3 63.76 654.73 162.00 o
7 7 -3 103.57 425.24 202.49 o
-6 7 3 3955.20 3894.66 168.75 o
6 7 -3 3865.73 4360.40 172.12 o
-5 7 3 4161.96 3111.68 212.62 o
5 7 -3 3943.43 3462.67 172.12 o
-4 7 3 3624.35 3317.55 212.62 o
4 7 -3 3728.11 3034.06 145.12 o
-3 7 3 7184.69 6047.86 219.37 o
3 7 -3 7293.75 5440.37 182.25 o
-2 7 3 167.46 914.60 151.87 o
2 7 -3 176.66 411.74 178.87 o
-1 7 3 4385.83 3817.04 148.50 o
1 7 -3 4604.67 3921.66 178.87 o
0 7 3 4884.88 3901.41 148.50 o
0 7 -3 5580.70 3790.04 195.74 o
1 7 3 3461.63 2689.81 145.12 o
-1 7 -3 3320.77 2642.56 175.50 o
2 7 3 10382.00 9294.54 158.62 o
-2 7 -3 10387.30 9331.66 209.24 o
3 7 3 453.01 813.36 138.37 o
-3 7 -3 557.56 816.73 195.74 o
4 7 3 7083.11 5855.49 151.87 o
-4 7 -3 6772.42 6105.23 205.87 o
5 7 3 5083.53 4232.15 128.25 o
-5 7 -3 5806.08 4377.27 303.74 o
6 7 3 1600.91 1417.47 158.62 o
-6 7 -3 1195.03 1673.96 323.99 o
7 7 3 10323.70 8039.06 195.74 o
-7 7 -3 9880.58 8093.06 215.99 o
8 7 3 562.22 1403.97 178.87 o
-8 7 -3 645.39 1353.34 212.62 o
9 7 3 4801.36 4637.14 199.12 o
-9 7 -3 4489.44 4087.03 212.62 o
10 7 3 2913.66 1859.58 195.74 o
-10 7 -3 3187.12 2284.82 253.12 o
11 7 3 409.01 641.23 199.12 o
-11 7 -3 296.85 496.11 249.74 <
12 7 3 4258.57 3013.81 222.74 o
-12 7 -3 4074.45 3270.30 340.87 o
-12 8 3 120.72 273.37 195.74 <
12 8 -3 131.87 374.62 253.12 <
-11 8 3 251.73 350.99 199.12 <
11 8 -3 230.85 33.75 263.24 <
-10 8 3 28.00 121.50 192.37 <
10 8 -3 13.72 266.62 215.99 <
-9 8 3 168.68 448.86 168.75 o
9 8 -3 175.40 914.60 195.74 o
-8 8 3 29.13 135.00 162.00 <
8 8 -3 36.94 -74.25 192.37 <
-7 8 3 136.85 523.11 175.50 o
7 8 -3 168.09 253.12 195.74 <
-6 8 3 86.07 64.12 199.12 <
6 8 -3 82.15 108.00 175.50 <
-5 8 3 78.99 374.62 232.87 <
5 8 -3 98.76 81.00 155.25 <
-4 8 3 280.98 705.36 195.74 o
4 8 -3 298.78 610.86 192.37 o
-3 8 3 143.98 20.25 138.37 <
3 8 -3 131.48 33.75 172.12 <
-2 8 3 127.73 185.62 135.00 <
2 8 -3 124.00 496.11 189.00 o
-1 8 3 16.16 242.99 138.37 <
1 8 -3 16.44 398.24 172.12 o
0 8 3 366.74 263.24 138.37 <
0 8 -3 348.33 317.24 182.25 <
1 8 3 854.11 1346.59 138.37 o
-1 8 -3 890.85 1063.10 178.87 o
2 8 3 162.58 20.25 141.75 <
-2 8 -3 144.71 97.87 189.00 <
3 8 3 145.64 54.00 145.12 <
-3 8 -3 141.09 239.62 192.37 <
4 8 3 72.78 300.37 145.12 o
-4 8 -3 93.14 -57.37 175.50 <
5 8 3 338.56 361.12 145.12 o
-5 8 -3 311.43 280.12 195.74 <
6 8 3 298.74 222.74 155.25 <
-6 8 -3 338.90 -239.62 300.37 <
7 8 3 54.32 101.25 131.62 <
-7 8 -3 35.77 307.12 330.74 <
8 8 3 10.74 54.00 175.50 <
-8 8 -3 0.63 0.00 293.62 <
9 8 3 31.64 -33.75 185.62 <
-9 8 -3 42.39 121.50 215.99 <
10 8 3 134.82 286.87 195.74 <
-10 8 -3 100.27 -131.62 215.99 <
11 8 3 30.16 189.00 199.12 <
-11 8 -3 38.72 546.74 286.87 <
-10 9 3 1853.79 1029.35 192.37 o
10 9 -3 1864.61 749.23 253.12 o
-9 9 3 4356.02 3111.68 185.62 o
9 9 -3 4258.51 3138.68 236.24 o
-8 9 3 7341.09 5771.12 256.49 o
8 9 -3 7546.18 5467.37 205.87 o
-7 9 3 159.12 671.61 236.24 o
7 9 -3 130.43 303.74 165.37 <
-6 9 3 9923.34 10752.50 253.12 o
6 9 -3 9832.83 8703.92 222.74 o
-5 9 3 3865.64 3125.18 158.62 o
5 9 -3 4003.02 2882.18 192.37 o
-4 9 3 6815.33 5440.37 165.37 o
4 9 -3 6655.12 5801.49 205.87 o
-3 9 3 14097.80 12413.00 168.75 o
3 9 -3 14137.60 12166.60 229.49 o
-2 9 3 17.09 1360.09 162.00 o
2 9 -3 8.10 857.23 202.49 o
-1 9 3 12358.10 12794.30 172.12 o
1 9 -3 12174.20 12170.00 222.74 o
0 9 3 5123.16 4978.01 158.62 o
0 9 -3 5084.98 3887.91 175.50 o
1 9 3 4537.76 4245.65 158.62 o
-1 9 -3 4659.03 4080.28 209.24 o
2 9 3 11666.20 9429.53 172.12 o
-2 9 -3 11593.60 9061.67 189.00 o
3 9 3 263.63 600.74 158.62 o
-3 9 -3 191.07 597.36 205.87 o
4 9 3 6839.64 7502.45 165.37 o
-4 9 -3 7103.70 6770.09 219.37 o
5 9 3 2981.56 4822.76 175.50 o
-5 9 -3 2915.71 2261.20 212.62 o
6 9 3 1824.13 1380.34 162.00 o
-6 9 -3 2052.46 1704.34 205.87 o
7 9 3 5395.20 5740.74 175.50 o
-7 9 -3 5550.42 4127.53 212.62 o
8 9 3 276.79 560.24 185.62 o
-8 9 -3 191.59 803.23 350.99 o
-5 10 3 2.39 182.25 168.75 <
5 10 -3 0.93 114.75 212.62 <
-4 10 3 5.49 70.87 172.12 <
4 10 -3 1.77 128.25 219.37 <
-3 10 3 8.66 -162.00 168.75 <
3 10 -3 9.87 118.12 209.24 <
-2 10 3 84.29 0.00 158.62 <
2 10 -3 90.47 435.36 202.49 o
-1 10 3 48.92 408.37 165.37 o
1 10 -3 49.67 273.37 185.62 <
0 10 3 284.20 222.74 162.00 <
0 10 -3 295.11 337.49 199.12 <
1 10 3 194.08 330.74 158.62 o
-1 10 -3 182.18 104.62 209.24 <
2 10 3 68.38 533.24 158.62 o
-2 10 -3 74.19 74.25 205.87 <
3 10 3 495.97 593.99 155.25 o
-3 10 -3 501.63 367.87 205.87 <
4 10 3 66.96 -313.87 172.12 <
-4 10 -3 65.29 246.37 195.74 <
-18 0 4 1139.15 1309.47 317.24 o
18 0 -4 916.69 924.73 354.37 o
-17 0 4 1271.82 2227.45 350.99 o
17 0 -4 1271.36 1390.47 381.37 o
-16 0 4 9463.02 12419.70 401.62 o
16 0 -4 8957.01 13557.10 442.11 o
-15 0 4 1080.89 546.74 381.37 <
15 0 -4 1072.90 1522.09 485.99 o
-14 0 4 1119.13 620.99 411.74 <
14 0 -4 1279.63 499.49 519.74 <
-13 0 4 8245.87 10151.80 482.61 o
13 0 -4 7331.90 9011.04 492.74 o
-12 0 4 2468.81 2575.07 546.74 o
12 0 -4 2362.65 3010.43 458.99 o
-11 0 4 51666.10 72176.10 755.98 o
11 0 -4 49595.00 71069.10 566.99 o
-10 0 4 3912.80 3266.92 529.86 o
10 0 -4 3711.81 3833.91 374.62 o
-9 0 4 9765.43 14211.80 516.36 o
9 0 -4 11940.60 13766.30 377.99 o
-8 0 4 35918.30 39692.50 546.74 o
8 0 -4 34151.10 38079.20 421.86 o
-7 0 4 6432.51 5329.00 415.11 o
7 0 -4 6508.63 8035.69 327.37 o
-6 0 4 200494.00 299892.00 975.35 o
6 0 -4 199256.00 318711.00 857.23 o
-5 0 4 8112.27 7981.69 371.24 o
5 0 -4 7789.10 7333.71 300.37 o
-4 0 4 60612.50 71953.30 604.11 o
4 0 -4 66906.60 72476.50 516.36 o
-3 0 4 91138.90 99850.50 614.24 o
3 0 -4 94729.20 109142.00 607.49 o
-2 0 4 9430.08 11103.50 374.62 o
2 0 -4 10327.30 11444.40 357.74 o
0 0 4 24641.90 22693.00 293.62 o
1 0 4 98520.40 87302.50 428.61 o
2 0 4 69672.00 80005.90 593.99 o
3 0 4 1262.22 3540.29 337.49 o
-3 0 -4 2069.33 2753.94 313.87 o
4 0 4 237553.00 337492.00 1049.60 o
5 0 4 13849.40 11761.60 381.37 o
-5 0 -4 14653.40 12176.70 310.49 o
6 0 4 35035.40 34991.20 496.11 o
-6 0 -4 38432.70 36115.00 421.86 o
7 0 4 15628.10 18892.80 492.74 o
-7 0 -4 20966.70 17542.80 347.62 o
8 0 4 2060.01 2639.19 580.49 o
-8 0 -4 2361.78 1731.34 367.87 o
9 0 4 54699.30 76870.60 806.61 o
-9 0 -4 55348.70 74217.90 526.49 o
10 0 4 4561.07 4880.14 614.24 o
-10 0 -4 4408.40 4394.15 428.61 o
11 0 4 9682.99 10631.00 482.61 o
-11 0 -4 10608.20 9341.78 425.24 o
12 0 4 1511.81 658.11 458.99 <
-12 0 -4 3851.82 894.35 431.99 o
13 0 4 766.94 337.49 371.24 <
-13 0 -4 789.77 931.48 492.74 <
14 0 4 8900.09 13813.60 384.74 o
-14 0 -4 9054.06 12112.60 496.11 o
15 0 4 1861.19 1650.34 340.87 o
-15 0 -4 1533.21 985.48 408.37 o
16 0 4 1605.08 2524.44 330.74 o
-16 0 -4 1804.59 1282.47 388.12 o
-18 1 4 33.96 148.50 246.37 <
18 1 -4 29.30 57.37 266.62 <
-17 1 4 412.33 -253.12 269.99 <
17 1 -4 408.84 323.99 283.49 <
-16 1 4 39.31 60.75 266.62 <
16 1 -4 39.28 681.73 300.37 o
-15 1 4 1550.26 1579.46 290.24 o
15 1 -4 1531.77 428.61 320.62 <
-14 1 4 353.45 344.24 320.62 <
14 1 -4 348.88 830.23 296.99 o
-13 1 4 239.80 377.99 296.99 <
13 1 -4 257.67 739.11 290.24 o
-12 1 4 2630.15 1947.33 283.49 o
12 1 -4 2613.97 2139.70 323.99 o
-11 1 4 287.48 509.61 286.87 <
11 1 -4 275.17 313.87 303.74 <
-10 1 4 10559.20 10772.80 317.24 o
10 1 -4 10557.10 11977.60 354.37 o
-9 1 4 893.26 1046.23 350.99 o
9 1 -4 888.45 1272.35 263.24 o
-8 1 4 3137.01 2173.45 350.99 o
8 1 -4 3210.54 2980.06 236.24 o
-7 1 4 7794.65 7812.94 475.86 o
7 1 -4 7765.69 8498.05 236.24 o
-6 1 4 337.09 162.00 485.99 <
6 1 -4 315.96 67.50 239.62 <
-5 1 4 20611.30 22706.50 438.74 o
5 1 -4 20615.40 23327.50 273.37 o
-4 1 4 2748.74 2899.06 394.87 o
4 1 -4 2753.00 2730.31 222.74 o
-3 1 4 1445.35 1910.21 350.99 o
3 1 -4 1460.60 1825.83 209.24 o
-2 1 4 2475.92 4458.27 354.37 o
2 1 -4 2488.62 4346.90 232.87 o
-1 1 4 557.71 425.24 259.87 <
1 1 -4 558.96 442.11 232.87 <
0 1 4 1607.08 4670.89 192.37 o
1 1 4 375.68 853.85 178.87 o
2 1 4 782.81 1329.72 307.12 o
3 1 4 10040.20 16402.10 431.99 o
-3 1 -4 10113.90 15227.60 269.99 o
4 1 4 98.05 543.36 448.86 <
-4 1 -4 106.30 104.62 212.62 <
5 1 4 2183.11 3857.54 465.74 o
-5 1 -4 2185.06 3736.04 209.24 o
6 1 4 3378.10 2524.44 367.87 o
-6 1 -4 3359.92 2706.69 236.24 o
7 1 4 452.37 344.24 334.12 <
-7 1 -4 451.11 421.86 226.12 <
8 1 4 10360.60 10435.30 330.74 o
-8 1 -4 10353.10 10870.60 246.37 o
9 1 4 624.55 668.23 300.37 o
-9 1 -4 615.76 600.74 259.87 o
10 1 4 2076.02 887.60 303.74 o
-10 1 -4 2080.39 1248.72 259.87 o
11 1 4 1081.97 566.99 290.24 <
-11 1 -4 1102.54 664.86 330.74 o
12 1 4 118.47 290.24 310.49 <
-12 1 -4 120.27 465.74 347.62 <
13 1 4 2309.29 826.86 300.37 o
-13 1 -4 2318.53 1515.34 286.87 o
14 1 4 94.75 364.49 290.24 <
-14 1 -4 94.24 -50.62 300.37 <
15 1 4 582.00 442.11 253.12 <
-15 1 -4 587.11 3.37 313.87 <
16 1 4 338.54 165.37 256.49 <
-16 1 -4 355.50 560.24 286.87 <
-18 2 4 574.29 607.49 283.49 o
18 2 -4 633.65 81.00 273.37 <
-17 2 4 2703.34 2008.08 296.99 o
17 2 -4 2593.26 2629.06 307.12 o
-16 2 4 9018.49 10425.10 334.12 o
16 2 -4 9285.73 11903.40 300.37 o
-15 2 4 179.65 857.23 266.62 o
15 2 -4 230.70 445.49 256.49 <
-14 2 4 3174.38 3388.42 259.87 o
14 2 -4 3869.62 5055.63 253.12 o
-13 2 4 1162.60 975.35 256.49 o
13 2 -4 1730.46 1437.72 266.62 o
-12 2 4 5635.78 5305.38 269.99 o
12 2 -4 5451.51 6314.48 273.37 o
-11 2 4 21777.90 29463.10 313.87 o
11 2 -4 21984.40 33337.50 327.37 o
-10 2 4 760.30 523.11 310.49 <
10 2 -4 1144.64 691.86 293.62 o
-9 2 4 2564.49 3277.05 296.99 o
9 2 -4 3746.10 4529.15 340.87 o
-8 2 4 247.00 1086.72 313.87 o
8 2 -4 1413.21 1619.96 293.62 o
-7 2 4 2341.48 1970.95 404.99 o
7 2 -4 1645.25 2510.94 310.49 o
-6 2 4 24584.40 34781.90 469.11 o
6 2 -4 21468.70 34970.90 327.37 o
-5 2 4 593.84 985.48 401.62 o
5 2 -4 1242.70 1022.60 232.87 o
-4 2 4 1801.15 2892.31 340.87 o
4 2 -4 1237.06 2841.68 239.62 o
-3 2 4 3202.04 3064.43 320.62 o
3 2 -4 2323.46 2456.94 236.24 o
-2 2 4 1004.22 344.24 266.62 <
2 2 -4 732.12 502.86 242.99 o
-1 2 4 19202.40 19469.90 300.37 o
1 2 -4 10764.70 18504.70 290.24 o
0 2 4 615.50 563.61 162.00 o
1 2 4 3443.14 1606.46 165.37 o
2 2 4 6819.10 5791.37 175.50 o
3 2 4 1519.15 961.85 280.12 o
-3 2 -4 1661.63 715.48 239.62 o
4 2 4 25143.30 28447.20 381.37 o
-4 2 -4 17407.30 26456.00 300.37 o
5 2 4 1647.56 1532.21 307.12 o
-5 2 -4 972.98 1414.09 215.99 o
6 2 4 2252.57 948.35 364.49 o
-6 2 -4 441.65 941.60 256.49 o
7 2 4 817.61 2166.70 445.49 o
-7 2 -4 122.91 2605.44 283.49 o
8 2 4 1615.81 1268.97 367.87 o
-8 2 -4 1837.54 1356.72 296.99 o
9 2 4 22944.40 28180.60 344.24 o
-9 2 -4 18669.30 29722.90 388.12 o
10 2 4 5775.86 6044.49 320.62 o
-10 2 -4 5374.19 5642.87 307.12 o
11 2 4 1822.74 1694.21 303.74 o
-11 2 -4 944.68 1876.46 293.62 o
12 2 4 1506.60 2872.06 300.37 o
-12 2 -4 1508.80 3435.67 263.24 o
13 2 4 982.28 1241.97 310.49 o
-13 2 -4 1192.16 1370.22 280.12 o
14 2 4 9048.04 9169.66 354.37 o
-14 2 -4 7858.77 9017.79 290.24 o
15 2 4 3229.50 4006.03 344.24 o
-15 2 -4 3122.39 2406.32 300.37 o
16 2 4 695.63 553.49 300.37 <
-16 2 -4 459.55 -91.12 330.74 <
-18 3 4 511.74 536.61 327.37 <
18 3 -4 507.45 -16.87 300.37 <
-17 3 4 145.99 -6.75 293.62 <
17 3 -4 142.22 330.74 293.62 <
-16 3 4 193.20 813.36 276.74 o
16 3 -4 193.07 529.86 263.24 o
-15 3 4 61.96 114.75 259.87 <
15 3 -4 79.60 539.99 259.87 o
-14 3 4 582.83 128.25 256.49 <
14 3 -4 620.40 -162.00 226.12 <
-13 3 4 3890.45 2453.57 269.99 o
13 3 -4 3849.51 2662.81 232.87 o
-12 3 4 1724.62 931.48 296.99 o
12 3 -4 1702.44 1478.22 236.24 o
-11 3 4 166.01 762.73 323.99 o
11 3 -4 180.90 236.24 222.74 <
-10 3 4 399.28 624.36 296.99 o
10 3 -4 356.07 175.50 242.99 <
-9 3 4 1825.93 1393.84 269.99 o
9 3 -4 1916.12 1349.97 263.24 o
-8 3 4 10088.00 9517.28 259.87 o
8 3 -4 10039.70 10293.50 344.24 o
-7 3 4 10131.90 11744.70 273.37 o
7 3 -4 10033.50 11785.20 327.37 o
-6 3 4 653.11 506.24 219.37 o
6 3 -4 696.29 742.48 425.24 <
-5 3 4 1375.08 843.73 205.87 o
5 3 -4 1336.79 1171.10 445.49 o
-4 3 4 3895.83 3003.68 212.62 o
4 3 -4 3881.85 2845.06 438.74 o
-3 3 4 5408.20 4559.52 219.37 o
3 3 -4 5322.83 4687.77 391.49 o
-2 3 4 8761.25 10998.90 256.49 o
2 3 -4 8876.12 10917.90 394.87 o
-1 3 4 313.52 327.37 222.74 <
0 3 4 5045.25 6385.35 178.87 o
1 3 4 759.57 2092.45 158.62 o
2 3 4 162.36 1171.10 168.75 o
3 3 4 33.54 1241.97 239.62 o
-3 3 -4 37.44 1606.46 631.11 o
4 3 4 1116.25 1137.35 215.99 o
-4 3 -4 1194.80 1150.85 347.62 o
5 3 4 8937.68 8916.54 236.24 o
-5 3 -4 8976.38 8899.67 384.74 o
6 3 4 7495.63 7411.33 222.74 o
-6 3 -4 7535.78 8444.06 381.37 o
7 3 4 1238.04 769.48 219.37 o
-7 3 -4 1194.84 354.37 350.99 <
8 3 4 544.41 698.61 242.99 o
-8 3 -4 496.58 604.11 256.49 o
9 3 4 650.49 789.73 283.49 o
-9 3 -4 675.16 725.61 276.74 o
10 3 4 2683.28 1613.21 330.74 o
-10 3 -4 2674.71 1093.47 276.74 o
11 3 4 3450.62 3260.17 381.37 o
-11 3 -4 3508.25 2693.19 273.37 o
12 3 4 677.22 546.74 415.11 <
-12 3 -4 659.56 121.50 256.49 <
13 3 4 414.00 782.98 364.49 o
-13 3 -4 360.05 607.49 263.24 o
14 3 4 374.90 -27.00 313.87 <
-14 3 -4 362.16 725.61 280.12 o
15 3 4 304.07 411.74 334.12 <
-15 3 -4 291.42 -590.61 266.62 <
16 3 4 574.99 296.99 347.62 <
-16 3 -4 581.36 509.61 283.49 <
-17 4 4 78.67 16.87 293.62 <
17 4 -4 105.07 -377.99 263.24 <
-16 4 4 6995.83 6999.59 317.24 o
16 4 -4 6514.07 7738.70 266.62 o
-15 4 4 214.94 836.98 276.74 o
15 4 -4 224.52 239.62 232.87 <
-14 4 4 3412.12 4147.78 327.37 o
14 4 -4 3540.45 4211.90 232.87 o
-13 4 4 4615.65 4350.27 310.49 o
13 4 -4 3942.40 4316.53 239.62 o
-12 4 4 143.17 1245.35 293.62 o
12 4 -4 329.33 806.61 222.74 o
-11 4 4 30700.50 34829.20 310.49 o
11 4 -4 28935.90 36158.90 327.37 o
-10 4 4 2216.67 2355.70 215.99 o
10 4 -4 2226.52 3445.80 249.74 o
-9 4 4 18625.30 22463.50 246.37 o
9 4 -4 19211.10 23496.20 340.87 o
-8 4 4 20482.00 23550.20 232.87 o
8 4 -4 19656.50 24312.90 327.37 o
-7 4 4 2886.17 4471.77 182.25 o
7 4 -4 3462.58 4063.41 361.12 o
-6 4 4 93016.00 128709.00 388.11 o
6 4 -4 91553.60 130407.00 661.48 o
-5 4 4 8895.89 9196.66 199.12 o
5 4 -4 8970.37 9227.04 516.36 o
-4 4 4 64056.60 68828.20 313.87 o
4 4 -4 65607.20 77866.20 647.98 o
-3 4 4 57162.20 67866.30 317.24 o
3 4 -4 59272.20 82182.70 647.98 o
-2 4 4 7482.04 9152.79 269.99 o
2 4 -4 8109.16 9308.04 357.74 o
-1 4 4 155933.00 235570.00 411.74 o
0 4 4 17662.50 16955.60 178.87 o
0 4 -4 18416.70 16834.10 543.36 o
1 4 4 65276.00 71899.30 256.49 o
-1 4 -4 67407.50 69034.00 820.11 o
2 4 4 61329.60 71568.60 253.12 o
-2 4 -4 64876.80 77238.50 907.85 o
3 4 4 3856.31 4772.14 151.87 o
-3 4 -4 4131.24 5784.62 1397.22 o
4 4 4 89898.70 125078.00 438.74 o
-4 4 -4 91255.20 114501.00 1484.97 o
5 4 4 9196.57 8852.42 199.12 o
-5 4 -4 9668.33 7445.08 398.24 o
6 4 4 22431.90 24407.40 253.12 o
-6 4 -4 24367.10 21403.80 404.99 o
7 4 4 18981.90 24933.90 249.74 o
-7 4 -4 21599.40 22861.70 371.24 o
8 4 4 1748.07 1748.21 209.24 o
-8 4 -4 1751.80 1525.46 286.87 o
9 4 4 23563.30 32406.00 296.99 o
-9 4 -4 24851.80 30846.80 344.24 o
10 4 4 1340.75 1265.60 232.87 o
-10 4 -4 1382.58 1214.97 226.12 o
11 4 4 4650.50 4765.39 276.74 o
-11 4 -4 5427.09 3810.29 259.87 o
12 4 4 2556.17 3712.41 313.87 o
-12 4 -4 3642.32 4019.53 229.49 o
13 4 4 656.91 232.87 296.99 <
-13 4 -4 617.53 445.49 242.99 <
14 4 4 4508.92 7083.96 418.49 o
-14 4 -4 4730.34 6294.23 276.74 o
15 4 4 257.42 428.61 408.37 <
-15 4 -4 168.02 286.87 242.99 <
-16 5 4 92.40 577.11 350.99 <
16 5 -4 88.61 256.49 242.99 <
-15 5 4 2942.99 1565.96 300.37 o
15 5 -4 2912.38 2251.07 249.74 o
-14 5 4 58.18 411.74 293.62 <
14 5 -4 65.95 313.87 229.49 <
-13 5 4 26.59 280.12 232.87 <
13 5 -4 51.20 334.12 232.87 <
-12 5 4 643.66 195.74 212.62 <
12 5 -4 625.86 1019.23 276.74 o
-11 5 4 159.76 330.74 192.37 <
11 5 -4 160.65 290.24 290.24 <
-10 5 4 9871.34 8433.93 215.99 o
10 5 -4 9887.23 9095.42 327.37 o
-9 5 4 413.34 637.86 189.00 o
9 5 -4 420.05 556.86 367.87 <
-8 5 4 648.86 411.74 162.00 o
8 5 -4 704.43 -108.00 367.87 <
-7 5 4 1160.21 1083.35 175.50 o
7 5 -4 1226.87 749.23 310.49 o
-6 5 4 183.55 344.24 162.00 o
6 5 -4 190.35 155.25 296.99 <
-5 5 4 12553.00 12531.10 192.37 o
5 5 -4 12481.60 12865.20 300.37 o
-4 5 4 1194.04 1376.97 165.37 o
4 5 -4 1219.16 1390.47 256.49 o
-3 5 4 273.35 -77.62 199.12 <
3 5 -4 296.08 -97.87 226.12 <
-2 5 4 1281.90 1079.98 202.49 o
2 5 -4 1299.18 769.48 226.12 o
-1 5 4 385.96 256.49 138.37 <
1 5 -4 427.84 118.12 226.12 <
0 5 4 1338.50 1174.47 141.75 o
0 5 -4 1296.42 1204.85 229.49 o
1 5 4 129.17 131.62 131.62 <
-1 5 -4 120.17 64.12 242.99 <
2 5 4 955.85 840.36 135.00 o
-2 5 -4 974.70 715.48 249.74 o
3 5 4 10253.60 11565.90 155.25 o
-3 5 -4 10116.90 10624.30 317.24 o
4 5 4 44.28 242.99 135.00 <
-4 5 -4 31.23 -10.12 523.11 <
5 5 4 796.52 759.36 168.75 o
-5 5 -4 803.30 550.11 641.23 <
6 5 4 1069.59 340.87 172.12 <
-6 5 -4 1080.14 546.74 408.37 <
7 5 4 487.74 327.37 178.87 <
-7 5 -4 506.64 519.74 371.24 <
8 5 4 9199.90 8646.55 202.49 o
-8 5 -4 9071.10 7752.20 323.99 o
9 5 4 190.33 330.74 192.37 <
-9 5 -4 170.64 -67.50 286.87 <
10 5 4 770.94 469.11 202.49 o
-10 5 -4 803.85 296.99 263.24 <
11 5 4 600.35 -249.74 219.37 <
-11 5 -4 663.53 465.74 249.74 <
12 5 4 151.21 226.12 246.37 <
-12 5 -4 158.95 364.49 236.24 <
13 5 4 2525.78 1802.21 269.99 o
-13 5 -4 2522.44 1275.72 259.87 o
14 5 4 23.14 465.74 313.87 <
-14 5 -4 21.58 195.74 266.62 <
-15 6 4 165.43 296.99 290.24 <
15 6 -4 217.39 691.86 276.74 o
-14 6 4 5030.39 5484.25 242.99 o
14 6 -4 5416.01 5528.12 293.62 o
-13 6 4 439.62 428.61 219.37 <
13 6 -4 783.93 749.23 307.12 o
-12 6 4 478.75 742.48 195.74 o
12 6 -4 620.76 813.36 320.62 o
-11 6 4 6261.70 9115.67 239.62 o
11 6 -4 6454.90 8825.42 391.49 o
-10 6 4 201.55 -30.37 202.49 <
10 6 -4 430.61 145.12 357.74 <
-9 6 4 6318.69 8744.42 185.62 o
9 6 -4 6682.86 9122.41 300.37 o
-8 6 4 577.62 1376.97 165.37 o
8 6 -4 1303.77 1363.47 296.99 o
-7 6 4 127.75 560.24 165.37 o
7 6 -4 327.66 668.23 236.24 o
-6 6 4 3146.87 5534.87 178.87 o
6 6 -4 2822.40 5892.61 229.49 o
-5 6 4 457.26 502.86 165.37 o
5 6 -4 659.64 371.24 229.49 <
-4 6 4 2178.05 3958.78 209.24 o
4 6 -4 1804.92 4272.65 219.37 o
-3 6 4 359.54 1167.72 205.87 o
3 6 -4 317.82 1349.97 226.12 o
-2 6 4 49.18 283.49 141.75 <
2 6 -4 251.81 479.24 229.49 o
-1 6 4 1555.68 2068.83 145.12 o
1 6 -4 337.63 2109.33 226.12 o
0 6 4 683.80 708.73 141.75 o
0 6 -4 444.32 482.61 222.74 o
1 6 4 1293.01 1798.83 155.25 o
-1 6 -4 270.45 1673.96 232.87 o
2 6 4 1819.82 2561.57 141.75 o
-2 6 -4 863.00 2433.32 239.62 o
3 6 4 0.96 259.87 145.12 <
-3 6 -4 29.36 158.62 215.99 <
4 6 4 3587.50 4883.51 155.25 o
-4 6 -4 1641.47 4424.52 249.74 o
5 6 4 1631.94 1241.97 138.37 o
-5 6 -4 1397.04 880.85 442.11 <
6 6 4 1639.69 1626.71 185.62 o
-6 6 -4 697.78 1623.34 502.86 o
7 6 4 5704.73 7934.44 195.74 o
-7 6 -4 4460.50 7522.70 296.99 o
8 6 4 72.75 -155.25 185.62 <
-8 6 -4 118.01 209.24 327.37 <
9 6 4 5322.89 7583.45 205.87 o
-9 6 -4 3980.24 6689.10 371.24 o
10 6 4 1902.42 1427.59 195.74 o
-10 6 -4 1817.63 1174.47 269.99 o
11 6 4 820.18 614.24 209.24 o
-11 6 -4 430.94 215.99 293.62 <
12 6 4 4510.07 5335.75 236.24 o
-12 6 -4 4076.06 4711.39 273.37 o
13 6 4 123.18 229.49 242.99 <
-13 6 -4 187.12 249.74 276.74 <
-13 7 4 323.84 357.74 199.12 <
13 7 -4 353.17 793.11 307.12 o
-12 7 4 810.20 492.74 205.87 o
12 7 -4 798.32 -6.75 334.12 <
-11 7 4 289.12 296.99 199.12 <
11 7 -4 279.42 54.00 334.12 <
-10 7 4 93.74 27.00 189.00 <
10 7 -4 54.81 391.49 269.99 <
-9 7 4 104.60 -172.12 175.50 <
9 7 -4 102.54 -242.99 276.74 <
-8 7 4 796.38 786.36 172.12 o
8 7 -4 814.64 722.23 226.12 o
-7 7 4 2261.57 1825.83 175.50 o
7 7 -4 2221.51 1643.59 205.87 o
-6 7 4 300.16 202.49 148.50 <
6 7 -4 296.67 256.49 189.00 <
-5 7 4 323.17 411.74 205.87 <
5 7 -4 289.52 499.49 212.62 o
-4 7 4 241.88 172.12 202.49 <
4 7 -4 227.51 138.37 219.37 <
-3 7 4 109.60 337.49 138.37 o
3 7 -4 118.33 303.74 209.24 <
-2 7 4 1043.93 853.85 138.37 o
2 7 -4 1017.73 948.35 202.49 o
-1 7 4 88.42 205.87 138.37 <
1 7 -4 91.76 205.87 195.74 <
0 7 4 1426.24 499.49 135.00 o
0 7 -4 1426.31 536.61 209.24 o
1 7 4 831.23 718.86 138.37 o
-1 7 -4 867.53 442.11 205.87 o
2 7 4 99.51 307.12 138.37 o
-2 7 -4 87.31 172.12 195.74 <
3 7 4 264.34 523.11 138.37 o
-3 7 -4 302.54 404.99 222.74 <
4 7 4 45.31 485.99 138.37 o
-4 7 -4 58.88 222.74 222.74 <
5 7 4 2135.16 1076.60 145.12 o
-5 7 -4 2121.94 911.23 229.49 o
6 7 4 1426.71 830.23 131.62 o
-6 7 -4 1512.48 806.61 381.37 o
7 7 4 136.62 135.00 178.87 <
-7 7 -4 120.82 54.00 408.37 <
8 7 4 241.19 212.62 199.12 <
-8 7 -4 240.60 -91.12 482.61 <
9 7 4 35.14 215.99 185.62 <
-9 7 -4 45.55 246.37 330.74 <
10 7 4 815.64 388.12 212.62 <
-10 7 -4 789.24 128.25 371.24 <
11 7 4 318.87 121.50 205.87 <
-11 7 -4 337.26 50.62 320.62 <
-11 8 4 6474.77 8204.44 195.74 o
11 8 -4 5906.61 8943.54 300.37 o
-10 8 4 998.78 772.86 192.37 o
10 8 -4 1003.95 874.10 253.12 o
-9 8 4 10490.20 11056.20 192.37 o
9 8 -4 10027.60 11245.20 259.87 o
-8 8 4 7870.93 7745.45 192.37 o
8 8 -4 7727.90 7981.69 263.24 o
-7 8 4 1542.60 799.86 219.37 o
7 8 -4 1630.90 512.99 246.37 o
-6 8 4 18832.70 25440.20 276.74 o
6 8 -4 18411.10 26702.40 212.62 o
-5 8 4 2526.49 2463.69 212.62 o
5 8 -4 2616.88 1896.71 219.37 o
-4 8 4 21744.80 23408.50 185.62 o
4 8 -4 21205.20 23300.50 276.74 o
-3 8 4 19580.70 22929.20 182.25 o
3 8 -4 19774.60 21282.30 263.24 o
-2 8 4 2634.14 2595.32 162.00 o
2 8 -4 2599.39 1525.46 205.87 o
-1 8 4 28179.60 39719.50 205.87 o
1 8 -4 28711.90 38126.50 293.62 o
0 8 4 3847.85 3185.93 151.87 o
0 8 -4 3951.14 3246.68 205.87 o
1 8 4 18238.00 22561.40 182.25 o
-1 8 -4 18103.90 20067.30 256.49 o
2 8 4 19297.10 23010.20 182.25 o
-2 8 -4 19971.20 21633.30 280.12 o
3 8 4 1603.21 1660.46 155.25 o
-3 8 -4 1597.45 1046.23 205.87 o
4 8 4 16268.60 25345.70 192.37 o
-4 8 -4 17462.70 23017.00 269.99 o
5 8 4 2012.52 1451.22 151.87 o
-5 8 -4 2170.30 1484.97 229.49 o
6 8 4 7286.03 8032.31 178.87 o
-6 8 -4 7670.12 7877.07 259.87 o
7 8 4 7382.54 9000.92 178.87 o
-7 8 -4 8013.39 7974.94 438.74 o
8 8 4 615.85 631.11 151.87 o
-8 8 -4 587.96 -165.37 479.24 <
9 8 4 4903.29 8025.56 222.74 o
-9 8 -4 5713.93 6523.72 546.74 o
-8 9 4 453.62 138.37 239.62 <
8 9 -4 441.72 516.36 175.50 o
-7 9 4 297.38 33.75 226.12 <
7 9 -4 340.73 796.48 168.75 o
-6 9 4 17.54 -84.37 239.62 <
6 9 -4 19.70 391.49 212.62 <
-5 9 4 502.31 506.24 158.62 o
5 9 -4 503.64 442.11 202.49 o
-4 9 4 287.93 1221.72 151.87 o
4 9 -4 300.28 678.36 226.12 o
-3 9 4 33.96 178.87 151.87 <
3 9 -4 36.62 215.99 215.99 <
-2 9 4 279.05 320.62 148.50 o
2 9 -4 297.65 273.37 205.87 <
-1 9 4 1.71 151.87 158.62 <
1 9 -4 1.75 101.25 209.24 <
0 9 4 304.85 489.36 155.25 o
0 9 -4 289.49 577.11 212.62 o
1 9 4 131.42 -37.12 145.12 <
-1 9 -4 118.00 60.75 205.87 <
2 9 4 347.15 624.36 158.62 o
-2 9 -4 372.04 573.74 219.37 o
3 9 4 1349.76 897.73 155.25 o
-3 9 -4 1283.02 469.11 222.74 o
4 9 4 71.34 445.49 155.25 o
-4 9 -4 51.61 97.87 239.62 <
5 9 4 812.41 961.85 162.00 o
-5 9 -4 811.76 806.61 239.62 o
6 9 4 439.73 357.74 168.75 o
-6 9 -4 415.31 502.86 236.24 o
-2 10 4 56.38 178.87 168.75 <
2 10 -4 166.20 222.74 226.12 <
-1 10 4 878.25 2973.31 172.12 o
1 10 -4 920.81 2629.06 226.12 o
0 10 4 328.42 -87.75 165.37 <
0 10 -4 253.75 182.25 215.99 <
-18 1 5 438.85 165.37 273.37 <
18 1 -5 393.62 401.62 313.87 <
-17 1 5 3285.39 1714.46 283.49 o
17 1 -5 3257.72 3482.92 344.24 o
-16 1 5 4713.13 2645.94 313.87 o
16 1 -5 4953.33 4198.40 340.87 o
-15 1 5 252.00 418.49 317.24 <
15 1 -5 234.94 94.50 307.12 <
-14 1 5 3275.35 2095.83 313.87 o
14 1 -5 3172.23 3442.42 320.62 o
-13 1 5 2387.53 1589.59 307.12 o
13 1 -5 2199.08 1066.48 300.37 o
-12 1 5 8715.01 5048.88 303.74 o
12 1 -5 8582.85 6638.47 283.49 o
-11 1 5 17824.00 13317.40 327.37 o
11 1 -5 18210.70 16213.10 307.12 o
-10 1 5 606.17 273.37 327.37 <
10 1 -5 550.40 81.00 215.99 <
-9 1 5 6644.06 5899.36 398.24 o
9 1 -5 6556.91 5632.75 249.74 o
-8 1 5 6850.10 4002.66 455.61 o
8 1 -5 6520.90 3962.16 232.87 o
-7 1 5 12296.50 8903.04 425.24 o
7 1 -5 12338.10 9517.28 226.12 o
-6 1 5 42077.10 42696.10 445.49 o
6 1 -5 41408.30 37937.50 273.37 o
-5 1 5 661.24 367.87 296.99 <
5 1 -5 615.99 863.98 189.00 o
-4 1 5 8310.60 8838.92 334.12 o
4 1 -5 8914.51 8616.18 202.49 o
-3 1 5 9514.12 7229.08 293.62 o
3 1 -5 9022.34 6392.10 212.62 o
-2 1 5 9067.55 7134.59 293.62 o
2 1 -5 8985.32 6108.61 209.24 o
-1 1 5 60994.50 48615.80 259.87 o
0 1 5 358.00 988.85 162.00 o
1 1 5 6639.54 6986.09 178.87 o
2 1 5 8719.33 6375.23 182.25 o
3 1 5 4711.41 2939.56 310.49 o
4 1 5 50688.50 51896.20 496.11 o
-4 1 -5 48820.20 49300.90 317.24 o
5 1 5 9.19 590.61 391.49 <
-5 1 -5 77.47 833.61 202.49 o
6 1 5 5409.40 7829.82 408.37 o
-6 1 -5 5990.99 6618.22 199.12 o
7 1 5 3504.76 2382.70 334.12 o
-7 1 -5 4221.01 2440.07 192.37 o
8 1 5 598.85 -74.25 313.87 <
-8 1 -5 781.64 273.37 178.87 <
9 1 5 26790.80 29159.30 344.24 o
-9 1 -5 25500.70 26688.90 290.24 o
10 1 5 256.72 242.99 280.12 <
-10 1 -5 198.29 293.62 239.62 <
11 1 5 2281.93 2942.93 300.37 o
-11 1 -5 2504.53 2402.94 276.74 o
12 1 5 989.97 877.48 337.49 o
-12 1 -5 1522.34 556.86 313.87 <
13 1 5 145.59 512.99 357.74 <
-13 1 -5 280.85 158.62 340.87 <
14 1 5 7680.22 7694.82 310.49 o
-14 1 -5 7136.16 6648.60 398.24 o
15 1 5 378.51 408.37 263.24 <
-15 1 -5 324.08 384.74 350.99 <
-17 2 5 33.78 37.12 310.49 <
17 2 -5 29.63 550.11 296.99 <
-16 2 5 105.77 445.49 300.37 <
16 2 -5 108.00 192.37 266.62 <
-15 2 5 44.91 313.87 259.87 <
15 2 -5 62.05 617.61 283.49 o
-14 2 5 3.10 205.87 266.62 <
14 2 -5 4.53 108.00 276.74 <
-13 2 5 636.40 317.24 276.74 <
13 2 -5 647.86 728.98 269.99 o
-12 2 5 49.34 624.36 276.74 o
12 2 -5 42.39 -384.74 300.37 <
-11 2 5 28.00 185.62 280.12 <
11 2 -5 29.34 543.36 273.37 <
-10 2 5 134.07 323.99 293.62 <
10 2 -5 143.31 317.24 253.12 <
-9 2 5 136.26 -104.62 273.37 <
9 2 -5 136.44 155.25 236.24 <
-8 2 5 2264.24 2085.70 310.49 o
8 2 -5 2312.91 2774.19 242.99 o
-7 2 5 12.25 135.00 401.62 <
7 2 -5 9.13 175.50 215.99 <
-6 2 5 9.91 97.87 512.99 <
6 2 -5 12.37 148.50 205.87 <
-5 2 5 657.75 469.11 442.11 <
5 2 -5 668.73 398.24 189.00 o
-4 2 5 410.58 77.62 408.37 <
4 2 -5 387.18 266.62 192.37 <
-3 2 5 1714.33 1778.58 367.87 o
3 2 -5 1787.32 1815.71 202.49 o
-2 2 5 132.92 -37.12 344.24 <
2 2 -5 135.43 -64.12 236.24 <
-1 2 5 54.19 -27.00 175.50 <
0 2 5 3330.49 3283.80 172.12 o
1 2 5 145.55 155.25 148.50 <
2 2 5 359.10 573.74 165.37 o
3 2 5 192.94 -10.12 232.87 <
4 2 5 244.85 145.12 340.87 <
-4 2 -5 234.17 391.49 212.62 <
5 2 5 2919.52 3162.30 401.62 o
-5 2 -5 2928.58 2571.69 202.49 o
6 2 5 43.40 -97.87 425.24 <
-6 2 -5 54.17 13.50 215.99 <
7 2 5 80.09 47.25 492.74 <
-7 2 -5 74.86 74.25 215.99 <
8 2 5 461.77 199.12 374.62 <
-8 2 -5 446.66 276.74 222.74 <
9 2 5 168.74 793.11 320.62 o
-9 2 -5 177.08 300.37 246.37 <
10 2 5 728.28 199.12 310.49 <
-10 2 -5 733.43 340.87 273.37 <
11 2 5 140.48 664.86 313.87 o
-11 2 -5 152.93 502.86 256.49 <
12 2 5 68.39 155.25 293.62 <
-12 2 -5 61.80 30.37 320.62 <
13 2 5 468.98 121.50 303.74 <
-13 2 -5 445.02 820.11 320.62 o
14 2 5 15.27 192.37 367.87 <
-14 2 -5 16.70 209.24 286.87 <
15 2 5 38.11 215.99 334.12 <
-15 2 -5 36.85 502.86 323.99 <
-17 3 5 1780.21 755.98 303.74 o
17 3 -5 1707.95 442.11 273.37 <
-16 3 5 5347.87 2834.93 283.49 o
16 3 -5 5448.05 4681.02 253.12 o
-15 3 5 293.54 -334.12 263.24 <
15 3 -5 278.17 131.62 232.87 <
-14 3 5 3740.22 2551.44 263.24 o
14 3 -5 4103.33 3661.79 246.37 o
-13 3 5 2708.22 1484.97 269.99 o
13 3 -5 2424.61 2197.07 273.37 o
-12 3 5 4806.64 3030.68 334.12 o
12 3 -5 4761.68 2841.68 259.87 o
-11 3 5 21000.80 18467.60 384.74 o
11 3 -5 21215.80 22277.90 367.87 o
-10 3 5 572.71 712.11 364.49 <
10 3 -5 564.88 -533.24 367.87 <
-9 3 5 14088.30 14832.80 354.37 o
9 3 -5 15282.50 15612.40 371.24 o
-8 3 5 7279.72 4357.02 293.62 o
8 3 -5 6865.95 5200.76 273.37 o
-7 3 5 10960.60 8784.92 249.74 o
7 3 -5 11499.90 7978.32 259.87 o
-6 3 5 53352.40 54798.60 394.87 o
6 3 -5 53562.10 47370.40 374.62 o
-5 3 5 488.20 988.85 222.74 o
5 3 -5 451.85 1039.48 219.37 o
-4 3 5 33839.70 38244.60 317.24 o
4 3 -5 35602.10 34296.00 320.62 o
-3 3 5 14070.30 11228.40 249.74 o
3 3 -5 13780.20 10840.20 256.49 o
-2 3 5 13002.00 9621.90 259.87 o
2 3 -5 13753.60 10161.90 253.12 o
-1 3 5 74159.70 74207.80 280.12 o
0 3 5 222.42 1295.97 162.00 o
1 3 5 29983.50 30441.80 215.99 o
2 3 5 13808.20 11096.70 182.25 o
3 3 5 6495.55 3952.03 185.62 o
4 3 5 44852.30 48099.40 428.61 o
-4 3 -5 44325.90 46283.70 772.86 o
5 3 5 787.68 874.10 232.87 o
-5 3 -5 553.72 870.73 236.24 o
6 3 5 11792.60 11889.90 263.24 o
-6 3 -5 12810.40 12264.50 286.87 o
7 3 5 5494.12 3776.54 266.62 o
-7 3 -5 5471.68 3482.92 273.37 o
8 3 5 2036.69 1113.72 259.87 o
-8 3 -5 2445.40 1096.85 286.87 o
9 3 5 16289.00 16169.30 340.87 o
-9 3 -5 15988.60 18089.60 374.62 o
10 3 5 424.41 205.87 310.49 <
-10 3 -5 292.81 -50.62 320.62 <
11 3 5 2857.24 3111.68 377.99 o
-11 3 -5 3244.66 3229.80 350.99 o
12 3 5 1457.61 998.98 388.12 o
-12 3 -5 1574.05 401.62 296.99 <
13 3 5 393.39 617.61 310.49 <
-13 3 -5 518.51 283.49 280.12 <
14 3 5 4424.45 4431.27 367.87 o
-14 3 -5 4206.55 3638.17 307.12 o
-16 4 5 320.17 334.12 293.62 <
16 4 -5 323.86 482.61 232.87 o
-15 4 5 601.52 718.86 300.37 o
15 4 -5 628.06 344.24 232.87 <
-14 4 5 113.95 934.85 354.37 o
14 4 -5 114.85 344.24 232.87 <
-13 4 5 72.80 458.99 313.87 <
13 4 -5 82.32 104.62 226.12 <
-12 4 5 396.56 388.12 300.37 <
12 4 -5 338.58 452.24 232.87 <
-11 4 5 465.03 978.73 246.37 o
11 4 -5 481.14 2207.20 242.99 o
-10 4 5 2847.11 2554.82 222.74 o
10 4 -5 2836.33 2544.69 283.49 o
-9 4 5 662.34 435.36 219.37 <
9 4 -5 643.05 108.00 300.37 <
-8 4 5 162.06 94.50 202.49 <
8 4 -5 181.05 479.24 344.24 <
-7 4 5 550.45 398.24 185.62 o
7 4 -5 495.47 485.99 377.99 <
-6 4 5 240.60 739.11 185.62 o
6 4 -5 247.87 641.23 361.12 <
-5 4 5 3886.21 3283.80 178.87 o
5 4 -5 3870.56 3064.43 330.74 o
-4 4 5 283.24 212.62 178.87 <
4 4 -5 255.82 246.37 320.62 <
-3 4 5 752.51 998.98 202.49 o
3 4 -5 811.40 1019.23 296.99 o
-2 4 5 873.96 361.12 209.24 <
-1 4 5 287.73 256.49 155.25 <
0 4 5 1481.77 661.48 145.12 o
1 4 5 524.04 401.62 158.62 o
2 4 5 1792.97 1748.21 151.87 o
3 4 5 3969.59 3219.68 155.25 o
4 4 5 363.16 425.24 148.50 o
-4 4 -5 379.43 148.50 607.49 <
5 4 5 320.35 135.00 226.12 <
-5 4 -5 380.45 165.37 560.24 <
6 4 5 398.36 347.62 209.24 <
-6 4 -5 347.80 215.99 320.62 <
7 4 5 691.60 438.74 202.49 o
-7 4 -5 719.97 344.24 350.99 <
8 4 5 2904.05 2723.56 212.62 o
-8 4 -5 2888.71 2220.70 344.24 o
9 4 5 182.34 64.12 209.24 <
-9 4 -5 201.69 101.25 344.24 <
10 4 5 162.21 296.99 226.12 <
-10 4 -5 208.95 165.37 303.74 <
11 4 5 49.14 492.74 273.37 <
-11 4 -5 63.90 131.62 276.74 <
12 4 5 57.97 276.74 310.49 <
-12 4 -5 75.33 97.87 266.62 <
13 4 5 1048.97 823.48 300.37 o
-13 4 -5 1013.42 337.49 283.49 <
14 4 5 82.13 -77.62 398.24 <
-14 4 -5 86.36 249.74 269.99 <
-15 5 5 782.69 307.12 334.12 <
15 5 -5 725.51 1106.97 242.99 o
-14 5 5 3155.80 2942.93 296.99 o
14 5 -5 3503.71 2953.06 246.37 o
-13 5 5 402.48 340.87 280.12 <
13 5 -5 357.58 266.62 263.24 <
-12 5 5 1721.10 293.62 242.99 <
12 5 -5 1520.59 1046.23 232.87 o
-11 5 5 8450.14 8825.42 242.99 o
11 5 -5 8006.55 9966.14 266.62 o
-10 5 5 535.93 759.36 195.74 o
10 5 -5 466.12 442.11 239.62 <
-9 5 5 6889.81 6159.23 215.99 o
9 5 -5 6911.84 7171.71 310.49 o
-8 5 5 822.09 296.99 195.74 <
8 5 -5 902.48 624.36 337.49 <
-7 5 5 919.37 401.62 182.25 o
7 5 -5 571.03 195.74 350.99 <
-6 5 5 11360.90 11501.70 202.49 o
6 5 -5 10121.10 12551.30 421.86 o
-5 5 5 88.23 16.87 178.87 <
5 5 -5 97.27 108.00 475.86 <
-4 5 5 6136.95 5278.38 182.25 o
4 5 -5 5711.08 5642.87 610.86 o
-3 5 5 1344.56 695.23 199.12 o
3 5 -5 1509.11 496.11 492.74 <
-2 5 5 588.55 263.24 141.75 <
2 5 -5 288.78 327.37 708.73 <
-1 5 5 8307.57 8359.68 155.25 o
1 5 -5 7779.15 7833.19 823.48 o
0 5 5 184.85 350.99 145.12 o
1 5 5 7339.20 6327.98 158.62 o
2 5 5 2432.94 1376.97 155.25 o
3 5 5 1087.86 651.36 148.50 o
4 5 5 9078.80 10452.10 168.75 o
-4 5 -5 8822.74 8096.44 644.61 o
5 5 5 510.27 698.61 158.62 o
-5 5 -5 727.49 705.36 955.10 <
6 5 5 6462.77 5116.38 209.24 o
-6 5 -5 5537.56 3877.79 874.10 o
7 5 5 4156.63 2818.06 205.87 o
-7 5 -5 4376.15 1981.08 384.74 o
8 5 5 621.68 404.99 202.49 <
-8 5 -5 434.25 303.74 334.12 <
9 5 5 6606.04 7870.32 239.62 o
-9 5 -5 6314.49 6746.47 337.49 o
10 5 5 385.06 587.24 212.62 o
-10 5 -5 523.34 310.49 290.24 <
11 5 5 2353.42 1721.21 246.37 o
-11 5 -5 2107.01 1171.10 266.62 o
12 5 5 2635.47 1549.09 259.87 o
-12 5 -5 2589.85 1380.34 276.74 o
13 5 5 222.99 232.87 273.37 <
-13 5 -5 186.65 354.37 269.99 <
-14 6 5 85.36 -215.99 232.87 <
14 6 -5 94.98 742.48 266.62 o
-13 6 5 576.67 580.49 209.24 o
13 6 -5 605.36 479.24 242.99 <
-12 6 5 61.90 296.99 195.74 <
12 6 -5 38.21 -138.37 273.37 <
-11 6 5 227.04 273.37 202.49 <
11 6 -5 205.06 391.49 249.74 <
-10 6 5 194.77 327.37 189.00 <
10 6 -5 197.38 202.49 286.87 <
-9 6 5 99.59 155.25 185.62 <
9 6 -5 106.61 340.87 313.87 <
-8 6 5 1104.98 1198.10 162.00 o
8 6 -5 1152.71 911.23 344.24 o
-7 6 5 228.87 300.37 175.50 <
7 6 -5 230.31 735.73 408.37 <
-6 6 5 308.19 50.62 158.62 <
6 6 -5 313.85 553.49 445.49 <
-5 6 5 378.08 -20.25 172.12 <
5 6 -5 394.13 246.37 492.74 <
-4 6 5 139.07 91.12 202.49 <
4 6 -5 136.36 209.24 317.24 <
-3 6 5 342.05 239.62 202.49 <
3 6 -5 363.46 215.99 442.11 <
-2 6 5 136.73 415.11 138.37 o
2 6 -5 135.85 168.75 442.11 <
-1 6 5 35.25 -77.62 138.37 <
1 6 -5 34.27 37.12 431.99 <
0 6 5 1804.13 1623.34 141.75 o
0 6 -5 1811.60 1299.35 445.49 o
1 6 5 84.07 350.99 145.12 o
-1 6 -5 98.08 418.49 428.61 <
2 6 5 220.91 273.37 145.12 <
-2 6 -5 180.88 242.99 492.74 <
3 6 5 101.47 340.87 138.37 o
-3 6 -5 95.92 108.00 678.36 <
4 6 5 73.42 -124.87 151.87 <
-4 6 -5 73.63 151.87 580.49 <
5 6 5 1754.54 1154.22 158.62 o
-5 6 -5 1766.97 1299.35 445.49 o
6 6 5 181.32 334.12 138.37 o
-6 6 -5 219.95 -634.48 681.73 <
7 6 5 190.95 -47.25 202.49 <
-7 6 -5 147.57 -70.87 647.98 <
8 6 5 28.88 -121.50 189.00 <
-8 6 -5 11.92 43.87 577.11 <
9 6 5 89.97 -13.50 195.74 <
-9 6 -5 90.06 614.24 290.24 o
10 6 5 457.99 259.87 212.62 <
-10 6 -5 445.48 13.50 300.37 <
11 6 5 28.36 -172.12 226.12 <
-11 6 -5 45.26 64.12 273.37 <
12 6 5 86.69 -121.50 253.12 <
-12 6 -5 61.71 -276.74 273.37 <
-12 7 5 1138.90 617.61 199.12 o
12 7 -5 1258.89 860.60 303.74 o
-11 7 5 8629.12 7725.20 202.49 o
11 7 -5 8260.25 8531.80 350.99 o
-10 7 5 89.00 509.61 189.00 o
10 7 -5 86.52 769.48 334.12 o
-9 7 5 13206.60 11582.70 212.62 o
9 7 -5 13743.70 14900.30 418.49 o
-8 7 5 2762.88 2507.57 189.00 o
8 7 -5 2858.85 2578.44 394.87 o
-7 7 5 4924.19 2652.69 178.87 o
7 7 -5 5173.93 3486.29 374.62 o
-6 7 5 19543.70 20330.50 249.74 o
6 7 -5 19505.50 19064.90 394.87 o
-5 7 5 97.79 728.98 209.24 o
5 7 -5 83.49 853.85 229.49 o
-4 7 5 27445.20 26958.90 263.24 o
4 7 -5 27902.90 24954.20 384.74 o
-3 7 5 7690.57 7613.82 165.37 o
3 7 -5 7920.96 5814.99 337.49 o
-2 7 5 7251.87 4195.03 158.62 o
2 7 -5 7532.35 4076.91 303.74 o
-1 7 5 24936.40 28535.00 189.00 o
1 7 -5 24708.70 23162.10 415.11 o
0 7 5 394.94 1079.98 138.37 o
0 7 -5 331.28 779.61 296.99 o
1 7 5 22747.90 22335.20 178.87 o
-1 7 -5 23373.30 20951.50 381.37 o
2 7 5 8206.22 6992.84 151.87 o
-2 7 -5 7859.93 6965.84 344.24 o
3 7 5 3731.35 2048.58 151.87 o
-3 7 -5 4154.68 2089.08 354.37 o
4 7 5 12924.60 14208.40 175.50 o
-4 7 -5 13243.50 15011.70 445.49 o
5 7 5 709.39 492.74 151.87 o
-5 7 -5 539.39 496.11 428.61 <
6 7 5 8372.11 8892.92 182.25 o
-6 7 -5 8932.92 6830.84 533.24 o
7 7 5 3885.55 2038.45 178.87 o
-7 7 -5 3759.94 803.23 782.98 <
8 7 5 1516.85 644.61 151.87 o
-8 7 -5 1741.40 128.25 647.98 <
9 7 5 3619.65 5632.75 232.87 o
-9 7 -5 3968.84 2365.82 614.24 o
10 7 5 276.89 232.87 219.37 <
-10 7 -5 210.32 -303.74 536.61 <
-10 8 5 1000.19 1002.35 195.74 o
10 8 -5 973.16 1133.97 357.74 o
-9 8 5 79.27 57.37 175.50 <
9 8 -5 88.90 -209.24 327.37 <
-8 8 5 308.62 799.86 189.00 o
8 8 -5 318.08 1211.60 350.99 o
-7 8 5 22.78 6.75 212.62 <
7 8 -5 13.94 -222.74 344.24 <
-6 8 5 10.53 43.87 222.74 <
6 8 -5 6.55 519.74 310.49 <
-5 8 5 447.18 452.24 215.99 o
5 8 -5 422.65 222.74 296.99 <
-4 8 5 0.75 124.87 145.12 <
4 8 -5 0.99 30.37 273.37 <
-3 8 5 6.94 64.12 145.12 <
3 8 -5 10.17 175.50 283.49 <
-2 8 5 164.59 307.12 141.75 o
2 8 -5 157.17 465.74 263.24 <
-1 8 5 150.44 -57.37 151.87 <
1 8 -5 167.23 226.12 286.87 <
0 8 5 300.08 543.36 158.62 o
0 8 -5 312.82 485.99 290.24 <
1 8 5 59.18 151.87 148.50 <
-1 8 -5 44.84 -54.00 259.87 <
2 8 5 474.84 168.75 145.12 <
-2 8 -5 489.56 502.86 266.62 <
3 8 5 1056.64 1295.97 151.87 o
-3 8 -5 1042.85 1171.10 286.87 o
4 8 5 102.35 -20.25 148.50 <
-4 8 -5 126.55 118.12 310.49 <
5 8 5 738.25 661.48 158.62 o
-5 8 -5 738.15 853.85 340.87 o
6 8 5 180.43 367.87 165.37 o
-6 8 -5 151.27 -50.62 404.99 <
7 8 5 428.61 475.86 165.37 o
-7 8 -5 474.21 175.50 502.86 <
8 8 5 604.36 526.49 182.25 o
-8 8 -5 596.05 364.49 445.49 <
-6 9 5 1876.16 2895.68 168.75 o
6 9 -5 1609.30 1984.45 327.37 o
-5 9 5 76.44 64.12 151.87 <
5 9 -5 90.22 -148.50 286.87 <
-4 9 5 1794.25 1889.96 162.00 o
4 9 -5 1689.62 1258.85 286.87 o
-3 9 5 806.47 894.35 162.00 o
3 9 -5 808.71 658.11 290.24 o
-2 9 5 226.61 590.61 158.62 o
2 9 -5 229.53 249.74 286.87 <
-1 9 5 1762.25 2618.94 151.87 o
1 9 -5 1632.67 1886.58 280.12 o
0 9 5 82.80 442.11 155.25 o
0 9 -5 116.51 158.62 269.99 <
1 9 5 2109.54 2065.45 158.62 o
-1 9 -5 1842.73 1376.97 280.12 o
2 9 5 1302.68 745.86 162.00 o
-2 9 -5 1413.01 894.35 290.24 o
3 9 5 442.15 101.25 172.12 <
-3 9 -5 239.66 283.49 283.49 <
4 9 5 2661.34 2868.68 165.37 o
-4 9 -5 2397.42 2402.94 303.74 o
-17 0 6 5074.65 5457.25 431.99 o
17 0 -6 5042.21 6675.60 556.86 o
-16 0 6 1990.61 1532.21 401.62 o
16 0 -6 2225.72 1711.09 485.99 o
-15 0 6 1225.14 1437.72 482.61 o
15 0 -6 1267.47 1562.59 415.11 o
-14 0 6 3306.55 3844.04 519.74 o
14 0 -6 3952.51 5285.13 374.62 o
-13 0 6 16.83 313.87 539.99 <
13 0 -6 57.95 178.87 317.24 <
-12 0 6 12680.40 18160.50 607.49 o
12 0 -6 12147.70 16861.10 347.62 o
-11 0 6 4382.00 5318.88 516.36 o
11 0 -6 5148.63 5075.88 340.87 o
-10 0 6 2137.76 3968.91 465.74 o
10 0 -6 2109.74 3219.68 273.37 o
-9 0 6 2212.34 5558.50 485.99 o
9 0 -6 3556.24 4974.64 263.24 o
-8 0 6 88.10 -60.75 458.99 <
8 0 -6 257.66 563.61 242.99 o
-7 0 6 14163.30 17431.50 391.49 o
7 0 -6 11065.60 17620.50 327.37 o
-6 0 6 4554.40 6719.47 384.74 o
6 0 -6 4631.58 6631.72 290.24 o
-5 0 6 1037.28 3098.18 296.99 o
5 0 -6 732.77 3148.80 273.37 o
-4 0 6 1271.66 1221.72 323.99 o
4 0 -6 622.15 1231.85 256.49 o
-3 0 6 651.99 853.85 293.62 o
3 0 -6 373.27 789.73 259.87 o
-2 0 6 8852.42 6462.98 307.12 o
-1 0 6 7782.92 5136.63 199.12 o
0 0 6 1062.52 1241.97 195.74 o
1 0 6 2996.95 1474.84 189.00 o
2 0 6 2243.21 1832.58 202.49 o
3 0 6 6369.98 4043.16 205.87 o
4 0 6 13599.00 13084.60 242.99 o
5 0 6 1148.10 1110.35 344.24 o
-5 0 -6 882.41 917.98 253.12 o
6 0 6 952.10 3671.92 418.49 o
-6 0 -6 14.56 3337.80 286.87 o
7 0 6 2390.49 3084.68 492.74 o
-7 0 -6 2049.03 2490.69 256.49 o
8 0 6 2425.47 3165.68 485.99 o
-8 0 -6 1139.84 3229.80 320.62 o
9 0 6 15008.30 16179.40 678.36 o
-9 0 -6 12237.80 13995.80 357.74 o
10 0 6 88.32 347.62 607.49 <
-10 0 -6 44.65 624.36 320.62 <
11 0 6 1538.32 2001.33 465.74 o
-11 0 -6 1153.46 2939.56 350.99 o
12 0 6 1648.01 475.86 519.74 <
-12 0 -6 1796.01 1673.96 374.62 o
13 0 6 413.43 269.99 398.24 <
-13 0 -6 168.39 647.98 418.49 <
14 0 6 6794.46 6044.49 398.24 o
-14 0 -6 6002.02 5936.49 452.24 o
-17 1 6 102.54 290.24 283.49 <
17 1 -6 104.79 1113.72 334.12 o
-16 1 6 2.43 3.37 307.12 <
16 1 -6 2.06 -266.62 337.49 <
-15 1 6 423.99 310.49 330.74 <
15 1 -6 428.92 509.61 307.12 <
-14 1 6 9.97 1191.35 320.62 o
14 1 -6 9.50 94.50 263.24 <
-13 1 6 1603.82 479.24 290.24 <
13 1 -6 1583.80 1063.10 242.99 o
-12 1 6 375.42 533.24 286.87 <
12 1 -6 379.94 364.49 249.74 <
-11 1 6 708.89 894.35 296.99 o
11 1 -6 716.02 273.37 226.12 <
-10 1 6 2443.16 2301.70 350.99 o
10 1 -6 2430.20 2490.69 195.74 o
-9 1 6 61.82 27.00 377.99 <
9 1 -6 57.81 442.11 192.37 o
-8 1 6 7295.45 6199.73 438.74 o
8 1 -6 7239.05 5933.11 182.25 o
-7 1 6 1515.20 1525.46 384.74 o
7 1 -6 1505.71 1424.22 185.62 o
-6 1 6 1907.37 948.35 344.24 o
6 1 -6 1947.78 1309.47 162.00 o
-5 1 6 4916.75 5322.25 327.37 o
5 1 -6 4902.50 4913.89 202.49 o
-4 1 6 282.51 209.24 280.12 <
4 1 -6 287.95 445.49 189.00 o
-3 1 6 5127.39 6081.61 280.12 o
3 1 -6 5090.42 5740.74 192.37 o
-2 1 6 1839.79 1346.59 246.37 o
-1 1 6 279.48 907.85 148.50 o
0 1 6 1392.15 3587.54 172.12 o
1 1 6 189.34 398.24 162.00 o
2 1 6 216.97 2635.81 175.50 o
3 1 6 826.24 961.85 178.87 o
4 1 6 525.07 728.98 209.24 o
5 1 6 4969.77 4046.53 411.74 o
-5 1 -6 4980.06 4377.27 209.24 o
6 1 6 127.43 -84.37 371.24 <
-6 1 -6 128.76 273.37 192.37 <
7 1 6 1301.57 1258.85 350.99 o
-7 1 -6 1307.73 1090.10 202.49 o
8 1 6 1361.30 735.73 317.24 o
-8 1 -6 1372.19 492.74 202.49 o
9 1 6 131.92 317.24 337.49 <
-9 1 -6 128.90 374.62 215.99 <
10 1 6 2174.01 1306.09 317.24 o
-10 1 -6 2163.68 928.10 212.62 o
11 1 6 131.79 310.49 323.99 <
-11 1 -6 130.70 550.11 253.12 o
12 1 6 595.27 57.37 350.99 <
-12 1 -6 590.56 364.49 253.12 <
13 1 6 361.41 573.74 317.24 <
-13 1 -6 352.80 411.74 296.99 <
14 1 6 48.16 610.86 327.37 <
-14 1 -6 46.50 259.87 323.99 <
-16 2 6 3028.00 1613.21 313.87 o
16 2 -6 2924.15 3320.92 313.87 o
-15 2 6 221.72 836.98 283.49 o
15 2 -6 312.24 273.37 300.37 <
-14 2 6 4261.11 5136.63 280.12 o
14 2 -6 4073.46 5858.87 320.62 o
-13 2 6 1563.14 1376.97 263.24 o
13 2 -6 1462.76 1775.21 307.12 o
-12 2 6 10653.10 13185.80 286.87 o
12 2 -6 10010.90 12855.10 280.12 o
-11 2 6 15255.40 13148.70 313.87 o
11 2 -6 14617.60 13688.70 259.87 o
-10 2 6 1124.17 2213.95 276.74 o
10 2 -6 1435.69 2109.33 205.87 o
-9 2 6 18777.20 23961.90 340.87 o
9 2 -6 19547.70 24765.20 259.87 o
-8 2 6 6176.04 5831.87 364.49 o
8 2 -6 5719.88 6186.23 199.12 o
-7 2 6 34096.20 51609.30 566.99 o
7 2 -6 33797.00 47940.80 296.99 o
-6 2 6 49675.30 50445.00 678.36 o
6 2 -6 49498.20 51207.70 290.24 o
-5 2 6 6485.91 7573.33 502.86 o
5 2 -6 7122.05 6601.35 209.24 o
-4 2 6 56014.60 80184.80 664.86 o
4 2 -6 60628.00 78598.60 367.87 o
-3 2 6 13609.20 13749.40 455.61 o
3 2 -6 13531.80 13600.90 256.49 o
-2 2 6 62642.30 66833.60 580.49 o
-1 2 6 86297.00 93843.10 310.49 o
0 2 6 6239.49 7951.32 195.74 o
1 2 6 65303.60 83620.40 310.49 o
2 2 6 14691.30 12936.10 192.37 o
3 2 6 34685.40 37907.10 242.99 o
4 2 6 54805.50 57761.80 367.87 o
5 2 6 2787.46 4201.78 448.86 o
-5 2 -6 2658.69 4049.91 374.62 o
6 2 6 22761.20 26179.30 539.99 o
-6 2 -6 27081.50 24846.20 276.74 o
7 2 6 4161.53 4657.39 499.49 o
-7 2 -6 4721.35 4006.03 212.62 o
8 2 6 9385.29 11295.90 411.74 o
-8 2 -6 10265.20 10452.10 229.49 o
9 2 6 13594.30 17593.50 374.62 o
-9 2 -6 14024.90 16456.10 263.24 o
10 2 6 1373.18 1400.59 320.62 o
-10 2 -6 1175.76 1289.22 232.87 o
11 2 6 4072.28 4704.64 313.87 o
-11 2 -6 5700.19 4458.27 266.62 o
12 2 6 396.85 624.36 313.87 <
-12 2 -6 556.82 394.87 269.99 <
13 2 6 1731.77 1606.46 337.49 o
-13 2 -6 2050.51 988.85 313.87 o
14 2 6 2529.88 3169.05 381.37 o
-14 2 -6 2472.86 3077.93 357.74 o
-16 3 6 681.25 958.48 300.37 o
16 3 -6 678.27 809.98 303.74 o
-15 3 6 650.05 232.87 310.49 <
15 3 -6 651.86 121.50 283.49 <
-14 3 6 58.10 853.85 276.74 o
14 3 -6 61.82 691.86 293.62 o
-13 3 6 235.89 415.11 280.12 <
13 3 -6 247.36 256.49 361.12 <
-12 3 6 847.51 421.86 313.87 <
12 3 -6 853.18 580.49 327.37 <
-11 3 6 3369.47 2099.20 435.36 o
11 3 -6 3341.97 2264.57 266.62 o
-10 3 6 3174.07 2011.45 391.49 o
10 3 -6 3214.05 2929.43 266.62 o
-9 3 6 166.87 428.61 334.12 <
9 3 -6 192.54 543.36 222.74 o
-8 3 6 1868.38 1798.83 290.24 o
8 3 -6 1920.98 2075.58 222.74 o
-7 3 6 1907.82 1866.33 259.87 o
7 3 -6 1980.05 1630.09 209.24 o
-6 3 6 4057.69 3324.30 256.49 o
6 3 -6 3962.05 3169.05 195.74 o
-5 3 6 7070.52 5946.61 229.49 o
5 3 -6 7059.08 5855.49 219.37 o
-4 3 6 73.71 148.50 226.12 <
4 3 -6 79.35 259.87 205.87 <
-3 3 6 1760.92 1154.22 229.49 o
3 3 -6 1818.51 820.11 286.87 o
-2 3 6 1390.03 1545.71 168.75 o
-1 3 6 319.77 961.85 158.62 o
0 3 6 906.07 1542.34 168.75 o
1 3 6 141.05 458.99 182.25 o
2 3 6 4646.37 3496.42 172.12 o
3 3 6 1481.18 1883.21 151.87 o
4 3 6 455.27 826.86 178.87 o
5 3 6 981.41 1258.85 226.12 o
-5 3 -6 997.72 1022.60 462.36 o
6 3 6 721.56 671.61 266.62 o
-6 3 -6 723.09 627.74 364.49 <
7 3 6 3348.96 1923.71 259.87 o
-7 3 -6 3325.32 2288.20 222.74 o
8 3 6 2764.86 2075.58 283.49 o
-8 3 -6 2671.20 2166.70 232.87 o
9 3 6 618.75 148.50 313.87 <
-9 3 -6 645.28 256.49 229.49 <
10 3 6 821.49 256.49 307.12 <
-10 3 -6 860.52 242.99 253.12 <
11 3 6 330.01 877.48 377.99 o
-11 3 -6 329.27 566.99 269.99 o
12 3 6 759.73 138.37 401.62 <
-12 3 -6 764.75 108.00 293.62 <
13 3 6 675.64 762.73 381.37 <
-13 3 -6 669.41 610.86 334.12 <
-15 4 6 2132.36 2328.70 347.62 o
15 4 -6 2102.08 2450.19 266.62 o
-14 4 6 2439.71 2369.20 384.74 o
14 4 -6 3067.24 3071.18 293.62 o
-13 4 6 17.29 280.12 330.74 <
13 4 -6 14.81 101.25 266.62 <
-12 4 6 4999.63 7701.57 337.49 o
12 4 -6 4699.48 7229.08 340.87 o
-11 4 6 3654.23 3975.66 263.24 o
11 4 -6 4115.74 4637.14 367.87 o
-10 4 6 3425.65 3945.28 232.87 o
10 4 -6 3114.63 3935.16 323.99 o
-9 4 6 2376.97 4907.14 242.99 o
9 4 -6 3406.96 5210.88 310.49 o
-8 4 6 69.59 141.75 205.87 <
8 4 -6 135.71 -54.00 266.62 <
-7 4 6 3275.68 5170.38 209.24 o
7 4 -6 2156.91 4957.76 249.74 o
-6 4 6 3298.24 4623.64 199.12 o
6 4 -6 3040.83 4259.15 242.99 o
-5 4 6 1572.56 1525.46 226.12 o
5 4 -6 991.51 1424.22 229.49 o
-4 4 6 840.42 1528.84 236.24 o
4 4 -6 256.04 1562.59 242.99 o
-3 4 6 187.54 485.99 212.62 o
-2 4 6 1776.98 1484.97 148.50 o
-1 4 6 3502.25 2473.82 155.25 o
0 4 6 686.04 344.24 148.50 o
1 4 6 1807.77 1241.97 151.87 o
2 4 6 619.12 928.10 155.25 o
3 4 6 1742.94 2176.82 158.62 o
4 4 6 5476.97 5018.51 162.00 o
5 4 6 188.99 -74.25 155.25 <
6 4 6 2918.60 3678.67 273.37 o
-6 4 -6 1294.26 3509.92 499.49 o
7 4 6 1779.12 2230.82 226.12 o
-7 4 -6 1500.66 1974.33 455.61 o
8 4 6 1614.08 2504.19 242.99 o
-8 4 -6 834.30 1781.96 263.24 o
9 4 6 6312.79 6628.35 256.49 o
-9 4 -6 5033.31 6466.35 290.24 o
10 4 6 63.68 141.75 263.24 <
-10 4 -6 126.12 40.50 303.74 <
11 4 6 2287.55 2251.07 276.74 o
-11 4 -6 1650.71 1923.71 330.74 o
12 4 6 1752.91 1434.34 323.99 o
-12 4 -6 1777.33 1302.72 377.99 o
-14 5 6 13.38 -273.37 290.24 <
14 5 -6 17.68 -192.37 263.24 <
-13 5 6 1592.32 793.11 266.62 o
13 5 -6 1594.40 722.23 249.74 o
-12 5 6 41.06 307.12 246.37 <
12 5 -6 28.85 -27.00 286.87 <
-11 5 6 319.37 0.00 205.87 <
11 5 -6 294.50 398.24 313.87 <
-10 5 6 295.61 627.74 178.87 o
10 5 -6 290.74 607.49 364.49 <
-9 5 6 27.04 330.74 202.49 <
9 5 -6 29.74 303.74 377.99 <
-8 5 6 4731.65 3675.29 192.37 o
8 5 -6 4734.73 4184.90 344.24 o
-7 5 6 519.58 617.61 182.25 o
7 5 -6 474.50 512.99 300.37 <
-6 5 6 599.13 614.24 192.37 o
6 5 -6 612.37 708.73 307.12 o
-5 5 6 766.08 563.61 199.12 o
5 5 -6 739.07 661.48 259.87 o
-4 5 6 289.29 40.50 215.99 <
4 5 -6 288.53 50.62 215.99 <
-3 5 6 2544.55 2045.20 219.37 o
-2 5 6 636.51 425.24 148.50 o
-1 5 6 140.07 162.00 145.12 <
0 5 6 1823.90 1451.22 155.25 o
1 5 6 194.18 178.87 158.62 <
2 5 6 37.60 445.49 155.25 o
3 5 6 458.85 50.62 155.25 <
4 5 6 211.89 27.00 168.75 <
5 5 6 4044.91 3550.42 158.62 o
6 5 6 64.70 303.74 168.75 <
7 5 6 527.66 310.49 182.25 <
-7 5 -6 503.67 168.75 553.49 <
8 5 6 446.61 158.62 229.49 <
-8 5 -6 461.45 141.75 536.61 <
9 5 6 48.48 283.49 222.74 <
-9 5 -6 38.07 -37.12 320.62 <
10 5 6 1511.98 847.10 226.12 o
-10 5 -6 1512.17 971.98 354.37 o
11 5 6 4.27 172.12 253.12 <
-11 5 -6 4.42 27.00 408.37 <
-13 6 6 874.46 870.73 249.74 o
13 6 -6 775.79 715.48 253.12 o
-12 6 6 2991.60 3445.80 232.87 o
12 6 -6 2803.63 3597.67 286.87 o
-11 6 6 8650.95 8140.31 232.87 o
11 6 -6 8247.92 8980.67 330.74 o
-10 6 6 1999.27 2035.08 202.49 o
10 6 -6 1955.39 2132.95 313.87 o
-9 6 6 14450.50 16641.70 232.87 o
9 6 -6 14720.90 17205.40 367.87 o
-8 6 6 2189.33 2453.57 192.37 o
8 6 -6 1934.32 2629.06 388.12 o
-7 6 6 11860.40 15511.10 222.74 o
7 6 -6 12359.20 16807.10 472.49 o
-6 6 6 22339.90 25328.80 246.37 o
6 6 -6 22080.40 23800.00 512.99 o
-5 6 6 3856.70 3462.67 229.49 o
5 6 -6 3789.90 3955.41 286.87 o
-4 6 6 39038.80 47991.40 327.37 o
4 6 -6 40032.70 46357.90 560.24 o
-3 6 6 4267.21 4357.02 172.12 o
3 6 -6 4109.57 3594.29 455.61 o
-2 6 6 22315.50 27333.50 199.12 o
-1 6 6 32963.60 38322.20 215.99 o
0 6 6 2488.05 2872.06 158.62 o
1 6 6 37812.30 48342.40 226.12 o
2 6 6 5133.96 4795.76 162.00 o
3 6 6 14809.00 17502.30 189.00 o
4 6 6 17329.50 21451.00 195.75 o
5 6 6 887.98 1559.21 165.37 o
6 6 6 13751.90 17694.70 195.75 o
7 6 6 1742.57 1839.33 175.50 o
-7 6 -6 1814.48 1481.59 762.73 <
8 6 6 4854.80 5777.87 202.49 o
-8 6 -6 5395.85 4414.40 793.11 o
9 6 6 3951.50 4390.77 246.37 o
-9 6 -6 4662.99 5001.63 840.36 o
10 6 6 417.31 435.36 239.62 <
-10 6 -6 365.23 796.48 853.85 <
-11 7 6 626.35 411.74 209.24 <
11 7 -6 601.56 604.11 266.62 o
-10 7 6 1767.10 1441.09 205.87 o
10 7 -6 1771.89 1711.09 307.12 o
-9 7 6 306.25 415.11 189.00 o
9 7 -6 311.14 512.99 327.37 <
-8 7 6 727.29 1322.97 189.00 o
8 7 -6 770.74 1457.97 374.62 o
-7 7 6 284.56 168.75 219.37 <
7 7 -6 305.17 -293.62 421.86 <
-6 7 6 427.40 452.24 222.74 o
6 7 -6 406.01 384.74 347.62 <
-5 7 6 1651.14 1042.85 219.37 o
5 7 -6 1652.95 1849.46 620.99 o
-4 7 6 104.96 84.37 158.62 <
4 7 -6 100.34 219.37 614.24 <
-3 7 6 292.69 229.49 151.87 <
3 7 -6 308.57 300.37 644.61 <
-2 7 6 105.23 -135.00 148.50 <
2 7 -6 107.41 192.37 610.86 <
-1 7 6 64.84 16.87 151.87 <
0 7 6 117.86 23.62 141.75 <
1 7 6 45.43 185.62 155.25 <
2 7 6 1575.19 1268.97 158.62 o
3 7 6 1160.95 1100.22 158.62 o
4 7 6 320.71 185.62 158.62 <
5 7 6 1129.18 806.61 168.75 o
6 7 6 109.00 374.62 172.12 o
7 7 6 1499.11 938.23 175.50 o
-7 7 -6 1507.14 833.61 566.99 <
8 7 6 1083.63 607.49 189.00 o
-8 7 -6 1028.92 759.36 566.99 <
-8 8 6 16.99 -16.87 256.49 <
8 8 -6 43.94 475.86 391.49 <
-7 8 6 349.87 894.35 232.87 o
7 8 -6 458.10 1255.47 307.12 o
-6 8 6 873.67 1532.21 229.49 o
6 8 -6 786.32 1360.09 516.36 o
-5 8 6 144.70 -40.50 148.50 <
5 8 -6 27.48 155.25 570.36 <
-4 8 6 1066.68 816.73 145.12 o
4 8 -6 808.83 1609.84 695.23 o
-3 8 6 97.21 489.36 148.50 o
3 8 -6 60.15 367.87 978.73 <
-2 8 6 144.96 863.98 148.50 o
2 8 -6 93.17 847.10 1322.97 <
-1 8 6 571.72 624.36 151.87 o
1 8 -6 279.46 1005.73 1451.22 <
0 8 6 63.20 94.50 155.25 <
1 8 6 1505.62 1387.09 158.62 o
2 8 6 307.90 266.62 158.62 <
3 8 6 504.00 465.74 158.62 o
4 8 6 1382.95 1896.71 158.62 o
5 8 6 47.24 74.25 168.75 <
-16 1 7 751.35 668.23 350.99 <
16 1 -7 786.37 695.23 323.99 o
-15 1 7 1390.80 1012.48 364.49 o
15 1 -7 1496.89 1265.60 269.99 o
-14 1 7 3622.88 2362.45 327.37 o
14 1 -7 3551.15 2018.20 269.99 o
-13 1 7 4.86 715.48 323.99 o
13 1 -7 14.79 361.12 239.62 <
-12 1 7 10688.90 6989.46 327.37 o
12 1 -7 10643.30 8001.94 239.62 o
-11 1 7 2940.31 2750.56 320.62 o
11 1 -7 3049.25 3175.80 236.24 o
-10 1 7 3738.55 1670.59 361.12 o
10 1 -7 3991.98 2348.95 199.12 o
-9 1 7 9284.35 7205.46 442.11 o
9 1 -7 9372.00 8099.81 219.37 o
-8 1 7 181.29 293.62 448.86 <
8 1 -7 212.83 796.48 168.75 o
-7 1 7 22641.40 18956.90 472.49 o
7 1 -7 22825.90 21319.40 229.49 o
-6 1 7 7683.41 7536.20 388.12 o
6 1 -7 7782.45 8106.56 202.49 o
-5 1 7 6756.56 4195.03 357.74 o
5 1 -7 6838.13 4387.40 175.50 o
-4 1 7 15164.90 18359.60 377.99 o
4 1 -7 15985.80 13688.70 202.49 o
-3 1 7 1196.96 1366.84 320.62 o
-2 1 7 28328.50 27029.80 236.24 o
-1 1 7 12334.60 10951.60 202.49 o
0 1 7 6342.78 4343.52 192.37 o
1 1 7 12434.80 14029.60 226.12 o
2 1 7 2246.30 2183.57 195.74 o
3 1 7 18754.10 18150.30 259.87 o
4 1 7 10131.30 10840.20 259.87 o
5 1 7 2988.31 2109.33 269.99 o
6 1 7 5330.37 7728.57 398.24 o
7 1 7 1623.32 1252.10 350.99 o
-7 1 -7 1559.16 1039.48 182.25 o
8 1 7 6520.58 6344.85 327.37 o
-8 1 -7 6583.18 5609.12 229.49 o
9 1 7 5406.02 5868.99 347.62 o
-9 1 -7 5284.21 5514.62 232.87 o
10 1 7 1120.51 728.98 313.87 o
-10 1 -7 969.01 583.86 212.62 o
11 1 7 1306.30 1886.58 347.62 o
-11 1 -7 1709.94 1930.46 229.49 o
12 1 7 598.49 624.36 377.99 <
-12 1 -7 594.42 310.49 273.37 <
-15 2 7 4.77 -195.74 296.99 <
15 2 -7 5.65 185.62 290.24 <
-14 2 7 32.20 280.12 280.12 <
14 2 -7 35.06 283.49 256.49 <
-13 2 7 54.97 539.99 290.24 <
13 2 -7 50.77 246.37 226.12 <
-12 2 7 14.26 60.75 286.87 <
12 2 -7 13.97 135.00 205.87 <
-11 2 7 509.51 833.61 293.62 o
11 2 -7 516.16 718.86 212.62 o
-10 2 7 41.15 151.87 307.12 <
10 2 -7 41.04 158.62 209.24 <
-9 2 7 102.32 249.74 303.74 <
9 2 -7 94.97 -162.00 189.00 <
-8 2 7 42.37 -101.25 384.74 <
8 2 -7 41.78 195.74 195.74 <
-7 2 7 144.34 -67.50 482.61 <
7 2 -7 144.84 3.37 175.50 <
-6 2 7 780.31 917.98 593.99 <
6 2 -7 785.99 911.23 185.62 o
-5 2 7 74.03 141.75 526.49 <
5 2 -7 75.11 67.50 182.25 <
-4 2 7 28.21 300.37 496.11 <
4 2 -7 21.00 40.50 205.87 <
-3 2 7 53.15 -27.00 303.74 <
-2 2 7 217.97 165.37 155.25 <
-1 2 7 112.57 128.25 155.25 <
0 2 7 4.02 -13.50 155.25 <
1 2 7 24.87 -172.12 158.62 <
2 2 7 898.87 904.48 172.12 o
3 2 7 23.31 195.74 162.00 <
4 2 7 13.09 57.37 256.49 <
5 2 7 44.26 138.37 226.12 <
6 2 7 93.64 -165.37 266.62 <
7 2 7 721.85 445.49 448.86 <
-7 2 -7 738.68 661.48 323.99 o
8 2 7 43.06 0.00 411.74 <
-8 2 -7 44.59 -94.50 209.24 <
9 2 7 49.00 347.62 384.74 <
-9 2 -7 51.37 269.99 222.74 <
10 2 7 39.71 -168.75 361.12 <
-10 2 -7 51.10 16.87 215.99 <
11 2 7 28.84 533.24 337.49 <
-11 2 -7 25.00 108.00 236.24 <
12 2 7 167.88 124.87 334.12 <
-12 2 -7 175.84 -141.75 266.62 <
-15 3 7 1924.25 1299.35 313.87 o
15 3 -7 1938.19 2078.95 367.87 o
-14 3 7 2118.56 367.87 296.99 <
14 3 -7 2077.95 1333.09 286.87 o
-13 3 7 32.62 776.23 334.12 o
13 3 -7 43.28 610.86 286.87 o
-12 3 7 7453.14 4549.40 344.24 o
12 3 -7 6937.95 6206.48 242.99 o
-11 3 7 1618.01 1140.72 381.37 o
11 3 -7 1867.27 1916.96 236.24 o
-10 3 7 3666.13 3786.66 364.49 o
10 3 -7 3431.76 3540.29 215.99 o
-9 3 7 3953.32 3395.17 317.24 o
9 3 -7 3806.85 3010.43 202.49 o
-8 3 7 35.70 192.37 280.12 <
8 3 -7 47.84 506.24 192.37 o
-7 3 7 9854.42 8639.80 293.62 o
7 3 -7 8541.60 8376.56 219.37 o
-6 3 7 3641.96 3773.16 259.87 o
6 3 -7 3811.49 3722.54 199.12 o
-5 3 7 3414.60 2618.94 259.87 o
5 3 -7 2695.20 2332.07 209.24 o
-4 3 7 3817.63 3655.04 293.62 o
4 3 -7 3554.88 2460.32 242.99 o
-3 3 7 258.51 803.23 222.74 o
-2 3 7 7775.95 6965.84 175.50 o
-1 3 7 4359.80 3945.28 155.25 o
0 3 7 2829.44 1663.84 148.50 o
1 3 7 3463.24 2983.43 151.87 o
2 3 7 316.81 931.48 162.00 o
3 3 7 6584.14 5835.24 182.25 o
4 3 7 4810.18 4228.78 168.75 o
5 3 7 1708.36 1201.47 178.87 o
6 3 7 3617.80 4988.14 189.00 o
7 3 7 559.71 782.98 286.87 o
-7 3 -7 644.70 745.86 398.24 <
8 3 7 3778.68 2946.31 293.62 o
-8 3 -7 3310.61 2645.94 374.62 o
9 3 7 3674.22 2180.20 307.12 o
-9 3 -7 3557.57 3199.43 239.62 o
10 3 7 522.16 384.74 337.49 <
-10 3 -7 361.85 404.99 249.74 <
11 3 7 1817.94 1893.33 374.62 o
-11 3 -7 1848.01 1900.08 253.12 o
-14 4 7 59.89 877.48 438.74 <
14 4 -7 61.33 506.24 340.87 <
-13 4 7 257.46 -445.49 391.49 <
13 4 -7 251.33 536.61 290.24 <
-12 4 7 94.07 428.61 283.49 <
12 4 -7 90.01 57.37 307.12 <
-11 4 7 112.82 624.36 269.99 o
11 4 -7 80.04 256.49 256.49 <
-10 4 7 138.72 -33.75 215.99 <
10 4 -7 155.59 74.25 242.99 <
-9 4 7 71.55 114.75 249.74 <
9 4 -7 79.31 435.36 219.37 <
-8 4 7 1265.16 1042.85 222.74 o
8 4 -7 1271.57 742.48 219.37 o
-7 4 7 175.17 -192.37 215.99 <
7 4 -7 170.24 202.49 209.24 <
-6 4 7 67.96 249.74 209.24 <
6 4 -7 55.14 67.50 205.87 <
-5 4 7 178.55 246.37 246.37 <
5 4 -7 185.44 20.25 229.49 <
-4 4 7 8.90 614.24 219.37 o
4 4 -7 5.72 -67.50 212.62 <
-3 4 7 779.75 843.73 165.37 o
-2 4 7 80.75 226.12 158.62 <
-1 4 7 165.23 209.24 151.87 <
0 4 7 310.88 313.87 148.50 o
1 4 7 181.67 -135.00 148.50 <
2 4 7 135.53 290.24 162.00 <
3 4 7 284.50 87.75 151.87 <
4 4 7 282.16 20.25 158.62 <
5 4 7 986.70 641.23 172.12 o
6 4 7 99.16 43.87 162.00 <
7 4 7 113.29 64.12 172.12 <
8 4 7 79.28 229.49 280.12 <
-8 4 -7 87.94 219.37 465.74 <
9 4 7 124.33 162.00 263.24 <
-9 4 -7 106.42 -141.75 455.61 <
10 4 7 354.80 175.50 283.49 <
-10 4 -7 378.40 168.75 259.87 <
-13 5 7 155.57 610.86 283.49 o
13 5 -7 206.59 1127.22 337.49 o
-12 5 7 5984.11 5133.26 259.87 o
12 5 -7 5956.34 4758.64 361.12 o
-11 5 7 3673.09 3341.17 249.74 o
11 5 -7 3701.13 3381.67 340.87 o
-10 5 7 4500.93 3557.17 222.74 o
10 5 -7 4685.25 4114.03 303.74 o
-9 5 7 8846.69 8163.94 239.62 o
9 5 -7 9438.47 6115.36 276.74 o
-8 5 7 468.17 850.48 212.62 o
8 5 -7 465.55 718.86 246.37 o
-7 5 7 15199.40 14684.30 239.62 o
7 5 -7 15817.40 13341.10 280.12 o
-6 5 7 9925.57 10523.00 253.12 o
6 5 -7 9924.20 9213.54 259.87 o
-5 5 7 9830.46 8771.42 249.74 o
5 5 -7 10197.00 8258.43 283.49 o
-4 5 7 20417.80 20273.20 273.37 o
-3 5 7 757.04 1835.96 155.25 o
-2 5 7 22651.70 21663.60 189.00 o
-1 5 7 14621.60 17431.50 189.00 o
0 5 7 7290.61 5521.37 158.62 o
1 5 7 20412.40 20749.00 189.00 o
2 5 7 1243.73 1697.59 155.25 o
3 5 7 12343.60 12166.60 175.50 o
4 5 7 8668.40 11576.00 185.62 o
5 5 7 2792.85 1704.34 162.00 o
6 5 7 8080.25 8514.93 182.25 o
7 5 7 710.25 739.11 189.00 o
8 5 7 3732.93 3347.92 195.74 o
9 5 7 2407.02 2733.69 239.62 o
-9 5 -7 2385.61 2024.95 590.61 o
-11 6 7 968.34 361.12 219.37 <
11 6 -7 961.24 -108.00 381.37 <
-10 6 7 349.62 374.62 202.49 <
10 6 -7 366.34 377.99 327.37 <
-9 6 7 440.10 -300.37 222.74 <
9 6 -7 423.63 253.12 300.37 <
-8 6 7 181.47 445.49 205.87 o
8 6 -7 185.58 185.62 290.24 <
-7 6 7 176.28 -16.87 209.24 <
7 6 -7 165.45 192.37 256.49 <
-6 6 7 725.69 1022.60 236.24 o
6 6 -7 699.46 516.36 212.62 o
-5 6 7 469.33 890.98 229.49 o
5 6 -7 487.34 435.36 418.49 <
-4 6 7 93.61 320.62 148.50 o
-3 6 7 39.96 27.00 162.00 <
-2 6 7 109.43 384.74 155.25 o
-1 6 7 36.69 94.50 155.25 <
0 6 7 44.01 189.00 158.62 <
1 6 7 4.58 205.87 155.25 <
2 6 7 1245.45 894.35 168.75 o
3 6 7 196.68 242.99 168.75 <
4 6 7 378.24 111.37 172.12 <
5 6 7 460.42 -50.62 165.37 <
6 6 7 16.51 320.62 168.75 <
7 6 7 1072.38 840.36 178.87 o
8 6 7 189.05 94.50 195.74 <
-9 7 7 1404.17 1120.47 222.74 o
9 7 -7 1514.47 880.85 394.87 o
-8 7 7 1.92 327.37 256.49 <
8 7 -7 0.31 -178.87 364.49 <
-7 7 7 1488.08 1437.72 246.37 o
7 7 -7 904.02 1292.60 242.99 o
-6 7 7 1242.67 1457.97 219.37 o
6 7 -7 1172.77 1133.97 361.12 o
-5 7 7 883.75 1110.35 172.12 o
5 7 -7 421.65 745.86 418.49 <
-4 7 7 1093.01 1052.98 168.75 o
-3 7 7 23.16 580.49 168.75 o
-2 7 7 899.52 867.35 162.00 o
-1 7 7 924.08 1306.09 162.00 o
0 7 7 721.66 745.86 168.75 o
1 7 7 1373.76 1356.72 162.00 o
2 7 7 38.62 701.98 168.75 o
3 7 7 1466.03 931.48 162.00 o
4 7 7 1346.09 1204.85 175.50 o
5 7 7 520.24 367.87 172.12 o
-4 8 7 16.78 -118.12 172.12 <
-3 8 7 37.41 290.24 172.12 <
-2 8 7 29.63 458.99 175.50 o
-1 8 7 101.21 543.36 175.50 o
0 8 7 242.37 239.62 175.50 <
-14 0 8 3020.82 2035.08 600.74 o
14 0 -8 2811.08 1569.34 374.62 o
-13 0 8 446.48 1366.84 691.86 <
13 0 -8 452.54 668.23 293.62 o
-12 0 8 9291.98 10263.10 745.86 o
12 0 -8 8795.30 9331.66 307.12 o
-11 0 8 1542.10 2075.58 654.73 o
11 0 -8 1503.23 1974.33 273.37 o
-10 0 8 5708.18 6810.59 516.36 o
10 0 -8 6163.01 7704.95 307.12 o
-9 0 8 10734.70 10013.40 556.86 o
9 0 -8 10276.40 9692.78 273.37 o
-8 0 8 1146.57 1599.71 479.24 o
8 0 -8 1358.31 1309.47 276.74 o
-7 0 8 28673.30 31606.10 539.99 o
7 0 -8 28457.00 34883.20 381.37 o
-6 0 8 4127.68 5406.62 445.49 o
6 0 -8 4131.65 4900.39 290.24 o
-5 0 8 16737.00 18906.30 442.11 o
5 0 -8 18831.50 20823.30 330.74 o
-4 0 8 23671.90 24714.60 452.24 o
-3 0 8 2078.09 3064.43 239.62 o
-2 0 8 49712.60 57107.10 367.87 o
-1 0 8 7832.08 6419.10 253.12 o
0 0 8 20273.60 16773.40 266.62 o
1 0 8 24925.90 25970.00 307.12 o
2 0 8 1284.85 2656.06 246.37 o
3 0 8 31889.30 35450.20 340.87 o
4 0 8 5852.40 3783.29 242.99 o
5 0 8 9429.97 8336.06 276.74 o
6 0 8 8285.39 9486.91 330.74 o
7 0 8 694.08 1468.09 364.49 o
8 0 8 8883.67 10401.50 779.61 o
9 0 8 1258.68 1427.59 698.61 o
-9 0 -8 1370.25 590.61 323.99 <
10 0 8 2497.04 1835.96 604.11 o
-10 0 -8 2841.20 2264.57 340.87 o
-14 1 8 89.03 -604.11 377.99 <
14 1 -8 90.85 566.99 249.74 o
-13 1 8 558.28 162.00 327.37 <
13 1 -8 560.84 273.37 209.24 <
-12 1 8 18.86 884.23 367.87 o
12 1 -8 19.14 519.74 219.37 o
-11 1 8 1399.04 695.23 337.49 o
11 1 -8 1398.36 627.74 199.12 o
-10 1 8 466.76 641.23 323.99 <
10 1 -8 478.32 735.73 209.24 o
-9 1 8 727.97 199.12 394.87 <
9 1 -8 740.29 374.62 192.37 <
-8 1 8 2071.44 1265.60 469.11 o
8 1 -8 2078.56 1505.22 182.25 o
-7 1 8 22.94 546.74 431.99 <
7 1 -8 23.71 367.87 178.87 o
-6 1 8 3051.46 2085.70 418.49 o
6 1 -8 3035.19 1788.71 185.62 o
-5 1 8 1520.97 1093.47 384.74 o
5 1 -8 1539.85 1009.10 199.12 o
-4 1 8 457.52 931.48 394.87 o
-3 1 8 1965.41 1846.08 209.24 o
-2 1 8 323.31 226.12 205.87 <
-1 1 8 608.03 1417.47 205.87 o
0 1 8 731.43 377.99 199.12 <
1 1 8 304.63 455.61 219.37 o
2 1 8 1461.55 1225.10 239.62 o
3 1 8 5.51 239.62 269.99 <
4 1 8 703.42 715.48 307.12 o
5 1 8 720.76 340.87 236.24 <
6 1 8 207.12 337.49 212.62 <
7 1 8 1696.34 566.99 212.62 o
8 1 8 87.67 404.99 340.87 <
9 1 8 502.02 101.25 367.87 <
-9 1 -8 511.69 -23.62 317.24 <
10 1 8 415.48 -141.75 361.12 <
-10 1 -8 421.60 323.99 219.37 <
-14 2 8 1241.82 644.61 327.37 <
14 2 -8 1373.92 1218.35 283.49 o
-13 2 8 1171.36 1329.72 330.74 o
13 2 -8 1096.64 914.60 242.99 o
-12 2 8 5178.71 5396.50 337.49 o
12 2 -8 5282.38 7401.20 232.87 o
-11 2 8 49.18 128.25 330.74 <
11 2 -8 166.97 13.50 212.62 <
-10 2 8 3158.21 4384.02 347.62 o
10 2 -8 3282.11 5717.12 219.37 o
-9 2 8 1473.64 1920.33 384.74 o
9 2 -8 1804.96 2281.45 219.37 o
-8 2 8 889.31 1221.72 425.24 o
8 2 -8 640.83 1457.97 182.25 o
-7 2 8 5381.01 8700.55 526.49 o
7 2 -8 4334.04 9308.04 222.74 o
-6 2 8 145.87 229.49 499.49 <
6 2 -8 436.09 37.12 178.87 <
-5 2 8 1576.01 3776.54 448.86 o
5 2 -8 904.16 3641.54 212.62 o
-4 2 8 930.81 1849.46 296.99 o
-3 2 8 311.29 718.86 185.62 o
-2 2 8 5140.96 5464.00 182.25 o
-1 2 8 238.00 205.87 151.87 <
0 2 8 1284.04 1596.34 155.25 o
1 2 8 1600.92 2423.19 158.62 o
2 2 8 9.09 97.87 151.87 <
3 2 8 5748.44 6746.47 209.24 o
4 2 8 1034.76 1083.35 178.87 o
5 2 8 1340.75 1653.71 185.62 o
6 2 8 1924.14 4060.03 256.49 o
7 2 8 77.64 131.62 229.49 <
8 2 8 4525.25 5366.13 276.74 o
9 2 8 1752.20 600.74 502.86 <
-9 2 -8 1510.47 1123.85 377.99 o
10 2 8 735.98 388.12 431.99 <
-10 2 -8 429.67 681.73 236.24 o
-13 3 8 406.37 128.25 361.12 <
13 3 -8 396.71 239.62 242.99 <
-12 3 8 62.94 317.24 421.86 <
12 3 -8 62.03 739.11 222.74 o
-11 3 8 380.59 -124.87 404.99 <
11 3 -8 360.49 212.62 209.24 <
-10 3 8 565.70 104.62 350.99 <
10 3 -8 561.11 371.24 205.87 <
-9 3 8 1005.59 728.98 307.12 o
9 3 -8 1001.11 617.61 195.74 o
-8 3 8 1987.63 971.98 293.62 o
8 3 -8 1970.62 1059.73 202.49 o
-7 3 8 4.34 246.37 273.37 <
7 3 -8 6.37 391.49 202.49 <
-6 3 8 1290.55 1181.22 259.87 o
6 3 -8 1275.03 1154.22 205.87 o
-5 3 8 1099.59 752.61 293.62 o
5 3 -8 1078.92 982.10 253.12 o
-4 3 8 323.62 1015.85 273.37 o
-3 3 8 2102.86 931.48 175.50 o
-2 3 8 145.99 118.12 162.00 <
-1 3 8 1060.40 796.48 175.50 o
0 3 8 400.56 607.49 162.00 o
1 3 8 79.29 678.36 172.12 o
2 3 8 287.74 766.11 189.00 o
3 3 8 127.72 229.49 185.62 <
4 3 8 1676.35 550.11 189.00 o
5 3 8 839.96 583.86 168.75 o
6 3 8 149.01 104.62 192.37 <
7 3 8 525.40 658.11 195.74 o
8 3 8 123.31 215.99 246.37 <
9 3 8 582.29 222.74 249.74 <
-12 4 8 7199.53 7100.84 330.74 o
12 4 -8 6757.10 7488.95 259.87 o
-11 4 8 1234.42 1069.85 276.74 o
11 4 -8 1191.97 830.23 226.12 o
-10 4 8 6285.20 5700.24 273.37 o
10 4 -8 6720.52 6601.35 239.62 o
-9 4 8 7438.19 7303.33 276.74 o
9 4 -8 7317.44 7519.33 249.74 o
-8 4 8 795.91 1275.72 232.87 o
8 4 -8 1094.54 1289.22 232.87 o
-7 4 8 20544.30 26074.60 313.87 o
7 4 -8 20519.10 25794.50 290.24 o
-6 4 8 3613.51 3796.79 307.12 o
6 4 -8 3498.82 3425.55 266.62 o
-5 4 8 16830.80 18305.60 280.12 o
-4 4 8 18617.00 20614.00 212.62 o
-3 4 8 2000.24 3256.80 178.87 o
-2 4 8 32814.70 42331.70 246.37 o
-1 4 8 6844.68 6344.85 185.62 o
0 4 8 17793.20 17245.90 202.49 o
1 4 8 19976.30 20698.40 205.87 o
2 4 8 1269.22 2315.20 182.25 o
3 4 8 20046.10 26283.90 229.49 o
4 4 8 4409.87 3422.17 192.37 o
5 4 8 7062.34 6898.34 185.62 o
6 4 8 7190.17 7320.21 195.74 o
7 4 8 660.90 715.48 202.49 o
8 4 8 5436.56 7674.57 209.24 o
-10 5 8 191.44 367.87 232.87 <
10 5 -8 204.14 334.12 249.74 <
-9 5 8 687.28 219.37 226.12 <
9 5 -8 716.02 411.74 215.99 <
-8 5 8 841.80 1214.97 222.74 o
8 5 -8 863.31 890.98 226.12 o
-7 5 8 25.00 239.62 253.12 <
7 5 -8 32.45 259.87 253.12 <
-6 5 8 2085.66 1346.59 249.74 o
6 5 -8 2070.20 1218.35 222.74 o
-5 5 8 609.26 671.61 232.87 o
-4 5 8 297.65 388.12 165.37 o
-3 5 8 508.06 242.99 165.37 <
-2 5 8 156.32 -23.62 158.62 <
-1 5 8 89.59 236.24 165.37 <
0 5 8 251.65 347.62 168.75 o
1 5 8 192.24 236.24 168.75 <
2 5 8 1715.02 1191.35 182.25 o
3 5 8 10.78 -40.50 162.00 <
4 5 8 603.47 685.11 165.37 o
5 5 8 654.29 158.62 189.00 <
6 5 8 130.75 -84.37 192.37 <
-8 6 8 163.27 374.62 222.74 <
8 6 -8 63.29 -16.87 246.37 <
-7 6 8 1471.49 2669.56 253.12 o
7 6 -8 827.97 2318.57 293.62 o
-6 6 8 131.09 647.98 246.37 o
-5 6 8 1296.93 1623.34 168.75 o
-4 6 8 257.07 620.99 165.37 o
-3 6 8 119.33 354.37 162.00 o
-2 6 8 1231.53 1225.10 162.00 o
-1 6 8 95.40 725.61 165.37 o
0 6 8 1222.62 809.98 162.00 o
1 6 8 759.99 1046.23 158.62 o
2 6 8 73.11 -6.75 178.87 <
3 6 8 1436.51 1974.33 168.75 o
4 6 8 424.39 472.49 172.12 o
-3 7 8 251.89 -165.37 168.75 <
-2 7 8 103.61 155.25 158.62 <
-1 7 8 198.98 118.12 168.75 <
0 7 8 252.94 67.50 172.12 <
-12 1 9 4195.28 2413.07 350.99 o
12 1 -9 4198.96 2659.44 236.24 o
-11 1 9 24.41 -398.24 391.49 <
11 1 -9 16.64 -6.75 199.12 <
-10 1 9 3990.43 3523.42 398.24 o
10 1 -9 4015.92 4805.89 229.49 o
-9 1 9 1942.87 1623.34 401.62 o
9 1 -9 1887.32 1457.97 199.12 o
-8 1 9 2264.40 1427.59 435.36 o
8 1 -9 2076.51 1535.59 195.74 o
-7 1 9 7513.83 6084.98 533.24 o
7 1 -9 7310.88 6196.36 205.87 o
-6 1 9 7.85 739.11 519.74 <
6 1 -9 6.55 543.36 192.37 o
-5 1 9 4942.37 6111.98 428.61 o
-4 1 9 2927.03 2544.69 300.37 o
-3 1 9 1625.78 1403.97 317.24 o
-2 1 9 8438.80 7715.07 337.49 o
-1 1 9 46.20 408.37 330.74 <
0 1 9 4116.61 4745.14 388.12 o
1 1 9 2856.06 2372.57 431.99 o
2 1 9 821.88 647.98 523.11 <
3 1 9 6709.61 7276.33 398.24 o
4 1 9 153.02 340.87 317.24 <
5 1 9 2530.67 2642.56 296.99 o
6 1 9 1915.27 2207.20 259.87 o
7 1 9 328.76 64.12 239.62 <
-11 2 9 18.40 654.73 364.49 <
11 2 -9 17.29 155.25 202.49 <
-10 2 9 6.37 145.12 408.37 <
10 2 -9 6.23 87.75 199.12 <
-9 2 9 144.11 192.37 485.99 <
9 2 -9 146.55 229.49 199.12 <
-8 2 9 71.57 -317.24 482.61 <
8 2 -9 65.37 209.24 189.00 <
-7 2 9 38.12 -229.49 458.99 <
7 2 -9 38.00 37.12 195.74 <
-6 2 9 40.89 502.86 421.86 <
6 2 -9 39.38 286.87 202.49 <
-5 2 9 55.29 199.12 300.37 <
-4 2 9 76.53 310.49 202.49 <
-3 2 9 49.14 212.62 202.49 <
-2 2 9 1.64 209.24 178.87 <
-1 2 9 41.41 135.00 192.37 <
0 2 9 25.60 455.61 178.87 o
1 2 9 21.89 60.75 192.37 <
2 2 9 15.98 -40.50 195.74 <
3 2 9 7.96 -3.37 202.49 <
4 2 9 163.15 6.75 209.24 <
5 2 9 3.29 -43.87 199.12 <
6 2 9 35.78 -60.75 229.49 <
7 2 9 16.17 -16.87 226.12 <
-10 3 9 5017.34 3837.29 364.49 o
10 3 -9 5465.49 4981.39 226.12 o
-9 3 9 2880.26 2089.08 323.99 o
9 3 -9 2741.12 1697.59 219.37 o
-8 3 9 2384.18 1049.60 293.62 o
8 3 -9 2707.82 1268.97 215.99 o
-7 3 9 11096.00 11677.20 337.49 o
7 3 -9 11335.50 9294.54 246.37 o
-6 3 9 155.73 759.36 323.99 o
6 3 -9 138.07 458.99 236.24 <
-5 3 9 10330.80 10816.60 222.74 o
-4 3 9 5561.78 5933.11 209.24 o
-3 3 9 3411.02 1549.09 168.75 o
-2 3 9 15607.80 15463.90 199.12 o
-1 3 9 587.45 860.60 185.62 o
0 3 9 9914.21 9652.28 192.37 o
1 3 9 5791.48 5406.62 192.37 o
2 3 9 1988.80 843.73 178.87 o
3 3 9 9902.96 11599.60 212.62 o
4 3 9 747.40 577.11 212.62 o
5 3 9 4170.30 4137.65 222.74 o
6 3 9 2532.87 2618.94 215.99 o
-9 4 9 309.61 253.12 256.49 <
9 4 -9 318.90 189.00 232.87 <
-8 4 9 182.06 529.86 266.62 <
8 4 -9 180.84 384.74 239.62 <
-7 4 9 31.23 -40.50 263.24 <
7 4 -9 31.19 465.74 273.37 <
-6 4 9 736.68 924.73 300.37 o
-5 4 9 13.08 209.24 175.50 <
-4 4 9 105.63 -128.25 182.25 <
-3 4 9 37.93 145.12 178.87 <
-2 4 9 47.38 -57.37 165.37 <
-1 4 9 9.52 307.12 178.87 <
0 4 9 19.80 162.00 178.87 <
1 4 9 158.27 438.74 192.37 o
2 4 9 301.49 13.50 168.75 <
3 4 9 61.92 300.37 195.74 <
4 4 9 194.39 455.61 202.49 o
5 4 9 142.72 300.37 209.24 <
-7 5 9 2329.90 3570.67 273.37 o
-6 5 9 134.89 -293.62 175.50 <
-5 5 9 1928.47 1920.33 195.74 o
-4 5 9 358.11 131.62 172.12 <
-3 5 9 399.65 209.24 182.25 <
-2 5 9 1787.59 2264.57 192.37 o
-1 5 9 52.38 138.37 175.50 <
0 5 9 1635.81 1687.46 178.87 o
1 5 9 376.26 728.98 175.50 o
2 5 9 436.10 340.87 189.00 <
-8 0 10 1904.17 2585.19 718.86 o
8 0 -10 1539.74 3769.79 296.99 o
-7 0 10 1401.20 1677.34 658.11 o
7 0 -10 1473.53 2065.45 307.12 o
-6 0 10 397.16 452.24 357.74 <
-5 0 10 1559.57 4070.16 347.62 o
-4 0 10 244.30 320.62 317.24 <
-3 0 10 1513.42 2321.95 323.99 o
-2 0 10 1447.94 2294.95 303.74 o
-1 0 10 216.58 111.37 313.87 <
0 0 10 1521.61 3482.92 323.99 o
1 0 10 574.50 641.23 327.37 <
2 0 10 1026.20 1390.47 337.49 o
3 0 10 2424.94 2811.31 381.37 o
-8 1 10 399.56 33.75 506.24 <
8 1 -10 399.50 340.87 199.12 <
-7 1 10 258.52 -94.50 519.74 <
7 1 -10 255.59 57.37 296.99 <
-6 1 10 1079.33 749.23 303.74 o
-5 1 10 162.38 485.99 364.49 <
-4 1 10 679.37 644.61 516.36 <
-3 1 10 816.77 418.49 556.86 <
-2 1 10 107.40 317.24 745.86 <
-1 1 10 704.65 286.87 246.37 <
0 1 10 194.30 16.87 236.24 <
1 1 10 340.30 239.62 256.49 <
2 1 10 374.23 114.75 266.62 <
3 1 10 130.99 104.62 256.49 <
-7 2 10 7777.98 6581.10 425.24 o
-6 2 10 943.34 836.98 249.74 o
-5 2 10 11990.40 12615.50 219.37 o
-4 2 10 3092.71 3017.18 226.12 o
-3 2 10 7532.89 7765.70 232.87 o
-2 2 10 12655.40 11194.60 232.87 o
-1 2 10 916.26 1282.47 209.24 o
0 2 10 12949.40 13536.80 242.99 o
1 2 10 3499.36 2359.07 219.37 o
2 2 10 4877.50 5089.38 232.87 o
-5 3 10 31.53 175.50 202.49 <
-4 3 10 632.62 577.11 212.62 o
-3 3 10 495.47 354.37 209.24 <
-2 3 10 62.60 377.99 175.50 o
-1 3 10 520.11 431.99 209.24 o
0 3 10 97.94 475.86 202.49 o
loop_
_twin_individual_id
_twin_individual_mass_fraction_refined
_twin_individual_twin_matrix_11
_twin_individual_twin_matrix_12
_twin_individual_twin_matrix_13
_twin_individual_twin_matrix_21
_twin_individual_twin_matrix_22
_twin_individual_twin_matrix_23
_twin_individual_twin_matrix_31
_twin_individual_twin_matrix_32
_twin_individual_twin_matrix_33
1 0.43(3) 1 0 0 0 1 0 0 0 1
2 0.25(3) -1 0 0 0 -1 0 0 0 -1
3 0.323(4) 1 0 0 0 -1 0 0.5 0 -1
loop_
_restr_distance_atom_site_label_1
_restr_distance_atom_site_label_2
_restr_distance_target
_restr_distance_target_weight_param
N1 C1 1.5 0.001
N2 C2 1.5 0.001
C2 C3 1.5 0.001
C6 C7 1.33 0.001
C7 C3 1.33 0.001
C3 C4 1.33 0.001
C4 N3 1.33 0.001
N3 C5 1.33 0.001
C5 C6 1.33 0.001
loop_
_restr_angle_atom_site_label_1
_restr_angle_atom_site_label_2
_restr_angle_atom_site_label_3
_restr_angle_target
_restr_angle_target_weight_param
N2 C2 C3 109.47 0.01
C2 C3 C4 120 0.01
C2 C3 C7 120 0.01
C3 C4 N3 120 0.01
C4 N3 C5 120 0.01
N3 C5 C6 120 0.01
C5 C6 C7 120 0.01
C6 C7 C3 120 0.01
C7 C3 C4 120 0.01
loop_
_restr_torsion_atom_site_label_1
_restr_torsion_atom_site_label_2
_restr_torsion_atom_site_label_3
_restr_torsion_atom_site_label_4
_restr_torsion_angle_target
_restr_torsion_weight_param
C4 C2 C3 C7 180 0.01
C3 C4 N3 C5 0 0.01
C4 N3 C5 C6 0 0.01
N3 C5 C6 C7 0 0.01
C5 C6 C7 C3 0 0.01
C6 C7 C3 C4 0 0.01
C7 C3 C4 N3 0 0.01
loop_
_twin_refln_datum_id
_twin_refln_individual_id
_twin_refln_index_h
_twin_refln_index_k
_twin_refln_index_l
_twin_refln_f_squared_calc
_twin_refln_f_squared_meas
_twin_refln_f_squared_sigma
_twin_refln_include_status
1 3 2 0 0 106682.00 154756.00 2069.42 o
1 2 -2 0 0 106682.00 154756.00 2069.42 o
1 1 2 0 0 106682.00 154756.00 2069.42 o
2 3 -2 0 0 107581.00 145100.00 2404.22 o
2 2 2 0 0 107581.00 145100.00 2404.22 o
2 1 -2 0 0 107581.00 145100.00 2404.22 o
3 3 3 0 0 93205.00 125238.00 1634.45 o
3 2 -3 0 0 93205.00 125238.00 1634.45 o
3 1 3 0 0 93205.00 125238.00 1634.45 o
4 3 -3 0 0 92318.70 108886.00 1666.08 o
4 2 3 0 0 92318.70 108886.00 1666.08 o
4 1 -3 0 0 92318.70 108886.00 1666.08 o
5 3 4 0 0 8275.15 6577.34 877.86 o
5 2 -4 0 0 8275.15 6577.34 877.86 o
5 1 4 0 0 8275.15 6577.34 877.86 o
6 3 -4 0 0 7916.83 3949.04 875.22 o
6 2 4 0 0 7916.83 3949.04 875.22 o
6 1 -4 0 0 7916.83 3949.04 875.22 o
7 3 6 0 0 24633.60 28220.60 614.24 o
7 2 -6 0 0 24633.60 28220.60 614.24 o
7 1 6 0 0 24633.60 28220.60 614.24 o
8 3 -6 0 0 24405.50 22995.70 614.24 o
8 2 6 0 0 24405.50 22995.70 614.24 o
8 1 -6 0 0 24405.50 22995.70 614.24 o
9 3 7 0 0 50774.70 65088.00 606.33 o
9 2 -7 0 0 50774.70 65088.00 606.33 o
9 1 7 0 0 50774.70 65088.00 606.33 o
10 3 -7 0 0 52135.10 54638.10 601.06 o
10 2 7 0 0 52135.10 54638.10 601.06 o
10 1 -7 0 0 52135.10 54638.10 601.06 o
11 3 8 0 0 5583.34 7080.86 392.80 o
11 2 -8 0 0 5583.34 7080.86 392.80 o
11 1 8 0 0 5583.34 7080.86 392.80 o
12 3 -8 0 0 6285.27 6756.60 390.16 o
12 2 8 0 0 6285.27 6756.60 390.16 o
12 1 -8 0 0 6285.27 6756.60 390.16 o
13 3 9 0 0 1117.57 674.87 229.35 o
13 2 -9 0 0 1117.57 674.87 229.35 o
13 1 9 0 0 1117.57 674.87 229.35 o
14 3 -9 0 0 1144.64 250.44 321.62 <
14 2 9 0 0 1144.64 250.44 321.62 <
14 1 -9 0 0 1144.64 250.44 321.62 <
15 3 10 0 0 114434.00 136970.00 590.51 o
15 2 -10 0 0 114434.00 136970.00 590.51 o
15 1 10 0 0 114434.00 136970.00 590.51 o
16 3 -10 0 0 113822.00 126923.00 585.24 o
16 2 10 0 0 113822.00 126923.00 585.24 o
16 1 -10 0 0 113822.00 126923.00 585.24 o
17 3 11 0 0 5459.52 4202.12 284.71 o
17 2 -11 0 0 5459.52 4202.12 284.71 o
17 1 11 0 0 5459.52 4202.12 284.71 o
18 3 -11 0 0 5383.40 4389.29 287.35 o
18 2 11 0 0 5383.40 4389.29 287.35 o
18 1 -11 0 0 5383.40 4389.29 287.35 o
19 3 12 0 0 10611.50 11902.50 282.07 o
19 2 -12 0 0 10611.50 11902.50 282.07 o
19 1 12 0 0 10611.50 11902.50 282.07 o
20 3 -12 0 0 11041.20 10423.60 287.35 o
20 2 12 0 0 11041.20 10423.60 287.35 o
20 1 -12 0 0 11041.20 10423.60 287.35 o
21 3 13 0 0 477.70 363.80 255.71 <
21 2 -13 0 0 477.70 363.80 255.71 <
21 1 13 0 0 477.70 363.80 255.71 <
22 3 -13 0 0 1145.27 485.06 253.08 <
22 2 13 0 0 1145.27 485.06 253.08 <
22 1 -13 0 0 1145.27 485.06 253.08 <
23 3 14 0 0 345.80 508.79 245.17 o
23 2 -14 0 0 345.80 508.79 245.17 o
23 1 14 0 0 345.80 508.79 245.17 o
24 3 -14 0 0 344.86 485.06 224.08 o
24 2 14 0 0 344.86 485.06 224.08 o
24 1 -14 0 0 344.86 485.06 224.08 o
25 3 15 0 0 17938.90 21348.00 313.71 o
25 2 -15 0 0 17938.90 21348.00 313.71 o
25 1 15 0 0 17938.90 21348.00 313.71 o
26 3 -15 0 0 17645.00 21110.80 284.71 o
26 2 15 0 0 17645.00 21110.80 284.71 o
26 1 -15 0 0 17645.00 21110.80 284.71 o
27 3 16 0 0 2803.62 2427.95 234.62 o
27 2 -16 0 0 2803.62 2427.95 234.62 o
27 1 16 0 0 2803.62 2427.95 234.62 o
28 3 -16 0 0 2737.35 2253.96 226.71 o
28 2 16 0 0 2737.35 2253.96 226.71 o
28 1 -16 0 0 2737.35 2253.96 226.71 o
29 3 17 0 0 1793.19 1449.92 237.26 o
29 2 -17 0 0 1793.19 1449.92 237.26 o
29 1 17 0 0 1793.19 1449.92 237.26 o
30 3 -17 0 0 1869.79 930.58 250.44 o
30 2 17 0 0 1869.79 930.58 250.44 o
30 1 -17 0 0 1869.79 930.58 250.44 o
31 3 18 0 0 194.16 195.08 231.99 <
31 2 -18 0 0 194.16 195.08 231.99 <
31 1 18 0 0 194.16 195.08 231.99 <
32 3 -18 0 0 412.57 603.69 229.35 o
32 2 18 0 0 412.57 603.69 229.35 o
32 1 -18 0 0 412.57 603.69 229.35 o
33 3 19 0 0 50.08 305.80 231.99 <
33 2 -19 0 0 50.08 305.80 231.99 <
33 1 19 0 0 50.08 305.80 231.99 <
34 3 -19 0 0 44.89 -79.09 229.35 <
34 2 19 0 0 44.89 -79.09 229.35 <
34 1 -19 0 0 44.89 -79.09 229.35 <
35 3 0 -1 0 42.84 440.25 363.80 <
35 2 0 -1 0 42.84 440.25 363.80 <
35 1 0 1 0 42.84 440.25 363.80 <
36 3 1 -1 0 131.43 424.43 245.17 <
36 2 -1 -1 0 131.43 424.43 245.17 <
36 1 1 1 0 131.43 424.43 245.17 <
37 3 -1 -1 0 137.14 371.71 255.71 <
37 2 1 -1 0 137.14 371.71 255.71 <
37 1 -1 1 0 137.14 371.71 255.71 <
38 3 2 -1 0 122.65 405.98 253.08 <
38 2 -2 -1 0 122.65 405.98 253.08 <
38 1 2 1 0 122.65 405.98 253.08 <
39 3 -2 -1 0 129.73 255.71 258.35 <
39 2 2 -1 0 129.73 255.71 258.35 <
39 1 -2 1 0 129.73 255.71 258.35 <
40 3 3 -1 0 2252.00 1265.38 258.35 o
40 2 -3 -1 0 2252.00 1265.38 258.35 o
40 1 3 1 0 2252.00 1265.38 258.35 o
41 3 -3 -1 0 2261.22 1534.27 266.26 o
41 2 3 -1 0 2261.22 1534.27 266.26 o
41 1 -3 1 0 2261.22 1534.27 266.26 o
42 3 4 -1 0 40599.30 47551.90 379.61 o
42 2 -4 -1 0 40599.30 47551.90 379.61 o
42 1 4 1 0 40599.30 47551.90 379.61 o
43 3 -4 -1 0 40614.40 48300.60 387.52 o
43 2 4 -1 0 40614.40 48300.60 387.52 o
43 1 -4 1 0 40614.40 48300.60 387.52 o
44 3 5 -1 0 926.61 205.62 266.26 <
44 2 -5 -1 0 926.61 205.62 266.26 <
44 1 5 1 0 926.61 205.62 266.26 <
45 3 -5 -1 0 913.91 503.52 279.44 <
45 2 5 -1 0 913.91 503.52 279.44 <
45 1 -5 1 0 913.91 503.52 279.44 <
46 3 6 -1 0 7490.23 8509.68 316.35 o
46 2 -6 -1 0 7490.23 8509.68 316.35 o
46 1 6 1 0 7490.23 8509.68 316.35 o
47 3 -6 -1 0 7499.86 7858.54 292.62 o
47 2 6 -1 0 7499.86 7858.54 292.62 o
47 1 -6 1 0 7499.86 7858.54 292.62 o
48 3 7 -1 0 4366.12 5153.79 321.62 o
48 2 -7 -1 0 4366.12 5153.79 321.62 o
48 1 7 1 0 4366.12 5153.79 321.62 o
49 3 -7 -1 0 4343.38 4826.90 332.16 o
49 2 7 -1 0 4343.38 4826.90 332.16 o
49 1 -7 1 0 4343.38 4826.90 332.16 o
50 3 8 -1 0 683.81 205.62 334.80 <
50 2 -8 -1 0 683.81 205.62 334.80 <
50 1 8 1 0 683.81 205.62 334.80 <
51 3 -8 -1 0 688.74 453.43 337.43 <
51 2 8 -1 0 688.74 453.43 337.43 <
51 1 -8 1 0 688.74 453.43 337.43 <
52 3 9 -1 0 20751.50 23641.50 350.62 o
52 2 -9 -1 0 20751.50 23641.50 350.62 o
52 1 9 1 0 20751.50 23641.50 350.62 o
53 3 -9 -1 0 20745.40 24068.60 345.34 o
53 2 9 -1 0 20745.40 24068.60 345.34 o
53 1 -9 1 0 20745.40 24068.60 345.34 o
54 3 10 -1 0 1282.49 1405.10 253.08 o
54 2 -10 -1 0 1282.49 1405.10 253.08 o
54 1 10 1 0 1282.49 1405.10 253.08 o
55 3 -10 -1 0 1267.84 1101.94 245.17 o
55 2 10 -1 0 1267.84 1101.94 245.17 o
55 1 -10 1 0 1267.84 1101.94 245.17 o
56 3 11 -1 0 2978.00 2391.04 221.44 o
56 2 -11 -1 0 2978.00 2391.04 221.44 o
56 1 11 1 0 2978.00 2391.04 221.44 o
57 3 -11 -1 0 2985.60 1950.79 208.26 o
57 2 11 -1 0 2985.60 1950.79 208.26 o
57 1 -11 1 0 2985.60 1950.79 208.26 o
58 3 12 -1 0 251.04 -29.00 197.72 <
58 2 -12 -1 0 251.04 -29.00 197.72 <
58 1 12 1 0 251.04 -29.00 197.72 <
59 3 -12 -1 0 252.53 379.61 187.17 o
59 2 12 -1 0 252.53 379.61 187.17 o
59 1 -12 1 0 252.53 379.61 187.17 o
60 3 13 -1 0 86.75 221.44 189.81 <
60 2 -13 -1 0 86.75 221.44 189.81 <
60 1 13 1 0 86.75 221.44 189.81 <
61 3 -13 -1 0 90.18 231.99 179.26 <
61 2 13 -1 0 90.18 231.99 179.26 <
61 1 -13 1 0 90.18 231.99 179.26 <
62 3 14 -1 0 2810.19 2710.02 184.54 o
62 2 -14 -1 0 2810.19 2710.02 184.54 o
62 1 14 1 0 2810.19 2710.02 184.54 o
63 3 -14 -1 0 2803.68 1945.52 179.26 o
63 2 14 -1 0 2803.68 1945.52 179.26 o
63 1 -14 1 0 2803.68 1945.52 179.26 o
64 3 15 -1 0 198.02 450.79 181.90 o
64 2 -15 -1 0 198.02 450.79 181.90 o
64 1 15 1 0 198.02 450.79 181.90 o
65 3 -15 -1 0 194.31 15.82 166.08 <
65 2 15 -1 0 194.31 15.82 166.08 <
65 1 -15 1 0 194.31 15.82 166.08 <
66 3 16 -1 0 499.80 429.70 168.72 o
66 2 -16 -1 0 499.80 429.70 168.72 o
66 1 16 1 0 499.80 429.70 168.72 o
67 3 -16 -1 0 504.04 187.17 166.08 <
67 2 16 -1 0 504.04 187.17 166.08 <
67 1 -16 1 0 504.04 187.17 166.08 <
68 3 17 -1 0 151.13 84.36 168.72 <
68 2 -17 -1 0 151.13 84.36 168.72 <
68 1 17 1 0 151.13 84.36 168.72 <
69 3 -17 -1 0 156.47 387.52 171.35 o
69 2 17 -1 0 156.47 387.52 171.35 o
69 1 -17 1 0 156.47 387.52 171.35 o
70 3 18 -1 0 31.06 18.45 158.17 <
70 2 -18 -1 0 31.06 18.45 158.17 <
70 1 18 1 0 31.06 18.45 158.17 <
71 3 -18 -1 0 32.36 173.99 163.45 <
71 2 18 -1 0 32.36 173.99 163.45 <
71 1 -18 1 0 32.36 173.99 163.45 <
72 3 19 -1 0 156.51 200.35 171.35 <
72 2 -19 -1 0 156.51 200.35 171.35 <
72 1 19 1 0 156.51 200.35 171.35 <
73 3 -19 -1 0 155.61 231.99 168.72 <
73 2 19 -1 0 155.61 231.99 168.72 <
73 1 -19 1 0 155.61 231.99 168.72 <
74 3 0 -2 0 35746.00 52700.50 326.89 o
74 2 0 -2 0 35746.00 52700.50 326.89 o
74 1 0 2 0 35746.00 52700.50 326.89 o
75 3 1 -2 0 3367.06 3034.28 187.17 o
75 2 -1 -2 0 3367.06 3034.28 187.17 o
75 1 1 2 0 3367.06 3034.28 187.17 o
76 3 -1 -2 0 3162.37 3073.82 189.81 o
76 2 1 -2 0 3162.37 3073.82 189.81 o
76 1 -1 2 0 3162.37 3073.82 189.81 o
77 3 2 -2 0 22369.30 20522.90 234.62 o
77 2 -2 -2 0 22369.30 20522.90 234.62 o
77 1 2 2 0 22369.30 20522.90 234.62 o
78 3 -2 -2 0 22290.30 20588.80 234.62 o
78 2 2 -2 0 22290.30 20588.80 234.62 o
78 1 -2 2 0 22290.30 20588.80 234.62 o
79 3 3 -2 0 25187.40 31573.90 247.80 o
79 2 -3 -2 0 25187.40 31573.90 247.80 o
79 1 3 2 0 25187.40 31573.90 247.80 o
80 3 -3 -2 0 25506.60 25421.00 239.90 o
80 2 3 -2 0 25506.60 25421.00 239.90 o
80 1 -3 2 0 25506.60 25421.00 239.90 o
81 3 4 -2 0 2737.18 2348.86 171.35 o
81 2 -4 -2 0 2737.18 2348.86 171.35 o
81 1 4 2 0 2737.18 2348.86 171.35 o
82 3 -4 -2 0 2688.26 2657.30 176.63 o
82 2 4 -2 0 2688.26 2657.30 176.63 o
82 1 -4 2 0 2688.26 2657.30 176.63 o
83 3 5 -2 0 46924.60 53557.20 284.71 o
83 2 -5 -2 0 46924.60 53557.20 284.71 o
83 1 5 2 0 46924.60 53557.20 284.71 o
84 3 -5 -2 0 45916.90 53098.50 287.35 o
84 2 5 -2 0 45916.90 53098.50 287.35 o
84 1 -5 2 0 45916.90 53098.50 287.35 o
85 3 6 -2 0 2736.15 1895.43 181.90 o
85 2 -6 -2 0 2736.15 1895.43 181.90 o
85 1 6 2 0 2736.15 1895.43 181.90 o
86 3 -6 -2 0 2805.28 1974.52 187.17 o
86 2 6 -2 0 2805.28 1974.52 187.17 o
86 1 -6 2 0 2805.28 1974.52 187.17 o
87 3 7 -2 0 281.15 606.33 179.26 o
87 2 -7 -2 0 281.15 606.33 179.26 o
87 1 7 2 0 281.15 606.33 179.26 o
88 3 -7 -2 0 484.82 521.97 187.17 o
88 2 7 -2 0 484.82 521.97 187.17 o
88 1 -7 2 0 484.82 521.97 187.17 o
89 3 8 -2 0 389.68 479.79 200.35 o
89 2 -8 -2 0 389.68 479.79 200.35 o
89 1 8 2 0 389.68 479.79 200.35 o
90 3 -8 -2 0 407.44 574.69 205.62 o
90 2 8 -2 0 407.44 574.69 205.62 o
90 1 -8 2 0 407.44 574.69 205.62 o
91 3 9 -2 0 2202.54 1758.35 224.08 o
91 2 -9 -2 0 2202.54 1758.35 224.08 o
91 1 9 2 0 2202.54 1758.35 224.08 o
92 3 -9 -2 0 2211.89 2087.88 234.62 o
92 2 9 -2 0 2211.89 2087.88 234.62 o
92 1 -9 2 0 2211.89 2087.88 234.62 o
93 3 10 -2 0 44382.00 48574.80 342.71 o
93 2 -10 -2 0 44382.00 48574.80 342.71 o
93 1 10 2 0 44382.00 48574.80 342.71 o
94 3 -10 -2 0 43218.10 50889.40 369.07 o
94 2 10 -2 0 43218.10 50889.40 369.07 o
94 1 -10 2 0 43218.10 50889.40 369.07 o
95 3 11 -2 0 8364.62 8920.93 284.71 o
95 2 -11 -2 0 8364.62 8920.93 284.71 o
95 1 11 2 0 8364.62 8920.93 284.71 o
96 3 -11 -2 0 8338.12 8449.05 284.71 o
96 2 11 -2 0 8338.12 8449.05 284.71 o
96 1 -11 2 0 8338.12 8449.05 284.71 o
97 3 12 -2 0 1064.10 790.86 271.53 o
97 2 -12 -2 0 1064.10 790.86 271.53 o
97 1 12 2 0 1064.10 790.86 271.53 o
98 3 -12 -2 0 1105.12 1202.11 260.98 o
98 2 12 -2 0 1105.12 1202.11 260.98 o
98 1 -12 2 0 1105.12 1202.11 260.98 o
99 3 13 -2 0 1136.51 1283.83 239.90 o
99 2 -13 -2 0 1136.51 1283.83 239.90 o
99 1 13 2 0 1136.51 1283.83 239.90 o
100 3 -13 -2 0 1299.72 1608.09 224.08 o
100 2 13 -2 0 1299.72 1608.09 224.08 o
100 1 -13 2 0 1299.72 1608.09 224.08 o
101 3 14 -2 0 921.18 1365.56 216.17 o
101 2 -14 -2 0 921.18 1365.56 216.17 o
101 1 14 2 0 921.18 1365.56 216.17 o
102 3 -14 -2 0 955.82 888.40 202.99 o
102 2 14 -2 0 955.82 888.40 202.99 o
102 1 -14 2 0 955.82 888.40 202.99 o
103 3 15 -2 0 15422.00 15271.60 229.35 o
103 2 -15 -2 0 15422.00 15271.60 229.35 o
103 1 15 2 0 15422.00 15271.60 229.35 o
104 3 -15 -2 0 14940.10 14370.00 224.08 o
104 2 15 -2 0 14940.10 14370.00 224.08 o
104 1 -15 2 0 14940.10 14370.00 224.08 o
105 3 16 -2 0 4017.84 4576.46 197.72 o
105 2 -16 -2 0 4017.84 4576.46 197.72 o
105 1 16 2 0 4017.84 4576.46 197.72 o
106 3 -16 -2 0 4018.70 3722.33 192.44 o
106 2 16 -2 0 4018.70 3722.33 192.44 o
106 1 -16 2 0 4018.70 3722.33 192.44 o
107 3 17 -2 0 740.80 369.07 187.17 <
107 2 -17 -2 0 740.80 369.07 187.17 <
107 1 17 2 0 740.80 369.07 187.17 <
108 3 -17 -2 0 773.78 316.35 179.26 <
108 2 17 -2 0 773.78 316.35 179.26 <
108 1 -17 2 0 773.78 316.35 179.26 <
109 3 18 -2 0 270.67 637.96 181.90 o
109 2 -18 -2 0 270.67 637.96 181.90 o
109 1 18 2 0 270.67 637.96 181.90 o
110 3 -18 -2 0 371.65 213.53 176.63 <
110 2 18 -2 0 371.65 213.53 176.63 <
110 1 -18 2 0 371.65 213.53 176.63 <
111 3 0 -3 0 1211.44 1320.74 160.81 o
111 2 0 -3 0 1211.44 1320.74 160.81 o
111 1 0 3 0 1211.44 1320.74 160.81 o
112 3 1 -3 0 22944.90 24964.90 197.72 o
112 2 -1 -3 0 22944.90 24964.90 197.72 o
112 1 1 3 0 22944.90 24964.90 197.72 o
113 3 -1 -3 0 22920.50 22402.50 282.07 o
113 2 1 -3 0 22920.50 22402.50 282.07 o
113 1 -1 3 0 22920.50 22402.50 282.07 o
114 3 2 -3 0 6244.52 5248.69 150.26 o
114 2 -2 -3 0 6244.52 5248.69 150.26 o
114 1 2 3 0 6244.52 5248.69 150.26 o
115 3 -2 -3 0 6301.31 5116.88 152.90 o
115 2 2 -3 0 6301.31 5116.88 152.90 o
115 1 -2 3 0 6301.31 5116.88 152.90 o
116 3 3 -3 0 1117.69 1257.47 150.26 o
116 2 -3 -3 0 1117.69 1257.47 150.26 o
116 1 3 3 0 1117.69 1257.47 150.26 o
117 3 -3 -3 0 1129.57 1265.38 152.90 o
117 2 3 -3 0 1129.57 1265.38 152.90 o
117 1 -3 3 0 1129.57 1265.38 152.90 o
118 3 4 -3 0 1297.81 1985.07 150.26 o
118 2 -4 -3 0 1297.81 1985.07 150.26 o
118 1 4 3 0 1297.81 1985.07 150.26 o
119 3 -4 -3 0 1349.71 1750.44 152.90 o
119 2 4 -3 0 1349.71 1750.44 152.90 o
119 1 -4 3 0 1349.71 1750.44 152.90 o
120 3 5 -3 0 1342.95 1360.28 147.63 o
120 2 -5 -3 0 1342.95 1360.28 147.63 o
120 1 5 3 0 1342.95 1360.28 147.63 o
121 3 -5 -3 0 1400.83 1320.74 150.26 o
121 2 5 -3 0 1400.83 1320.74 150.26 o
121 1 -5 3 0 1400.83 1320.74 150.26 o
122 3 6 -3 0 19913.50 24490.40 197.72 o
122 2 -6 -3 0 19913.50 24490.40 197.72 o
122 1 6 3 0 19913.50 24490.40 197.72 o
123 3 -6 -3 0 19947.30 21506.20 195.08 o
123 2 6 -3 0 19947.30 21506.20 195.08 o
123 1 -6 3 0 19947.30 21506.20 195.08 o
124 3 7 -3 0 21211.90 19241.70 189.81 o
124 2 -7 -3 0 21211.90 19241.70 189.81 o
124 1 7 3 0 21211.90 19241.70 189.81 o
125 3 -7 -3 0 21322.10 19813.70 195.08 o
125 2 7 -3 0 21322.10 19813.70 195.08 o
125 1 -7 3 0 21322.10 19813.70 195.08 o
126 3 8 -3 0 2070.61 1818.98 160.81 o
126 2 -8 -3 0 2070.61 1818.98 160.81 o
126 1 8 3 0 2070.61 1818.98 160.81 o
127 3 -8 -3 0 2036.54 1523.73 166.08 o
127 2 8 -3 0 2036.54 1523.73 166.08 o
127 1 -8 3 0 2036.54 1523.73 166.08 o
128 3 9 -3 0 221.36 65.91 171.35 <
128 2 -9 -3 0 221.36 65.91 171.35 <
128 1 9 3 0 221.36 65.91 171.35 <
129 3 -9 -3 0 207.23 326.89 171.35 <
129 2 9 -3 0 207.23 326.89 171.35 <
129 1 -9 3 0 207.23 326.89 171.35 <
130 3 10 -3 0 224.69 144.99 179.26 <
130 2 -10 -3 0 224.69 144.99 179.26 <
130 1 10 3 0 224.69 144.99 179.26 <
131 3 -10 -3 0 237.64 226.71 184.54 <
131 2 10 -3 0 237.64 226.71 184.54 <
131 1 -10 3 0 237.64 226.71 184.54 <
132 3 11 -3 0 3281.14 3271.54 208.26 o
132 2 -11 -3 0 3281.14 3271.54 208.26 o
132 1 11 3 0 3281.14 3271.54 208.26 o
133 3 -11 -3 0 3269.06 3084.36 210.90 o
133 2 11 -3 0 3269.06 3084.36 210.90 o
133 1 -11 3 0 3269.06 3084.36 210.90 o
134 3 12 -3 0 7956.62 8066.80 250.44 o
134 2 -12 -3 0 7956.62 8066.80 250.44 o
134 1 12 3 0 7956.62 8066.80 250.44 o
135 3 -12 -3 0 8044.13 7650.28 253.08 o
135 2 12 -3 0 8044.13 7650.28 253.08 o
135 1 -12 3 0 8044.13 7650.28 253.08 o
136 3 13 -3 0 757.63 421.79 253.08 <
136 2 -13 -3 0 757.63 421.79 253.08 <
136 1 13 3 0 757.63 421.79 253.08 <
137 3 -13 -3 0 736.02 318.98 266.26 <
137 2 13 -3 0 736.02 318.98 266.26 <
137 1 -13 3 0 736.02 318.98 266.26 <
138 3 14 -3 0 648.58 1297.02 305.80 o
138 2 -14 -3 0 648.58 1297.02 305.80 o
138 1 14 3 0 648.58 1297.02 305.80 o
139 3 -14 -3 0 624.07 1146.75 274.17 o
139 2 14 -3 0 624.07 1146.75 274.17 o
139 1 -14 3 0 624.07 1146.75 274.17 o
140 3 15 -3 0 235.44 10.54 271.53 <
140 2 -15 -3 0 235.44 10.54 271.53 <
140 1 15 3 0 235.44 10.54 271.53 <
141 3 -15 -3 0 221.58 572.06 237.26 o
141 2 15 -3 0 221.58 572.06 237.26 o
141 1 -15 3 0 221.58 572.06 237.26 o
142 3 16 -3 0 50.32 268.89 226.71 <
142 2 -16 -3 0 50.32 268.89 226.71 <
142 1 16 3 0 50.32 268.89 226.71 <
143 3 -16 -3 0 51.03 47.45 210.90 <
143 2 16 -3 0 51.03 47.45 210.90 <
143 1 -16 3 0 51.03 47.45 210.90 <
144 3 17 -3 0 1567.61 1138.84 213.53 o
144 2 -17 -3 0 1567.61 1138.84 213.53 o
144 1 17 3 0 1567.61 1138.84 213.53 o
145 3 -17 -3 0 1595.75 1610.72 187.17 o
145 2 17 -3 0 1595.75 1610.72 187.17 o
145 1 -17 3 0 1595.75 1610.72 187.17 o
146 3 18 -3 0 135.74 229.35 210.90 <
146 2 -18 -3 0 135.74 229.35 210.90 <
146 1 18 3 0 135.74 229.35 210.90 <
147 3 -18 -3 0 128.68 374.34 189.81 <
147 2 18 -3 0 128.68 374.34 189.81 <
147 1 -18 3 0 128.68 374.34 189.81 <
148 3 1 -4 0 19223.70 16713.60 139.72 o
148 2 -1 -4 0 19223.70 16713.60 139.72 o
148 1 1 4 0 19223.70 16713.60 139.72 o
149 3 -1 -4 0 19310.00 16028.20 239.90 o
149 2 1 -4 0 19310.00 16028.20 239.90 o
149 1 -1 4 0 19310.00 16028.20 239.90 o
150 3 2 -4 0 100856.00 83346.40 266.26 o
150 2 -2 -4 0 100856.00 83346.40 266.26 o
150 1 2 4 0 100856.00 83346.40 266.26 o
151 3 -2 -4 0 100777.00 81611.80 266.26 o
151 2 2 -4 0 100777.00 81611.80 266.26 o
151 1 -2 4 0 100777.00 81611.80 266.26 o
152 3 3 -4 0 93472.40 96991.40 279.44 o
152 2 -3 -4 0 93472.40 96991.40 279.44 o
152 1 3 4 0 93472.40 96991.40 279.44 o
153 3 -3 -4 0 93872.10 93893.90 284.71 o
153 2 3 -4 0 93872.10 93893.90 284.71 o
153 1 -3 4 0 93872.10 93893.90 284.71 o
154 3 4 -4 0 8639.76 6577.34 144.99 o
154 2 -4 -4 0 8639.76 6577.34 144.99 o
154 1 4 4 0 8639.76 6577.34 144.99 o
155 3 -4 -4 0 8525.56 6508.80 144.99 o
155 2 4 -4 0 8525.56 6508.80 144.99 o
155 1 -4 4 0 8525.56 6508.80 144.99 o
156 3 5 -4 0 152710.00 196129.00 371.70 o
156 2 -5 -4 0 152710.00 196129.00 371.70 o
156 1 5 4 0 152710.00 196129.00 371.70 o
157 3 -5 -4 0 152990.00 193108.00 369.07 o
157 2 5 -4 0 152990.00 193108.00 369.07 o
157 1 -5 4 0 152990.00 193108.00 369.07 o
158 3 6 -4 0 8001.07 7312.84 158.17 o
158 2 -6 -4 0 8001.07 7312.84 158.17 o
158 1 6 4 0 8001.07 7312.84 158.17 o
159 3 -6 -4 0 8165.14 6587.89 158.17 o
159 2 6 -4 0 8165.14 6587.89 158.17 o
159 1 -6 4 0 8165.14 6587.89 158.17 o
160 3 7 -4 0 29199.50 30709.20 200.35 o
160 2 -7 -4 0 29199.50 30709.20 200.35 o
160 1 7 4 0 29199.50 30709.20 200.35 o
161 3 -7 -4 0 29729.60 27477.20 187.17 o
161 2 7 -4 0 29729.60 27477.20 187.17 o
161 1 -7 4 0 29729.60 27477.20 187.17 o
162 3 8 -4 0 25798.20 27332.20 187.17 o
162 2 -8 -4 0 25798.20 27332.20 187.17 o
162 1 8 4 0 25798.20 27332.20 187.17 o
163 3 -8 -4 0 26146.00 29114.30 192.44 o
163 2 8 -4 0 26146.00 29114.30 192.44 o
163 1 -8 4 0 26146.00 29114.30 192.44 o
164 3 9 -4 0 1975.85 2369.95 152.90 o
164 2 -9 -4 0 1975.85 2369.95 152.90 o
164 1 9 4 0 1975.85 2369.95 152.90 o
165 3 -9 -4 0 1966.53 1739.90 150.26 o
165 2 9 -4 0 1966.53 1739.90 150.26 o
165 1 -9 4 0 1966.53 1739.90 150.26 o
166 3 10 -4 0 42757.00 46874.40 237.26 o
166 2 -10 -4 0 42757.00 46874.40 237.26 o
166 1 10 4 0 42757.00 46874.40 237.26 o
167 3 -10 -4 0 42849.70 45279.50 237.26 o
167 2 10 -4 0 42849.70 45279.50 237.26 o
167 1 -10 4 0 42849.70 45279.50 237.26 o
168 3 11 -4 0 626.35 200.35 171.35 <
168 2 -11 -4 0 626.35 200.35 171.35 <
168 1 11 4 0 626.35 200.35 171.35 <
169 3 -11 -4 0 760.60 767.14 184.54 o
169 2 11 -4 0 760.60 767.14 184.54 o
169 1 -11 4 0 760.60 767.14 184.54 o
170 3 12 -4 0 4951.73 4671.36 200.35 o
170 2 -12 -4 0 4951.73 4671.36 200.35 o
170 1 12 4 0 4951.73 4671.36 200.35 o
171 3 -12 -4 0 5255.37 4663.45 200.35 o
171 2 12 -4 0 5255.37 4663.45 200.35 o
171 1 -12 4 0 5255.37 4663.45 200.35 o
172 3 13 -4 0 3579.25 4246.93 216.17 o
172 2 -13 -4 0 3579.25 4246.93 216.17 o
172 1 13 4 0 3579.25 4246.93 216.17 o
173 3 -13 -4 0 3696.26 3985.95 221.44 o
173 2 13 -4 0 3696.26 3985.95 221.44 o
173 1 -13 4 0 3696.26 3985.95 221.44 o
174 3 14 -4 0 79.57 798.77 231.99 o
174 2 -14 -4 0 79.57 798.77 231.99 o
174 1 14 4 0 79.57 798.77 231.99 o
175 3 -14 -4 0 83.05 345.34 231.99 <
175 2 14 -4 0 83.05 345.34 231.99 <
175 1 -14 4 0 83.05 345.34 231.99 <
176 3 15 -4 0 10064.20 10908.60 308.44 o
176 2 -15 -4 0 10064.20 10908.60 308.44 o
176 1 15 4 0 10064.20 10908.60 308.44 o
177 3 -15 -4 0 10018.50 10444.70 305.80 o
177 2 15 -4 0 10018.50 10444.70 305.80 o
177 1 -15 4 0 10018.50 10444.70 305.80 o
178 3 16 -4 0 130.96 -263.62 289.98 <
178 2 -16 -4 0 130.96 -263.62 289.98 <
178 1 16 4 0 130.96 -263.62 289.98 <
179 3 -16 -4 0 183.44 84.36 266.26 <
179 2 16 -4 0 183.44 84.36 266.26 <
179 1 -16 4 0 183.44 84.36 266.26 <
180 3 17 -4 0 778.14 645.87 258.35 o
180 2 -17 -4 0 778.14 645.87 258.35 o
180 1 17 4 0 778.14 645.87 258.35 o
181 3 -17 -4 0 873.46 1210.02 239.90 o
181 2 17 -4 0 873.46 1210.02 239.90 o
181 1 -17 4 0 873.46 1210.02 239.90 o
182 3 0 -5 0 831.75 374.34 123.90 o
182 2 0 -5 0 831.75 374.34 123.90 o
182 1 0 5 0 831.75 374.34 123.90 o
183 3 1 -5 0 3642.41 4384.02 131.81 o
183 2 -1 -5 0 3642.41 4384.02 131.81 o
183 1 1 5 0 3642.41 4384.02 131.81 o
184 3 -1 -5 0 3622.95 4202.12 134.45 o
184 2 1 -5 0 3622.95 4202.12 134.45 o
184 1 -1 5 0 3622.95 4202.12 134.45 o
185 3 2 -5 0 100.10 324.25 100.18 o
185 2 -2 -5 0 100.10 324.25 100.18 o
185 1 2 5 0 100.10 324.25 100.18 o
186 3 -2 -5 0 102.42 271.53 179.26 <
186 2 2 -5 0 102.42 271.53 179.26 <
186 1 -2 5 0 102.42 271.53 179.26 <
187 3 3 -5 0 1665.13 1631.81 126.54 o
187 2 -3 -5 0 1665.13 1631.81 126.54 o
187 1 3 5 0 1665.13 1631.81 126.54 o
188 3 -3 -5 0 1655.45 1616.00 126.54 o
188 2 3 -5 0 1655.45 1616.00 126.54 o
188 1 -3 5 0 1655.45 1616.00 126.54 o
189 3 4 -5 0 20199.00 25426.20 179.26 o
189 2 -4 -5 0 20199.00 25426.20 179.26 o
189 1 4 5 0 20199.00 25426.20 179.26 o
190 3 -4 -5 0 20216.10 25146.80 179.26 o
190 2 4 -5 0 20216.10 25146.80 179.26 o
190 1 -4 5 0 20216.10 25146.80 179.26 o
191 3 5 -5 0 10.53 -44.82 121.27 <
191 2 -5 -5 0 10.53 -44.82 121.27 <
191 1 5 5 0 10.53 -44.82 121.27 <
192 3 -5 -5 0 14.94 113.36 126.54 <
192 2 5 -5 0 14.94 113.36 126.54 <
192 1 -5 5 0 14.94 113.36 126.54 <
193 3 6 -5 0 457.22 237.26 134.45 <
193 2 -6 -5 0 457.22 237.26 134.45 <
193 1 6 5 0 457.22 237.26 134.45 <
194 3 -6 -5 0 435.31 392.80 123.90 o
194 2 6 -5 0 435.31 392.80 123.90 o
194 1 -6 5 0 435.31 392.80 123.90 o
195 3 7 -5 0 234.50 234.62 123.90 <
195 2 -7 -5 0 234.50 234.62 123.90 <
195 1 7 5 0 234.50 234.62 123.90 <
196 3 -7 -5 0 225.33 353.25 137.08 o
196 2 7 -5 0 225.33 353.25 137.08 o
196 1 -7 5 0 225.33 353.25 137.08 o
197 3 8 -5 0 542.30 706.50 129.17 o
197 2 -8 -5 0 542.30 706.50 129.17 o
197 1 8 5 0 542.30 706.50 129.17 o
198 3 -8 -5 0 543.39 711.78 144.99 o
198 2 8 -5 0 543.39 711.78 144.99 o
198 1 -8 5 0 543.39 711.78 144.99 o
199 3 9 -5 0 15666.80 15622.20 184.54 o
199 2 -9 -5 0 15666.80 15622.20 184.54 o
199 1 9 5 0 15666.80 15622.20 184.54 o
200 3 -9 -5 0 15611.10 15108.10 166.08 o
200 2 9 -5 0 15611.10 15108.10 166.08 o
200 1 -9 5 0 15611.10 15108.10 166.08 o
201 3 10 -5 0 182.44 332.16 144.99 o
201 2 -10 -5 0 182.44 332.16 144.99 o
201 1 10 5 0 182.44 332.16 144.99 o
202 3 -10 -5 0 174.06 403.34 144.99 o
202 2 10 -5 0 174.06 403.34 144.99 o
202 1 -10 5 0 174.06 403.34 144.99 o
203 3 11 -5 0 294.82 242.53 155.54 <
203 2 -11 -5 0 294.82 242.53 155.54 <
203 1 11 5 0 294.82 242.53 155.54 <
204 3 -11 -5 0 309.65 -113.36 155.54 <
204 2 11 -5 0 309.65 -113.36 155.54 <
204 1 -11 5 0 309.65 -113.36 155.54 <
205 3 12 -5 0 130.38 129.17 155.54 <
205 2 -12 -5 0 130.38 129.17 155.54 <
205 1 12 5 0 130.38 129.17 155.54 <
206 3 -12 -5 0 153.78 89.63 158.17 <
206 2 12 -5 0 153.78 89.63 158.17 <
206 1 -12 5 0 153.78 89.63 158.17 <
207 3 13 -5 0 74.89 -15.82 171.35 <
207 2 -13 -5 0 74.89 -15.82 171.35 <
207 1 13 5 0 74.89 -15.82 171.35 <
208 3 -13 -5 0 66.34 -81.72 176.63 <
208 2 13 -5 0 66.34 -81.72 176.63 <
208 1 -13 5 0 66.34 -81.72 176.63 <
209 3 14 -5 0 4298.37 3782.96 210.90 o
209 2 -14 -5 0 4298.37 3782.96 210.90 o
209 1 14 5 0 4298.37 3782.96 210.90 o
210 3 -14 -5 0 4272.15 3105.45 208.26 o
210 2 14 -5 0 4272.15 3105.45 208.26 o
210 1 -14 5 0 4272.15 3105.45 208.26 o
211 3 15 -5 0 111.07 332.16 229.35 <
211 2 -15 -5 0 111.07 332.16 229.35 <
211 1 15 5 0 111.07 332.16 229.35 <
212 3 -15 -5 0 107.48 421.79 242.53 <
212 2 15 -5 0 107.48 421.79 242.53 <
212 1 -15 5 0 107.48 421.79 242.53 <
213 3 16 -5 0 161.91 44.82 260.98 <
213 2 -16 -5 0 161.91 44.82 260.98 <
213 1 16 5 0 161.91 44.82 260.98 <
214 3 -16 -5 0 176.36 -709.14 287.35 <
214 2 16 -5 0 176.36 -709.14 287.35 <
214 1 -16 5 0 176.36 -709.14 287.35 <
215 3 17 -5 0 440.12 110.72 295.26 <
215 2 -17 -5 0 440.12 110.72 295.26 <
215 1 17 5 0 440.12 110.72 295.26 <
216 3 -17 -5 0 468.07 100.18 295.26 <
216 2 17 -5 0 468.07 100.18 295.26 <
216 1 -17 5 0 468.07 100.18 295.26 <
217 3 0 -6 0 2157.49 3260.99 129.17 o
217 2 0 -6 0 2157.49 3260.99 129.17 o
217 1 0 6 0 2157.49 3260.99 129.17 o
218 3 1 -6 0 444.77 144.99 118.63 <
218 2 -1 -6 0 444.77 144.99 118.63 <
218 1 1 6 0 444.77 144.99 118.63 <
219 3 -1 -6 0 281.92 184.54 129.17 <
219 2 1 -6 0 281.92 184.54 129.17 <
219 1 -1 6 0 281.92 184.54 129.17 <
220 3 2 -6 0 1731.31 1515.82 121.27 o
220 2 -2 -6 0 1731.31 1515.82 121.27 o
220 1 2 6 0 1731.31 1515.82 121.27 o
221 3 -2 -6 0 1852.33 1581.73 181.90 o
221 2 2 -6 0 1852.33 1581.73 181.90 o
221 1 -2 6 0 1852.33 1581.73 181.90 o
222 3 3 -6 0 4407.91 4697.73 113.36 o
222 2 -3 -6 0 4407.91 4697.73 113.36 o
222 1 3 6 0 4407.91 4697.73 113.36 o
223 3 -3 -6 0 3802.17 3753.96 187.17 o
223 2 3 -6 0 3802.17 3753.96 187.17 o
223 1 -3 6 0 3802.17 3753.96 187.17 o
224 3 4 -6 0 129.74 255.71 121.27 o
224 2 -4 -6 0 129.74 255.71 121.27 o
224 1 4 6 0 129.74 255.71 121.27 o
225 3 -4 -6 0 179.10 279.44 121.27 o
225 2 4 -6 0 179.10 279.44 121.27 o
225 1 -4 6 0 179.10 279.44 121.27 o
226 3 5 -6 0 5610.99 6743.42 144.99 o
226 2 -5 -6 0 5610.99 6743.42 144.99 o
226 1 5 6 0 5610.99 6743.42 144.99 o
227 3 -5 -6 0 5289.31 6337.45 137.08 o
227 2 5 -6 0 5289.31 6337.45 137.08 o
227 1 -5 6 0 5289.31 6337.45 137.08 o
228 3 6 -6 0 954.25 384.89 121.27 o
228 2 -6 -6 0 954.25 384.89 121.27 o
228 1 6 6 0 954.25 384.89 121.27 o
229 3 -6 -6 0 783.84 524.61 123.90 o
229 2 6 -6 0 783.84 524.61 123.90 o
229 1 -6 6 0 783.84 524.61 123.90 o
230 3 7 -6 0 1741.43 1884.89 142.35 o
230 2 -7 -6 0 1741.43 1884.89 142.35 o
230 1 7 6 0 1741.43 1884.89 142.35 o
231 3 -7 -6 0 1672.81 1188.93 131.81 o
231 2 7 -6 0 1672.81 1188.93 131.81 o
231 1 -7 6 0 1672.81 1188.93 131.81 o
232 3 8 -6 0 10283.50 11264.50 152.90 o
232 2 -8 -6 0 10283.50 11264.50 152.90 o
232 1 8 6 0 10283.50 11264.50 152.90 o
233 3 -8 -6 0 9729.92 10492.10 150.26 o
233 2 8 -6 0 9729.92 10492.10 150.26 o
233 1 -8 6 0 9729.92 10492.10 150.26 o
234 3 9 -6 0 12.09 -105.45 137.08 <
234 2 -9 -6 0 12.09 -105.45 137.08 <
234 1 9 6 0 12.09 -105.45 137.08 <
235 3 -9 -6 0 32.60 390.16 144.99 o
235 2 9 -6 0 32.60 390.16 144.99 o
235 1 -9 6 0 32.60 390.16 144.99 o
236 3 10 -6 0 8467.74 9914.78 160.81 o
236 2 -10 -6 0 8467.74 9914.78 160.81 o
236 1 10 6 0 8467.74 9914.78 160.81 o
237 3 -10 -6 0 8200.92 9158.19 158.17 o
237 2 10 -6 0 8200.92 9158.19 158.17 o
237 1 -10 6 0 8200.92 9158.19 158.17 o
238 3 11 -6 0 963.94 579.97 139.72 o
238 2 -11 -6 0 963.94 579.97 139.72 o
238 1 11 6 0 963.94 579.97 139.72 o
239 3 -11 -6 0 937.46 875.22 155.54 o
239 2 11 -6 0 937.46 875.22 155.54 o
239 1 -11 6 0 937.46 875.22 155.54 o
240 3 12 -6 0 812.47 864.68 155.54 o
240 2 -12 -6 0 812.47 864.68 155.54 o
240 1 12 6 0 812.47 864.68 155.54 o
241 3 -12 -6 0 816.65 680.14 150.26 o
241 2 12 -6 0 816.65 680.14 150.26 o
241 1 -12 6 0 816.65 680.14 150.26 o
242 3 13 -6 0 6506.13 7581.74 184.54 o
242 2 -13 -6 0 6506.13 7581.74 184.54 o
242 1 13 6 0 6506.13 7581.74 184.54 o
243 3 -13 -6 0 6237.37 6685.43 181.90 o
243 2 13 -6 0 6237.37 6685.43 181.90 o
243 1 -13 6 0 6237.37 6685.43 181.90 o
244 3 14 -6 0 95.38 -179.26 179.26 <
244 2 -14 -6 0 95.38 -179.26 179.26 <
244 1 14 6 0 95.38 -179.26 179.26 <
245 3 -14 -6 0 107.46 115.99 187.17 <
245 2 14 -6 0 107.46 115.99 187.17 <
245 1 -14 6 0 107.46 115.99 187.17 <
246 3 15 -6 0 4562.84 4492.10 221.44 o
246 2 -15 -6 0 4562.84 4492.10 221.44 o
246 1 15 6 0 4562.84 4492.10 221.44 o
247 3 -15 -6 0 4493.77 4304.93 221.44 o
247 2 15 -6 0 4493.77 4304.93 221.44 o
247 1 -15 6 0 4493.77 4304.93 221.44 o
248 3 16 -6 0 224.70 -65.91 242.53 <
248 2 -16 -6 0 224.70 -65.91 242.53 <
248 1 16 6 0 224.70 -65.91 242.53 <
249 3 -16 -6 0 252.12 -142.35 242.53 <
249 2 16 -6 0 252.12 -142.35 242.53 <
249 1 -16 6 0 252.12 -142.35 242.53 <
250 3 0 -7 0 0.03 492.97 115.99 o
250 2 0 -7 0 0.03 492.97 115.99 o
250 1 0 7 0 0.03 492.97 115.99 o
251 3 1 -7 0 1370.93 616.87 129.17 o
251 2 -1 -7 0 1370.93 616.87 129.17 o
251 1 1 7 0 1370.93 616.87 129.17 o
252 3 -1 -7 0 1374.93 724.96 118.63 o
252 2 1 -7 0 1374.93 724.96 118.63 o
252 1 -1 7 0 1374.93 724.96 118.63 o
253 3 2 -7 0 607.27 751.32 129.17 o
253 2 -2 -7 0 607.27 751.32 129.17 o
253 1 2 7 0 607.27 751.32 129.17 o
254 3 -2 -7 0 610.52 645.87 129.17 o
254 2 2 -7 0 610.52 645.87 129.17 o
254 1 -2 7 0 610.52 645.87 129.17 o
255 3 3 -7 0 171.32 226.71 113.36 <
255 2 -3 -7 0 171.32 226.71 113.36 <
255 1 3 7 0 171.32 226.71 113.36 <
256 3 -3 -7 0 181.22 -39.54 166.08 <
256 2 3 -7 0 181.22 -39.54 166.08 <
256 1 -3 7 0 181.22 -39.54 166.08 <
257 3 4 -7 0 225.47 229.35 97.54 o
257 2 -4 -7 0 225.47 229.35 97.54 o
257 1 4 7 0 225.47 229.35 97.54 o
258 3 -4 -7 0 251.91 -129.17 166.08 <
258 2 4 -7 0 251.91 -129.17 166.08 <
258 1 -4 7 0 251.91 -129.17 166.08 <
259 3 5 -7 0 67.13 258.35 121.27 o
259 2 -5 -7 0 67.13 258.35 121.27 o
259 1 5 7 0 67.13 258.35 121.27 o
260 3 -5 -7 0 76.29 216.17 192.44 <
260 2 5 -7 0 76.29 216.17 192.44 <
260 1 -5 7 0 76.29 216.17 192.44 <
261 3 6 -7 0 2014.03 2414.77 126.54 o
261 2 -6 -7 0 2014.03 2414.77 126.54 o
261 1 6 7 0 2014.03 2414.77 126.54 o
262 3 -6 -7 0 2013.87 2301.41 137.08 o
262 2 6 -7 0 2013.87 2301.41 137.08 o
262 1 -6 7 0 2013.87 2301.41 137.08 o
263 3 7 -7 0 850.24 553.60 139.72 o
263 2 -7 -7 0 850.24 553.60 139.72 o
263 1 7 7 0 850.24 553.60 139.72 o
264 3 -7 -7 0 891.34 722.32 126.54 o
264 2 7 -7 0 891.34 722.32 126.54 o
264 1 -7 7 0 891.34 722.32 126.54 o
265 3 8 -7 0 53.41 345.34 129.17 o
265 2 -8 -7 0 53.41 345.34 129.17 o
265 1 8 7 0 53.41 345.34 129.17 o
266 3 -8 -7 0 46.52 158.17 126.54 <
266 2 8 -7 0 46.52 158.17 126.54 <
266 1 -8 7 0 46.52 158.17 126.54 <
267 3 9 -7 0 44.63 479.79 139.72 o
267 2 -9 -7 0 44.63 479.79 139.72 o
267 1 9 7 0 44.63 479.79 139.72 o
268 3 -9 -7 0 53.02 263.62 129.17 o
268 2 9 -7 0 53.02 263.62 129.17 o
268 1 -9 7 0 53.02 263.62 129.17 o
269 3 10 -7 0 109.96 89.63 137.08 <
269 2 -10 -7 0 109.96 89.63 137.08 <
269 1 10 7 0 109.96 89.63 137.08 <
270 3 -10 -7 0 128.27 139.72 137.08 <
270 2 10 -7 0 128.27 139.72 137.08 <
270 1 -10 7 0 128.27 139.72 137.08 <
271 3 11 -7 0 597.25 595.78 139.72 o
271 2 -11 -7 0 597.25 595.78 139.72 o
271 1 11 7 0 597.25 595.78 139.72 o
272 3 -11 -7 0 592.87 793.50 139.72 o
272 2 11 -7 0 592.87 793.50 139.72 o
272 1 -11 7 0 592.87 793.50 139.72 o
273 3 12 -7 0 257.49 -179.26 152.90 <
273 2 -12 -7 0 257.49 -179.26 152.90 <
273 1 12 7 0 257.49 -179.26 152.90 <
274 3 -12 -7 0 279.25 300.53 150.26 <
274 2 12 -7 0 279.25 300.53 150.26 <
274 1 -12 7 0 279.25 300.53 150.26 <
275 3 13 -7 0 52.02 184.54 158.17 <
275 2 -13 -7 0 52.02 184.54 158.17 <
275 1 13 7 0 52.02 184.54 158.17 <
276 3 -13 -7 0 39.45 221.44 166.08 <
276 2 13 -7 0 39.45 221.44 166.08 <
276 1 -13 7 0 39.45 221.44 166.08 <
277 3 14 -7 0 365.13 688.05 195.08 o
277 2 -14 -7 0 365.13 688.05 195.08 o
277 1 14 7 0 365.13 688.05 195.08 o
278 3 -14 -7 0 351.30 355.89 189.81 <
278 2 14 -7 0 351.30 355.89 189.81 <
278 1 -14 7 0 351.30 355.89 189.81 <
279 3 0 -8 0 31937.70 42543.10 192.44 o
279 2 0 -8 0 31937.70 42543.10 192.44 o
279 1 0 8 0 31937.70 42543.10 192.44 o
280 3 1 -8 0 3351.22 1455.19 121.27 o
280 2 -1 -8 0 3351.22 1455.19 121.27 o
280 1 1 8 0 3351.22 1455.19 121.27 o
281 3 -1 -8 0 3456.44 1531.64 129.17 o
281 2 1 -8 0 3456.44 1531.64 129.17 o
281 1 -1 8 0 3456.44 1531.64 129.17 o
282 3 2 -8 0 23195.00 23201.30 168.72 o
282 2 -2 -8 0 23195.00 23201.30 168.72 o
282 1 2 8 0 23195.00 23201.30 168.72 o
283 3 -2 -8 0 23126.30 22497.40 158.17 o
283 2 2 -8 0 23126.30 22497.40 158.17 o
283 1 -2 8 0 23126.30 22497.40 158.17 o
284 3 3 -8 0 23549.50 24461.40 163.45 o
284 2 -3 -8 0 23549.50 24461.40 163.45 o
284 1 3 8 0 23549.50 24461.40 163.45 o
285 3 -3 -8 0 23869.10 23541.30 158.17 o
285 2 3 -8 0 23869.10 23541.30 158.17 o
285 1 -3 8 0 23869.10 23541.30 158.17 o
286 3 4 -8 0 1969.44 1592.27 137.08 o
286 2 -4 -8 0 1969.44 1592.27 137.08 o
286 1 4 8 0 1969.44 1592.27 137.08 o
287 3 -4 -8 0 1915.97 1025.49 200.35 o
287 2 4 -8 0 1915.97 1025.49 200.35 o
287 1 -4 8 0 1915.97 1025.49 200.35 o
288 3 5 -8 0 21054.10 27229.40 137.08 o
288 2 -5 -8 0 21054.10 27229.40 137.08 o
288 1 5 8 0 21054.10 27229.40 137.08 o
289 3 -5 -8 0 21396.90 25162.60 231.99 o
289 2 5 -8 0 21396.90 25162.60 231.99 o
289 1 -5 8 0 21396.90 25162.60 231.99 o
290 3 6 -8 0 1878.26 632.69 126.54 o
290 2 -6 -8 0 1878.26 632.69 126.54 o
290 1 6 8 0 1878.26 632.69 126.54 o
291 3 -6 -8 0 2017.68 685.41 176.63 o
291 2 6 -8 0 2017.68 685.41 176.63 o
291 1 -6 8 0 2017.68 685.41 176.63 o
292 3 7 -8 0 9240.68 9434.99 155.54 o
292 2 -7 -8 0 9240.68 9434.99 155.54 o
292 1 7 8 0 9240.68 9434.99 155.54 o
293 3 -7 -8 0 9291.52 7963.99 137.08 o
293 2 7 -8 0 9291.52 7963.99 137.08 o
293 1 -7 8 0 9291.52 7963.99 137.08 o
294 3 8 -8 0 11577.30 11768.00 150.26 o
294 2 -8 -8 0 11577.30 11768.00 150.26 o
294 1 8 8 0 11577.30 11768.00 150.26 o
295 3 -8 -8 0 11798.70 10755.70 152.90 o
295 2 8 -8 0 11798.70 10755.70 152.90 o
295 1 -8 8 0 11798.70 10755.70 152.90 o
296 3 9 -8 0 658.17 527.24 134.45 o
296 2 -9 -8 0 658.17 527.24 134.45 o
296 1 9 8 0 658.17 527.24 134.45 o
297 3 -9 -8 0 634.20 640.60 139.72 o
297 2 9 -8 0 634.20 640.60 139.72 o
297 1 -9 8 0 634.20 640.60 139.72 o
298 3 10 -8 0 7006.08 9026.38 166.08 o
298 2 -10 -8 0 7006.08 9026.38 166.08 o
298 1 10 8 0 7006.08 9026.38 166.08 o
299 3 -10 -8 0 7234.93 8180.16 166.08 o
299 2 10 -8 0 7234.93 8180.16 166.08 o
299 1 -10 8 0 7234.93 8180.16 166.08 o
300 3 11 -8 0 432.08 47.45 155.54 <
300 2 -11 -8 0 432.08 47.45 155.54 <
300 1 11 8 0 432.08 47.45 155.54 <
301 3 -11 -8 0 491.83 226.71 142.35 <
301 2 11 -8 0 491.83 226.71 142.35 <
301 1 -11 8 0 491.83 226.71 142.35 <
302 3 12 -8 0 2010.89 1529.00 163.45 o
302 2 -12 -8 0 2010.89 1529.00 163.45 o
302 1 12 8 0 2010.89 1529.00 163.45 o
303 3 -12 -8 0 2049.67 1207.38 163.45 o
303 2 12 -8 0 2049.67 1207.38 163.45 o
303 1 -12 8 0 2049.67 1207.38 163.45 o
304 3 13 -8 0 3630.58 3174.00 181.90 o
304 2 -13 -8 0 3630.58 3174.00 181.90 o
304 1 13 8 0 3630.58 3174.00 181.90 o
305 3 -13 -8 0 3656.08 3007.91 179.26 o
305 2 13 -8 0 3656.08 3007.91 179.26 o
305 1 -13 8 0 3656.08 3007.91 179.26 o
306 3 0 -9 0 10.03 200.35 115.99 <
306 2 0 -9 0 10.03 200.35 115.99 <
306 1 0 9 0 10.03 200.35 115.99 <
307 3 1 -9 0 313.03 -15.82 126.54 <
307 2 -1 -9 0 313.03 -15.82 126.54 <
307 1 1 9 0 313.03 -15.82 126.54 <
308 3 -1 -9 0 304.65 55.36 118.63 <
308 2 1 -9 0 304.65 55.36 118.63 <
308 1 -1 9 0 304.65 55.36 118.63 <
309 3 2 -9 0 76.24 158.17 113.36 <
309 2 -2 -9 0 76.24 158.17 113.36 <
309 1 2 9 0 76.24 158.17 113.36 <
310 3 -2 -9 0 73.78 216.17 115.99 <
310 2 2 -9 0 73.78 216.17 115.99 <
310 1 -2 9 0 73.78 216.17 115.99 <
311 3 3 -9 0 238.57 519.33 121.27 o
311 2 -3 -9 0 238.57 519.33 121.27 o
311 1 3 9 0 238.57 519.33 121.27 o
312 3 -3 -9 0 237.41 461.34 118.63 o
312 2 3 -9 0 237.41 461.34 118.63 o
312 1 -3 9 0 237.41 461.34 118.63 o
313 3 4 -9 0 609.04 242.53 118.63 o
313 2 -4 -9 0 609.04 242.53 118.63 o
313 1 4 9 0 609.04 242.53 118.63 o
314 3 -4 -9 0 585.54 311.07 118.63 o
314 2 4 -9 0 585.54 311.07 118.63 o
314 1 -4 9 0 585.54 311.07 118.63 o
315 3 5 -9 0 15.62 -147.63 123.90 <
315 2 -5 -9 0 15.62 -147.63 123.90 <
315 1 5 9 0 15.62 -147.63 123.90 <
316 3 -5 -9 0 15.63 187.17 129.17 <
316 2 5 -9 0 15.63 187.17 129.17 <
316 1 -5 9 0 15.63 187.17 129.17 <
317 3 6 -9 0 386.54 253.08 137.08 <
317 2 -6 -9 0 386.54 253.08 137.08 <
317 1 6 9 0 386.54 253.08 137.08 <
318 3 -6 -9 0 371.84 242.53 173.99 <
318 2 6 -9 0 371.84 242.53 173.99 <
318 1 -6 9 0 371.84 242.53 173.99 <
319 3 7 -9 0 242.29 461.34 105.45 o
319 2 -7 -9 0 242.29 461.34 105.45 o
319 1 7 9 0 242.29 461.34 105.45 o
320 3 -7 -9 0 226.64 379.61 179.26 o
320 2 7 -9 0 226.64 379.61 179.26 o
320 1 -7 9 0 226.64 379.61 179.26 o
321 3 8 -9 0 263.82 666.96 139.72 o
321 2 -8 -9 0 263.82 666.96 139.72 o
321 1 8 9 0 263.82 666.96 139.72 o
322 3 -8 -9 0 267.02 608.96 187.17 o
322 2 8 -9 0 267.02 608.96 187.17 o
322 1 -8 9 0 267.02 608.96 187.17 o
323 3 9 -9 0 754.53 556.24 142.35 o
323 2 -9 -9 0 754.53 556.24 142.35 o
323 1 9 9 0 754.53 556.24 142.35 o
324 3 -9 -9 0 741.25 366.43 137.08 o
324 2 9 -9 0 741.25 366.43 137.08 o
324 1 -9 9 0 741.25 366.43 137.08 o
325 3 10 -9 0 67.03 -139.72 152.90 <
325 2 -10 -9 0 67.03 -139.72 152.90 <
325 1 10 9 0 67.03 -139.72 152.90 <
326 3 -10 -9 0 69.19 44.82 152.90 <
326 2 10 -9 0 69.19 44.82 152.90 <
326 1 -10 9 0 69.19 44.82 152.90 <
327 3 0 -10 0 3188.00 4742.54 131.81 o
327 2 0 -10 0 3188.00 4742.54 131.81 o
327 1 0 10 0 3188.00 4742.54 131.81 o
328 3 1 -10 0 447.25 184.54 121.27 <
328 2 -1 -10 0 447.25 184.54 121.27 <
328 1 1 10 0 447.25 184.54 121.27 <
329 3 -1 -10 0 394.97 84.36 121.27 <
329 2 1 -10 0 394.97 84.36 121.27 <
329 1 -1 10 0 394.97 84.36 121.27 <
330 3 2 -10 0 2435.82 2090.51 137.08 o
330 2 -2 -10 0 2435.82 2090.51 137.08 o
330 1 2 10 0 2435.82 2090.51 137.08 o
331 3 -2 -10 0 2443.78 1998.25 134.45 o
331 2 2 -10 0 2443.78 1998.25 134.45 o
331 1 -2 10 0 2443.78 1998.25 134.45 o
332 3 3 -10 0 3156.78 2612.48 137.08 o
332 2 -3 -10 0 3156.78 2612.48 137.08 o
332 1 3 10 0 3156.78 2612.48 137.08 o
333 3 -3 -10 0 2995.21 1948.16 129.17 o
333 2 3 -10 0 2995.21 1948.16 129.17 o
333 1 -3 10 0 2995.21 1948.16 129.17 o
334 3 4 -10 0 172.37 305.80 126.54 o
334 2 -4 -10 0 172.37 305.80 126.54 o
334 1 4 10 0 172.37 305.80 126.54 o
335 3 -4 -10 0 203.20 242.53 137.08 <
335 2 4 -10 0 203.20 242.53 137.08 <
335 1 -4 10 0 203.20 242.53 137.08 <
336 3 5 -10 0 3123.45 4281.20 139.72 o
336 2 -5 -10 0 3123.45 4281.20 139.72 o
336 1 5 10 0 3123.45 4281.20 139.72 o
337 3 -5 -10 0 2987.76 4774.18 142.35 o
337 2 5 -10 0 2987.76 4774.18 142.35 o
337 1 -5 10 0 2987.76 4774.18 142.35 o
338 3 6 -10 0 711.63 216.17 137.08 <
338 2 -6 -10 0 711.63 216.17 137.08 <
338 1 6 10 0 711.63 216.17 137.08 <
339 3 -6 -10 0 644.01 -23.73 139.72 <
339 2 6 -10 0 644.01 -23.73 139.72 <
339 1 -6 10 0 644.01 -23.73 139.72 <
340 3 7 -10 0 1696.13 1420.92 139.72 o
340 2 -7 -10 0 1696.13 1420.92 139.72 o
340 1 7 10 0 1696.13 1420.92 139.72 o
341 3 -7 -10 0 1663.22 1484.19 195.08 o
341 2 7 -10 0 1663.22 1484.19 195.08 o
341 1 -7 10 0 1663.22 1484.19 195.08 o
342 2 19 -1 -1 18.88 65.91 158.17 <
342 1 -19 1 1 18.88 65.91 158.17 <
343 2 -19 -1 1 20.44 163.45 160.81 <
343 1 19 1 -1 20.44 163.45 160.81 <
344 2 18 -1 -1 227.99 -65.91 160.81 <
344 1 -18 1 1 227.99 -65.91 160.81 <
345 2 -18 -1 1 178.26 532.51 163.45 o
345 1 18 1 -1 178.26 532.51 163.45 o
346 2 17 -1 -1 530.91 -134.45 163.45 <
346 1 -17 1 1 530.91 -134.45 163.45 <
347 2 -17 -1 1 527.07 933.22 163.45 o
347 1 17 1 -1 527.07 933.22 163.45 o
348 2 16 -1 -1 6183.24 3917.41 187.17 o
348 1 -16 1 1 6183.24 3917.41 187.17 o
349 2 -16 -1 1 6197.72 9263.64 200.35 o
349 1 16 1 -1 6197.72 9263.64 200.35 o
350 2 15 -1 -1 6326.92 3846.23 181.90 o
350 1 -15 1 1 6326.92 3846.23 181.90 o
351 2 -15 -1 1 6404.59 7291.75 187.17 o
351 1 15 1 -1 6404.59 7291.75 187.17 o
352 2 14 -1 -1 284.36 282.07 179.26 <
352 1 -14 1 1 284.36 282.07 179.26 <
353 2 -14 -1 1 285.54 189.81 181.90 <
353 1 14 1 -1 285.54 189.81 181.90 <
354 2 13 -1 -1 498.46 245.17 200.35 <
354 1 -13 1 1 498.46 245.17 200.35 <
355 2 -13 -1 1 408.86 806.68 189.81 o
355 1 13 1 -1 408.86 806.68 189.81 o
356 2 12 -1 -1 3450.59 1618.63 216.17 o
356 1 -12 1 1 3450.59 1618.63 216.17 o
357 2 -12 -1 1 3439.16 3811.96 224.08 o
357 1 12 1 -1 3439.16 3811.96 224.08 o
358 2 11 -1 -1 17608.70 11704.80 279.44 o
358 1 -11 1 1 17608.70 11704.80 279.44 o
359 2 -11 -1 1 17631.80 24229.40 295.26 o
359 1 11 1 -1 17631.80 24229.40 295.26 o
360 2 10 -1 -1 29421.00 20689.00 334.80 o
360 1 -10 1 1 29421.00 20689.00 334.80 o
361 2 -10 -1 1 29515.40 37073.00 350.62 o
361 1 10 1 -1 29515.40 37073.00 350.62 o
362 2 9 -1 -1 1440.85 601.06 260.98 o
362 1 -9 1 1 1440.85 601.06 260.98 o
363 2 -9 -1 1 1452.25 772.41 258.35 o
363 1 9 1 -1 1452.25 772.41 258.35 o
364 2 8 -1 -1 1207.75 1009.67 268.89 o
364 1 -8 1 1 1207.75 1009.67 268.89 o
365 2 -8 -1 1 1100.69 1523.73 260.98 o
365 1 8 1 -1 1100.69 1523.73 260.98 o
366 2 7 -1 -1 9504.67 6748.70 305.80 o
366 1 -7 1 1 9504.67 6748.70 305.80 o
367 2 -7 -1 1 9539.69 8804.94 303.16 o
367 1 7 1 -1 9539.69 8804.94 303.16 o
368 2 6 -1 -1 24156.60 16776.80 471.88 o
368 1 -6 1 1 24156.60 16776.80 471.88 o
369 2 -6 -1 1 24239.70 28658.20 403.34 o
369 1 6 1 -1 24239.70 28658.20 403.34 o
370 2 5 -1 -1 92530.00 90741.00 572.06 o
370 1 -5 1 1 92530.00 90741.00 572.06 o
371 2 -5 -1 1 92655.90 103110.00 627.42 o
371 1 5 1 -1 92655.90 103110.00 627.42 o
372 2 4 -1 -1 4278.17 3429.71 345.34 o
372 1 -4 1 1 4278.17 3429.71 345.34 o
373 2 -4 -1 1 4304.58 3851.50 400.70 o
373 1 4 1 -1 4304.58 3851.50 400.70 o
374 2 3 -1 -1 3102.32 4291.75 326.89 o
374 1 -3 1 1 3102.32 4291.75 326.89 o
375 2 -3 -1 1 3312.56 4500.01 387.52 o
375 1 3 1 -1 3312.56 4500.01 387.52 o
376 2 2 -1 -1 19694.50 16942.90 340.07 o
376 1 -2 1 1 19694.50 16942.90 340.07 o
377 2 -2 -1 1 19721.60 17172.30 392.80 o
377 1 2 1 -1 19721.60 17172.30 392.80 o
378 2 1 -1 -1 31143.10 25737.30 379.61 o
378 1 -1 1 1 31143.10 25737.30 379.61 o
379 2 -1 -1 1 31232.50 26119.60 424.43 o
379 1 1 1 -1 31232.50 26119.60 424.43 o
380 2 0 -1 -1 121955.00 114646.00 674.87 o
380 1 0 1 1 121955.00 114646.00 674.87 o
381 2 0 -1 1 121456.00 106914.00 608.96 o
381 1 0 1 -1 121456.00 106914.00 608.96 o
382 2 -1 -1 -1 1196.33 3160.81 295.26 o
382 1 1 1 1 1196.33 3160.81 295.26 o
383 2 1 -1 1 1171.89 3092.27 305.80 o
383 1 -1 1 -1 1171.89 3092.27 305.80 o
384 2 -2 -1 -1 10508.10 10652.90 329.53 o
384 1 2 1 1 10508.10 10652.90 329.53 o
385 2 2 -1 1 11164.50 11164.30 419.16 o
385 1 -2 1 -1 11164.50 11164.30 419.16 o
386 2 -3 -1 -1 9841.48 7629.19 311.07 o
386 1 3 1 1 9841.48 7629.19 311.07 o
387 2 3 -1 1 10170.60 8132.71 479.79 o
387 1 -3 1 -1 10170.60 8132.71 479.79 o
388 2 -4 -1 -1 7334.40 7223.21 334.80 o
388 1 4 1 1 7334.40 7223.21 334.80 o
389 2 4 -1 1 7528.22 7486.83 416.52 o
389 1 -4 1 -1 7528.22 7486.83 416.52 o
390 2 -5 -1 -1 128582.00 144615.00 706.50 o
390 1 5 1 1 128582.00 144615.00 706.50 o
391 2 5 -1 1 127773.00 141775.00 732.87 o
391 1 -5 1 -1 127773.00 141775.00 732.87 o
392 2 -6 -1 -1 893.20 1273.29 374.34 o
392 1 6 1 1 893.20 1273.29 374.34 o
393 2 6 -1 1 923.46 1457.82 366.43 o
393 1 -6 1 -1 923.46 1457.82 366.43 o
394 2 -7 -1 -1 4122.80 5388.41 316.35 o
394 1 7 1 1 4122.80 5388.41 316.35 o
395 2 7 -1 1 4377.90 4452.56 284.71 o
395 1 -7 1 -1 4377.90 4452.56 284.71 o
396 2 -8 -1 -1 3159.66 2364.68 276.80 o
396 1 8 1 1 3159.66 2364.68 276.80 o
397 2 8 -1 1 3424.72 1708.26 255.71 o
397 1 -8 1 -1 3424.72 1708.26 255.71 o
398 2 -9 -1 -1 1304.66 1966.61 268.89 o
398 1 9 1 1 1304.66 1966.61 268.89 o
399 2 9 -1 1 1346.32 920.04 260.98 o
399 1 -9 1 -1 1346.32 920.04 260.98 o
400 2 -10 -1 -1 51790.40 70431.60 413.89 o
400 1 10 1 1 51790.40 70431.60 413.89 o
401 2 10 -1 1 51380.90 41794.50 395.43 o
401 1 -10 1 -1 51380.90 41794.50 395.43 o
402 2 -11 -1 -1 110.92 840.95 221.44 o
402 1 11 1 1 110.92 840.95 221.44 o
403 2 11 -1 1 119.48 1086.12 237.26 o
403 1 -11 1 -1 119.48 1086.12 237.26 o
404 2 -12 -1 -1 2497.80 3353.26 216.17 o
404 1 12 1 1 2497.80 3353.26 216.17 o
405 2 12 -1 1 2658.44 2480.67 210.90 o
405 1 -12 1 -1 2658.44 2480.67 210.90 o
406 2 -13 -1 -1 377.06 192.44 195.08 <
406 1 13 1 1 377.06 192.44 195.08 <
407 2 13 -1 1 491.71 0.00 187.17 <
407 1 -13 1 -1 491.71 0.00 187.17 <
408 2 -14 -1 -1 129.38 366.43 184.54 <
408 1 14 1 1 129.38 366.43 184.54 <
409 2 14 -1 1 143.14 0.00 184.54 <
409 1 -14 1 -1 143.14 0.00 184.54 <
410 2 -15 -1 -1 13281.10 17222.40 224.08 o
410 1 15 1 1 13281.10 17222.40 224.08 o
411 2 15 -1 1 13112.50 8499.14 202.99 o
411 1 -15 1 -1 13112.50 8499.14 202.99 o
412 2 -16 -1 -1 295.10 123.90 173.99 <
412 1 16 1 1 295.10 123.90 173.99 <
413 2 16 -1 1 295.70 313.71 171.35 <
413 1 -16 1 -1 295.70 313.71 171.35 <
414 2 -17 -1 -1 763.02 943.76 173.99 o
414 1 17 1 1 763.02 943.76 173.99 o
415 2 17 -1 1 813.72 727.59 176.63 o
415 1 -17 1 -1 813.72 727.59 176.63 o
416 2 -18 -1 -1 84.53 205.62 163.45 <
416 1 18 1 1 84.53 205.62 163.45 <
417 2 18 -1 1 129.93 76.45 160.81 <
417 1 -18 1 -1 129.93 76.45 160.81 <
418 2 19 -2 -1 22.25 195.08 168.72 <
418 1 -19 2 1 22.25 195.08 168.72 <
419 2 -19 -2 1 23.54 55.36 187.17 <
419 1 19 2 -1 23.54 55.36 187.17 <
420 2 18 -2 -1 24.71 268.89 173.99 <
420 1 -18 2 1 24.71 268.89 173.99 <
421 2 -18 -2 1 23.73 -13.18 173.99 <
421 1 18 2 -1 23.73 -13.18 173.99 <
422 2 17 -2 -1 454.00 374.34 179.26 o
422 1 -17 2 1 454.00 374.34 179.26 o
423 2 -17 -2 1 449.83 653.78 184.54 o
423 1 17 2 -1 449.83 653.78 184.54 o
424 2 16 -2 -1 115.87 10.54 187.17 <
424 1 -16 2 1 115.87 10.54 187.17 <
425 2 -16 -2 1 113.81 -5.27 184.54 <
425 1 16 2 -1 113.81 -5.27 184.54 <
426 2 15 -2 -1 547.91 398.07 192.44 o
426 1 -15 2 1 547.91 398.07 192.44 o
427 2 -15 -2 1 553.27 566.78 192.44 o
427 1 15 2 -1 553.27 566.78 192.44 o
428 2 14 -2 -1 301.94 569.42 208.26 o
428 1 -14 2 1 301.94 569.42 208.26 o
429 2 -14 -2 1 304.07 202.99 216.17 <
429 1 14 2 -1 304.07 202.99 216.17 <
430 2 13 -2 -1 6.89 537.79 247.80 o
430 1 -13 2 1 6.89 537.79 247.80 o
431 2 -13 -2 1 6.78 358.52 245.17 <
431 1 13 2 -1 6.78 358.52 245.17 <
432 2 12 -2 -1 2280.73 2327.77 242.53 o
432 1 -12 2 1 2280.73 2327.77 242.53 o
433 2 -12 -2 1 2272.39 2915.65 237.26 o
433 1 12 2 -1 2272.39 2915.65 237.26 o
434 2 11 -2 -1 273.37 347.98 239.90 <
434 1 -11 2 1 273.37 347.98 239.90 <
435 2 -11 -2 1 270.13 506.15 224.08 o
435 1 11 2 -1 270.13 506.15 224.08 o
436 2 10 -2 -1 538.13 432.34 260.98 <
436 1 -10 2 1 538.13 432.34 260.98 <
437 2 -10 -2 1 543.47 527.24 247.80 o
437 1 10 2 -1 543.47 527.24 247.80 o
438 2 9 -2 -1 2439.31 2501.76 239.90 o
438 1 -9 2 1 2439.31 2501.76 239.90 o
439 2 -9 -2 1 2441.52 2791.75 255.71 o
439 1 9 2 -1 2441.52 2791.75 255.71 o
440 2 8 -2 -1 299.49 197.72 208.26 <
440 1 -8 2 1 299.49 197.72 208.26 <
441 2 -8 -2 1 304.91 71.18 221.44 <
441 1 8 2 -1 304.91 71.18 221.44 <
442 2 7 -2 -1 4700.15 5209.15 213.53 o
442 1 -7 2 1 4700.15 5209.15 213.53 o
443 2 -7 -2 1 4696.12 5420.05 226.71 o
443 1 7 2 -1 4696.12 5420.05 226.71 o
444 2 6 -2 -1 40.40 -26.36 189.81 <
444 1 -6 2 1 40.40 -26.36 189.81 <
445 2 -6 -2 1 41.51 -134.45 205.62 <
445 1 6 2 -1 41.51 -134.45 205.62 <
446 2 5 -2 -1 158.92 585.24 184.54 o
446 1 -5 2 1 158.92 585.24 184.54 o
447 2 -5 -2 1 154.78 400.70 195.08 o
447 1 5 2 -1 154.78 400.70 195.08 o
448 2 4 -2 -1 10486.50 12954.30 210.90 o
448 1 -4 2 1 10486.50 12954.30 210.90 o
449 2 -4 -2 1 10499.50 12732.90 216.17 o
449 1 4 2 -1 10499.50 12732.90 216.17 o
450 2 3 -2 -1 893.51 408.61 155.54 o
450 1 -3 2 1 893.51 408.61 155.54 o
451 2 -3 -2 1 907.77 506.15 181.90 o
451 1 3 2 -1 907.77 506.15 181.90 o
452 2 2 -2 -1 2508.07 2050.97 205.62 o
452 1 -2 2 1 2508.07 2050.97 205.62 o
453 2 -2 -2 1 2503.50 1668.72 187.17 o
453 1 2 2 -1 2503.50 1668.72 187.17 o
454 2 1 -2 -1 736.38 358.52 176.63 o
454 1 -1 2 1 736.38 358.52 176.63 o
455 2 -1 -2 1 734.03 247.80 179.26 <
455 1 1 2 -1 734.03 247.80 179.26 <
456 2 0 -2 -1 663.09 516.70 245.17 o
456 1 0 2 1 663.09 516.70 245.17 o
457 2 0 -2 1 660.63 200.35 218.80 <
457 1 0 2 -1 660.63 200.35 218.80 <
458 2 -1 -2 -1 18492.60 21730.30 253.08 o
458 1 1 2 1 18492.60 21730.30 253.08 o
459 2 1 -2 1 18473.60 21287.40 255.71 o
459 1 -1 2 -1 18473.60 21287.40 255.71 o
460 2 -2 -2 -1 190.43 253.08 166.08 <
460 1 2 2 1 190.43 253.08 166.08 <
461 2 2 -2 1 193.42 355.89 197.72 <
461 1 -2 2 -1 193.42 355.89 197.72 <
462 2 -3 -2 -1 508.76 390.16 166.08 o
462 1 3 2 1 508.76 390.16 166.08 o
463 2 3 -2 1 511.27 466.61 202.99 o
463 1 -3 2 -1 511.27 466.61 202.99 o
464 2 -4 -2 -1 2449.40 1734.63 176.63 o
464 1 4 2 1 2449.40 1734.63 176.63 o
465 2 4 -2 1 2421.05 2322.50 192.44 o
465 1 -4 2 -1 2421.05 2322.50 192.44 o
466 2 -5 -2 -1 789.59 432.34 168.72 o
466 1 5 2 1 789.59 432.34 168.72 o
467 2 5 -2 1 795.21 374.34 218.80 <
467 1 -5 2 -1 795.21 374.34 218.80 <
468 2 -6 -2 -1 7253.41 7315.48 202.99 o
468 1 6 2 1 7253.41 7315.48 202.99 o
469 2 6 -2 1 7247.56 8114.25 231.99 o
469 1 -6 2 -1 7247.56 8114.25 231.99 o
470 2 -7 -2 -1 321.48 421.79 197.72 o
470 1 7 2 1 321.48 421.79 197.72 o
471 2 7 -2 1 323.41 395.43 234.62 <
471 1 -7 2 -1 323.41 395.43 234.62 <
472 2 -8 -2 -1 66.98 115.99 216.17 <
472 1 8 2 1 66.98 115.99 216.17 <
473 2 8 -2 1 63.39 405.98 253.08 <
473 1 -8 2 -1 63.39 405.98 253.08 <
474 2 -9 -2 -1 3370.30 3806.69 250.44 o
474 1 9 2 1 3370.30 3806.69 250.44 o
475 2 9 -2 1 3353.36 3166.09 289.98 o
475 1 -9 2 -1 3353.36 3166.09 289.98 o
476 2 -10 -2 -1 238.73 142.35 260.98 <
476 1 10 2 1 238.73 142.35 260.98 <
477 2 10 -2 1 243.89 400.70 245.17 <
477 1 -10 2 -1 243.89 400.70 245.17 <
478 2 -11 -2 -1 973.82 883.13 271.53 o
478 1 11 2 1 973.82 883.13 271.53 o
479 2 11 -2 1 977.59 521.97 237.26 o
479 1 -11 2 -1 977.59 521.97 237.26 o
480 2 -12 -2 -1 591.92 835.68 258.35 o
480 1 12 2 1 591.92 835.68 258.35 o
481 2 12 -2 1 598.68 572.06 237.26 o
481 1 -12 2 -1 598.68 572.06 237.26 o
482 2 -13 -2 -1 148.58 366.43 250.44 <
482 1 13 2 1 148.58 366.43 250.44 <
483 2 13 -2 1 144.95 142.35 245.17 <
483 1 -13 2 -1 144.95 142.35 245.17 <
484 2 -14 -2 -1 1465.87 2140.60 221.44 o
484 1 14 2 1 1465.87 2140.60 221.44 o
485 2 14 -2 1 1455.69 1101.94 213.53 o
485 1 -14 2 -1 1455.69 1101.94 213.53 o
486 2 -15 -2 -1 14.55 326.89 202.99 <
486 1 15 2 1 14.55 326.89 202.99 <
487 2 15 -2 1 14.61 -52.72 189.81 <
487 1 -15 2 -1 14.61 -52.72 189.81 <
488 2 -16 -2 -1 46.35 86.99 192.44 <
488 1 16 2 1 46.35 86.99 192.44 <
489 2 16 -2 1 48.40 10.54 181.90 <
489 1 -16 2 -1 48.40 10.54 181.90 <
490 2 -17 -2 -1 357.81 503.52 187.17 o
490 1 17 2 1 357.81 503.52 187.17 o
491 2 17 -2 1 362.36 300.53 176.63 <
491 1 -17 2 -1 362.36 300.53 176.63 <
492 2 -18 -2 -1 38.84 -26.36 179.26 <
492 1 18 2 1 38.84 -26.36 179.26 <
493 2 18 -2 1 37.91 -29.00 171.35 <
493 1 -18 2 -1 37.91 -29.00 171.35 <
494 2 18 -3 -1 290.82 247.80 200.35 <
494 1 -18 3 1 290.82 247.80 200.35 <
495 2 -18 -3 1 264.28 579.97 200.35 o
495 1 18 3 -1 264.28 579.97 200.35 o
496 2 17 -3 -1 550.98 247.80 205.62 <
496 1 -17 3 1 550.98 247.80 205.62 <
497 2 -17 -3 1 543.53 398.07 208.26 <
497 1 17 3 -1 543.53 398.07 208.26 <
498 2 16 -3 -1 2882.47 1365.56 218.80 o
498 1 -16 3 1 2882.47 1365.56 218.80 o
499 2 -16 -3 1 2858.92 2815.47 231.99 o
499 1 16 3 -1 2858.92 2815.47 231.99 o
500 2 15 -3 -1 6767.73 5048.34 260.98 o
500 1 -15 3 1 6767.73 5048.34 260.98 o
501 2 -15 -3 1 6812.01 7413.02 276.80 o
501 1 15 3 -1 6812.01 7413.02 276.80 o
502 2 14 -3 -1 865.72 724.96 239.90 o
502 1 -14 3 1 865.72 724.96 239.90 o
503 2 -14 -3 1 857.87 432.34 234.62 <
503 1 14 3 -1 857.87 432.34 234.62 <
504 2 13 -3 -1 1900.77 2116.88 268.89 o
504 1 -13 3 1 1900.77 2116.88 268.89 o
505 2 -13 -3 1 1875.89 1953.43 245.17 o
505 1 13 3 -1 1875.89 1953.43 245.17 o
506 2 12 -3 -1 2111.80 1231.11 231.99 o
506 1 -12 3 1 2111.80 1231.11 231.99 o
507 2 -12 -3 1 2088.41 1281.20 253.08 o
507 1 12 3 -1 2088.41 1281.20 253.08 o
508 2 11 -3 -1 8859.78 8920.93 221.44 o
508 1 -11 3 1 8859.78 8920.93 221.44 o
509 2 -11 -3 1 8802.85 8224.97 234.62 o
509 1 11 3 -1 8802.85 8224.97 234.62 o
510 2 10 -3 -1 28023.40 30935.90 245.17 o
510 1 -10 3 1 28023.40 30935.90 245.17 o
511 2 -10 -3 1 28083.90 26375.30 250.44 o
511 1 10 3 -1 28083.90 26375.30 250.44 o
512 2 9 -3 -1 2662.54 2625.66 173.99 o
512 1 -9 3 1 2662.54 2625.66 173.99 o
513 2 -9 -3 1 2637.25 2615.12 184.54 o
513 1 9 3 -1 2637.25 2615.12 184.54 o
514 2 8 -3 -1 9365.42 11348.90 179.26 o
514 1 -8 3 1 9365.42 11348.90 179.26 o
515 2 -8 -3 1 9298.98 11140.60 192.44 o
515 1 8 3 -1 9298.98 11140.60 192.44 o
516 2 7 -3 -1 5518.17 4220.57 163.45 o
516 1 -7 3 1 5518.17 4220.57 163.45 o
517 2 -7 -3 1 5568.61 4616.00 166.08 o
517 1 7 3 -1 5568.61 4616.00 166.08 o
518 2 6 -3 -1 18617.50 19547.50 189.81 o
518 1 -6 3 1 18617.50 19547.50 189.81 o
519 2 -6 -3 1 18501.40 20765.40 195.08 o
519 1 6 3 -1 18501.40 20765.40 195.08 o
520 2 5 -3 -1 75069.40 79969.40 289.98 o
520 1 -5 3 1 75069.40 79969.40 289.98 o
521 2 -5 -3 1 75008.90 78701.40 287.35 o
521 1 5 3 -1 75008.90 78701.40 287.35 o
522 2 4 -3 -1 3519.48 3706.51 155.54 o
522 1 -4 3 1 3519.48 3706.51 155.54 o
523 2 -4 -3 1 3493.21 3811.96 158.17 o
523 1 4 3 -1 3493.21 3811.96 158.17 o
524 2 3 -3 -1 22657.60 28790.00 218.80 o
524 1 -3 3 1 22657.60 28790.00 218.80 o
525 2 -3 -3 1 22490.40 28465.80 221.44 o
525 1 3 3 -1 22490.40 28465.80 221.44 o
526 2 2 -3 -1 11287.40 7937.63 166.08 o
526 1 -2 3 1 11287.40 7937.63 166.08 o
527 2 -2 -3 1 11055.00 7974.53 166.08 o
527 1 2 3 -1 11055.00 7974.53 166.08 o
528 2 1 -3 -1 21769.40 17715.30 260.98 o
528 1 -1 3 1 21769.40 17715.30 260.98 o
529 2 -1 -3 1 21538.20 18200.40 205.62 o
529 1 1 3 -1 21538.20 18200.40 205.62 o
530 2 0 -3 -1 94748.90 105749.00 308.44 o
530 1 0 3 1 94748.90 105749.00 308.44 o
531 2 0 -3 1 94339.30 91734.80 350.62 o
531 1 0 3 -1 94339.30 91734.80 350.62 o
532 2 -1 -3 -1 1441.35 2712.66 129.17 o
532 1 1 3 1 1441.35 2712.66 129.17 o
533 2 1 -3 1 1425.83 2488.58 213.53 o
533 1 -1 3 -1 1425.83 2488.58 213.53 o
534 2 -2 -3 -1 13890.50 15796.20 179.26 o
534 1 2 3 1 13890.50 15796.20 179.26 o
535 2 2 -3 1 13835.60 15361.20 184.54 o
535 1 -2 3 -1 13835.60 15361.20 184.54 o
536 2 -3 -3 -1 12072.30 8841.85 160.81 o
536 1 3 3 1 12072.30 8841.85 160.81 o
537 2 3 -3 1 11771.00 8409.51 166.08 o
537 1 -3 3 -1 11771.00 8409.51 166.08 o
538 2 -4 -3 -1 12310.10 10684.60 166.08 o
538 1 4 3 1 12310.10 10684.60 166.08 o
539 2 4 -3 1 12461.10 11106.30 187.17 o
539 1 -4 3 -1 12461.10 11106.30 187.17 o
540 2 -5 -3 -1 58824.50 66545.80 274.17 o
540 1 5 3 1 58824.50 66545.80 274.17 o
541 2 5 -3 1 58468.90 68660.10 279.44 o
541 1 -5 3 -1 58468.90 68660.10 279.44 o
542 2 -6 -3 -1 821.19 1468.37 150.26 o
542 1 6 3 1 821.19 1468.37 150.26 o
543 2 6 -3 1 778.16 1096.66 163.45 o
543 1 -6 3 -1 778.16 1096.66 163.45 o
544 2 -7 -3 -1 5564.75 5907.75 189.81 o
544 1 7 3 1 5564.75 5907.75 189.81 o
545 2 7 -3 1 5666.15 7202.12 205.62 o
545 1 -7 3 -1 5666.15 7202.12 205.62 o
546 2 -8 -3 -1 4289.62 2496.49 168.72 o
546 1 8 3 1 4289.62 2496.49 168.72 o
547 2 8 -3 1 4239.98 3229.36 184.54 o
547 1 -8 3 -1 4239.98 3229.36 184.54 o
548 2 -9 -3 -1 3113.22 2673.12 187.17 o
548 1 9 3 1 3113.22 2673.12 187.17 o
549 2 9 -3 1 3164.86 2657.30 210.90 o
549 1 -9 3 -1 3164.86 2657.30 210.90 o
550 2 -10 -3 -1 25410.20 30582.70 274.17 o
550 1 10 3 1 25410.20 30582.70 274.17 o
551 2 10 -3 1 25260.30 27635.40 289.98 o
551 1 -10 3 -1 25260.30 27635.40 289.98 o
552 2 -11 -3 -1 48.41 158.17 213.53 <
552 1 11 3 1 48.41 158.17 213.53 <
553 2 11 -3 1 36.16 324.25 237.26 <
553 1 -11 3 -1 36.16 324.25 237.26 <
554 2 -12 -3 -1 1689.27 1742.53 247.80 o
554 1 12 3 1 1689.27 1742.53 247.80 o
555 2 12 -3 1 1792.33 2164.33 250.44 o
555 1 -12 3 -1 1792.33 2164.33 250.44 o
556 2 -13 -3 -1 1314.32 1349.74 300.53 o
556 1 13 3 1 1314.32 1349.74 300.53 o
557 2 13 -3 1 1302.22 1165.20 226.71 o
557 1 -13 3 -1 1302.22 1165.20 226.71 o
558 2 -14 -3 -1 353.23 648.51 282.07 o
558 1 14 3 1 353.23 648.51 282.07 o
559 2 14 -3 1 353.70 15.82 231.99 <
559 1 -14 3 -1 353.70 15.82 231.99 <
560 2 -15 -3 -1 7789.53 8752.21 279.44 o
560 1 15 3 1 7789.53 8752.21 279.44 o
561 2 15 -3 1 7708.12 6804.06 258.35 o
561 1 -15 3 -1 7708.12 6804.06 258.35 o
562 2 -16 -3 -1 18.18 535.15 231.99 o
562 1 16 3 1 18.18 535.15 231.99 o
563 2 16 -3 1 20.35 -100.18 221.44 <
563 1 -16 3 -1 20.35 -100.18 221.44 <
564 2 -17 -3 -1 391.13 440.25 218.80 o
564 1 17 3 1 391.13 440.25 218.80 o
565 2 17 -3 1 431.10 121.27 195.08 <
565 1 -17 3 -1 431.10 121.27 195.08 <
566 2 -18 -3 -1 225.88 200.35 202.99 <
566 1 18 3 1 225.88 200.35 202.99 <
567 2 18 -3 1 227.84 437.61 189.81 o
567 1 -18 3 -1 227.84 437.61 189.81 o
568 2 18 -4 -1 3.43 -55.36 245.17 <
568 1 -18 4 1 3.43 -55.36 245.17 <
569 2 -18 -4 1 4.12 585.24 253.08 o
569 1 18 4 -1 4.12 585.24 253.08 o
570 2 17 -4 -1 608.52 289.98 258.35 <
570 1 -17 4 1 608.52 289.98 258.35 <
571 2 -17 -4 1 599.08 558.88 268.89 o
571 1 17 4 -1 599.08 558.88 268.89 o
572 2 16 -4 -1 151.90 640.60 253.08 o
572 1 -16 4 1 151.90 640.60 253.08 o
573 2 -16 -4 1 148.12 463.97 253.08 <
573 1 16 4 -1 148.12 463.97 253.08 <
574 2 15 -4 -1 921.68 1020.21 266.26 o
574 1 -15 4 1 921.68 1020.21 266.26 o
575 2 -15 -4 1 930.74 1349.74 234.62 o
575 1 15 4 -1 930.74 1349.74 234.62 o
576 2 14 -4 -1 994.39 711.78 234.62 o
576 1 -14 4 1 994.39 711.78 234.62 o
577 2 -14 -4 1 1002.30 1186.29 247.80 o
577 1 14 4 -1 1002.30 1186.29 247.80 o
578 2 13 -4 -1 202.76 -144.99 205.62 <
578 1 -13 4 1 202.76 -144.99 205.62 <
579 2 -13 -4 1 211.54 92.27 208.26 <
579 1 13 4 -1 211.54 92.27 208.26 <
580 2 12 -4 -1 1985.22 1362.92 187.17 o
580 1 -12 4 1 1985.22 1362.92 187.17 o
581 2 -12 -4 1 1971.07 1080.85 213.53 o
581 1 12 4 -1 1971.07 1080.85 213.53 o
582 2 11 -4 -1 66.25 329.53 160.81 o
582 1 -11 4 1 66.25 329.53 160.81 o
583 2 -11 -4 1 65.78 226.71 179.26 <
583 1 11 4 -1 65.78 226.71 179.26 <
584 2 10 -4 -1 1198.08 1929.71 150.26 o
584 1 -10 4 1 1198.08 1929.71 150.26 o
585 2 -10 -4 1 1213.16 1876.98 160.81 o
585 1 10 4 -1 1213.16 1876.98 160.81 o
586 2 9 -4 -1 3489.99 4297.02 150.26 o
586 1 -9 4 1 3489.99 4297.02 150.26 o
587 2 -9 -4 1 3488.30 3891.05 166.08 o
587 1 9 4 -1 3488.30 3891.05 166.08 o
588 2 8 -4 -1 607.84 635.33 147.63 o
588 1 -8 4 1 607.84 635.33 147.63 o
589 2 -8 -4 1 621.25 245.17 144.99 <
589 1 8 4 -1 621.25 245.17 144.99 <
590 2 7 -4 -1 4541.83 4465.74 144.99 o
590 1 -7 4 1 4541.83 4465.74 144.99 o
591 2 -7 -4 1 4524.76 4033.40 147.63 o
591 1 7 4 -1 4524.76 4033.40 147.63 o
592 2 6 -4 -1 481.17 830.41 131.81 o
592 1 -6 4 1 481.17 830.41 131.81 o
593 2 -6 -4 1 482.05 930.58 137.08 o
593 1 6 4 -1 482.05 930.58 137.08 o
594 2 5 -4 -1 123.32 311.07 131.81 o
594 1 -5 4 1 123.32 311.07 131.81 o
595 2 -5 -4 1 122.23 318.98 147.63 o
595 1 5 4 -1 122.23 318.98 147.63 o
596 2 4 -4 -1 5012.06 6920.05 160.81 o
596 1 -4 4 1 5012.06 6920.05 160.81 o
597 2 -4 -4 1 5028.52 7067.68 163.45 o
597 1 4 4 -1 5028.52 7067.68 163.45 o
598 2 3 -4 -1 1019.07 925.31 129.17 o
598 1 -3 4 1 1019.07 925.31 129.17 o
599 2 -3 -4 1 1029.08 717.05 150.26 o
599 1 3 4 -1 1029.08 717.05 150.26 o
600 2 2 -4 -1 8952.34 9210.92 163.45 o
600 1 -2 4 1 8952.34 9210.92 163.45 o
601 2 -2 -4 1 8969.99 9300.55 168.72 o
601 1 2 4 -1 8969.99 9300.55 168.72 o
602 2 1 -4 -1 4950.40 6232.00 195.08 o
602 1 -1 4 1 4950.40 6232.00 195.08 o
603 2 -1 -4 1 4935.23 6100.19 131.81 o
603 1 1 4 -1 4935.23 6100.19 131.81 o
604 2 0 -4 -1 693.16 695.96 126.54 o
604 1 0 4 1 693.16 695.96 126.54 o
605 2 0 -4 1 682.82 479.79 158.17 o
605 1 0 4 -1 682.82 479.79 158.17 o
606 2 -1 -4 -1 2550.13 4399.83 131.81 o
606 1 1 4 1 2550.13 4399.83 131.81 o
607 2 1 -4 1 2538.18 4597.55 253.08 o
607 1 -1 4 -1 2538.18 4597.55 253.08 o
608 2 -2 -4 -1 548.95 656.42 150.26 o
608 1 2 4 1 548.95 656.42 150.26 o
609 2 2 -4 1 551.78 445.52 202.99 o
609 1 -2 4 -1 551.78 445.52 202.99 o
610 2 -3 -4 -1 4741.62 5340.96 155.54 o
610 1 3 4 1 4741.62 5340.96 155.54 o
611 2 3 -4 1 4754.10 5530.77 144.99 o
611 1 -3 4 -1 4754.10 5530.77 144.99 o
612 2 -4 -4 -1 10346.80 10732.00 150.26 o
612 1 4 4 1 10346.80 10732.00 150.26 o
613 2 4 -4 1 10283.20 10747.80 168.72 o
613 1 -4 4 -1 10283.20 10747.80 168.72 o
614 2 -5 -4 -1 1067.05 1022.85 144.99 o
614 1 5 4 1 1067.05 1022.85 144.99 o
615 2 5 -4 1 1069.90 1028.12 134.45 o
615 1 -5 4 -1 1069.90 1028.12 134.45 o
616 2 -6 -4 -1 2104.93 2770.66 147.63 o
616 1 6 4 1 2104.93 2770.66 147.63 o
617 2 6 -4 1 2099.96 2797.02 144.99 o
617 1 -6 4 -1 2099.96 2797.02 144.99 o
618 2 -7 -4 -1 33.61 155.54 131.81 <
618 1 7 4 1 33.61 155.54 131.81 <
619 2 7 -4 1 36.93 274.17 142.35 <
619 1 -7 4 -1 36.93 274.17 142.35 <
620 2 -8 -4 -1 673.47 811.95 142.35 o
620 1 8 4 1 673.47 811.95 142.35 o
621 2 8 -4 1 674.76 1086.12 173.99 o
621 1 -8 4 -1 674.76 1086.12 173.99 o
622 2 -9 -4 -1 5649.14 5348.87 160.81 o
622 1 9 4 1 5649.14 5348.87 160.81 o
623 2 9 -4 1 5613.86 6166.09 173.99 o
623 1 -9 4 -1 5613.86 6166.09 173.99 o
624 2 -10 -4 -1 467.22 150.26 158.17 <
624 1 10 4 1 467.22 150.26 158.17 <
625 2 10 -4 1 480.43 527.24 195.08 o
625 1 -10 4 -1 480.43 527.24 195.08 o
626 2 -11 -4 -1 655.51 970.12 168.72 o
626 1 11 4 1 655.51 970.12 168.72 o
627 2 11 -4 1 664.86 611.60 184.54 o
627 1 -11 4 -1 664.86 611.60 184.54 o
628 2 -12 -4 -1 520.20 637.96 184.54 o
628 1 12 4 1 520.20 637.96 184.54 o
629 2 12 -4 1 532.44 695.96 205.62 o
629 1 -12 4 -1 532.44 695.96 205.62 o
630 2 -13 -4 -1 3.44 -213.53 221.44 <
630 1 13 4 1 3.44 -213.53 221.44 <
631 2 13 -4 1 3.14 195.08 237.26 <
631 1 -13 4 -1 3.14 195.08 237.26 <
632 2 -14 -4 -1 2163.52 1650.27 234.62 o
632 1 14 4 1 2163.52 1650.27 234.62 o
633 2 14 -4 1 2141.96 1876.98 242.53 o
633 1 -14 4 -1 2141.96 1876.98 242.53 o
634 2 -15 -4 -1 85.70 506.15 268.89 <
634 1 15 4 1 85.70 506.15 268.89 <
635 2 15 -4 1 89.54 84.36 231.99 <
635 1 -15 4 -1 89.54 84.36 231.99 <
636 2 -16 -4 -1 115.94 355.89 284.71 <
636 1 16 4 1 115.94 355.89 284.71 <
637 2 16 -4 1 122.10 -65.91 247.80 <
637 1 -16 4 -1 122.10 -65.91 247.80 <
638 2 -17 -4 -1 368.12 374.34 268.89 <
638 1 17 4 1 368.12 374.34 268.89 <
639 2 17 -4 1 376.78 830.41 231.99 o
639 1 -17 4 -1 376.78 830.41 231.99 o
640 2 17 -5 -1 204.94 390.16 289.98 <
640 1 -17 5 1 204.94 390.16 289.98 <
641 2 -17 -5 1 196.22 137.08 255.71 <
641 1 17 5 -1 196.22 137.08 255.71 <
642 2 16 -5 -1 674.28 -637.96 268.89 <
642 1 -16 5 1 674.28 -637.96 268.89 <
643 2 -16 -5 1 652.41 -144.99 258.35 <
643 1 16 5 -1 652.41 -144.99 258.35 <
644 2 15 -5 -1 3929.13 4985.07 239.90 o
644 1 -15 5 1 3929.13 4985.07 239.90 o
645 2 -15 -5 1 3959.18 4352.38 260.98 o
645 1 15 5 -1 3959.18 4352.38 260.98 o
646 2 14 -5 -1 915.51 1165.20 195.08 o
646 1 -14 5 1 915.51 1165.20 195.08 o
647 2 -14 -5 1 913.57 1376.10 208.26 o
647 1 14 5 -1 913.57 1376.10 208.26 o
648 2 13 -5 -1 2624.88 3079.09 189.81 o
648 1 -13 5 1 2624.88 3079.09 189.81 o
649 2 -13 -5 1 2681.82 2968.37 200.35 o
649 1 13 5 -1 2681.82 2968.37 200.35 o
650 2 12 -5 -1 668.58 316.35 168.72 <
650 1 -12 5 1 668.58 316.35 168.72 <
651 2 -12 -5 1 639.81 350.62 179.26 <
651 1 12 5 -1 639.81 350.62 179.26 <
652 2 11 -5 -1 1324.18 938.49 158.17 o
652 1 -11 5 1 1324.18 938.49 158.17 o
653 2 -11 -5 1 1352.68 896.31 168.72 o
653 1 11 5 -1 1352.68 896.31 168.72 o
654 2 10 -5 -1 11351.20 13716.20 181.90 o
654 1 -10 5 1 11351.20 13716.20 181.90 o
655 2 -10 -5 1 11305.30 13173.10 192.44 o
655 1 10 5 -1 11305.30 13173.10 192.44 o
656 2 9 -5 -1 596.77 724.96 139.72 o
656 1 -9 5 1 596.77 724.96 139.72 o
657 2 -9 -5 1 601.46 585.24 152.90 o
657 1 9 5 -1 601.46 585.24 152.90 o
658 2 8 -5 -1 7526.45 9877.88 152.90 o
658 1 -8 5 1 7526.45 9877.88 152.90 o
659 2 -8 -5 1 7639.25 10086.10 158.17 o
659 1 8 5 -1 7639.25 10086.10 158.17 o
660 2 7 -5 -1 2351.36 1463.10 139.72 o
660 1 -7 5 1 2351.36 1463.10 139.72 o
661 2 -7 -5 1 2258.12 1776.81 134.45 o
661 1 7 5 -1 2258.12 1776.81 134.45 o
662 2 6 -5 -1 2015.67 1457.82 129.17 o
662 1 -6 5 1 2015.67 1457.82 129.17 o
663 2 -6 -5 1 2194.23 1318.10 134.45 o
663 1 6 5 -1 2194.23 1318.10 134.45 o
664 2 5 -5 -1 19182.10 20797.10 166.08 o
664 1 -5 5 1 19182.10 20797.10 166.08 o
665 2 -5 -5 1 19191.50 21717.10 179.26 o
665 1 5 5 -1 19191.50 21717.10 179.26 o
666 2 4 -5 -1 216.75 706.50 121.27 o
666 1 -4 5 1 216.75 706.50 121.27 o
667 2 -4 -5 1 228.61 722.32 123.90 o
667 1 4 5 -1 228.61 722.32 123.90 o
668 2 3 -5 -1 13877.50 15872.60 152.90 o
668 1 -3 5 1 13877.50 15872.60 152.90 o
669 2 -3 -5 1 14097.20 16581.80 168.72 o
669 1 3 5 -1 14097.20 16581.80 168.72 o
670 2 2 -5 -1 5217.00 3759.23 171.35 o
670 1 -2 5 1 5217.00 3759.23 171.35 o
671 2 -2 -5 1 5245.33 3735.51 108.08 o
671 1 2 5 -1 5245.33 3735.51 108.08 o
672 2 1 -5 -1 4383.23 3026.37 121.27 o
672 1 -1 5 1 4383.23 3026.37 121.27 o
673 2 -1 -5 1 4604.11 3034.28 147.63 o
673 1 1 5 -1 4604.11 3034.28 147.63 o
674 2 0 -5 -1 25141.50 28131.00 163.45 o
674 1 0 5 1 25141.50 28131.00 163.45 o
675 2 0 -5 1 25445.20 27124.00 184.54 o
675 1 0 5 -1 25445.20 27124.00 184.54 o
676 2 -1 -5 -1 222.35 835.68 113.36 o
676 1 1 5 1 222.35 835.68 113.36 o
677 2 1 -5 1 235.50 904.22 142.35 o
677 1 -1 5 -1 235.50 904.22 142.35 o
678 2 -2 -5 -1 16178.60 17836.60 123.90 o
678 1 2 5 1 16178.60 17836.60 123.90 o
679 2 2 -5 1 16279.70 18192.50 237.26 o
679 1 -2 5 -1 16279.70 18192.50 237.26 o
680 2 -3 -5 -1 12237.90 10792.60 144.99 o
680 1 3 5 1 12237.90 10792.60 144.99 o
681 2 3 -5 1 12474.00 10790.00 144.99 o
681 1 -3 5 -1 12474.00 10790.00 144.99 o
682 2 -4 -5 -1 5381.21 5214.42 142.35 o
682 1 4 5 1 5381.21 5214.42 142.35 o
683 2 4 -5 1 5362.87 5588.76 147.63 o
683 1 -4 5 -1 5362.87 5588.76 147.63 o
684 2 -5 -5 -1 24070.90 26899.90 181.90 o
684 1 5 5 1 24070.90 26899.90 181.90 o
685 2 5 -5 1 24247.60 26818.20 184.54 o
685 1 -5 5 -1 24247.60 26818.20 184.54 o
686 2 -6 -5 -1 611.94 970.12 134.45 o
686 1 6 5 1 611.94 970.12 134.45 o
687 2 6 -5 1 655.31 851.50 144.99 o
687 1 -6 5 -1 655.31 851.50 144.99 o
688 2 -7 -5 -1 8780.36 8267.15 158.17 o
688 1 7 5 1 8780.36 8267.15 158.17 o
689 2 7 -5 1 8688.55 8551.86 152.90 o
689 1 -7 5 -1 8688.55 8551.86 152.90 o
690 2 -8 -5 -1 10115.70 10626.60 150.26 o
690 1 8 5 1 10115.70 10626.60 150.26 o
691 2 8 -5 1 10173.20 11098.40 158.17 o
691 1 -8 5 -1 10173.20 11098.40 158.17 o
692 2 -9 -5 -1 2330.03 2261.87 139.72 o
692 1 9 5 1 2330.03 2261.87 139.72 o
693 2 9 -5 1 2280.06 2351.50 166.08 o
693 1 -9 5 -1 2280.06 2351.50 166.08 o
694 2 -10 -5 -1 12054.70 12640.60 176.63 o
694 1 10 5 1 12054.70 12640.60 176.63 o
695 2 10 -5 1 12123.40 14082.60 197.72 o
695 1 -10 5 -1 12123.40 14082.60 197.72 o
696 2 -11 -5 -1 112.98 532.51 150.26 o
696 1 11 5 1 112.98 532.51 150.26 o
697 2 11 -5 1 128.24 68.54 160.81 <
697 1 -11 5 -1 128.24 68.54 160.81 <
698 2 -12 -5 -1 2213.80 1616.00 179.26 o
698 1 12 5 1 2213.80 1616.00 179.26 o
699 2 12 -5 1 2224.83 1829.53 197.72 o
699 1 -12 5 -1 2224.83 1829.53 197.72 o
700 2 -13 -5 -1 3790.44 3253.08 195.08 o
700 1 13 5 1 3790.44 3253.08 195.08 o
701 2 13 -5 1 3769.00 3769.78 208.26 o
701 1 -13 5 -1 3769.00 3769.78 208.26 o
702 2 -14 -5 -1 513.01 345.34 197.72 <
702 1 14 5 1 513.01 345.34 197.72 <
703 2 14 -5 1 505.07 622.15 224.08 o
703 1 -14 5 -1 505.07 622.15 224.08 o
704 2 -15 -5 -1 3961.31 3068.55 239.90 o
704 1 15 5 1 3961.31 3068.55 239.90 o
705 2 15 -5 1 3974.61 3376.98 297.89 o
705 1 -15 5 -1 3974.61 3376.98 297.89 o
706 2 -16 -5 -1 9.54 543.06 250.44 o
706 1 16 5 1 9.54 543.06 250.44 o
707 2 16 -5 1 15.30 809.32 242.53 o
707 1 -16 5 -1 15.30 809.32 242.53 o
708 2 16 -6 -1 78.13 -10.54 239.90 <
708 1 -16 6 1 78.13 -10.54 239.90 <
709 2 -16 -6 1 72.60 485.06 260.98 <
709 1 16 6 -1 72.60 485.06 260.98 <
710 2 15 -6 -1 64.50 292.62 208.26 <
710 1 -15 6 1 64.50 292.62 208.26 <
711 2 -15 -6 1 66.32 55.36 229.35 <
711 1 15 6 -1 66.32 55.36 229.35 <
712 2 14 -6 -1 738.82 255.71 187.17 <
712 1 -14 6 1 738.82 255.71 187.17 <
713 2 -14 -6 1 741.03 761.86 218.80 o
713 1 14 6 -1 741.03 761.86 218.80 o
714 2 13 -6 -1 15.98 210.90 168.72 <
714 1 -13 6 1 15.98 210.90 168.72 <
715 2 -13 -6 1 18.67 -73.81 187.17 <
715 1 13 6 -1 18.67 -73.81 187.17 <
716 2 12 -6 -1 758.73 632.69 163.45 o
716 1 -12 6 1 758.73 632.69 163.45 o
717 2 -12 -6 1 749.18 550.97 166.08 o
717 1 12 6 -1 749.18 550.97 166.08 o
718 2 11 -6 -1 35.99 58.00 144.99 <
718 1 -11 6 1 35.99 58.00 144.99 <
719 2 -11 -6 1 30.68 -105.45 155.54 <
719 1 11 6 -1 30.68 -105.45 155.54 <
720 2 10 -6 -1 11.49 168.72 139.72 <
720 1 -10 6 1 11.49 168.72 139.72 <
721 2 -10 -6 1 11.75 152.90 144.99 <
721 1 10 6 -1 11.75 152.90 144.99 <
722 2 9 -6 -1 1935.33 1695.08 134.45 o
722 1 -9 6 1 1935.33 1695.08 134.45 o
723 2 -9 -6 1 1935.83 1217.93 139.72 o
723 1 9 6 -1 1935.83 1217.93 139.72 o
724 2 8 -6 -1 19.15 205.62 129.17 <
724 1 -8 6 1 19.15 205.62 129.17 <
725 2 -8 -6 1 20.34 358.52 137.08 o
725 1 8 6 -1 20.34 358.52 137.08 o
726 2 7 -6 -1 708.65 669.60 126.54 o
726 1 -7 6 1 708.65 669.60 126.54 o
727 2 -7 -6 1 703.16 727.59 129.17 o
727 1 7 6 -1 703.16 727.59 129.17 o
728 2 6 -6 -1 66.26 234.62 121.27 <
728 1 -6 6 1 66.26 234.62 121.27 <
729 2 -6 -6 1 74.06 221.44 123.90 <
729 1 6 6 -1 74.06 221.44 123.90 <
730 2 5 -6 -1 135.69 398.07 121.27 o
730 1 -5 6 1 135.69 398.07 121.27 o
731 2 -5 -6 1 136.82 366.43 126.54 o
731 1 5 6 -1 136.82 366.43 126.54 o
732 2 4 -6 -1 4402.02 4036.04 129.17 o
732 1 -4 6 1 4402.02 4036.04 129.17 o
733 2 -4 -6 1 4402.87 4241.66 139.72 o
733 1 4 6 -1 4402.87 4241.66 139.72 o
734 2 3 -6 -1 378.93 767.14 163.45 o
734 1 -3 6 1 378.93 767.14 163.45 o
735 2 -3 -6 1 379.66 782.95 121.27 o
735 1 3 6 -1 379.66 782.95 121.27 o
736 2 2 -6 -1 80.77 477.15 160.81 o
736 1 -2 6 1 80.77 477.15 160.81 o
737 2 -2 -6 1 78.66 500.88 147.63 o
737 1 2 6 -1 78.66 500.88 147.63 o
738 2 1 -6 -1 204.91 266.26 113.36 o
738 1 -1 6 1 204.91 266.26 113.36 o
739 2 -1 -6 1 209.23 371.71 134.45 o
739 1 1 6 -1 209.23 371.71 134.45 o
740 2 0 -6 -1 513.00 579.97 110.72 o
740 1 0 6 1 513.00 579.97 110.72 o
741 2 0 -6 1 516.97 482.43 121.27 o
741 1 0 6 -1 516.97 482.43 121.27 o
742 2 -1 -6 -1 5996.41 5986.83 131.81 o
742 1 1 6 1 5996.41 5986.83 131.81 o
743 2 1 -6 1 5992.10 6429.71 142.35 o
743 1 -1 6 -1 5992.10 6429.71 142.35 o
744 2 -2 -6 -1 368.07 666.96 108.08 o
744 1 2 6 1 368.07 666.96 108.08 o
745 2 2 -6 1 371.78 891.04 139.72 o
745 1 -2 6 -1 371.78 891.04 139.72 o
746 2 -3 -6 -1 101.33 643.23 100.18 o
746 1 3 6 1 101.33 643.23 100.18 o
747 2 3 -6 1 106.12 466.61 210.90 o
747 1 -3 6 -1 106.12 466.61 210.90 o
748 2 -4 -6 -1 181.74 411.25 115.99 o
748 1 4 6 1 181.74 411.25 115.99 o
749 2 4 -6 1 177.99 448.16 179.26 o
749 1 -4 6 -1 177.99 448.16 179.26 o
750 2 -5 -6 -1 10.07 242.53 115.99 o
750 1 5 6 1 10.07 242.53 115.99 o
751 2 5 -6 1 11.03 292.62 118.63 o
751 1 -5 6 -1 11.03 292.62 118.63 o
752 2 -6 -6 -1 2593.57 2314.59 126.54 o
752 1 6 6 1 2593.57 2314.59 126.54 o
753 2 6 -6 1 2600.64 2388.41 129.17 o
753 1 -6 6 -1 2600.64 2388.41 129.17 o
754 2 -7 -6 -1 100.72 305.80 121.27 o
754 1 7 6 1 100.72 305.80 121.27 o
755 2 7 -6 1 108.22 237.26 123.90 <
755 1 -7 6 -1 108.22 237.26 123.90 <
756 2 -8 -6 -1 63.39 371.71 137.08 o
756 1 8 6 1 63.39 371.71 137.08 o
757 2 8 -6 1 61.17 86.99 123.90 <
757 1 -8 6 -1 61.17 86.99 123.90 <
758 2 -9 -6 -1 926.14 722.32 134.45 o
758 1 9 6 1 926.14 722.32 134.45 o
759 2 9 -6 1 915.78 1051.85 147.63 o
759 1 -9 6 -1 915.78 1051.85 147.63 o
760 2 -10 -6 -1 74.35 427.07 131.81 o
760 1 10 6 1 74.35 427.07 131.81 o
761 2 10 -6 1 73.69 340.07 152.90 o
761 1 -10 6 -1 73.69 340.07 152.90 o
762 2 -11 -6 -1 501.46 308.44 139.72 o
762 1 11 6 1 501.46 308.44 139.72 o
763 2 11 -6 1 504.97 137.08 163.45 <
763 1 -11 6 -1 504.97 137.08 163.45 <
764 2 -12 -6 -1 51.72 58.00 158.17 <
764 1 12 6 1 51.72 58.00 158.17 <
765 2 12 -6 1 57.30 421.79 158.17 o
765 1 -12 6 -1 57.30 421.79 158.17 o
766 2 -13 -6 -1 72.04 -144.99 166.08 <
766 1 13 6 1 72.04 -144.99 166.08 <
767 2 13 -6 1 65.73 -10.54 181.90 <
767 1 -13 6 -1 65.73 -10.54 181.90 <
768 2 -14 -6 -1 833.30 659.05 179.26 o
768 1 14 6 1 833.30 659.05 179.26 o
769 2 14 -6 1 822.12 943.76 210.90 o
769 1 -14 6 -1 822.12 943.76 210.90 o
770 2 -15 -6 -1 65.04 -58.00 208.26 <
770 1 15 6 1 65.04 -58.00 208.26 <
771 2 15 -6 1 66.29 374.34 234.62 <
771 1 -15 6 -1 66.29 374.34 234.62 <
772 2 14 -7 -1 359.79 181.90 179.26 <
772 1 -14 7 1 359.79 181.90 179.26 <
773 2 -14 -7 1 351.92 498.24 195.08 o
773 1 14 7 -1 351.92 498.24 195.08 o
774 2 13 -7 -1 4055.37 2952.55 171.35 o
774 1 -13 7 1 4055.37 2952.55 171.35 o
775 2 -13 -7 1 4073.43 2799.65 189.81 o
775 1 13 7 -1 4073.43 2799.65 189.81 o
776 2 12 -7 -1 532.67 558.88 152.90 o
776 1 -12 7 1 532.67 558.88 152.90 o
777 2 -12 -7 1 538.16 434.98 166.08 o
777 1 12 7 -1 538.16 434.98 166.08 o
778 2 11 -7 -1 1546.74 780.32 158.17 o
778 1 -11 7 1 1546.74 780.32 158.17 o
779 2 -11 -7 1 1503.87 830.41 155.54 o
779 1 11 7 -1 1503.87 830.41 155.54 o
780 2 10 -7 -1 6996.10 7811.09 152.90 o
780 1 -10 7 1 6996.10 7811.09 152.90 o
781 2 -10 -7 1 6998.64 8014.08 171.35 o
781 1 10 7 -1 6998.64 8014.08 171.35 o
782 2 9 -7 -1 575.03 1278.56 139.72 o
782 1 -9 7 1 575.03 1278.56 139.72 o
783 2 -9 -7 1 555.41 1009.67 137.08 o
783 1 9 7 -1 555.41 1009.67 137.08 o
784 2 8 -7 -1 13355.30 14022.00 163.45 o
784 1 -8 7 1 13355.30 14022.00 163.45 o
785 2 -8 -7 1 13334.10 14264.50 160.81 o
785 1 8 7 -1 13334.10 14264.50 160.81 o
786 2 7 -7 -1 2211.42 1787.35 126.54 o
786 1 -7 7 1 2211.42 1787.35 126.54 o
787 2 -7 -7 1 2278.42 1813.71 134.45 o
787 1 7 7 -1 2278.42 1813.71 134.45 o
788 2 6 -7 -1 5168.58 3503.52 126.54 o
788 1 -6 7 1 5168.58 3503.52 126.54 o
789 2 -6 -7 1 5065.68 3640.61 134.45 o
789 1 6 7 -1 5065.68 3640.61 134.45 o
790 2 5 -7 -1 13964.80 16355.00 150.26 o
790 1 -5 7 1 13964.80 16355.00 150.26 o
791 2 -5 -7 1 13968.80 17232.90 166.08 o
791 1 5 7 -1 13968.80 17232.90 166.08 o
792 2 4 -7 -1 372.05 1072.94 173.99 o
792 1 -4 7 1 372.05 1072.94 173.99 o
793 2 -4 -7 1 357.61 1210.02 100.18 o
793 1 4 7 -1 357.61 1210.02 100.18 o
794 2 3 -7 -1 23218.00 23731.20 216.17 o
794 1 -3 7 1 23218.00 23731.20 216.17 o
795 2 -3 -7 1 23041.40 23256.60 163.45 o
795 1 3 7 -1 23041.40 23256.60 163.45 o
796 2 2 -7 -1 5197.72 5006.16 123.90 o
796 1 -2 7 1 5197.72 5006.16 123.90 o
797 2 -2 -7 1 5200.02 4497.37 126.54 o
797 1 2 7 -1 5200.02 4497.37 126.54 o
798 2 1 -7 -1 6132.19 5124.79 123.90 o
798 1 -1 7 1 6132.19 5124.79 123.90 o
799 2 -1 -7 1 6065.29 5035.16 137.08 o
799 1 1 7 -1 6065.29 5035.16 137.08 o
800 2 0 -7 -1 14813.90 15300.60 142.35 o
800 1 0 7 1 14813.90 15300.60 142.35 o
801 2 0 -7 1 14682.10 15232.00 150.26 o
801 1 0 7 -1 14682.10 15232.00 150.26 o
802 2 -1 -7 -1 94.13 651.14 118.63 o
802 1 1 7 1 94.13 651.14 118.63 o
803 2 1 -7 1 86.03 521.97 118.63 o
803 1 -1 7 -1 86.03 521.97 118.63 o
804 2 -2 -7 -1 15949.30 17612.50 147.63 o
804 1 2 7 1 15949.30 17612.50 147.63 o
805 2 2 -7 1 15845.80 16560.70 152.90 o
805 1 -2 7 -1 15845.80 16560.70 152.90 o
806 2 -3 -7 -1 6095.47 5182.79 134.45 o
806 1 3 7 1 6095.47 5182.79 134.45 o
807 2 3 -7 1 5951.04 5098.43 129.17 o
807 1 -3 7 -1 5951.04 5098.43 129.17 o
808 2 -4 -7 -1 4274.95 3139.73 100.18 o
808 1 4 7 1 4274.95 3139.73 100.18 o
809 2 4 -7 1 4363.68 2957.83 176.63 o
809 1 -4 7 -1 4363.68 2957.83 176.63 o
810 2 -5 -7 -1 7524.23 9390.18 147.63 o
810 1 5 7 1 7524.23 9390.18 147.63 o
811 2 5 -7 1 7493.27 9295.27 234.62 o
811 1 -5 7 -1 7493.27 9295.27 234.62 o
812 2 -6 -7 -1 218.26 440.25 131.81 o
812 1 6 7 1 218.26 440.25 131.81 o
813 2 6 -7 1 193.98 485.06 121.27 o
813 1 -6 7 -1 193.98 485.06 121.27 o
814 2 -7 -7 -1 6710.25 6300.54 150.26 o
814 1 7 7 1 6710.25 6300.54 150.26 o
815 2 7 -7 1 6740.69 6558.89 147.63 o
815 1 -7 7 -1 6740.69 6558.89 147.63 o
816 2 -8 -7 -1 3854.67 3917.41 137.08 o
816 1 8 7 1 3854.67 3917.41 137.08 o
817 2 8 -7 1 3764.43 4057.13 137.08 o
817 1 -8 7 -1 3764.43 4057.13 137.08 o
818 2 -9 -7 -1 1731.28 1154.66 144.99 o
818 1 9 7 1 1731.28 1154.66 144.99 o
819 2 9 -7 1 1770.67 1484.19 137.08 o
819 1 -9 7 -1 1770.67 1484.19 137.08 o
820 2 -10 -7 -1 3384.66 4634.46 147.63 o
820 1 10 7 1 3384.66 4634.46 147.63 o
821 2 10 -7 1 3428.45 4544.82 152.90 o
821 1 -10 7 -1 3428.45 4544.82 152.90 o
822 2 -11 -7 -1 43.64 311.07 155.54 <
822 1 11 7 1 43.64 311.07 155.54 <
823 2 11 -7 1 33.03 540.42 160.81 o
823 1 -11 7 -1 33.03 540.42 160.81 o
824 2 -12 -7 -1 1731.84 1560.64 158.17 o
824 1 12 7 1 1731.84 1560.64 158.17 o
825 2 12 -7 1 1739.92 1349.74 168.72 o
825 1 -12 7 -1 1739.92 1349.74 168.72 o
826 2 -13 -7 -1 2082.74 2040.43 168.72 o
826 1 13 7 1 2082.74 2040.43 168.72 o
827 2 13 -7 1 2042.59 1813.71 197.72 o
827 1 -13 7 -1 2042.59 1813.71 197.72 o
828 2 -14 -7 -1 380.01 289.98 181.90 <
828 1 14 7 1 380.01 289.98 181.90 <
829 2 14 -7 1 379.62 701.23 202.99 o
829 1 -14 7 -1 379.62 701.23 202.99 o
830 2 13 -8 -1 84.08 358.52 158.17 o
830 1 -13 8 1 84.08 358.52 158.17 o
831 2 -13 -8 1 90.05 242.53 173.99 <
831 1 13 8 -1 90.05 242.53 173.99 <
832 2 12 -8 -1 6.64 192.44 160.81 <
832 1 -12 8 1 6.64 192.44 160.81 <
833 2 -12 -8 1 6.77 303.16 166.08 <
833 1 12 8 -1 6.77 303.16 166.08 <
834 2 11 -8 -1 13.53 221.44 142.35 <
834 1 -11 8 1 13.53 221.44 142.35 <
835 2 -11 -8 1 18.02 113.36 150.26 <
835 1 11 8 -1 18.02 113.36 150.26 <
836 2 10 -8 -1 53.23 506.15 137.08 o
836 1 -10 8 1 53.23 506.15 137.08 o
837 2 -10 -8 1 53.96 89.63 142.35 <
837 1 10 8 -1 53.96 89.63 142.35 <
838 2 9 -8 -1 453.04 833.04 137.08 o
838 1 -9 8 1 453.04 833.04 137.08 o
839 2 -9 -8 1 452.61 891.04 137.08 o
839 1 9 8 -1 452.61 891.04 137.08 o
840 2 8 -8 -1 25.96 -97.54 129.17 <
840 1 -8 8 1 25.96 -97.54 129.17 <
841 2 -8 -8 1 29.36 18.45 137.08 <
841 1 8 8 -1 29.36 18.45 137.08 <
842 2 7 -8 -1 7.21 221.44 118.63 <
842 1 -7 8 1 7.21 221.44 118.63 <
843 2 -7 -8 1 6.56 -44.82 123.90 <
843 1 7 8 -1 6.56 -44.82 123.90 <
844 2 6 -8 -1 101.49 471.88 166.08 o
844 1 -6 8 1 101.49 471.88 166.08 o
845 2 -6 -8 1 103.09 168.72 123.90 <
845 1 6 8 -1 103.09 168.72 123.90 <
846 2 5 -8 -1 17.67 305.80 166.08 <
846 1 -5 8 1 17.67 305.80 166.08 <
847 2 -5 -8 1 17.82 134.45 102.81 <
847 1 5 8 -1 17.82 134.45 102.81 <
848 2 4 -8 -1 52.45 68.54 168.72 <
848 1 -4 8 1 52.45 68.54 168.72 <
849 2 -4 -8 1 50.70 321.62 129.17 o
849 1 4 8 -1 50.70 321.62 129.17 o
850 2 3 -8 -1 104.15 337.43 118.63 o
850 1 -3 8 1 104.15 337.43 118.63 o
851 2 -3 -8 1 101.84 329.53 118.63 o
851 1 3 8 -1 101.84 329.53 118.63 o
852 2 2 -8 -1 541.59 427.07 123.90 o
852 1 -2 8 1 541.59 427.07 123.90 o
853 2 -2 -8 1 541.79 384.89 129.17 o
853 1 2 8 -1 541.79 384.89 129.17 o
854 2 1 -8 -1 651.12 980.67 118.63 o
854 1 -1 8 1 651.12 980.67 118.63 o
855 2 -1 -8 1 652.62 1049.21 121.27 o
855 1 1 8 -1 652.62 1049.21 121.27 o
856 2 0 -8 -1 328.74 221.44 118.63 <
856 1 0 8 1 328.74 221.44 118.63 <
857 2 0 -8 1 326.14 226.71 115.99 <
857 1 0 8 -1 326.14 226.71 115.99 <
858 2 -1 -8 -1 135.45 545.70 118.63 o
858 1 1 8 1 135.45 545.70 118.63 o
859 2 1 -8 1 135.07 506.15 115.99 o
859 1 -1 8 -1 135.07 506.15 115.99 o
860 2 -2 -8 -1 185.15 250.44 113.36 o
860 1 2 8 1 185.15 250.44 113.36 o
861 2 2 -8 1 184.35 474.52 131.81 o
861 1 -2 8 -1 184.35 474.52 131.81 o
862 2 -3 -8 -1 1004.27 1283.83 121.27 o
862 1 3 8 1 1004.27 1283.83 121.27 o
863 2 3 -8 1 1003.33 1233.75 121.27 o
863 1 -3 8 -1 1003.33 1233.75 121.27 o
864 2 -4 -8 -1 736.84 200.35 121.27 <
864 1 4 8 1 736.84 200.35 121.27 <
865 2 4 -8 1 733.39 490.33 131.81 o
865 1 -4 8 -1 733.39 490.33 131.81 o
866 2 -5 -8 -1 157.49 84.36 123.90 <
866 1 5 8 1 157.49 84.36 123.90 <
867 2 5 -8 1 157.36 131.81 176.63 <
867 1 -5 8 -1 157.36 131.81 176.63 <
868 2 -6 -8 -1 90.54 445.52 100.18 o
868 1 6 8 1 90.54 445.52 100.18 o
869 2 6 -8 1 87.03 579.97 205.62 o
869 1 -6 8 -1 87.03 579.97 205.62 o
870 2 -7 -8 -1 36.16 129.17 137.08 <
870 1 7 8 1 36.16 129.17 137.08 <
871 2 7 -8 1 35.89 144.99 184.54 <
871 1 -7 8 -1 35.89 144.99 184.54 <
872 2 -8 -8 -1 449.31 822.50 134.45 o
872 1 8 8 1 449.31 822.50 134.45 o
873 2 8 -8 1 454.43 524.61 147.63 o
873 1 -8 8 -1 454.43 524.61 147.63 o
874 2 -9 -8 -1 332.60 392.80 155.54 o
874 1 9 8 1 332.60 392.80 155.54 o
875 2 9 -8 1 327.71 -36.91 137.08 <
875 1 -9 8 -1 327.71 -36.91 137.08 <
876 2 -10 -8 -1 63.94 142.35 139.72 <
876 1 10 8 1 63.94 142.35 139.72 <
877 2 10 -8 1 68.65 -5.27 142.35 <
877 1 -10 8 -1 68.65 -5.27 142.35 <
878 2 -11 -8 -1 8.85 113.36 144.99 <
878 1 11 8 1 8.85 113.36 144.99 <
879 2 11 -8 1 11.59 50.09 155.54 <
879 1 -11 8 -1 11.59 50.09 155.54 <
880 2 -12 -8 -1 7.25 -23.73 158.17 <
880 1 12 8 1 7.25 -23.73 158.17 <
881 2 12 -8 1 7.41 -405.98 163.45 <
881 1 -12 8 -1 7.41 -405.98 163.45 <
882 2 10 -9 -1 1871.07 2235.51 152.90 o
882 1 -10 9 1 1871.07 2235.51 152.90 o
883 2 -10 -9 1 1846.06 2166.96 158.17 o
883 1 10 9 -1 1846.06 2166.96 158.17 o
884 2 9 -9 -1 110.09 350.62 134.45 o
884 1 -9 9 1 110.09 350.62 134.45 o
885 2 -9 -9 1 118.52 292.62 142.35 o
885 1 9 9 -1 118.52 292.62 142.35 o
886 2 8 -9 -1 3579.28 3234.63 197.72 o
886 1 -8 9 1 3579.28 3234.63 197.72 o
887 2 -8 -9 1 3609.59 3239.90 142.35 o
887 1 8 9 -1 3609.59 3239.90 142.35 o
888 2 7 -9 -1 1154.31 1099.30 181.90 o
888 1 -7 9 1 1154.31 1099.30 181.90 o
889 2 -7 -9 1 1114.25 1217.93 118.63 o
889 1 7 9 -1 1114.25 1217.93 118.63 o
890 2 6 -9 -1 965.39 1104.57 171.35 o
890 1 -6 9 1 965.39 1104.57 171.35 o
891 2 -6 -9 1 1028.40 672.23 134.45 o
891 1 6 9 -1 1028.40 672.23 134.45 o
892 2 5 -9 -1 3281.55 4291.75 129.17 o
892 1 -5 9 1 3281.55 4291.75 129.17 o
893 2 -5 -9 1 3257.83 4721.45 147.63 o
893 1 5 9 -1 3257.83 4721.45 147.63 o
894 2 4 -9 -1 135.97 558.88 115.99 o
894 1 -4 9 1 135.97 558.88 115.99 o
895 2 -4 -9 1 143.04 463.97 121.27 o
895 1 4 9 -1 143.04 463.97 121.27 o
896 2 3 -9 -1 5330.07 4497.37 123.90 o
896 1 -3 9 1 5330.07 4497.37 123.90 o
897 2 -3 -9 1 5391.19 4389.29 131.81 o
897 1 3 9 -1 5391.19 4389.29 131.81 o
898 2 2 -9 -1 2368.27 2003.52 121.27 o
898 1 -2 9 1 2368.27 2003.52 121.27 o
899 2 -2 -9 1 2348.47 2164.33 126.54 o
899 1 2 9 -1 2348.47 2164.33 126.54 o
900 2 1 -9 -1 1268.21 1115.12 126.54 o
900 1 -1 9 1 1268.21 1115.12 126.54 o
901 2 -1 -9 1 1305.37 1001.76 134.45 o
901 1 1 9 -1 1305.37 1001.76 134.45 o
902 2 0 -9 -1 4980.73 6068.55 131.81 o
902 1 0 9 1 4980.73 6068.55 131.81 o
903 2 0 -9 1 5034.55 6429.71 137.08 o
903 1 0 9 -1 5034.55 6429.71 137.08 o
904 2 -1 -9 -1 38.17 247.80 115.99 o
904 1 1 9 1 38.17 247.80 115.99 o
905 2 1 -9 1 41.62 234.62 134.45 <
905 1 -1 9 -1 41.62 234.62 134.45 <
906 2 -2 -9 -1 6240.46 5920.93 137.08 o
906 1 2 9 1 6240.46 5920.93 137.08 o
907 2 2 -9 1 6235.80 5367.32 137.08 o
907 1 -2 9 -1 6235.80 5367.32 137.08 o
908 2 -3 -9 -1 3655.21 3508.79 131.81 o
908 1 3 9 1 3655.21 3508.79 131.81 o
909 2 3 -9 1 3699.01 3000.01 134.45 o
909 1 -3 9 -1 3699.01 3000.01 134.45 o
910 2 -4 -9 -1 1247.51 1112.48 123.90 o
910 1 4 9 1 1247.51 1112.48 123.90 o
911 2 4 -9 1 1209.69 1028.12 139.72 o
911 1 -4 9 -1 1209.69 1028.12 139.72 o
912 2 -5 -9 -1 5049.72 6395.44 142.35 o
912 1 5 9 1 5049.72 6395.44 142.35 o
913 2 5 -9 1 5082.07 6268.91 139.72 o
913 1 -5 9 -1 5082.07 6268.91 139.72 o
914 2 -6 -9 -1 165.76 234.62 131.81 <
914 1 6 9 1 165.76 234.62 131.81 <
915 2 6 -9 1 179.24 398.07 213.53 <
915 1 -6 9 -1 179.24 398.07 213.53 <
916 2 -7 -9 -1 4294.03 3574.70 118.63 o
916 1 7 9 1 4294.03 3574.70 118.63 o
917 2 7 -9 1 4238.85 3788.23 231.99 o
917 1 -7 9 -1 4238.85 3788.23 231.99 o
918 2 -8 -9 -1 2920.04 2744.29 155.54 o
918 1 8 9 1 2920.04 2744.29 155.54 o
919 2 8 -9 1 2939.53 2135.33 205.62 o
919 1 -8 9 -1 2939.53 2135.33 205.62 o
920 2 -9 -9 -1 617.38 608.96 144.99 o
920 1 9 9 1 617.38 608.96 144.99 o
921 2 9 -9 1 595.06 260.98 216.17 <
921 1 -9 9 -1 595.06 260.98 216.17 <
922 2 -10 -9 -1 2617.50 3076.46 171.35 o
922 1 10 9 1 2617.50 3076.46 171.35 o
923 2 10 -9 1 2630.67 3305.81 171.35 o
923 1 -10 9 -1 2630.67 3305.81 171.35 o
924 2 7 -10 -1 40.65 543.06 184.54 o
924 1 -7 10 1 40.65 543.06 184.54 o
925 2 -7 -10 1 39.16 -18.45 150.26 <
925 1 7 10 -1 39.16 -18.45 150.26 <
926 2 6 -10 -1 53.36 195.08 137.08 <
926 1 -6 10 1 53.36 195.08 137.08 <
927 2 -6 -10 1 54.67 382.25 147.63 o
927 1 6 10 -1 54.67 382.25 147.63 o
928 2 5 -10 -1 55.26 71.18 129.17 <
928 1 -5 10 1 55.26 71.18 129.17 <
929 2 -5 -10 1 54.26 297.89 150.26 <
929 1 5 10 -1 54.26 297.89 150.26 <
930 2 4 -10 -1 152.34 129.17 126.54 <
930 1 -4 10 1 152.34 129.17 126.54 <
931 2 -4 -10 1 151.46 226.71 131.81 <
931 1 4 10 -1 151.46 226.71 131.81 <
932 2 3 -10 -1 106.14 316.35 129.17 o
932 1 -3 10 1 106.14 316.35 129.17 o
933 2 -3 -10 1 107.53 184.54 142.35 <
933 1 3 10 -1 107.53 184.54 142.35 <
934 2 2 -10 -1 117.22 250.44 126.54 <
934 1 -2 10 1 117.22 250.44 126.54 <
935 2 -2 -10 1 116.19 121.27 134.45 <
935 1 2 10 -1 116.19 121.27 134.45 <
936 2 1 -10 -1 88.89 73.81 126.54 <
936 1 -1 10 1 88.89 73.81 126.54 <
937 2 -1 -10 1 89.28 239.90 142.35 <
937 1 1 10 -1 89.28 239.90 142.35 <
938 2 0 -10 -1 110.71 308.44 123.90 o
938 1 0 10 1 110.71 308.44 123.90 o
939 2 0 -10 1 112.10 -26.36 131.81 <
939 1 0 10 -1 112.10 -26.36 131.81 <
940 2 -1 -10 -1 137.09 86.99 123.90 <
940 1 1 10 1 137.09 86.99 123.90 <
941 2 1 -10 1 136.87 -60.63 131.81 <
941 1 -1 10 -1 136.87 -60.63 131.81 <
942 2 -2 -10 -1 48.82 -31.63 123.90 <
942 1 2 10 1 48.82 -31.63 123.90 <
943 2 2 -10 1 49.41 58.00 131.81 <
943 1 -2 10 -1 49.41 58.00 131.81 <
944 2 -3 -10 -1 51.13 163.45 126.54 <
944 1 3 10 1 51.13 163.45 126.54 <
945 2 3 -10 1 52.90 318.98 129.17 o
945 1 -3 10 -1 52.90 318.98 129.17 o
946 2 -4 -10 -1 9.81 21.09 129.17 <
946 1 4 10 1 9.81 21.09 129.17 <
947 2 4 -10 1 10.49 65.91 142.35 <
947 1 -4 10 -1 10.49 65.91 142.35 <
948 2 -5 -10 -1 8.57 105.45 129.17 <
948 1 5 10 1 8.57 105.45 129.17 <
949 2 5 -10 1 8.19 102.81 152.90 <
949 1 -5 10 -1 8.19 102.81 152.90 <
950 2 -6 -10 -1 10.40 224.08 131.81 <
950 1 6 10 1 10.40 224.08 131.81 <
951 2 6 -10 1 11.51 287.35 147.63 <
951 1 -6 10 -1 11.51 287.35 147.63 <
952 2 -7 -10 -1 7.50 -295.26 139.72 <
952 1 7 10 1 7.50 -295.26 139.72 <
953 2 7 -10 1 6.84 84.36 163.45 <
953 1 -7 10 -1 6.84 84.36 163.45 <
954 3 -18 0 -2 192.91 260.98 213.53 <
954 2 19 0 -2 192.91 260.98 213.53 <
954 1 -19 0 2 192.91 260.98 213.53 <
955 3 18 0 2 141.49 485.06 242.53 <
955 2 -19 0 2 141.49 485.06 242.53 <
955 1 19 0 -2 141.49 485.06 242.53 <
956 3 -17 0 -2 879.85 -5.27 231.99 <
956 2 18 0 -2 879.85 -5.27 231.99 <
956 1 -18 0 2 879.85 -5.27 231.99 <
957 3 17 0 2 708.07 719.68 239.90 o
957 2 -18 0 2 708.07 719.68 239.90 o
957 1 18 0 -2 708.07 719.68 239.90 o
958 3 -16 0 -2 36.46 -71.18 237.26 <
958 2 17 0 -2 36.46 -71.18 237.26 <
958 1 -17 0 2 36.46 -71.18 237.26 <
959 3 16 0 2 35.99 308.44 239.90 <
959 2 -17 0 2 35.99 308.44 239.90 <
959 1 17 0 -2 35.99 308.44 239.90 <
960 3 -15 0 -2 17269.10 20931.50 282.07 o
960 2 16 0 -2 17269.10 20931.50 282.07 o
960 1 -16 0 2 17269.10 20931.50 282.07 o
961 3 15 0 2 17711.10 19510.60 292.62 o
961 2 -16 0 2 17711.10 19510.60 292.62 o
961 1 16 0 -2 17711.10 19510.60 292.62 o
962 3 -14 0 -2 2364.17 511.42 247.80 o
962 2 15 0 -2 2364.17 511.42 247.80 o
962 1 -15 0 2 2364.17 511.42 247.80 o
963 3 14 0 2 2472.06 1692.45 255.71 o
963 2 -15 0 2 2472.06 1692.45 255.71 o
963 1 15 0 -2 2472.06 1692.45 255.71 o
964 3 -13 0 -2 1807.99 1547.45 263.62 o
964 2 14 0 -2 1807.99 1547.45 263.62 o
964 1 -14 0 2 1807.99 1547.45 263.62 o
965 3 13 0 2 1719.17 1795.26 266.26 o
965 2 -14 0 2 1719.17 1795.26 266.26 o
965 1 14 0 -2 1719.17 1795.26 266.26 o
966 3 -12 0 -2 1394.17 703.87 282.07 o
966 2 13 0 -2 1394.17 703.87 282.07 o
966 1 -13 0 2 1394.17 703.87 282.07 o
967 3 12 0 2 906.27 1196.84 263.62 o
967 2 -13 0 2 906.27 1196.84 263.62 o
967 1 13 0 -2 906.27 1196.84 263.62 o
968 3 -11 0 -2 168.52 -271.53 297.89 <
968 2 12 0 -2 168.52 -271.53 297.89 <
968 1 -12 0 2 168.52 -271.53 297.89 <
969 3 11 0 2 200.16 717.05 297.89 o
969 2 -12 0 2 200.16 717.05 297.89 o
969 1 12 0 -2 200.16 717.05 297.89 o
970 3 -10 0 -2 49141.00 57200.50 474.52 o
970 2 11 0 -2 49141.00 57200.50 474.52 o
970 1 -11 0 2 49141.00 57200.50 474.52 o
971 3 10 0 2 50058.20 57205.70 477.15 o
971 2 -11 0 2 50058.20 57205.70 477.15 o
971 1 11 0 -2 50058.20 57205.70 477.15 o
972 3 -9 0 -2 7482.61 6572.07 392.80 o
972 2 10 0 -2 7482.61 6572.07 392.80 o
972 1 -10 0 2 7482.61 6572.07 392.80 o
973 3 9 0 2 8072.66 6880.51 421.79 o
973 2 -10 0 2 8072.66 6880.51 421.79 o
973 1 10 0 -2 8072.66 6880.51 421.79 o
974 3 -8 0 -2 4116.77 3532.52 466.61 o
974 2 9 0 -2 4116.77 3532.52 466.61 o
974 1 -9 0 2 4116.77 3532.52 466.61 o
975 3 8 0 2 4051.45 5103.70 450.79 o
975 2 -9 0 2 4051.45 5103.70 450.79 o
975 1 9 0 -2 4051.45 5103.70 450.79 o
976 3 -7 0 -2 6145.16 6290.00 456.06 o
976 2 8 0 -2 6145.16 6290.00 456.06 o
976 1 -8 0 2 6145.16 6290.00 456.06 o
977 3 7 0 2 5165.85 6179.27 403.34 o
977 2 -8 0 2 5165.85 6179.27 403.34 o
977 1 8 0 -2 5165.85 6179.27 403.34 o
978 3 -6 0 -2 1629.32 2696.84 442.88 o
978 2 7 0 -2 1629.32 2696.84 442.88 o
978 1 -7 0 2 1629.32 2696.84 442.88 o
979 3 6 0 2 1669.41 1747.81 384.89 o
979 2 -7 0 2 1669.41 1747.81 384.89 o
979 1 7 0 -2 1669.41 1747.81 384.89 o
980 3 -5 0 -2 50336.00 55682.00 579.97 o
980 2 6 0 -2 50336.00 55682.00 579.97 o
980 1 -6 0 2 50336.00 55682.00 579.97 o
981 3 5 0 2 50754.00 52805.90 553.60 o
981 2 -6 0 2 50754.00 52805.90 553.60 o
981 1 6 0 -2 50754.00 52805.90 553.60 o
982 3 -4 0 -2 9857.44 8746.94 403.34 o
982 2 5 0 -2 9857.44 8746.94 403.34 o
982 1 -5 0 2 9857.44 8746.94 403.34 o
983 3 4 0 2 10835.40 8093.16 332.16 o
983 2 -5 0 2 10835.40 8093.16 332.16 o
983 1 5 0 -2 10835.40 8093.16 332.16 o
984 3 -3 0 -2 1872.01 1138.84 353.25 o
984 2 4 0 -2 1872.01 1138.84 353.25 o
984 1 -4 0 2 1872.01 1138.84 353.25 o
985 3 3 0 2 1748.98 1014.94 366.43 o
985 2 -4 0 2 1748.98 1014.94 366.43 o
985 1 4 0 -2 1748.98 1014.94 366.43 o
986 3 -2 0 -2 97781.70 117164.00 753.96 o
986 2 3 0 -2 97781.70 117164.00 753.96 o
986 1 -3 0 2 97781.70 117164.00 753.96 o
987 3 2 0 2 96889.30 120781.00 659.05 o
987 2 -3 0 2 96889.30 120781.00 659.05 o
987 1 3 0 -2 96889.30 120781.00 659.05 o
988 3 -1 0 -2 4327.13 2894.56 332.16 o
988 2 2 0 -2 4327.13 2894.56 332.16 o
988 1 -2 0 2 4327.13 2894.56 332.16 o
989 3 1 0 2 3976.31 2963.10 297.89 o
989 2 -2 0 2 3976.31 2963.10 297.89 o
989 1 2 0 -2 3976.31 2963.10 297.89 o
990 3 0 0 -2 15249.70 10747.80 400.70 o
990 2 1 0 -2 15249.70 10747.80 400.70 o
990 1 -1 0 2 15249.70 10747.80 400.70 o
991 3 0 0 2 14809.10 10560.70 332.16 o
991 2 -1 0 2 14809.10 10560.70 332.16 o
991 1 1 0 -2 14809.10 10560.70 332.16 o
992 3 1 0 -2 18650.80 15116.00 411.25 o
992 2 0 0 -2 18650.80 15116.00 411.25 o
992 1 0 0 2 18650.80 15116.00 411.25 o
993 3 2 0 -2 7593.71 6806.69 361.16 o
993 2 -1 0 -2 7593.71 6806.69 361.16 o
993 1 1 0 2 7593.71 6806.69 361.16 o
994 3 -2 0 2 7898.92 6068.55 300.53 o
994 2 1 0 2 7898.92 6068.55 300.53 o
994 1 -1 0 -2 7898.92 6068.55 300.53 o
995 3 3 0 -2 112234.00 142123.00 793.50 o
995 2 -2 0 -2 112234.00 142123.00 793.50 o
995 1 2 0 2 112234.00 142123.00 793.50 o
996 3 4 0 -2 1759.22 1220.56 379.61 o
996 2 -3 0 -2 1759.22 1220.56 379.61 o
996 1 3 0 2 1759.22 1220.56 379.61 o
997 3 -4 0 2 2003.88 1070.30 340.07 o
997 2 3 0 2 2003.88 1070.30 340.07 o
997 1 -3 0 -2 2003.88 1070.30 340.07 o
998 3 5 0 -2 11348.30 9801.43 442.88 o
998 2 -4 0 -2 11348.30 9801.43 442.88 o
998 1 4 0 2 11348.30 9801.43 442.88 o
999 3 -5 0 2 10831.10 9068.56 324.25 o
999 2 4 0 2 10831.10 9068.56 324.25 o
999 1 -4 0 -2 10831.10 9068.56 324.25 o
1000 3 6 0 -2 42630.10 45696.10 558.88 o
1000 2 -5 0 -2 42630.10 45696.10 558.88 o
1000 1 5 0 2 42630.10 45696.10 558.88 o
1001 3 -6 0 2 42865.50 44952.60 527.24 o
1001 2 5 0 2 42865.50 44952.60 527.24 o
1001 1 -5 0 -2 42865.50 44952.60 527.24 o
1002 3 7 0 -2 2071.28 2741.66 442.88 o
1002 2 -6 0 -2 2071.28 2741.66 442.88 o
1002 1 6 0 2 2071.28 2741.66 442.88 o
1003 3 -7 0 2 2064.37 2077.33 353.25 o
1003 2 6 0 2 2064.37 2077.33 353.25 o
1003 1 -6 0 -2 2064.37 2077.33 353.25 o
1004 3 8 0 -2 7640.23 7703.00 514.06 o
1004 2 -7 0 -2 7640.23 7703.00 514.06 o
1004 1 7 0 2 7640.23 7703.00 514.06 o
1005 3 -8 0 2 7848.11 8003.53 400.70 o
1005 2 7 0 2 7848.11 8003.53 400.70 o
1005 1 -7 0 -2 7848.11 8003.53 400.70 o
1006 3 9 0 -2 3398.71 2939.37 503.52 o
1006 2 -8 0 -2 3398.71 2939.37 503.52 o
1006 1 8 0 2 3398.71 2939.37 503.52 o
1007 3 -9 0 2 3449.63 2913.01 416.52 o
1007 2 8 0 2 3449.63 2913.01 416.52 o
1007 1 -8 0 -2 3449.63 2913.01 416.52 o
1008 3 10 0 -2 6366.65 5043.07 405.98 o
1008 2 -9 0 -2 6366.65 5043.07 405.98 o
1008 1 9 0 2 6366.65 5043.07 405.98 o
1009 3 -10 0 2 5748.14 7123.04 477.15 o
1009 2 9 0 2 5748.14 7123.04 477.15 o
1009 1 -9 0 -2 5748.14 7123.04 477.15 o
1010 3 11 0 -2 49885.40 56088.00 540.42 o
1010 2 -10 0 -2 49885.40 56088.00 540.42 o
1010 1 10 0 2 49885.40 56088.00 540.42 o
1011 3 -11 0 2 49367.70 58402.60 564.15 o
1011 2 10 0 2 49367.70 58402.60 564.15 o
1011 1 -10 0 -2 49367.70 58402.60 564.15 o
1012 3 12 0 -2 374.18 184.54 363.80 <
1012 2 -11 0 -2 374.18 184.54 363.80 <
1012 1 11 0 2 374.18 184.54 363.80 <
1013 3 -12 0 2 358.96 535.15 337.43 <
1013 2 11 0 2 358.96 535.15 337.43 <
1013 1 -11 0 -2 358.96 535.15 337.43 <
1014 3 13 0 -2 918.34 669.60 332.16 o
1014 2 -12 0 -2 918.34 669.60 332.16 o
1014 1 12 0 2 918.34 669.60 332.16 o
1015 3 -13 0 2 1172.96 922.67 303.16 o
1015 2 12 0 2 1172.96 922.67 303.16 o
1015 1 -12 0 -2 1172.96 922.67 303.16 o
1016 3 14 0 -2 1720.26 1687.17 300.53 o
1016 2 -13 0 -2 1720.26 1687.17 300.53 o
1016 1 13 0 2 1720.26 1687.17 300.53 o
1017 3 -14 0 2 1753.58 1365.56 311.07 o
1017 2 13 0 2 1753.58 1365.56 311.07 o
1017 1 -13 0 -2 1753.58 1365.56 311.07 o
1018 3 15 0 -2 1747.69 260.98 268.89 <
1018 2 -14 0 -2 1747.69 260.98 268.89 <
1018 1 14 0 2 1747.69 260.98 268.89 <
1019 3 -15 0 2 1603.35 724.96 279.44 o
1019 2 14 0 2 1603.35 724.96 279.44 o
1019 1 -14 0 -2 1603.35 724.96 279.44 o
1020 3 16 0 -2 18271.70 22051.90 303.16 o
1020 2 -15 0 -2 18271.70 22051.90 303.16 o
1020 1 15 0 2 18271.70 22051.90 303.16 o
1021 3 -16 0 2 17963.90 18706.50 303.16 o
1021 2 15 0 2 17963.90 18706.50 303.16 o
1021 1 -15 0 -2 17963.90 18706.50 303.16 o
1022 3 17 0 -2 19.69 -23.73 247.80 <
1022 2 -16 0 -2 19.69 -23.73 247.80 <
1022 1 16 0 2 19.69 -23.73 247.80 <
1023 3 -17 0 2 23.13 168.72 237.26 <
1023 2 16 0 2 23.13 168.72 237.26 <
1023 1 -16 0 -2 23.13 168.72 237.26 <
1024 3 18 0 -2 663.30 743.41 274.17 o
1024 2 -17 0 -2 663.30 743.41 274.17 o
1024 1 17 0 2 663.30 743.41 274.17 o
1025 3 -18 0 2 793.98 416.52 247.80 <
1025 2 17 0 2 793.98 416.52 247.80 <
1025 1 -17 0 -2 793.98 416.52 247.80 <
1026 3 19 0 -2 163.63 398.07 239.90 <
1026 2 -18 0 -2 163.63 398.07 239.90 <
1026 1 18 0 2 163.63 398.07 239.90 <
1027 3 -19 0 2 192.64 147.63 239.90 <
1027 2 18 0 2 192.64 147.63 239.90 <
1027 1 -18 0 -2 192.64 147.63 239.90 <
1028 3 -18 -1 -2 90.44 221.44 171.35 <
1028 2 19 -1 -2 90.44 221.44 171.35 <
1028 1 -19 1 2 90.44 221.44 171.35 <
1029 3 18 -1 2 92.14 -18.45 171.35 <
1029 2 -19 -1 2 92.14 -18.45 171.35 <
1029 1 19 1 -2 92.14 -18.45 171.35 <
1030 3 -17 -1 -2 39.35 355.89 166.08 o
1030 2 18 -1 -2 39.35 355.89 166.08 o
1030 1 -18 1 2 39.35 355.89 166.08 o
1031 3 17 -1 2 37.48 305.80 168.72 <
1031 2 -18 -1 2 37.48 305.80 168.72 <
1031 1 18 1 -2 37.48 305.80 168.72 <
1032 3 -16 -1 -2 441.45 179.26 163.45 <
1032 2 17 -1 -2 441.45 179.26 163.45 <
1032 1 -17 1 2 441.45 179.26 163.45 <
1033 3 16 -1 2 439.26 292.62 171.35 <
1033 2 -17 -1 2 439.26 292.62 171.35 <
1033 1 17 1 -2 439.26 292.62 171.35 <
1034 3 -15 -1 -2 62.97 189.81 176.63 <
1034 2 16 -1 -2 62.97 189.81 176.63 <
1034 1 -16 1 2 62.97 189.81 176.63 <
1035 3 15 -1 2 64.51 469.24 187.17 o
1035 2 -16 -1 2 64.51 469.24 187.17 o
1035 1 16 1 -2 64.51 469.24 187.17 o
1036 3 -14 -1 -2 73.10 258.35 179.26 <
1036 2 15 -1 -2 73.10 258.35 179.26 <
1036 1 -15 1 2 73.10 258.35 179.26 <
1037 3 14 -1 2 76.86 532.51 181.90 o
1037 2 -15 -1 2 76.86 532.51 181.90 o
1037 1 15 1 -2 76.86 532.51 181.90 o
1038 3 -13 -1 -2 968.52 656.42 195.08 o
1038 2 14 -1 -2 968.52 656.42 195.08 o
1038 1 -14 1 2 968.52 656.42 195.08 o
1039 3 13 -1 2 975.28 711.78 195.08 o
1039 2 -14 -1 2 975.28 711.78 195.08 o
1039 1 14 1 -2 975.28 711.78 195.08 o
1040 3 -12 -1 -2 343.67 519.33 221.44 o
1040 2 13 -1 -2 343.67 519.33 221.44 o
1040 1 -13 1 2 343.67 519.33 221.44 o
1041 3 12 -1 2 336.27 479.79 210.90 o
1041 2 -13 -1 2 336.27 479.79 210.90 o
1041 1 13 1 -2 336.27 479.79 210.90 o
1042 3 -11 -1 -2 6174.82 5725.85 258.35 o
1042 2 12 -1 -2 6174.82 5725.85 258.35 o
1042 1 -12 1 2 6174.82 5725.85 258.35 o
1043 3 11 -1 2 6167.10 6126.55 255.71 o
1043 2 -12 -1 2 6167.10 6126.55 255.71 o
1043 1 12 1 -2 6167.10 6126.55 255.71 o
1044 3 -10 -1 -2 245.51 94.90 226.71 <
1044 2 11 -1 -2 245.51 94.90 226.71 <
1044 1 -11 1 2 245.51 94.90 226.71 <
1045 3 10 -1 2 248.68 -271.53 221.44 <
1045 2 -11 -1 2 248.68 -271.53 221.44 <
1045 1 11 1 -2 248.68 -271.53 221.44 <
1046 3 -9 -1 -2 1278.57 1460.46 224.08 o
1046 2 10 -1 -2 1278.57 1460.46 224.08 o
1046 1 -10 1 2 1278.57 1460.46 224.08 o
1047 3 9 -1 2 1272.00 1355.01 226.71 o
1047 2 -10 -1 2 1272.00 1355.01 226.71 o
1047 1 10 1 -2 1272.00 1355.01 226.71 o
1048 3 -8 -1 -2 5138.46 4096.67 229.35 o
1048 2 9 -1 -2 5138.46 4096.67 229.35 o
1048 1 -9 1 2 5138.46 4096.67 229.35 o
1049 3 8 -1 2 5152.41 4840.08 231.99 o
1049 2 -9 -1 2 5152.41 4840.08 231.99 o
1049 1 9 1 -2 5152.41 4840.08 231.99 o
1050 3 -7 -1 -2 1246.96 374.34 231.99 <
1050 2 8 -1 -2 1246.96 374.34 231.99 <
1050 1 -8 1 2 1246.96 374.34 231.99 <
1051 3 7 -1 2 1236.56 1133.57 226.71 o
1051 2 -8 -1 2 1236.56 1133.57 226.71 o
1051 1 8 1 -2 1236.56 1133.57 226.71 o
1052 3 -6 -1 -2 27709.00 29517.60 313.71 o
1052 2 7 -1 -2 27709.00 29517.60 313.71 o
1052 1 -7 1 2 27709.00 29517.60 313.71 o
1053 3 6 -1 2 27667.10 33166.10 324.25 o
1053 2 -7 -1 2 27667.10 33166.10 324.25 o
1053 1 7 1 -2 27667.10 33166.10 324.25 o
1054 3 -5 -1 -2 1737.13 1318.10 303.16 o
1054 2 6 -1 -2 1737.13 1318.10 303.16 o
1054 1 -6 1 2 1737.13 1318.10 303.16 o
1055 3 5 -1 2 1744.86 1616.00 324.25 o
1055 2 -6 -1 2 1744.86 1616.00 324.25 o
1055 1 6 1 -2 1744.86 1616.00 324.25 o
1056 3 -4 -1 -2 3420.95 2449.04 340.07 o
1056 2 5 -1 -2 3420.95 2449.04 340.07 o
1056 1 -5 1 2 3420.95 2449.04 340.07 o
1057 3 4 -1 2 3423.77 3898.95 371.71 o
1057 2 -5 -1 2 3423.77 3898.95 371.71 o
1057 1 5 1 -2 3423.77 3898.95 371.71 o
1058 3 -3 -1 -2 5506.85 4597.55 421.79 o
1058 2 4 -1 -2 5506.85 4597.55 421.79 o
1058 1 -4 1 2 5506.85 4597.55 421.79 o
1059 3 3 -1 2 5514.97 6553.62 371.71 o
1059 2 -4 -1 2 5514.97 6553.62 371.71 o
1059 1 4 1 -2 5514.97 6553.62 371.71 o
1060 3 -2 -1 -2 116.54 342.71 714.41 <
1060 2 3 -1 -2 116.54 342.71 714.41 <
1060 1 -3 1 2 116.54 342.71 714.41 <
1061 3 2 -1 2 125.47 97.54 334.80 <
1061 2 -3 -1 2 125.47 97.54 334.80 <
1061 1 3 1 -2 125.47 97.54 334.80 <
1062 3 -1 -1 -2 16414.50 16600.20 785.59 o
1062 2 2 -1 -2 16414.50 16600.20 785.59 o
1062 1 -2 1 2 16414.50 16600.20 785.59 o
1063 3 1 -1 2 16449.20 19167.90 387.52 o
1063 2 -2 -1 2 16449.20 19167.90 387.52 o
1063 1 2 1 -2 16449.20 19167.90 387.52 o
1064 3 0 -1 -2 941.94 1225.84 616.87 <
1064 2 1 -1 -2 941.94 1225.84 616.87 <
1064 1 -1 1 2 941.94 1225.84 616.87 <
1065 3 0 -1 2 940.32 1054.48 303.16 o
1065 2 -1 -1 2 940.32 1054.48 303.16 o
1065 1 1 1 -2 940.32 1054.48 303.16 o
1066 3 1 -1 -2 618.53 524.61 247.80 o
1066 2 0 -1 -2 618.53 524.61 247.80 o
1066 1 0 1 2 618.53 524.61 247.80 o
1067 3 2 -1 -2 9908.82 11762.80 595.78 o
1067 2 -1 -1 -2 9908.82 11762.80 595.78 o
1067 1 1 1 2 9908.82 11762.80 595.78 o
1068 3 -2 -1 2 9851.33 11804.90 342.71 o
1068 2 1 -1 2 9851.33 11804.90 342.71 o
1068 1 -1 1 -2 9851.33 11804.90 342.71 o
1069 3 3 -1 -2 240.04 94.90 603.69 <
1069 2 -2 -1 -2 240.04 94.90 603.69 <
1069 1 2 1 2 240.04 94.90 603.69 <
1070 3 -3 -1 2 234.80 195.08 289.98 <
1070 2 2 -1 2 234.80 195.08 289.98 <
1070 1 -2 1 -2 234.80 195.08 289.98 <
1071 3 4 -1 -2 3102.44 2752.20 603.69 o
1071 2 -3 -1 -2 3102.44 2752.20 603.69 o
1071 1 3 1 2 3102.44 2752.20 603.69 o
1072 3 -4 -1 2 3104.62 3614.24 334.80 o
1072 2 3 -1 2 3104.62 3614.24 334.80 o
1072 1 -3 1 -2 3104.62 3614.24 334.80 o
1073 3 5 -1 -2 2703.79 3706.51 398.07 o
1073 2 -4 -1 -2 2703.79 3706.51 398.07 o
1073 1 4 1 2 2703.79 3706.51 398.07 o
1074 3 -5 -1 2 2711.26 4782.08 369.07 o
1074 2 4 -1 2 2711.26 4782.08 369.07 o
1074 1 -4 1 -2 2711.26 4782.08 369.07 o
1075 3 6 -1 -2 1042.50 556.24 345.34 <
1075 2 -5 -1 -2 1042.50 556.24 345.34 <
1075 1 5 1 2 1042.50 556.24 345.34 <
1076 3 -6 -1 2 1030.54 769.77 318.98 o
1076 2 5 -1 2 1030.54 769.77 318.98 o
1076 1 -5 1 -2 1030.54 769.77 318.98 o
1077 3 7 -1 -2 24845.50 29296.20 345.34 o
1077 2 -6 -1 -2 24845.50 29296.20 345.34 o
1077 1 6 1 2 24845.50 29296.20 345.34 o
1078 3 -7 -1 2 24885.70 30854.20 379.61 o
1078 2 6 -1 2 24885.70 30854.20 379.61 o
1078 1 -6 1 -2 24885.70 30854.20 379.61 o
1079 3 8 -1 -2 1168.58 943.76 250.44 o
1079 2 -7 -1 -2 1168.58 943.76 250.44 o
1079 1 7 1 2 1168.58 943.76 250.44 o
1080 3 -8 -1 2 1172.83 746.05 258.35 o
1080 2 7 -1 2 1172.83 746.05 258.35 o
1080 1 -7 1 -2 1172.83 746.05 258.35 o
1081 3 9 -1 -2 3598.02 2836.56 245.17 o
1081 2 -8 -1 -2 3598.02 2836.56 245.17 o
1081 1 8 1 2 3598.02 2836.56 245.17 o
1082 3 -9 -1 2 3583.96 3632.70 271.53 o
1082 2 8 -1 2 3583.96 3632.70 271.53 o
1082 1 -8 1 -2 3583.96 3632.70 271.53 o
1083 3 10 -1 -2 1472.04 1816.35 239.90 o
1083 2 -9 -1 -2 1472.04 1816.35 239.90 o
1083 1 9 1 2 1472.04 1816.35 239.90 o
1084 3 -10 -1 2 1482.16 1349.74 229.35 o
1084 2 9 -1 2 1482.16 1349.74 229.35 o
1084 1 -9 1 -2 1482.16 1349.74 229.35 o
1085 3 11 -1 -2 127.87 350.62 237.26 <
1085 2 -10 -1 -2 127.87 350.62 237.26 <
1085 1 10 1 2 127.87 350.62 237.26 <
1086 3 -11 -1 2 123.76 152.90 226.71 <
1086 2 10 -1 2 123.76 152.90 226.71 <
1086 1 -10 1 -2 123.76 152.90 226.71 <
1087 3 12 -1 -2 6110.56 5976.29 279.44 o
1087 2 -11 -1 -2 6110.56 5976.29 279.44 o
1087 1 11 1 2 6110.56 5976.29 279.44 o
1088 3 -12 -1 2 6114.53 5913.02 242.53 o
1088 2 11 -1 2 6114.53 5913.02 242.53 o
1088 1 -11 1 -2 6114.53 5913.02 242.53 o
1089 3 13 -1 -2 368.74 284.71 234.62 <
1089 2 -12 -1 -2 368.74 284.71 234.62 <
1089 1 12 1 2 368.74 284.71 234.62 <
1090 3 -13 -1 2 374.93 321.62 245.17 <
1090 2 12 -1 2 374.93 321.62 245.17 <
1090 1 -12 1 -2 374.93 321.62 245.17 <
1091 3 14 -1 -2 769.05 448.16 200.35 o
1091 2 -13 -1 -2 769.05 448.16 200.35 o
1091 1 13 1 2 769.05 448.16 200.35 o
1092 3 -14 -1 2 762.58 632.69 213.53 o
1092 2 13 -1 2 762.58 632.69 213.53 o
1092 1 -13 1 -2 762.58 632.69 213.53 o
1093 3 15 -1 -2 101.31 337.43 192.44 <
1093 2 -14 -1 -2 101.31 337.43 192.44 <
1093 1 14 1 2 101.31 337.43 192.44 <
1094 3 -15 -1 2 98.16 247.80 208.26 <
1094 2 14 -1 2 98.16 247.80 208.26 <
1094 1 -14 1 -2 98.16 247.80 208.26 <
1095 3 16 -1 -2 36.29 379.61 184.54 o
1095 2 -15 -1 -2 36.29 379.61 184.54 o
1095 1 15 1 2 36.29 379.61 184.54 o
1096 3 -16 -1 2 34.23 369.07 195.08 <
1096 2 15 -1 2 34.23 369.07 195.08 <
1096 1 -15 1 -2 34.23 369.07 195.08 <
1097 3 17 -1 -2 465.41 260.98 187.17 <
1097 2 -16 -1 -2 465.41 260.98 187.17 <
1097 1 16 1 2 465.41 260.98 187.17 <
1098 3 -17 -1 2 466.89 181.90 184.54 <
1098 2 16 -1 2 466.89 181.90 184.54 <
1098 1 -16 1 -2 466.89 181.90 184.54 <
1099 3 18 -1 -2 45.98 163.45 184.54 <
1099 2 -17 -1 -2 45.98 163.45 184.54 <
1099 1 17 1 2 45.98 163.45 184.54 <
1100 3 -18 -1 2 47.52 84.36 176.63 <
1100 2 17 -1 2 47.52 84.36 176.63 <
1100 1 -17 1 -2 47.52 84.36 176.63 <
1101 3 19 -1 -2 90.71 160.81 176.63 <
1101 2 -18 -1 -2 90.71 160.81 176.63 <
1101 1 18 1 2 90.71 160.81 176.63 <
1102 3 -19 -1 2 88.93 76.45 189.81 <
1102 2 18 -1 2 88.93 76.45 189.81 <
1102 1 -18 1 -2 88.93 76.45 189.81 <
1103 3 -18 -2 -2 59.69 326.89 166.08 <
1103 2 19 -2 -2 59.69 326.89 166.08 <
1103 1 -19 2 2 59.69 326.89 166.08 <
1104 3 18 -2 2 54.40 237.26 181.90 <
1104 2 -19 -2 2 54.40 237.26 181.90 <
1104 1 19 2 -2 54.40 237.26 181.90 <
1105 3 -17 -2 -2 671.39 764.50 168.72 o
1105 2 18 -2 -2 671.39 764.50 168.72 o
1105 1 -18 2 2 671.39 764.50 168.72 o
1106 3 17 -2 2 452.74 690.69 176.63 o
1106 2 -18 -2 2 452.74 690.69 176.63 o
1106 1 18 2 -2 452.74 690.69 176.63 o
1107 3 -16 -2 -2 512.25 1033.39 187.17 o
1107 2 17 -2 -2 512.25 1033.39 187.17 o
1107 1 -17 2 2 512.25 1033.39 187.17 o
1108 3 16 -2 2 534.19 746.05 192.44 o
1108 2 -17 -2 2 534.19 746.05 192.44 o
1108 1 17 2 -2 534.19 746.05 192.44 o
1109 3 -15 -2 -2 9278.35 10523.70 218.80 o
1109 2 16 -2 -2 9278.35 10523.70 218.80 o
1109 1 -16 2 2 9278.35 10523.70 218.80 o
1110 3 15 -2 2 9466.74 10078.20 242.53 o
1110 2 -16 -2 2 9466.74 10078.20 242.53 o
1110 1 16 2 -2 9466.74 10078.20 242.53 o
1111 3 -14 -2 -2 5280.25 4803.17 245.17 o
1111 2 15 -2 -2 5280.25 4803.17 245.17 o
1111 1 -15 2 2 5280.25 4803.17 245.17 o
1112 3 14 -2 2 5299.07 6490.35 231.99 o
1112 2 -15 -2 2 5299.07 6490.35 231.99 o
1112 1 15 2 -2 5299.07 6490.35 231.99 o
1113 3 -13 -2 -2 309.25 200.35 221.44 <
1113 2 14 -2 -2 309.25 200.35 221.44 <
1113 1 -14 2 2 309.25 200.35 221.44 <
1114 3 13 -2 2 282.22 287.35 221.44 <
1114 2 -14 -2 2 282.22 287.35 221.44 <
1114 1 14 2 -2 282.22 287.35 221.44 <
1115 3 -12 -2 -2 3680.54 3432.34 221.44 o
1115 2 13 -2 -2 3680.54 3432.34 221.44 o
1115 1 -13 2 2 3680.54 3432.34 221.44 o
1116 3 12 -2 2 2938.91 2849.74 210.90 o
1116 2 -13 -2 2 2938.91 2849.74 210.90 o
1116 1 13 2 -2 2938.91 2849.74 210.90 o
1117 3 -11 -2 -2 4502.44 4876.99 216.17 o
1117 2 12 -2 -2 4502.44 4876.99 216.17 o
1117 1 -12 2 2 4502.44 4876.99 216.17 o
1118 3 11 -2 2 4549.85 4539.55 216.17 o
1118 2 -12 -2 2 4549.85 4539.55 216.17 o
1118 1 12 2 -2 4549.85 4539.55 216.17 o
1119 3 -10 -2 -2 39603.80 44008.90 292.62 o
1119 2 11 -2 -2 39603.80 44008.90 292.62 o
1119 1 -11 2 2 39603.80 44008.90 292.62 o
1120 3 10 -2 2 39900.20 41615.20 274.17 o
1120 2 -11 -2 2 39900.20 41615.20 274.17 o
1120 1 11 2 -2 39900.20 41615.20 274.17 o
1121 3 -9 -2 -2 36027.80 34009.70 287.35 o
1121 2 10 -2 -2 36027.80 34009.70 287.35 o
1121 1 -10 2 2 36027.80 34009.70 287.35 o
1122 3 9 -2 2 36087.00 37349.80 268.89 o
1122 2 -10 -2 2 36087.00 37349.80 268.89 o
1122 1 10 2 -2 36087.00 37349.80 268.89 o
1123 3 -8 -2 -2 4248.60 3374.35 279.44 o
1123 2 9 -2 -2 4248.60 3374.35 279.44 o
1123 1 -9 2 2 4248.60 3374.35 279.44 o
1124 3 8 -2 2 4267.30 3421.80 224.08 o
1124 2 -9 -2 2 4267.30 3421.80 224.08 o
1124 1 9 2 -2 4267.30 3421.80 224.08 o
1125 3 -7 -2 -2 25895.60 33580.00 324.25 o
1125 2 8 -2 -2 25895.60 33580.00 324.25 o
1125 1 -8 2 2 25895.60 33580.00 324.25 o
1126 3 7 -2 2 24559.60 31987.80 300.53 o
1126 2 -8 -2 2 24559.60 31987.80 300.53 o
1126 1 8 2 -2 24559.60 31987.80 300.53 o
1127 3 -6 -2 -2 16692.40 15137.10 289.98 o
1127 2 7 -2 -2 16692.40 15137.10 289.98 o
1127 1 -7 2 2 16692.40 15137.10 289.98 o
1128 3 6 -2 2 16649.90 20409.50 337.43 o
1128 2 -7 -2 2 16649.90 20409.50 337.43 o
1128 1 7 2 -2 16649.90 20409.50 337.43 o
1129 3 -5 -2 -2 164778.00 197940.00 529.88 o
1129 2 6 -2 -2 164778.00 197940.00 529.88 o
1129 1 -6 2 2 164778.00 197940.00 529.88 o
1130 3 5 -2 2 165054.00 193798.00 630.05 o
1130 2 -6 -2 2 165054.00 193798.00 630.05 o
1130 1 6 2 -2 165054.00 193798.00 630.05 o
1131 3 -4 -2 -2 158413.00 170281.00 500.88 o
1131 2 5 -2 -2 158413.00 170281.00 500.88 o
1131 1 -5 2 2 158413.00 170281.00 500.88 o
1132 3 4 -2 2 158826.00 159583.00 651.14 o
1132 2 -5 -2 2 158826.00 159583.00 651.14 o
1132 1 5 2 -2 158826.00 159583.00 651.14 o
1133 3 -3 -2 -2 28953.60 23145.90 242.53 o
1133 2 4 -2 -2 28953.60 23145.90 242.53 o
1133 1 -4 2 2 28953.60 23145.90 242.53 o
1134 3 3 -2 2 28865.80 25674.00 376.98 o
1134 2 -4 -2 2 28865.80 25674.00 376.98 o
1134 1 4 2 -2 28865.80 25674.00 376.98 o
1135 3 -2 -2 -2 116138.00 158041.00 532.51 o
1135 2 3 -2 -2 116138.00 158041.00 532.51 o
1135 1 -3 2 2 116138.00 158041.00 532.51 o
1136 3 2 -2 2 115320.00 151711.00 569.42 o
1136 2 -3 -2 2 115320.00 151711.00 569.42 o
1136 1 3 2 -2 115320.00 151711.00 569.42 o
1137 3 -1 -2 -2 41677.10 34911.30 276.80 o
1137 2 2 -2 -2 41677.10 34911.30 276.80 o
1137 1 -2 2 2 41677.10 34911.30 276.80 o
1138 3 1 -2 2 41732.60 37138.90 353.25 o
1138 2 -2 -2 2 41732.60 37138.90 353.25 o
1138 1 2 2 -2 41732.60 37138.90 353.25 o
1139 3 2 -2 -2 39014.30 29029.90 289.98 o
1139 2 -1 -2 -2 39014.30 29029.90 289.98 o
1139 1 1 2 2 39014.30 29029.90 289.98 o
1140 3 -2 -2 2 38789.50 29214.50 590.51 o
1140 2 1 -2 2 38789.50 29214.50 590.51 o
1140 1 -1 2 -2 38789.50 29214.50 590.51 o
1141 3 3 -2 -2 119327.00 156243.00 529.88 o
1141 2 -2 -2 -2 119327.00 156243.00 529.88 o
1141 1 2 2 2 119327.00 156243.00 529.88 o
1142 3 -3 -2 2 119045.00 156973.00 532.51 o
1142 2 2 -2 2 119045.00 156973.00 532.51 o
1142 1 -2 2 -2 119045.00 156973.00 532.51 o
1143 3 4 -2 -2 33928.10 28378.80 263.62 o
1143 2 -3 -2 -2 33928.10 28378.80 263.62 o
1143 1 3 2 2 33928.10 28378.80 263.62 o
1144 3 -4 -2 2 33924.50 29976.30 379.61 o
1144 2 3 -2 2 33924.50 29976.30 379.61 o
1144 1 -3 2 -2 33924.50 29976.30 379.61 o
1145 3 5 -2 -2 150167.00 138132.00 432.34 o
1145 2 -4 -2 -2 150167.00 138132.00 432.34 o
1145 1 4 2 2 150167.00 138132.00 432.34 o
1146 3 -5 -2 2 150213.00 141578.00 656.42 o
1146 2 4 -2 2 150213.00 141578.00 656.42 o
1146 1 -4 2 -2 150213.00 141578.00 656.42 o
1147 3 6 -2 -2 179013.00 197046.00 516.70 o
1147 2 -5 -2 -2 179013.00 197046.00 516.70 o
1147 1 5 2 2 179013.00 197046.00 516.70 o
1148 3 -6 -2 2 179206.00 197832.00 685.41 o
1148 2 5 -2 2 179206.00 197832.00 685.41 o
1148 1 -5 2 -2 179206.00 197832.00 685.41 o
1149 3 7 -2 -2 14660.60 11441.10 247.80 o
1149 2 -6 -2 -2 14660.60 11441.10 247.80 o
1149 1 6 2 2 14660.60 11441.10 247.80 o
1150 3 -7 -2 2 14787.30 14130.10 332.16 o
1150 2 6 -2 2 14787.30 14130.10 332.16 o
1150 1 -6 2 -2 14787.30 14130.10 332.16 o
1151 3 8 -2 -2 27568.40 35027.30 295.26 o
1151 2 -7 -2 -2 27568.40 35027.30 295.26 o
1151 1 7 2 2 27568.40 35027.30 295.26 o
1152 3 -8 -2 2 28272.00 32699.50 340.07 o
1152 2 7 -2 2 28272.00 32699.50 340.07 o
1152 1 -7 2 -2 28272.00 32699.50 340.07 o
1153 3 9 -2 -2 5636.28 4547.46 253.08 o
1153 2 -8 -2 -2 5636.28 4547.46 253.08 o
1153 1 8 2 2 5636.28 4547.46 253.08 o
1154 3 -9 -2 2 5612.94 4228.48 260.98 o
1154 2 8 -2 2 5612.94 4228.48 260.98 o
1154 1 -8 2 -2 5612.94 4228.48 260.98 o
1155 3 10 -2 -2 33034.00 30717.10 347.98 o
1155 2 -9 -2 -2 33034.00 30717.10 347.98 o
1155 1 9 2 2 33034.00 30717.10 347.98 o
1156 3 -10 -2 2 33071.10 30611.70 300.53 o
1156 2 9 -2 2 33071.10 30611.70 300.53 o
1156 1 -9 2 -2 33071.10 30611.70 300.53 o
1157 3 11 -2 -2 44161.90 52626.60 374.34 o
1157 2 -10 -2 -2 44161.90 52626.60 374.34 o
1157 1 10 2 2 44161.90 52626.60 374.34 o
1158 3 -11 -2 2 44166.40 46718.90 295.26 o
1158 2 10 -2 2 44166.40 46718.90 295.26 o
1158 1 -10 2 -2 44166.40 46718.90 295.26 o
1159 3 12 -2 -2 4490.60 5103.70 253.08 o
1159 2 -11 -2 -2 4490.60 5103.70 253.08 o
1159 1 11 2 2 4490.60 5103.70 253.08 o
1160 3 -12 -2 2 4465.50 4818.99 210.90 o
1160 2 11 -2 2 4465.50 4818.99 210.90 o
1160 1 -11 2 -2 4465.50 4818.99 210.90 o
1161 3 13 -2 -2 3435.37 3579.97 242.53 o
1161 2 -12 -2 -2 3435.37 3579.97 242.53 o
1161 1 12 2 2 3435.37 3579.97 242.53 o
1162 3 -13 -2 2 4032.65 3374.35 213.53 o
1162 2 12 -2 2 4032.65 3374.35 213.53 o
1162 1 -12 2 -2 4032.65 3374.35 213.53 o
1163 3 14 -2 -2 401.45 -210.90 234.62 <
1163 2 -13 -2 -2 401.45 -210.90 234.62 <
1163 1 13 2 2 401.45 -210.90 234.62 <
1164 3 -14 -2 2 394.65 664.33 229.35 o
1164 2 13 -2 2 394.65 664.33 229.35 o
1164 1 -13 2 -2 394.65 664.33 229.35 o
1165 3 15 -2 -2 4628.06 4884.90 247.80 o
1165 2 -14 -2 -2 4628.06 4884.90 247.80 o
1165 1 14 2 2 4628.06 4884.90 247.80 o
1166 3 -15 -2 2 4598.21 4065.03 242.53 o
1166 2 14 -2 2 4598.21 4065.03 242.53 o
1166 1 -14 2 -2 4598.21 4065.03 242.53 o
1167 3 16 -2 -2 10264.20 10866.50 237.26 o
1167 2 -15 -2 -2 10264.20 10866.50 237.26 o
1167 1 15 2 2 10264.20 10866.50 237.26 o
1168 3 -16 -2 2 10187.40 10107.20 226.71 o
1168 2 15 -2 2 10187.40 10107.20 226.71 o
1168 1 -15 2 -2 10187.40 10107.20 226.71 o
1169 3 17 -2 -2 565.35 1188.93 202.99 o
1169 2 -16 -2 -2 565.35 1188.93 202.99 o
1169 1 16 2 2 565.35 1188.93 202.99 o
1170 3 -17 -2 2 549.10 666.96 192.44 o
1170 2 16 -2 2 549.10 666.96 192.44 o
1170 1 -16 2 -2 549.10 666.96 192.44 o
1171 3 18 -2 -2 558.19 529.88 195.08 o
1171 2 -17 -2 -2 558.19 529.88 195.08 o
1171 1 17 2 2 558.19 529.88 195.08 o
1172 3 -18 -2 2 743.37 197.72 179.26 <
1172 2 17 -2 2 743.37 197.72 179.26 <
1172 1 -17 2 -2 743.37 197.72 179.26 <
1173 3 19 -2 -2 59.66 29.00 202.99 <
1173 2 -18 -2 -2 59.66 29.00 202.99 <
1173 1 18 2 2 59.66 29.00 202.99 <
1174 3 -19 -2 2 50.95 403.34 200.35 o
1174 2 18 -2 2 50.95 403.34 200.35 o
1174 1 -18 2 -2 50.95 403.34 200.35 o
1175 3 -17 -3 -2 237.86 398.07 202.99 <
1175 2 18 -3 -2 237.86 398.07 202.99 <
1175 1 -18 3 2 237.86 398.07 202.99 <
1176 3 17 -3 2 227.29 1049.21 213.53 o
1176 2 -18 -3 2 227.29 1049.21 213.53 o
1176 1 18 3 -2 227.29 1049.21 213.53 o
1177 3 -16 -3 -2 196.48 384.89 221.44 <
1177 2 17 -3 -2 196.48 384.89 221.44 <
1177 1 -17 3 2 196.48 384.89 221.44 <
1178 3 16 -3 2 176.98 -108.08 239.90 <
1178 2 -17 -3 2 176.98 -108.08 239.90 <
1178 1 17 3 -2 176.98 -108.08 239.90 <
1179 3 -15 -3 -2 539.37 279.44 234.62 <
1179 2 16 -3 -2 539.37 279.44 234.62 <
1179 1 -16 3 2 539.37 279.44 234.62 <
1180 3 15 -3 2 527.95 187.17 255.71 <
1180 2 -16 -3 2 527.95 187.17 255.71 <
1180 1 16 3 -2 527.95 187.17 255.71 <
1181 3 -14 -3 -2 3601.76 3598.43 229.35 o
1181 2 15 -3 -2 3601.76 3598.43 229.35 o
1181 1 -15 3 2 3601.76 3598.43 229.35 o
1182 3 14 -3 2 3642.62 3659.06 221.44 o
1182 2 -15 -3 2 3642.62 3659.06 221.44 o
1182 1 15 3 -2 3642.62 3659.06 221.44 o
1183 3 -13 -3 -2 1169.81 869.95 216.17 o
1183 2 14 -3 -2 1169.81 869.95 216.17 o
1183 1 -14 3 2 1169.81 869.95 216.17 o
1184 3 13 -3 2 1164.18 804.04 205.62 o
1184 2 -14 -3 2 1164.18 804.04 205.62 o
1184 1 14 3 -2 1164.18 804.04 205.62 o
1185 3 -12 -3 -2 75.73 311.07 229.35 <
1185 2 13 -3 -2 75.73 311.07 229.35 <
1185 1 -13 3 2 75.73 311.07 229.35 <
1186 3 12 -3 2 78.29 237.26 200.35 <
1186 2 -13 -3 2 78.29 237.26 200.35 <
1186 1 13 3 -2 78.29 237.26 200.35 <
1187 3 -11 -3 -2 191.99 -58.00 255.71 <
1187 2 12 -3 -2 191.99 -58.00 255.71 <
1187 1 -12 3 2 191.99 -58.00 255.71 <
1188 3 11 -3 2 163.92 65.91 213.53 <
1188 2 -12 -3 2 163.92 65.91 213.53 <
1188 1 12 3 -2 163.92 65.91 213.53 <
1189 3 -10 -3 -2 1870.81 1299.65 234.62 o
1189 2 11 -3 -2 1870.81 1299.65 234.62 o
1189 1 -11 3 2 1870.81 1299.65 234.62 o
1190 3 10 -3 2 1844.45 690.69 218.80 o
1190 2 -11 -3 2 1844.45 690.69 218.80 o
1190 1 11 3 -2 1844.45 690.69 218.80 o
1191 3 -9 -3 -2 13696.90 13584.40 224.08 o
1191 2 10 -3 -2 13696.90 13584.40 224.08 o
1191 1 -10 3 2 13696.90 13584.40 224.08 o
1192 3 9 -3 2 13764.70 13576.50 268.89 o
1192 2 -10 -3 2 13764.70 13576.50 268.89 o
1192 1 10 3 -2 13764.70 13576.50 268.89 o
1193 3 -8 -3 -2 10428.20 10906.00 224.08 o
1193 2 9 -3 -2 10428.20 10906.00 224.08 o
1193 1 -9 3 2 10428.20 10906.00 224.08 o
1194 3 8 -3 2 10399.40 11433.20 253.08 o
1194 2 -9 -3 2 10399.40 11433.20 253.08 o
1194 1 9 3 -2 10399.40 11433.20 253.08 o
1195 3 -7 -3 -2 848.72 624.78 171.35 o
1195 2 8 -3 -2 848.72 624.78 171.35 o
1195 1 -8 3 2 848.72 624.78 171.35 o
1196 3 7 -3 2 878.28 949.03 213.53 o
1196 2 -8 -3 2 878.28 949.03 213.53 o
1196 1 8 3 -2 878.28 949.03 213.53 o
1197 3 -6 -3 -2 392.62 197.72 160.81 <
1197 2 7 -3 -2 392.62 197.72 160.81 <
1197 1 -7 3 2 392.62 197.72 160.81 <
1198 3 6 -3 2 391.20 392.80 200.35 <
1198 2 -7 -3 2 391.20 392.80 200.35 <
1198 1 7 3 -2 391.20 392.80 200.35 <
1199 3 -5 -3 -2 3738.23 3508.79 163.45 o
1199 2 6 -3 -2 3738.23 3508.79 163.45 o
1199 1 -6 3 2 3738.23 3508.79 163.45 o
1200 3 5 -3 2 3707.53 3595.79 197.72 o
1200 2 -6 -3 2 3707.53 3595.79 197.72 o
1200 1 6 3 -2 3707.53 3595.79 197.72 o
1201 3 -4 -3 -2 16041.80 16204.80 200.35 o
1201 2 5 -3 -2 16041.80 16204.80 200.35 o
1201 1 -5 3 2 16041.80 16204.80 200.35 o
1202 3 4 -3 2 16061.20 16840.10 237.26 o
1202 2 -5 -3 2 16061.20 16840.10 237.26 o
1202 1 5 3 -2 16061.20 16840.10 237.26 o
1203 3 -3 -3 -2 24327.80 29072.10 208.26 o
1203 2 4 -3 -2 24327.80 29072.10 208.26 o
1203 1 -4 3 2 24327.80 29072.10 208.26 o
1204 3 3 -3 2 24262.40 29380.60 253.08 o
1204 2 -4 -3 2 24262.40 29380.60 253.08 o
1204 1 4 3 -2 24262.40 29380.60 253.08 o
1205 3 -2 -3 -2 1201.25 790.86 160.81 o
1205 2 3 -3 -2 1201.25 790.86 160.81 o
1205 1 -3 3 2 1201.25 790.86 160.81 o
1206 3 2 -3 2 1213.50 543.06 155.54 o
1206 2 -3 -3 2 1213.50 543.06 155.54 o
1206 1 3 3 -2 1213.50 543.06 155.54 o
1207 3 -1 -3 -2 4795.84 4821.63 171.35 o
1207 2 2 -3 -2 4795.84 4821.63 171.35 o
1207 1 -2 3 2 4795.84 4821.63 171.35 o
1208 3 1 -3 2 4737.75 5591.40 187.17 o
1208 2 -2 -3 2 4737.75 5591.40 187.17 o
1208 1 2 3 -2 4737.75 5591.40 187.17 o
1209 3 0 -3 -2 422.99 429.70 189.81 o
1209 2 1 -3 -2 422.99 429.70 189.81 o
1209 1 -1 3 2 422.99 429.70 189.81 o
1210 3 0 -3 2 420.51 379.61 166.08 o
1210 2 -1 -3 2 420.51 379.61 166.08 o
1210 1 1 3 -2 420.51 379.61 166.08 o
1211 3 1 -3 -2 540.01 527.24 131.81 o
1211 2 0 -3 -2 540.01 527.24 131.81 o
1211 1 0 3 2 540.01 527.24 131.81 o
1212 3 -1 -3 2 550.09 390.16 181.90 o
1212 2 0 -3 2 550.09 390.16 181.90 o
1212 1 0 3 -2 550.09 390.16 181.90 o
1213 3 2 -3 -2 5992.73 7966.62 144.99 o
1213 2 -1 -3 -2 5992.73 7966.62 144.99 o
1213 1 1 3 2 5992.73 7966.62 144.99 o
1214 3 -2 -3 2 6027.10 7977.17 300.53 o
1214 2 1 -3 2 6027.10 7977.17 300.53 o
1214 1 -1 3 -2 6027.10 7977.17 300.53 o
1215 3 3 -3 -2 1286.02 951.67 155.54 o
1215 2 -2 -3 -2 1286.02 951.67 155.54 o
1215 1 2 3 2 1286.02 951.67 155.54 o
1216 3 -3 -3 2 1291.96 827.77 166.08 o
1216 2 2 -3 2 1291.96 827.77 166.08 o
1216 1 -2 3 -2 1291.96 827.77 166.08 o
1217 3 4 -3 -2 22652.60 26198.60 216.17 o
1217 2 -3 -3 -2 22652.60 26198.60 216.17 o
1217 1 3 3 2 22652.60 26198.60 216.17 o
1218 3 -4 -3 2 22723.30 25083.50 234.62 o
1218 2 3 -3 2 22723.30 25083.50 234.62 o
1218 1 -3 3 -2 22723.30 25083.50 234.62 o
1219 3 5 -3 -2 12574.60 11652.00 184.54 o
1219 2 -4 -3 -2 12574.60 11652.00 184.54 o
1219 1 4 3 2 12574.60 11652.00 184.54 o
1220 3 -5 -3 2 12505.60 10982.40 208.26 o
1220 2 4 -3 2 12505.60 10982.40 208.26 o
1220 1 -4 3 -2 12505.60 10982.40 208.26 o
1221 3 6 -3 -2 2376.37 2430.58 160.81 o
1221 2 -5 -3 -2 2376.37 2430.58 160.81 o
1221 1 5 3 2 2376.37 2430.58 160.81 o
1222 3 -6 -3 2 2411.63 2000.88 176.63 o
1222 2 5 -3 2 2411.63 2000.88 176.63 o
1222 1 -5 3 -2 2411.63 2000.88 176.63 o
1223 3 7 -3 -2 307.67 274.17 144.99 <
1223 2 -6 -3 -2 307.67 274.17 144.99 <
1223 1 6 3 2 307.67 274.17 144.99 <
1224 3 -7 -3 2 298.63 358.52 187.17 <
1224 2 6 -3 2 298.63 358.52 187.17 <
1224 1 -6 3 -2 298.63 358.52 187.17 <
1225 3 8 -3 -2 1228.69 1323.38 171.35 o
1225 2 -7 -3 -2 1228.69 1323.38 171.35 o
1225 1 7 3 2 1228.69 1323.38 171.35 o
1226 3 -8 -3 2 1207.63 1159.93 210.90 o
1226 2 7 -3 2 1207.63 1159.93 210.90 o
1226 1 -7 3 -2 1207.63 1159.93 210.90 o
1227 3 9 -3 -2 10146.80 11003.50 181.90 o
1227 2 -8 -3 -2 10146.80 11003.50 181.90 o
1227 1 8 3 2 10146.80 11003.50 181.90 o
1228 3 -9 -3 2 10158.00 11393.70 282.07 o
1228 2 8 -3 2 10158.00 11393.70 282.07 o
1228 1 -8 3 -2 10158.00 11393.70 282.07 o
1229 3 10 -3 -2 12808.80 12732.90 202.99 o
1229 2 -9 -3 -2 12808.80 12732.90 202.99 o
1229 1 9 3 2 12808.80 12732.90 202.99 o
1230 3 -10 -3 2 12749.80 12218.80 282.07 o
1230 2 9 -3 2 12749.80 12218.80 282.07 o
1230 1 -9 3 -2 12749.80 12218.80 282.07 o
1231 3 11 -3 -2 1525.41 619.51 197.72 o
1231 2 -10 -3 -2 1525.41 619.51 197.72 o
1231 1 10 3 2 1525.41 619.51 197.72 o
1232 3 -11 -3 2 1562.43 566.78 221.44 o
1232 2 10 -3 2 1562.43 566.78 221.44 o
1232 1 -10 3 -2 1562.43 566.78 221.44 o
1233 3 12 -3 -2 355.48 643.23 216.17 o
1233 2 -11 -3 -2 355.48 643.23 216.17 o
1233 1 11 3 2 355.48 643.23 216.17 o
1234 3 -12 -3 2 372.27 292.62 221.44 <
1234 2 11 -3 2 372.27 292.62 221.44 <
1234 1 -11 3 -2 372.27 292.62 221.44 <
1235 3 13 -3 -2 90.65 216.17 247.80 <
1235 2 -12 -3 -2 90.65 216.17 247.80 <
1235 1 12 3 2 90.65 216.17 247.80 <
1236 3 -13 -3 2 92.03 47.45 195.08 <
1236 2 12 -3 2 92.03 47.45 195.08 <
1236 1 -12 3 -2 92.03 47.45 195.08 <
1237 3 14 -3 -2 1150.97 869.95 255.71 o
1237 2 -13 -3 -2 1150.97 869.95 255.71 o
1237 1 13 3 2 1150.97 869.95 255.71 o
1238 3 -14 -3 2 1155.19 514.06 197.72 o
1238 2 13 -3 2 1155.19 514.06 197.72 o
1238 1 -13 3 -2 1155.19 514.06 197.72 o
1239 3 15 -3 -2 3605.29 3279.44 255.71 o
1239 2 -14 -3 -2 3605.29 3279.44 255.71 o
1239 1 14 3 2 3605.29 3279.44 255.71 o
1240 3 -15 -3 2 3566.95 3007.91 208.26 o
1240 2 14 -3 2 3566.95 3007.91 208.26 o
1240 1 -14 3 -2 3566.95 3007.91 208.26 o
1241 3 16 -3 -2 500.98 746.05 253.08 o
1241 2 -15 -3 -2 500.98 746.05 253.08 o
1241 1 15 3 2 500.98 746.05 253.08 o
1242 3 -16 -3 2 513.11 949.03 224.08 o
1242 2 15 -3 2 513.11 949.03 224.08 o
1242 1 -15 3 -2 513.11 949.03 224.08 o
1243 3 17 -3 -2 230.84 -152.90 226.71 <
1243 2 -16 -3 -2 230.84 -152.90 226.71 <
1243 1 16 3 2 230.84 -152.90 226.71 <
1244 3 -17 -3 2 247.95 239.90 216.17 <
1244 2 16 -3 2 247.95 239.90 216.17 <
1244 1 -16 3 -2 247.95 239.90 216.17 <
1245 3 18 -3 -2 197.98 445.52 234.62 <
1245 2 -17 -3 -2 197.98 445.52 234.62 <
1245 1 17 3 2 197.98 445.52 234.62 <
1246 3 -18 -3 2 208.69 701.23 213.53 o
1246 2 17 -3 2 208.69 701.23 213.53 o
1246 1 -17 3 -2 208.69 701.23 213.53 o
1247 3 -17 -4 -2 570.91 606.33 268.89 o
1247 2 18 -4 -2 570.91 606.33 268.89 o
1247 1 -18 4 2 570.91 606.33 268.89 o
1248 3 17 -4 2 514.14 382.25 260.98 <
1248 2 -18 -4 2 514.14 382.25 260.98 <
1248 1 18 4 -2 514.14 382.25 260.98 <
1249 3 -16 -4 -2 70.26 732.87 245.17 o
1249 2 17 -4 -2 70.26 732.87 245.17 o
1249 1 -17 4 2 70.26 732.87 245.17 o
1250 3 16 -4 2 74.24 216.17 239.90 <
1250 2 -17 -4 2 74.24 216.17 239.90 <
1250 1 17 4 -2 74.24 216.17 239.90 <
1251 3 -15 -4 -2 5959.69 6052.74 260.98 o
1251 2 16 -4 -2 5959.69 6052.74 260.98 o
1251 1 -16 4 2 5959.69 6052.74 260.98 o
1252 3 15 -4 2 6009.40 6503.53 226.71 o
1252 2 -16 -4 2 6009.40 6503.53 226.71 o
1252 1 16 4 -2 6009.40 6503.53 226.71 o
1253 3 -14 -4 -2 2744.70 1655.54 250.44 o
1253 2 15 -4 -2 2744.70 1655.54 250.44 o
1253 1 -15 4 2 2744.70 1655.54 250.44 o
1254 3 14 -4 2 2883.04 1905.98 224.08 o
1254 2 -15 -4 2 2883.04 1905.98 224.08 o
1254 1 15 4 -2 2883.04 1905.98 224.08 o
1255 3 -13 -4 -2 4739.68 4476.28 247.80 o
1255 2 14 -4 -2 4739.68 4476.28 247.80 o
1255 1 -14 4 2 4739.68 4476.28 247.80 o
1256 3 13 -4 2 4804.50 4937.62 216.17 o
1256 2 -14 -4 2 4804.50 4937.62 216.17 o
1256 1 14 4 -2 4804.50 4937.62 216.17 o
1257 3 -12 -4 -2 2256.10 2694.21 216.17 o
1257 2 13 -4 -2 2256.10 2694.21 216.17 o
1257 1 -13 4 2 2256.10 2694.21 216.17 o
1258 3 12 -4 2 2262.01 3187.18 229.35 o
1258 2 -13 -4 2 2262.01 3187.18 229.35 o
1258 1 13 4 -2 2262.01 3187.18 229.35 o
1259 3 -11 -4 -2 49.46 366.43 189.81 <
1259 2 12 -4 -2 49.46 366.43 189.81 <
1259 1 -12 4 2 49.46 366.43 189.81 <
1260 3 11 -4 2 44.00 -65.91 234.62 <
1260 2 -12 -4 2 44.00 -65.91 234.62 <
1260 1 12 4 -2 44.00 -65.91 234.62 <
1261 3 -10 -4 -2 12671.30 13647.70 202.99 o
1261 2 11 -4 -2 12671.30 13647.70 202.99 o
1261 1 -11 4 2 12671.30 13647.70 202.99 o
1262 3 10 -4 2 12917.80 14899.90 247.80 o
1262 2 -11 -4 2 12917.80 14899.90 247.80 o
1262 1 11 4 -2 12917.80 14899.90 247.80 o
1263 3 -9 -4 -2 7024.23 6458.71 173.99 o
1263 2 10 -4 -2 7024.23 6458.71 173.99 o
1263 1 -10 4 2 7024.23 6458.71 173.99 o
1264 3 9 -4 2 7350.10 6456.08 213.53 o
1264 2 -10 -4 2 7350.10 6456.08 213.53 o
1264 1 10 4 -2 7350.10 6456.08 213.53 o
1265 3 -8 -4 -2 6551.33 5707.39 163.45 o
1265 2 9 -4 -2 6551.33 5707.39 163.45 o
1265 1 -9 4 2 6551.33 5707.39 163.45 o
1266 3 8 -4 2 6667.46 6092.28 213.53 o
1266 2 -9 -4 2 6667.46 6092.28 213.53 o
1266 1 9 4 -2 6667.46 6092.28 213.53 o
1267 3 -7 -4 -2 2265.08 2931.46 152.90 o
1267 2 8 -4 -2 2265.08 2931.46 152.90 o
1267 1 -8 4 2 2265.08 2931.46 152.90 o
1268 3 7 -4 2 2410.49 3013.19 176.63 o
1268 2 -8 -4 2 2410.49 3013.19 176.63 o
1268 1 8 4 -2 2410.49 3013.19 176.63 o
1269 3 -6 -4 -2 91.63 -44.82 134.45 <
1269 2 7 -4 -2 91.63 -44.82 134.45 <
1269 1 -7 4 2 91.63 -44.82 134.45 <
1270 3 6 -4 2 79.06 226.71 155.54 <
1270 2 -7 -4 2 79.06 226.71 155.54 <
1270 1 7 4 -2 79.06 226.71 155.54 <
1271 3 -5 -4 -2 7533.40 7368.21 150.26 o
1271 2 6 -4 -2 7533.40 7368.21 150.26 o
1271 1 -6 4 2 7533.40 7368.21 150.26 o
1272 3 5 -4 2 7938.43 8148.52 163.45 o
1272 2 -6 -4 2 7938.43 8148.52 163.45 o
1272 1 6 4 -2 7938.43 8148.52 163.45 o
1273 3 -4 -4 -2 5368.53 5841.84 160.81 o
1273 2 5 -4 -2 5368.53 5841.84 160.81 o
1273 1 -5 4 2 5368.53 5841.84 160.81 o
1274 3 4 -4 2 5579.03 5024.62 155.54 o
1274 2 -5 -4 2 5579.03 5024.62 155.54 o
1274 1 5 4 -2 5579.03 5024.62 155.54 o
1275 3 -3 -4 -2 1540.89 1217.93 144.99 o
1275 2 4 -4 -2 1540.89 1217.93 144.99 o
1275 1 -4 4 2 1540.89 1217.93 144.99 o
1276 3 3 -4 2 1606.35 1246.93 142.35 o
1276 2 -4 -4 2 1606.35 1246.93 142.35 o
1276 1 4 4 -2 1606.35 1246.93 142.35 o
1277 3 -2 -4 -2 1431.48 2053.61 131.81 o
1277 2 3 -4 -2 1431.48 2053.61 131.81 o
1277 1 -3 4 2 1431.48 2053.61 131.81 o
1278 3 2 -4 2 1466.26 2008.79 137.08 o
1278 2 -3 -4 2 1466.26 2008.79 137.08 o
1278 1 3 4 -2 1466.26 2008.79 137.08 o
1279 3 -1 -4 -2 244.18 152.90 139.72 <
1279 2 2 -4 -2 244.18 152.90 139.72 <
1279 1 -2 4 2 244.18 152.90 139.72 <
1280 3 1 -4 2 159.95 179.26 129.17 <
1280 2 -2 -4 2 159.95 179.26 129.17 <
1280 1 2 4 -2 159.95 179.26 129.17 <
1281 3 0 -4 -2 1336.29 1478.91 171.35 o
1281 2 1 -4 -2 1336.29 1478.91 171.35 o
1281 1 -1 4 2 1336.29 1478.91 171.35 o
1282 3 0 -4 2 1825.32 1655.54 168.72 o
1282 2 -1 -4 2 1825.32 1655.54 168.72 o
1282 1 1 4 -2 1825.32 1655.54 168.72 o
1283 3 1 -4 -2 2596.48 2140.60 123.90 o
1283 2 0 -4 -2 2596.48 2140.60 123.90 o
1283 1 0 4 2 2596.48 2140.60 123.90 o
1284 3 -1 -4 2 2284.39 2238.14 168.72 o
1284 2 0 -4 2 2284.39 2238.14 168.72 o
1284 1 0 4 -2 2284.39 2238.14 168.72 o
1285 3 2 -4 -2 327.25 282.07 118.63 o
1285 2 -1 -4 -2 327.25 282.07 118.63 o
1285 1 1 4 2 327.25 282.07 118.63 o
1286 3 -2 -4 2 368.36 123.90 142.35 <
1286 2 1 -4 2 368.36 123.90 142.35 <
1286 1 -1 4 -2 368.36 123.90 142.35 <
1287 3 3 -4 -2 1519.52 2166.96 110.72 o
1287 2 -2 -4 -2 1519.52 2166.96 110.72 o
1287 1 2 4 2 1519.52 2166.96 110.72 o
1288 3 -3 -4 2 1133.87 2019.34 239.90 o
1288 2 2 -4 2 1133.87 2019.34 239.90 o
1288 1 -2 4 -2 1133.87 2019.34 239.90 o
1289 3 4 -4 -2 913.87 627.42 123.90 o
1289 2 -3 -4 -2 913.87 627.42 123.90 o
1289 1 3 4 2 913.87 627.42 123.90 o
1290 3 -4 -4 2 843.74 477.15 144.99 o
1290 2 3 -4 2 843.74 477.15 144.99 o
1290 1 -3 4 -2 843.74 477.15 144.99 o
1291 3 5 -4 -2 3705.10 3063.28 131.81 o
1291 2 -4 -4 -2 3705.10 3063.28 131.81 o
1291 1 4 4 2 3705.10 3063.28 131.81 o
1292 3 -5 -4 2 3641.94 2641.48 139.72 o
1292 2 4 -4 2 3641.94 2641.48 139.72 o
1292 1 -4 4 -2 3641.94 2641.48 139.72 o
1293 3 6 -4 -2 8435.72 8235.52 144.99 o
1293 2 -5 -4 -2 8435.72 8235.52 144.99 o
1293 1 5 4 2 8435.72 8235.52 144.99 o
1294 3 -6 -4 2 8144.71 8330.42 171.35 o
1294 2 5 -4 2 8144.71 8330.42 171.35 o
1294 1 -5 4 -2 8144.71 8330.42 171.35 o
1295 3 7 -4 -2 78.58 163.45 126.54 <
1295 2 -6 -4 -2 78.58 163.45 126.54 <
1295 1 6 4 2 78.58 163.45 126.54 <
1296 3 -7 -4 2 94.93 150.26 158.17 <
1296 2 6 -4 2 94.93 150.26 158.17 <
1296 1 -6 4 -2 94.93 150.26 158.17 <
1297 3 8 -4 -2 2363.49 3002.64 137.08 o
1297 2 -7 -4 -2 2363.49 3002.64 137.08 o
1297 1 7 4 2 2363.49 3002.64 137.08 o
1298 3 -8 -4 2 1932.94 2594.03 179.26 o
1298 2 7 -4 2 1932.94 2594.03 179.26 o
1298 1 -7 4 -2 1932.94 2594.03 179.26 o
1299 3 9 -4 -2 5416.61 4637.09 163.45 o
1299 2 -8 -4 -2 5416.61 4637.09 163.45 o
1299 1 8 4 2 5416.61 4637.09 163.45 o
1300 3 -9 -4 2 5303.31 4175.76 202.99 o
1300 2 8 -4 2 5303.31 4175.76 202.99 o
1300 1 -8 4 -2 5303.31 4175.76 202.99 o
1301 3 10 -4 -2 5759.34 5330.42 158.17 o
1301 2 -9 -4 -2 5759.34 5330.42 158.17 o
1301 1 9 4 2 5759.34 5330.42 158.17 o
1302 3 -10 -4 2 5429.25 4555.37 205.62 o
1302 2 9 -4 2 5429.25 4555.37 205.62 o
1302 1 -9 4 -2 5429.25 4555.37 205.62 o
1303 3 11 -4 -2 12862.80 13826.90 181.90 o
1303 2 -10 -4 -2 12862.80 13826.90 181.90 o
1303 1 10 4 2 12862.80 13826.90 181.90 o
1304 3 -11 -4 2 12710.00 13919.20 268.89 o
1304 2 10 -4 2 12710.00 13919.20 268.89 o
1304 1 -10 4 -2 12710.00 13919.20 268.89 o
1305 3 12 -4 -2 18.20 113.36 168.72 <
1305 2 -11 -4 -2 18.20 113.36 168.72 <
1305 1 11 4 2 18.20 113.36 168.72 <
1306 3 -12 -4 2 29.66 -158.17 266.26 <
1306 2 11 -4 2 29.66 -158.17 266.26 <
1306 1 -11 4 -2 29.66 -158.17 266.26 <
1307 3 13 -4 -2 2268.77 2604.57 195.08 o
1307 2 -12 -4 -2 2268.77 2604.57 195.08 o
1307 1 12 4 2 2268.77 2604.57 195.08 o
1308 3 -13 -4 2 2143.84 2828.65 221.44 o
1308 2 12 -4 2 2143.84 2828.65 221.44 o
1308 1 -12 4 -2 2143.84 2828.65 221.44 o
1309 3 14 -4 -2 4262.29 4349.75 239.90 o
1309 2 -13 -4 -2 4262.29 4349.75 239.90 o
1309 1 13 4 2 4262.29 4349.75 239.90 o
1310 3 -14 -4 2 4200.44 4402.47 224.08 o
1310 2 13 -4 2 4200.44 4402.47 224.08 o
1310 1 -13 4 -2 4200.44 4402.47 224.08 o
1311 3 15 -4 -2 2341.34 1344.47 253.08 o
1311 2 -14 -4 -2 2341.34 1344.47 253.08 o
1311 1 14 4 2 2341.34 1344.47 253.08 o
1312 3 -15 -4 2 2189.47 1202.11 208.26 o
1312 2 14 -4 2 2189.47 1202.11 208.26 o
1312 1 -14 4 -2 2189.47 1202.11 208.26 o
1313 3 16 -4 -2 5912.41 6044.83 297.89 o
1313 2 -15 -4 -2 5912.41 6044.83 297.89 o
1313 1 15 4 2 5912.41 6044.83 297.89 o
1314 3 -16 -4 2 5903.72 5652.03 229.35 o
1314 2 15 -4 2 5903.72 5652.03 229.35 o
1314 1 -15 4 -2 5903.72 5652.03 229.35 o
1315 3 17 -4 -2 45.51 392.80 274.17 <
1315 2 -16 -4 -2 45.51 392.80 274.17 <
1315 1 16 4 2 45.51 392.80 274.17 <
1316 3 -17 -4 2 42.00 508.79 216.17 o
1316 2 16 -4 2 42.00 508.79 216.17 o
1316 1 -16 4 -2 42.00 508.79 216.17 o
1317 3 18 -4 -2 538.67 197.72 274.17 <
1317 2 -17 -4 -2 538.67 197.72 274.17 <
1317 1 17 4 2 538.67 197.72 274.17 <
1318 3 -18 -4 2 565.09 408.61 245.17 <
1318 2 17 -4 2 565.09 408.61 245.17 <
1318 1 -17 4 -2 565.09 408.61 245.17 <
1319 3 -16 -5 -2 787.03 659.05 276.80 o
1319 2 17 -5 -2 787.03 659.05 276.80 o
1319 1 -17 5 2 787.03 659.05 276.80 o
1320 3 16 -5 2 766.98 179.26 245.17 <
1320 2 -17 -5 2 766.98 179.26 245.17 <
1320 1 17 5 -2 766.98 179.26 245.17 <
1321 3 -15 -5 -2 84.45 208.26 268.89 <
1321 2 16 -5 -2 84.45 208.26 268.89 <
1321 1 -16 5 2 84.45 208.26 268.89 <
1322 3 15 -5 2 78.88 100.18 231.99 <
1322 2 -16 -5 2 78.88 100.18 231.99 <
1322 1 16 5 -2 78.88 100.18 231.99 <
1323 3 -14 -5 -2 628.38 898.95 231.99 o
1323 2 15 -5 -2 628.38 898.95 231.99 o
1323 1 -15 5 2 628.38 898.95 231.99 o
1324 3 14 -5 2 656.75 1542.18 218.80 o
1324 2 -15 -5 2 656.75 1542.18 218.80 o
1324 1 15 5 -2 656.75 1542.18 218.80 o
1325 3 -13 -5 -2 48.89 166.08 210.90 <
1325 2 14 -5 -2 48.89 166.08 210.90 <
1325 1 -14 5 2 48.89 166.08 210.90 <
1326 3 13 -5 2 65.25 84.36 242.53 <
1326 2 -14 -5 2 65.25 84.36 242.53 <
1326 1 14 5 -2 65.25 84.36 242.53 <
1327 3 -12 -5 -2 22.23 234.62 179.26 <
1327 2 13 -5 -2 22.23 234.62 179.26 <
1327 1 -13 5 2 22.23 234.62 179.26 <
1328 3 12 -5 2 16.25 -242.53 218.80 <
1328 2 -13 -5 2 16.25 -242.53 218.80 <
1328 1 13 5 -2 16.25 -242.53 218.80 <
1329 3 -11 -5 -2 4966.20 4004.40 179.26 o
1329 2 12 -5 -2 4966.20 4004.40 179.26 o
1329 1 -12 5 2 4966.20 4004.40 179.26 o
1330 3 11 -5 2 4919.19 3859.41 208.26 o
1330 2 -12 -5 2 4919.19 3859.41 208.26 o
1330 1 12 5 -2 4919.19 3859.41 208.26 o
1331 3 -10 -5 -2 51.28 -34.27 150.26 <
1331 2 11 -5 -2 51.28 -34.27 150.26 <
1331 1 -11 5 2 51.28 -34.27 150.26 <
1332 3 10 -5 2 47.47 179.26 181.90 <
1332 2 -11 -5 2 47.47 179.26 181.90 <
1332 1 11 5 -2 47.47 179.26 181.90 <
1333 3 -9 -5 -2 81.82 147.63 142.35 <
1333 2 10 -5 -2 81.82 147.63 142.35 <
1333 1 -10 5 2 81.82 147.63 142.35 <
1334 3 9 -5 2 84.52 139.72 171.35 <
1334 2 -10 -5 2 84.52 139.72 171.35 <
1334 1 10 5 -2 84.52 139.72 171.35 <
1335 3 -8 -5 -2 44.97 84.36 134.45 <
1335 2 9 -5 -2 44.97 84.36 134.45 <
1335 1 -9 5 2 44.97 84.36 134.45 <
1336 3 8 -5 2 51.66 260.98 155.54 <
1336 2 -9 -5 2 51.66 260.98 155.54 <
1336 1 9 5 -2 51.66 260.98 155.54 <
1337 3 -7 -5 -2 36.37 347.98 144.99 o
1337 2 8 -5 -2 36.37 347.98 144.99 o
1337 1 -8 5 2 36.37 347.98 144.99 o
1338 3 7 -5 2 27.64 23.73 147.63 <
1338 2 -8 -5 2 27.64 23.73 147.63 <
1338 1 8 5 -2 27.64 23.73 147.63 <
1339 3 -6 -5 -2 14631.40 15305.80 168.72 o
1339 2 7 -5 -2 14631.40 15305.80 168.72 o
1339 1 -7 5 2 14631.40 15305.80 168.72 o
1340 3 6 -5 2 14551.90 15152.90 181.90 o
1340 2 -7 -5 2 14551.90 15152.90 181.90 o
1340 1 7 5 -2 14551.90 15152.90 181.90 o
1341 3 -5 -5 -2 416.09 777.68 121.27 o
1341 2 6 -5 -2 416.09 777.68 121.27 o
1341 1 -6 5 2 416.09 777.68 121.27 o
1342 3 5 -5 2 427.60 550.97 152.90 o
1342 2 -6 -5 2 427.60 550.97 152.90 o
1342 1 6 5 -2 427.60 550.97 152.90 o
1343 3 -4 -5 -2 182.84 42.18 118.63 <
1343 2 5 -5 -2 182.84 42.18 118.63 <
1343 1 -5 5 2 182.84 42.18 118.63 <
1344 3 4 -5 2 169.24 36.91 123.90 <
1344 2 -5 -5 2 169.24 36.91 123.90 <
1344 1 5 5 -2 169.24 36.91 123.90 <
1345 3 -3 -5 -2 590.15 187.17 129.17 <
1345 2 4 -5 -2 590.15 187.17 129.17 <
1345 1 -4 5 2 590.15 187.17 129.17 <
1346 3 3 -5 2 567.09 247.80 137.08 <
1346 2 -4 -5 2 567.09 247.80 137.08 <
1346 1 4 5 -2 567.09 247.80 137.08 <
1347 3 -2 -5 -2 367.02 110.72 115.99 <
1347 2 3 -5 -2 367.02 110.72 115.99 <
1347 1 -3 5 2 367.02 110.72 115.99 <
1348 3 2 -5 2 375.11 126.54 137.08 <
1348 2 -3 -5 2 375.11 126.54 137.08 <
1348 1 3 5 -2 375.11 126.54 137.08 <
1349 3 -1 -5 -2 9358.98 11064.20 189.81 o
1349 2 2 -5 -2 9358.98 11064.20 189.81 o
1349 1 -2 5 2 9358.98 11064.20 189.81 o
1350 3 1 -5 2 9326.79 11451.70 126.54 o
1350 2 -2 -5 2 9326.79 11451.70 126.54 o
1350 1 2 5 -2 9326.79 11451.70 126.54 o
1351 3 0 -5 -2 569.47 819.86 113.36 o
1351 2 1 -5 -2 569.47 819.86 113.36 o
1351 1 -1 5 2 569.47 819.86 113.36 o
1352 3 0 -5 2 574.64 898.95 137.08 o
1352 2 -1 -5 2 574.64 898.95 137.08 o
1352 1 1 5 -2 574.64 898.95 137.08 o
1353 3 1 -5 -2 471.32 487.70 113.36 o
1353 2 0 -5 -2 471.32 487.70 113.36 o
1353 1 0 5 2 471.32 487.70 113.36 o
1354 3 -1 -5 2 467.93 411.25 147.63 o
1354 2 0 -5 2 467.93 411.25 147.63 o
1354 1 0 5 -2 467.93 411.25 147.63 o
1355 3 2 -5 -2 8409.31 10365.60 134.45 o
1355 2 -1 -5 -2 8409.31 10365.60 134.45 o
1355 1 1 5 2 8409.31 10365.60 134.45 o
1356 3 -2 -5 2 8425.33 10449.90 171.35 o
1356 2 1 -5 2 8425.33 10449.90 171.35 o
1356 1 -1 5 -2 8425.33 10449.90 171.35 o
1357 3 3 -5 -2 302.18 123.90 113.36 <
1357 2 -2 -5 -2 302.18 123.90 113.36 <
1357 1 2 5 2 302.18 123.90 113.36 <
1358 3 -3 -5 2 297.57 81.72 200.35 <
1358 2 2 -5 2 297.57 81.72 200.35 <
1358 1 -2 5 -2 297.57 81.72 200.35 <
1359 3 4 -5 -2 526.92 379.61 129.17 o
1359 2 -3 -5 -2 526.92 379.61 129.17 o
1359 1 3 5 2 526.92 379.61 129.17 o
1360 3 -4 -5 2 553.87 448.16 208.26 o
1360 2 3 -5 2 553.87 448.16 208.26 o
1360 1 -3 5 -2 553.87 448.16 208.26 o
1361 3 5 -5 -2 133.26 247.80 126.54 <
1361 2 -4 -5 -2 133.26 247.80 126.54 <
1361 1 4 5 2 133.26 247.80 126.54 <
1362 3 -5 -5 2 148.43 284.71 121.27 o
1362 2 4 -5 2 148.43 284.71 121.27 o
1362 1 -4 5 -2 148.43 284.71 121.27 o
1363 3 6 -5 -2 390.62 421.79 129.17 o
1363 2 -5 -5 -2 390.62 421.79 129.17 o
1363 1 5 5 2 390.62 421.79 129.17 o
1364 3 -6 -5 2 383.22 345.34 126.54 o
1364 2 5 -5 2 383.22 345.34 126.54 o
1364 1 -5 5 -2 383.22 345.34 126.54 o
1365 3 7 -5 -2 13146.00 15245.20 160.81 o
1365 2 -6 -5 -2 13146.00 15245.20 160.81 o
1365 1 6 5 2 13146.00 15245.20 160.81 o
1366 3 -7 -5 2 13203.10 14016.70 168.72 o
1366 2 6 -5 2 13203.10 14016.70 168.72 o
1366 1 -6 5 -2 13203.10 14016.70 168.72 o
1367 3 8 -5 -2 63.63 247.80 121.27 o
1367 2 -7 -5 -2 63.63 247.80 121.27 o
1367 1 7 5 2 63.63 247.80 121.27 o
1368 3 -8 -5 2 68.56 100.18 155.54 <
1368 2 7 -5 2 68.56 100.18 155.54 <
1368 1 -7 5 -2 68.56 100.18 155.54 <
1369 3 9 -5 -2 36.42 221.44 142.35 <
1369 2 -8 -5 -2 36.42 221.44 142.35 <
1369 1 8 5 2 36.42 221.44 142.35 <
1370 3 -9 -5 2 34.01 102.81 142.35 <
1370 2 8 -5 2 34.01 102.81 142.35 <
1370 1 -8 5 -2 34.01 102.81 142.35 <
1371 3 10 -5 -2 51.72 113.36 147.63 <
1371 2 -9 -5 -2 51.72 113.36 147.63 <
1371 1 9 5 2 51.72 113.36 147.63 <
1372 3 -10 -5 2 55.70 181.90 168.72 <
1372 2 9 -5 2 55.70 181.90 168.72 <
1372 1 -9 5 -2 55.70 181.90 168.72 <
1373 3 11 -5 -2 27.36 -2.64 137.08 <
1373 2 -10 -5 -2 27.36 -2.64 137.08 <
1373 1 10 5 2 27.36 -2.64 137.08 <
1374 3 -11 -5 2 36.36 -2.64 166.08 <
1374 2 10 -5 2 36.36 -2.64 166.08 <
1374 1 -10 5 -2 36.36 -2.64 166.08 <
1375 3 12 -5 -2 4562.22 3917.41 160.81 o
1375 2 -11 -5 -2 4562.22 3917.41 160.81 o
1375 1 11 5 2 4562.22 3917.41 160.81 o
1376 3 -12 -5 2 4600.03 3427.07 224.08 o
1376 2 11 -5 2 4600.03 3427.07 224.08 o
1376 1 -11 5 -2 4600.03 3427.07 224.08 o
1377 3 13 -5 -2 25.75 36.91 163.45 <
1377 2 -12 -5 -2 25.75 36.91 163.45 <
1377 1 12 5 2 25.75 36.91 163.45 <
1378 3 -13 -5 2 29.23 155.54 239.90 <
1378 2 12 -5 2 29.23 155.54 239.90 <
1378 1 -12 5 -2 29.23 155.54 239.90 <
1379 3 14 -5 -2 67.89 -50.09 184.54 <
1379 2 -13 -5 -2 67.89 -50.09 184.54 <
1379 1 13 5 2 67.89 -50.09 184.54 <
1380 3 -14 -5 2 51.04 616.87 271.53 o
1380 2 13 -5 2 51.04 616.87 271.53 o
1380 1 -13 5 -2 51.04 616.87 271.53 o
1381 3 15 -5 -2 587.06 690.69 210.90 o
1381 2 -14 -5 -2 587.06 690.69 210.90 o
1381 1 14 5 2 587.06 690.69 210.90 o
1382 3 -15 -5 2 563.07 724.96 229.35 o
1382 2 14 -5 2 563.07 724.96 229.35 o
1382 1 -14 5 -2 563.07 724.96 229.35 o
1383 3 16 -5 -2 68.69 -94.90 253.08 <
1383 2 -15 -5 -2 68.69 -94.90 253.08 <
1383 1 15 5 2 68.69 -94.90 253.08 <
1384 3 -16 -5 2 76.20 263.62 221.44 <
1384 2 15 -5 2 76.20 263.62 221.44 <
1384 1 -15 5 -2 76.20 263.62 221.44 <
1385 3 17 -5 -2 710.11 366.43 282.07 <
1385 2 -16 -5 -2 710.11 366.43 282.07 <
1385 1 16 5 2 710.11 366.43 282.07 <
1386 3 -17 -5 2 726.25 883.13 229.35 o
1386 2 16 -5 2 726.25 883.13 229.35 o
1386 1 -16 5 -2 726.25 883.13 229.35 o
1387 3 -15 -6 -2 1522.79 1320.74 247.80 o
1387 2 16 -6 -2 1522.79 1320.74 247.80 o
1387 1 -16 6 2 1522.79 1320.74 247.80 o
1388 3 15 -6 2 1395.44 1821.62 260.98 o
1388 2 -16 -6 2 1395.44 1821.62 260.98 o
1388 1 16 6 -2 1395.44 1821.62 260.98 o
1389 3 -14 -6 -2 3357.76 3289.99 229.35 o
1389 2 15 -6 -2 3357.76 3289.99 229.35 o
1389 1 -15 6 2 3357.76 3289.99 229.35 o
1390 3 14 -6 2 3372.74 3192.45 279.44 o
1390 2 -15 -6 2 3372.74 3192.45 279.44 o
1390 1 15 6 -2 3372.74 3192.45 279.44 o
1391 3 -13 -6 -2 1962.74 1929.71 184.54 o
1391 2 14 -6 -2 1962.74 1929.71 184.54 o
1391 1 -14 6 2 1962.74 1929.71 184.54 o
1392 3 13 -6 2 1973.23 1969.25 229.35 o
1392 2 -14 -6 2 1973.23 1969.25 229.35 o
1392 1 14 6 -2 1973.23 1969.25 229.35 o
1393 3 -12 -6 -2 4681.32 4637.09 173.99 o
1393 2 13 -6 -2 4681.32 4637.09 173.99 o
1393 1 -13 6 2 4681.32 4637.09 173.99 o
1394 3 12 -6 2 4578.07 4724.09 210.90 o
1394 2 -13 -6 2 4578.07 4724.09 210.90 o
1394 1 13 6 -2 4578.07 4724.09 210.90 o
1395 3 -11 -6 -2 857.66 1331.29 147.63 o
1395 2 12 -6 -2 857.66 1331.29 147.63 o
1395 1 -12 6 2 857.66 1331.29 147.63 o
1396 3 11 -6 2 866.73 1096.66 173.99 o
1396 2 -12 -6 2 866.73 1096.66 173.99 o
1396 1 12 6 -2 866.73 1096.66 173.99 o
1397 3 -10 -6 -2 6262.63 5789.12 152.90 o
1397 2 11 -6 -2 6262.63 5789.12 152.90 o
1397 1 -11 6 2 6262.63 5789.12 152.90 o
1398 3 10 -6 2 5932.03 6635.34 176.63 o
1398 2 -11 -6 2 5932.03 6635.34 176.63 o
1398 1 11 6 -2 5932.03 6635.34 176.63 o
1399 3 -9 -6 -2 13705.50 14649.40 163.45 o
1399 2 10 -6 -2 13705.50 14649.40 163.45 o
1399 1 -10 6 2 13705.50 14649.40 163.45 o
1400 3 9 -6 2 13661.10 14689.00 181.90 o
1400 2 -10 -6 2 13661.10 14689.00 181.90 o
1400 1 10 6 -2 13661.10 14689.00 181.90 o
1401 3 -8 -6 -2 4736.98 4573.82 142.35 o
1401 2 9 -6 -2 4736.98 4573.82 142.35 o
1401 1 -9 6 2 4736.98 4573.82 142.35 o
1402 3 8 -6 2 4661.01 4510.55 152.90 o
1402 2 -9 -6 2 4661.01 4510.55 152.90 o
1402 1 9 6 -2 4661.01 4510.55 152.90 o
1403 3 -7 -6 -2 26343.20 29348.90 179.26 o
1403 2 8 -6 -2 26343.20 29348.90 179.26 o
1403 1 -8 6 2 26343.20 29348.90 179.26 o
1404 3 7 -6 2 26090.60 29994.80 205.62 o
1404 2 -8 -6 2 26090.60 29994.80 205.62 o
1404 1 8 6 -2 26090.60 29994.80 205.62 o
1405 3 -6 -6 -2 2412.74 2159.06 126.54 o
1405 2 7 -6 -2 2412.74 2159.06 126.54 o
1405 1 -7 6 2 2412.74 2159.06 126.54 o
1406 3 6 -6 2 2428.92 2256.60 137.08 o
1406 2 -7 -6 2 2428.92 2256.60 137.08 o
1406 1 7 6 -2 2428.92 2256.60 137.08 o
1407 3 -5 -6 -2 26236.30 24313.80 163.45 o
1407 2 6 -6 -2 26236.30 24313.80 163.45 o
1407 1 -6 6 2 26236.30 24313.80 163.45 o
1408 3 5 -6 2 25753.10 26765.40 176.63 o
1408 2 -6 -6 2 25753.10 26765.40 176.63 o
1408 1 6 6 -2 25753.10 26765.40 176.63 o
1409 3 -4 -6 -2 38933.80 41897.30 189.81 o
1409 2 5 -6 -2 38933.80 41897.30 189.81 o
1409 1 -5 6 2 38933.80 41897.30 189.81 o
1410 3 4 -6 2 38891.30 41298.90 195.08 o
1410 2 -5 -6 2 38891.30 41298.90 195.08 o
1410 1 5 6 -2 38891.30 41298.90 195.08 o
1411 3 -3 -6 -2 9430.17 7766.27 134.45 o
1411 2 4 -6 -2 9430.17 7766.27 134.45 o
1411 1 -4 6 2 9430.17 7766.27 134.45 o
1412 3 3 -6 2 9275.22 8267.15 152.90 o
1412 2 -4 -6 2 9275.22 8267.15 152.90 o
1412 1 4 6 -2 9275.22 8267.15 152.90 o
1413 3 -2 -6 -2 74497.40 93374.50 342.71 o
1413 2 3 -6 -2 74497.40 93374.50 342.71 o
1413 1 -3 6 2 74497.40 93374.50 342.71 o
1414 3 2 -6 2 74421.90 93393.00 213.53 o
1414 2 -3 -6 2 74421.90 93393.00 213.53 o
1414 1 3 6 -2 74421.90 93393.00 213.53 o
1415 3 -1 -6 -2 7128.39 5976.29 171.35 o
1415 2 2 -6 -2 7128.39 5976.29 171.35 o
1415 1 -2 6 2 7128.39 5976.29 171.35 o
1416 3 1 -6 2 7197.44 6068.55 147.63 o
1416 2 -2 -6 2 7197.44 6068.55 147.63 o
1416 1 2 6 -2 7197.44 6068.55 147.63 o
1417 3 0 -6 -2 51390.80 54943.90 189.81 o
1417 2 1 -6 -2 51390.80 54943.90 189.81 o
1417 1 -1 6 2 51390.80 54943.90 189.81 o
1418 3 0 -6 2 51197.10 50043.20 226.71 o
1418 2 -1 -6 2 51197.10 50043.20 226.71 o
1418 1 1 6 -2 51197.10 50043.20 226.71 o
1419 3 1 -6 -2 55917.10 57263.70 195.08 o
1419 2 0 -6 -2 55917.10 57263.70 195.08 o
1419 1 0 6 2 55917.10 57263.70 195.08 o
1420 3 -1 -6 2 56206.10 54487.80 226.71 o
1420 2 0 -6 2 56206.10 54487.80 226.71 o
1420 1 0 6 -2 56206.10 54487.80 226.71 o
1421 3 2 -6 -2 6776.86 6118.64 123.90 o
1421 2 -1 -6 -2 6776.86 6118.64 123.90 o
1421 1 1 6 2 6776.86 6118.64 123.90 o
1422 3 -2 -6 2 6685.63 5559.77 144.99 o
1422 2 1 -6 2 6685.63 5559.77 144.99 o
1422 1 -1 6 -2 6685.63 5559.77 144.99 o
1423 3 3 -6 -2 75182.30 90609.10 229.35 o
1423 2 -2 -6 -2 75182.30 90609.10 229.35 o
1423 1 2 6 2 75182.30 90609.10 229.35 o
1424 3 -3 -6 2 75370.90 91128.50 289.98 o
1424 2 2 -6 2 75370.90 91128.50 289.98 o
1424 1 -2 6 -2 75370.90 91128.50 289.98 o
1425 3 4 -6 -2 8865.63 8172.25 123.90 o
1425 2 -3 -6 -2 8865.63 8172.25 123.90 o
1425 1 3 6 2 8865.63 8172.25 123.90 o
1426 3 -4 -6 2 9048.39 7289.12 197.72 o
1426 2 3 -6 2 9048.39 7289.12 197.72 o
1426 1 -3 6 -2 9048.39 7289.12 197.72 o
1427 3 5 -6 -2 34433.50 34637.20 179.26 o
1427 2 -4 -6 -2 34433.50 34637.20 179.26 o
1427 1 4 6 2 34433.50 34637.20 179.26 o
1428 3 -5 -6 2 34563.50 36920.10 308.44 o
1428 2 4 -6 2 34563.50 36920.10 308.44 o
1428 1 -4 6 -2 34563.50 36920.10 308.44 o
1429 3 6 -6 -2 28312.30 30047.50 173.99 o
1429 2 -5 -6 -2 28312.30 30047.50 173.99 o
1429 1 5 6 2 28312.30 30047.50 173.99 o
1430 3 -6 -6 2 28825.60 29317.30 184.54 o
1430 2 5 -6 2 28825.60 29317.30 184.54 o
1430 1 -5 6 -2 28825.60 29317.30 184.54 o
1431 3 7 -6 -2 2225.21 1869.07 121.27 o
1431 2 -6 -6 -2 2225.21 1869.07 121.27 o
1431 1 6 6 2 2225.21 1869.07 121.27 o
1432 3 -7 -6 2 2200.89 2280.32 144.99 o
1432 2 6 -6 2 2200.89 2280.32 144.99 o
1432 1 -6 6 -2 2200.89 2280.32 144.99 o
1433 3 8 -6 -2 26584.50 31341.90 189.81 o
1433 2 -7 -6 -2 26584.50 31341.90 189.81 o
1433 1 7 6 2 26584.50 31341.90 189.81 o
1434 3 -8 -6 2 26860.50 29333.10 187.17 o
1434 2 7 -6 2 26860.50 29333.10 187.17 o
1434 1 -7 6 -2 26860.50 29333.10 187.17 o
1435 3 9 -6 -2 4299.78 4186.30 131.81 o
1435 2 -8 -6 -2 4299.78 4186.30 131.81 o
1435 1 8 6 2 4299.78 4186.30 131.81 o
1436 3 -9 -6 2 4402.93 3772.42 160.81 o
1436 2 8 -6 2 4402.93 3772.42 160.81 o
1436 1 -8 6 -2 4402.93 3772.42 160.81 o
1437 3 10 -6 -2 11962.80 11783.90 152.90 o
1437 2 -9 -6 -2 11962.80 11783.90 152.90 o
1437 1 9 6 2 11962.80 11783.90 152.90 o
1438 3 -10 -6 2 12029.60 11467.50 166.08 o
1438 2 9 -6 2 12029.60 11467.50 166.08 o
1438 1 -9 6 -2 12029.60 11467.50 166.08 o
1439 3 11 -6 -2 6571.20 6347.99 150.26 o
1439 2 -10 -6 -2 6571.20 6347.99 150.26 o
1439 1 10 6 2 6571.20 6347.99 150.26 o
1440 3 -11 -6 2 6926.42 6005.28 171.35 o
1440 2 10 -6 2 6926.42 6005.28 171.35 o
1440 1 -10 6 -2 6926.42 6005.28 171.35 o
1441 3 12 -6 -2 699.19 680.14 150.26 o
1441 2 -11 -6 -2 699.19 680.14 150.26 o
1441 1 11 6 2 699.19 680.14 150.26 o
1442 3 -12 -6 2 697.84 706.50 200.35 o
1442 2 11 -6 2 697.84 706.50 200.35 o
1442 1 -11 6 -2 697.84 706.50 200.35 o
1443 3 13 -6 -2 4844.71 5124.79 163.45 o
1443 2 -12 -6 -2 4844.71 5124.79 163.45 o
1443 1 12 6 2 4844.71 5124.79 163.45 o
1444 3 -13 -6 2 4931.78 4589.64 224.08 o
1444 2 12 -6 2 4931.78 4589.64 224.08 o
1444 1 -12 6 -2 4931.78 4589.64 224.08 o
1445 3 14 -6 -2 1742.68 1953.43 166.08 o
1445 2 -13 -6 -2 1742.68 1953.43 166.08 o
1445 1 13 6 2 1742.68 1953.43 166.08 o
1446 3 -14 -6 2 1752.61 1753.08 226.71 o
1446 2 13 -6 2 1752.61 1753.08 226.71 o
1446 1 -13 6 -2 1752.61 1753.08 226.71 o
1447 3 15 -6 -2 2869.22 2454.31 192.44 o
1447 2 -14 -6 -2 2869.22 2454.31 192.44 o
1447 1 14 6 2 2869.22 2454.31 192.44 o
1448 3 -15 -6 2 2862.89 2446.40 268.89 o
1448 2 14 -6 2 2862.89 2446.40 268.89 o
1448 1 -14 6 -2 2862.89 2446.40 268.89 o
1449 3 16 -6 -2 1502.20 1795.26 226.71 o
1449 2 -15 -6 -2 1502.20 1795.26 226.71 o
1449 1 15 6 2 1502.20 1795.26 226.71 o
1450 3 -16 -6 2 1640.70 1460.46 253.08 o
1450 2 15 -6 2 1640.70 1460.46 253.08 o
1450 1 -15 6 -2 1640.70 1460.46 253.08 o
1451 3 -13 -7 -2 932.02 611.60 189.81 o
1451 2 14 -7 -2 932.02 611.60 189.81 o
1451 1 -14 7 2 932.02 611.60 189.81 o
1452 3 13 -7 2 930.11 1188.93 216.17 o
1452 2 -14 -7 2 930.11 1188.93 216.17 o
1452 1 14 7 -2 930.11 1188.93 216.17 o
1453 3 -12 -7 -2 182.48 274.17 168.72 <
1453 2 13 -7 -2 182.48 274.17 168.72 <
1453 1 -13 7 2 182.48 274.17 168.72 <
1454 3 12 -7 2 194.16 485.06 192.44 o
1454 2 -13 -7 2 194.16 485.06 192.44 o
1454 1 13 7 -2 194.16 485.06 192.44 o
1455 3 -11 -7 -2 58.23 173.99 142.35 <
1455 2 12 -7 -2 58.23 173.99 142.35 <
1455 1 -12 7 2 58.23 173.99 142.35 <
1456 3 11 -7 2 52.41 195.08 189.81 <
1456 2 -12 -7 2 52.41 195.08 189.81 <
1456 1 12 7 -2 52.41 195.08 189.81 <
1457 3 -10 -7 -2 366.61 5.27 137.08 <
1457 2 11 -7 -2 366.61 5.27 137.08 <
1457 1 -11 7 2 366.61 5.27 137.08 <
1458 3 10 -7 2 356.42 -10.54 160.81 <
1458 2 -11 -7 2 356.42 -10.54 160.81 <
1458 1 11 7 -2 356.42 -10.54 160.81 <
1459 3 -9 -7 -2 1184.93 624.78 137.08 o
1459 2 10 -7 -2 1184.93 624.78 137.08 o
1459 1 -10 7 2 1184.93 624.78 137.08 o
1460 3 9 -7 2 1222.43 856.77 152.90 o
1460 2 -10 -7 2 1222.43 856.77 152.90 o
1460 1 10 7 -2 1222.43 856.77 152.90 o
1461 3 -8 -7 -2 2936.90 3134.45 147.63 o
1461 2 9 -7 -2 2936.90 3134.45 147.63 o
1461 1 -9 7 2 2936.90 3134.45 147.63 o
1462 3 8 -7 2 2931.52 2625.66 163.45 o
1462 2 -9 -7 2 2931.52 2625.66 163.45 o
1462 1 9 7 -2 2931.52 2625.66 163.45 o
1463 3 -7 -7 -2 254.31 171.35 123.90 <
1463 2 8 -7 -2 254.31 171.35 123.90 <
1463 1 -8 7 2 254.31 171.35 123.90 <
1464 3 7 -7 2 270.65 147.63 134.45 <
1464 2 -8 -7 2 270.65 147.63 134.45 <
1464 1 8 7 -2 270.65 147.63 134.45 <
1465 3 -6 -7 -2 357.95 685.41 121.27 o
1465 2 7 -7 -2 357.95 685.41 121.27 o
1465 1 -7 7 2 357.95 685.41 121.27 o
1466 3 6 -7 2 374.94 1115.12 139.72 o
1466 2 -7 -7 2 374.94 1115.12 139.72 o
1466 1 7 7 -2 374.94 1115.12 139.72 o
1467 3 -5 -7 -2 491.62 118.63 118.63 <
1467 2 6 -7 -2 491.62 118.63 118.63 <
1467 1 -6 7 2 491.62 118.63 118.63 <
1468 3 5 -7 2 487.69 -92.27 142.35 <
1468 2 -6 -7 2 487.69 -92.27 142.35 <
1468 1 6 7 -2 487.69 -92.27 142.35 <
1469 3 -4 -7 -2 963.38 909.49 115.99 o
1469 2 5 -7 -2 963.38 909.49 115.99 o
1469 1 -5 7 2 963.38 909.49 115.99 o
1470 3 4 -7 2 1003.49 1101.94 134.45 o
1470 2 -5 -7 2 1003.49 1101.94 134.45 o
1470 1 5 7 -2 1003.49 1101.94 134.45 o
1471 3 -3 -7 -2 3075.31 2931.46 166.08 o
1471 2 4 -7 -2 3075.31 2931.46 166.08 o
1471 1 -4 7 2 3075.31 2931.46 166.08 o
1472 3 3 -7 2 3082.06 2815.47 100.18 o
1472 2 -4 -7 2 3082.06 2815.47 100.18 o
1472 1 4 7 -2 3082.06 2815.47 100.18 o
1473 3 -2 -7 -2 14.44 432.34 155.54 o
1473 2 3 -7 -2 14.44 432.34 155.54 o
1473 1 -3 7 2 14.44 432.34 155.54 o
1474 3 2 -7 2 15.57 318.98 118.63 o
1474 2 -3 -7 2 15.57 318.98 118.63 o
1474 1 3 7 -2 15.57 318.98 118.63 o
1475 3 -1 -7 -2 451.14 142.35 105.45 <
1475 2 2 -7 -2 451.14 142.35 105.45 <
1475 1 -2 7 2 451.14 142.35 105.45 <
1476 3 1 -7 2 459.03 52.72 115.99 <
1476 2 -2 -7 2 459.03 52.72 115.99 <
1476 1 2 7 -2 459.03 52.72 115.99 <
1477 3 0 -7 -2 250.70 29.00 108.08 <
1477 2 1 -7 -2 250.70 29.00 108.08 <
1477 1 -1 7 2 250.70 29.00 108.08 <
1478 3 0 -7 2 254.30 110.72 123.90 <
1478 2 -1 -7 2 254.30 110.72 123.90 <
1478 1 1 7 -2 254.30 110.72 123.90 <
1479 3 1 -7 -2 317.18 208.26 110.72 <
1479 2 0 -7 -2 317.18 208.26 110.72 <
1479 1 0 7 2 317.18 208.26 110.72 <
1480 3 -1 -7 2 314.68 23.73 126.54 <
1480 2 0 -7 2 314.68 23.73 126.54 <
1480 1 0 7 -2 314.68 23.73 126.54 <
1481 3 2 -7 -2 351.35 134.45 110.72 <
1481 2 -1 -7 -2 351.35 134.45 110.72 <
1481 1 1 7 2 351.35 134.45 110.72 <
1482 3 -2 -7 2 343.40 126.54 110.72 <
1482 2 1 -7 2 343.40 126.54 110.72 <
1482 1 -1 7 -2 343.40 126.54 110.72 <
1483 3 3 -7 -2 21.13 485.06 110.72 o
1483 2 -2 -7 -2 21.13 485.06 110.72 o
1483 1 2 7 2 21.13 485.06 110.72 o
1484 3 -3 -7 2 20.12 500.88 134.45 o
1484 2 2 -7 2 20.12 500.88 134.45 o
1484 1 -2 7 -2 20.12 500.88 134.45 o
1485 3 4 -7 -2 2940.96 2441.13 123.90 o
1485 2 -3 -7 -2 2940.96 2441.13 123.90 o
1485 1 3 7 2 2940.96 2441.13 123.90 o
1486 3 -4 -7 2 2938.72 2417.40 129.17 o
1486 2 3 -7 2 2938.72 2417.40 129.17 o
1486 1 -3 7 -2 2938.72 2417.40 129.17 o
1487 3 5 -7 -2 1200.88 1484.19 118.63 o
1487 2 -4 -7 -2 1200.88 1484.19 118.63 o
1487 1 4 7 2 1200.88 1484.19 118.63 o
1488 3 -5 -7 2 1169.03 1397.19 200.35 o
1488 2 4 -7 2 1169.03 1397.19 200.35 o
1488 1 -4 7 -2 1169.03 1397.19 200.35 o
1489 3 6 -7 -2 500.72 308.44 100.18 o
1489 2 -5 -7 -2 500.72 308.44 100.18 o
1489 1 5 7 2 500.72 308.44 100.18 o
1490 3 -6 -7 2 503.82 142.35 173.99 <
1490 2 5 -7 2 503.82 142.35 173.99 <
1490 1 -5 7 -2 503.82 142.35 173.99 <
1491 3 7 -7 -2 404.50 664.33 118.63 o
1491 2 -6 -7 -2 404.50 664.33 118.63 o
1491 1 6 7 2 404.50 664.33 118.63 o
1492 3 -7 -7 2 383.99 1012.30 216.17 o
1492 2 6 -7 2 383.99 1012.30 216.17 o
1492 1 -6 7 -2 383.99 1012.30 216.17 o
1493 3 8 -7 -2 190.85 152.90 118.63 <
1493 2 -7 -7 -2 190.85 152.90 118.63 <
1493 1 7 7 2 190.85 152.90 118.63 <
1494 3 -8 -7 2 172.76 -10.54 139.72 <
1494 2 7 -7 2 172.76 -10.54 139.72 <
1494 1 -7 7 -2 172.76 -10.54 139.72 <
1495 3 9 -7 -2 2656.13 2770.66 131.81 o
1495 2 -8 -7 -2 2656.13 2770.66 131.81 o
1495 1 8 7 2 2656.13 2770.66 131.81 o
1496 3 -9 -7 2 2664.44 2422.68 144.99 o
1496 2 8 -7 2 2664.44 2422.68 144.99 o
1496 1 -8 7 -2 2664.44 2422.68 144.99 o
1497 3 10 -7 -2 1246.33 796.14 129.17 o
1497 2 -9 -7 -2 1246.33 796.14 129.17 o
1497 1 9 7 2 1246.33 796.14 129.17 o
1498 3 -10 -7 2 1216.73 780.32 163.45 o
1498 2 9 -7 2 1216.73 780.32 163.45 o
1498 1 -9 7 -2 1216.73 780.32 163.45 o
1499 3 11 -7 -2 306.78 134.45 147.63 <
1499 2 -10 -7 -2 306.78 134.45 147.63 <
1499 1 10 7 2 306.78 134.45 147.63 <
1500 3 -11 -7 2 317.86 -5.27 166.08 <
1500 2 10 -7 2 317.86 -5.27 166.08 <
1500 1 -10 7 -2 317.86 -5.27 166.08 <
1501 3 12 -7 -2 94.80 26.36 147.63 <
1501 2 -11 -7 -2 94.80 26.36 147.63 <
1501 1 11 7 2 94.80 26.36 147.63 <
1502 3 -12 -7 2 96.03 258.35 163.45 <
1502 2 11 -7 2 96.03 258.35 163.45 <
1502 1 -11 7 -2 96.03 258.35 163.45 <
1503 3 13 -7 -2 137.68 398.07 150.26 o
1503 2 -12 -7 -2 137.68 398.07 150.26 o
1503 1 12 7 2 137.68 398.07 150.26 o
1504 3 -13 -7 2 122.86 -102.81 197.72 <
1504 2 12 -7 2 122.86 -102.81 197.72 <
1504 1 -12 7 -2 122.86 -102.81 197.72 <
1505 3 14 -7 -2 824.74 848.86 171.35 o
1505 2 -13 -7 -2 824.74 848.86 171.35 o
1505 1 13 7 2 824.74 848.86 171.35 o
1506 3 -14 -7 2 825.76 179.26 208.26 <
1506 2 13 -7 2 825.76 179.26 208.26 <
1506 1 -13 7 -2 825.76 179.26 208.26 <
1507 3 -12 -8 -2 2867.61 2219.69 163.45 o
1507 2 13 -8 -2 2867.61 2219.69 163.45 o
1507 1 -13 8 2 2867.61 2219.69 163.45 o
1508 3 12 -8 2 2997.47 2227.60 210.90 o
1508 2 -13 -8 2 2997.47 2227.60 210.90 o
1508 1 13 8 -2 2997.47 2227.60 210.90 o
1509 3 -11 -8 -2 30.63 316.35 147.63 o
1509 2 12 -8 -2 30.63 316.35 147.63 o
1509 1 -12 8 2 30.63 316.35 147.63 o
1510 3 11 -8 2 19.43 84.36 173.99 <
1510 2 -12 -8 2 19.43 84.36 173.99 <
1510 1 12 8 -2 19.43 84.36 173.99 <
1511 3 -10 -8 -2 2284.46 2789.11 150.26 o
1511 2 11 -8 -2 2284.46 2789.11 150.26 o
1511 1 -11 8 2 2284.46 2789.11 150.26 o
1512 3 10 -8 2 2372.59 2649.39 163.45 o
1512 2 -11 -8 2 2372.59 2649.39 163.45 o
1512 1 11 8 -2 2372.59 2649.39 163.45 o
1513 3 -9 -8 -2 2286.57 2111.60 139.72 o
1513 2 10 -8 -2 2286.57 2111.60 139.72 o
1513 1 -10 8 2 2286.57 2111.60 139.72 o
1514 3 9 -8 2 2319.37 2525.49 155.54 o
1514 2 -10 -8 2 2319.37 2525.49 155.54 o
1514 1 10 8 -2 2319.37 2525.49 155.54 o
1515 3 -8 -8 -2 1872.52 2427.95 139.72 o
1515 2 9 -8 -2 1872.52 2427.95 139.72 o
1515 1 -9 8 2 1872.52 2427.95 139.72 o
1516 3 8 -8 2 1953.88 2422.68 152.90 o
1516 2 -9 -8 2 1953.88 2422.68 152.90 o
1516 1 9 8 -2 1953.88 2422.68 152.90 o
1517 3 -7 -8 -2 5311.75 4518.46 134.45 o
1517 2 8 -8 -2 5311.75 4518.46 134.45 o
1517 1 -8 8 2 5311.75 4518.46 134.45 o
1518 3 7 -8 2 5599.84 4800.54 163.45 o
1518 2 -8 -8 2 5599.84 4800.54 163.45 o
1518 1 8 8 -2 5599.84 4800.54 163.45 o
1519 3 -6 -8 -2 131.58 316.35 131.81 o
1519 2 7 -8 -2 131.58 316.35 131.81 o
1519 1 -7 8 2 131.58 316.35 131.81 o
1520 3 6 -8 2 102.79 358.52 134.45 o
1520 2 -7 -8 2 102.79 358.52 134.45 o
1520 1 7 8 -2 102.79 358.52 134.45 o
1521 3 -5 -8 -2 2424.91 2101.06 176.63 o
1521 2 6 -8 -2 2424.91 2101.06 176.63 o
1521 1 -6 8 2 2424.91 2101.06 176.63 o
1522 3 5 -8 2 2659.97 2604.57 144.99 o
1522 2 -6 -8 2 2659.97 2604.57 144.99 o
1522 1 6 8 -2 2659.97 2604.57 144.99 o
1523 3 -4 -8 -2 2339.70 2137.97 176.63 o
1523 2 5 -8 -2 2339.70 2137.97 176.63 o
1523 1 -5 8 2 2339.70 2137.97 176.63 o
1524 3 4 -8 2 2345.85 2599.30 113.36 o
1524 2 -5 -8 2 2345.85 2599.30 113.36 o
1524 1 5 8 -2 2345.85 2599.30 113.36 o
1525 3 -3 -8 -2 957.65 1289.11 173.99 o
1525 2 4 -8 -2 957.65 1289.11 173.99 o
1525 1 -4 8 2 957.65 1289.11 173.99 o
1526 3 3 -8 2 1060.92 1563.27 152.90 o
1526 2 -4 -8 2 1060.92 1563.27 152.90 o
1526 1 4 8 -2 1060.92 1563.27 152.90 o
1527 3 -2 -8 -2 4815.03 3999.13 123.90 o
1527 2 3 -8 -2 4815.03 3999.13 123.90 o
1527 1 -3 8 2 4815.03 3999.13 123.90 o
1528 3 2 -8 2 5005.30 3608.97 129.17 o
1528 2 -3 -8 2 5005.30 3608.97 129.17 o
1528 1 3 8 -2 5005.30 3608.97 129.17 o
1529 3 -1 -8 -2 379.48 500.88 118.63 o
1529 2 2 -8 -2 379.48 500.88 118.63 o
1529 1 -2 8 2 379.48 500.88 118.63 o
1530 3 1 -8 2 324.49 825.13 126.54 o
1530 2 -2 -8 2 324.49 825.13 126.54 o
1530 1 2 8 -2 324.49 825.13 126.54 o
1531 3 0 -8 -2 1711.77 1368.19 118.63 o
1531 2 1 -8 -2 1711.77 1368.19 118.63 o
1531 1 -1 8 2 1711.77 1368.19 118.63 o
1532 3 0 -8 2 1845.07 1542.18 129.17 o
1532 2 -1 -8 2 1845.07 1542.18 129.17 o
1532 1 1 8 -2 1845.07 1542.18 129.17 o
1533 3 1 -8 -2 2112.90 2211.78 118.63 o
1533 2 0 -8 -2 2112.90 2211.78 118.63 o
1533 1 0 8 2 2112.90 2211.78 118.63 o
1534 3 -1 -8 2 1872.82 1995.61 118.63 o
1534 2 0 -8 2 1872.82 1995.61 118.63 o
1534 1 0 8 -2 1872.82 1995.61 118.63 o
1535 3 2 -8 -2 271.96 648.51 113.36 o
1535 2 -1 -8 -2 271.96 648.51 113.36 o
1535 1 1 8 2 271.96 648.51 113.36 o
1536 3 -2 -8 2 331.17 709.14 137.08 o
1536 2 1 -8 2 331.17 709.14 137.08 o
1536 1 -1 8 -2 331.17 709.14 137.08 o
1537 3 3 -8 -2 5167.89 3772.42 121.27 o
1537 2 -2 -8 -2 5167.89 3772.42 121.27 o
1537 1 2 8 2 5167.89 3772.42 121.27 o
1538 3 -3 -8 2 4938.47 3806.69 144.99 o
1538 2 2 -8 2 4938.47 3806.69 144.99 o
1538 1 -2 8 -2 4938.47 3806.69 144.99 o
1539 3 4 -8 -2 1076.87 1471.00 123.90 o
1539 2 -3 -8 -2 1076.87 1471.00 123.90 o
1539 1 3 8 2 1076.87 1471.00 123.90 o
1540 3 -4 -8 2 959.63 1278.56 134.45 o
1540 2 3 -8 2 959.63 1278.56 134.45 o
1540 1 -3 8 -2 959.63 1278.56 134.45 o
1541 3 5 -8 -2 1984.15 2058.88 115.99 o
1541 2 -4 -8 -2 1984.15 2058.88 115.99 o
1541 1 4 8 2 1984.15 2058.88 115.99 o
1542 3 -5 -8 2 1959.41 1963.98 139.72 o
1542 2 4 -8 2 1959.41 1963.98 139.72 o
1542 1 -4 8 -2 1959.41 1963.98 139.72 o
1543 3 6 -8 -2 3098.26 3123.91 121.27 o
1543 2 -5 -8 -2 3098.26 3123.91 121.27 o
1543 1 5 8 2 3098.26 3123.91 121.27 o
1544 3 -6 -8 2 2769.49 2472.76 189.81 o
1544 2 5 -8 2 2769.49 2472.76 189.81 o
1544 1 -5 8 -2 2769.49 2472.76 189.81 o
1545 3 7 -8 -2 63.62 408.61 105.45 o
1545 2 -6 -8 -2 63.62 408.61 105.45 o
1545 1 6 8 2 63.62 408.61 105.45 o
1546 3 -7 -8 2 104.84 168.72 216.17 <
1546 2 6 -8 2 104.84 168.72 216.17 <
1546 1 -6 8 -2 104.84 168.72 216.17 <
1547 3 8 -8 -2 5553.98 4861.17 137.08 o
1547 2 -7 -8 -2 5553.98 4861.17 137.08 o
1547 1 7 8 2 5553.98 4861.17 137.08 o
1548 3 -8 -8 2 5257.05 4049.22 247.80 o
1548 2 7 -8 2 5257.05 4049.22 247.80 o
1548 1 -7 8 -2 5257.05 4049.22 247.80 o
1549 3 9 -8 -2 1996.29 2485.95 150.26 o
1549 2 -8 -8 -2 1996.29 2485.95 150.26 o
1549 1 8 8 2 1996.29 2485.95 150.26 o
1550 3 -9 -8 2 1917.41 2027.24 139.72 o
1550 2 8 -8 2 1917.41 2027.24 139.72 o
1550 1 -8 8 -2 1917.41 2027.24 139.72 o
1551 3 10 -8 -2 1965.59 1729.35 155.54 o
1551 2 -9 -8 -2 1965.59 1729.35 155.54 o
1551 1 9 8 2 1965.59 1729.35 155.54 o
1552 3 -10 -8 2 1932.80 1007.03 144.99 o
1552 2 9 -8 2 1932.80 1007.03 144.99 o
1552 1 -9 8 -2 1932.80 1007.03 144.99 o
1553 3 11 -8 -2 2645.06 2976.28 142.35 o
1553 2 -10 -8 -2 2645.06 2976.28 142.35 o
1553 1 10 8 2 2645.06 2976.28 142.35 o
1554 3 -11 -8 2 2521.49 2578.21 152.90 o
1554 2 10 -8 2 2521.49 2578.21 152.90 o
1554 1 -10 8 -2 2521.49 2578.21 152.90 o
1555 3 12 -8 -2 11.19 -13.18 152.90 <
1555 2 -11 -8 -2 11.19 -13.18 152.90 <
1555 1 11 8 2 11.19 -13.18 152.90 <
1556 3 -12 -8 2 25.54 271.53 160.81 <
1556 2 11 -8 2 25.54 271.53 160.81 <
1556 1 -11 8 -2 25.54 271.53 160.81 <
1557 3 13 -8 -2 2953.19 2282.96 179.26 o
1557 2 -12 -8 -2 2953.19 2282.96 179.26 o
1557 1 12 8 2 2953.19 2282.96 179.26 o
1558 3 -13 -8 2 2809.08 1829.53 197.72 o
1558 2 12 -8 2 2809.08 1829.53 197.72 o
1558 1 -12 8 -2 2809.08 1829.53 197.72 o
1559 3 -9 -9 -2 51.17 31.63 137.08 <
1559 2 10 -9 -2 51.17 31.63 137.08 <
1559 1 -10 9 2 51.17 31.63 137.08 <
1560 3 9 -9 2 38.97 -2.64 155.54 <
1560 2 -10 -9 2 38.97 -2.64 155.54 <
1560 1 10 9 -2 38.97 -2.64 155.54 <
1561 3 -8 -9 -2 22.77 118.63 137.08 <
1561 2 9 -9 -2 22.77 118.63 137.08 <
1561 1 -9 9 2 22.77 118.63 137.08 <
1562 3 8 -9 2 15.61 100.18 147.63 <
1562 2 -9 -9 2 15.61 100.18 147.63 <
1562 1 9 9 -2 15.61 100.18 147.63 <
1563 3 -7 -9 -2 11.64 -39.54 187.17 <
1563 2 8 -9 -2 11.64 -39.54 187.17 <
1563 1 -8 9 2 11.64 -39.54 187.17 <
1564 3 7 -9 2 10.05 123.90 147.63 <
1564 2 -8 -9 2 10.05 123.90 147.63 <
1564 1 8 9 -2 10.05 123.90 147.63 <
1565 3 -6 -9 -2 207.26 -147.63 200.35 <
1565 2 7 -9 -2 207.26 -147.63 200.35 <
1565 1 -7 9 2 207.26 -147.63 200.35 <
1566 3 6 -9 2 186.50 179.26 126.54 <
1566 2 -7 -9 2 186.50 179.26 126.54 <
1566 1 7 9 -2 186.50 179.26 126.54 <
1567 3 -5 -9 -2 33.28 445.52 179.26 o
1567 2 6 -9 -2 33.28 445.52 179.26 o
1567 1 -6 9 2 33.28 445.52 179.26 o
1568 3 5 -9 2 36.79 173.99 134.45 <
1568 2 -6 -9 2 36.79 173.99 134.45 <
1568 1 6 9 -2 36.79 173.99 134.45 <
1569 3 -4 -9 -2 102.20 -94.90 126.54 <
1569 2 5 -9 -2 102.20 -94.90 126.54 <
1569 1 -5 9 2 102.20 -94.90 126.54 <
1570 3 4 -9 2 89.42 92.27 155.54 <
1570 2 -5 -9 2 89.42 92.27 155.54 <
1570 1 5 9 -2 89.42 92.27 155.54 <
1571 3 -3 -9 -2 139.79 408.61 121.27 o
1571 2 4 -9 -2 139.79 408.61 121.27 o
1571 1 -4 9 2 139.79 408.61 121.27 o
1572 3 3 -9 2 121.91 110.72 139.72 <
1572 2 -4 -9 2 121.91 110.72 139.72 <
1572 1 4 9 -2 121.91 110.72 139.72 <
1573 3 -2 -9 -2 17.06 110.72 118.63 <
1573 2 3 -9 -2 17.06 110.72 118.63 <
1573 1 -3 9 2 17.06 110.72 118.63 <
1574 3 2 -9 2 17.86 118.63 134.45 <
1574 2 -3 -9 2 17.86 118.63 134.45 <
1574 1 3 9 -2 17.86 118.63 134.45 <
1575 3 -1 -9 -2 276.84 173.99 115.99 <
1575 2 2 -9 -2 276.84 173.99 115.99 <
1575 1 -2 9 2 276.84 173.99 115.99 <
1576 3 1 -9 2 268.12 18.45 126.54 <
1576 2 -2 -9 2 268.12 18.45 126.54 <
1576 1 2 9 -2 268.12 18.45 126.54 <
1577 3 0 -9 -2 63.56 86.99 121.27 <
1577 2 1 -9 -2 63.56 86.99 121.27 <
1577 1 -1 9 2 63.56 86.99 121.27 <
1578 3 0 -9 2 60.89 -42.18 126.54 <
1578 2 -1 -9 2 60.89 -42.18 126.54 <
1578 1 1 9 -2 60.89 -42.18 126.54 <
1579 3 1 -9 -2 80.46 266.26 115.99 o
1579 2 0 -9 -2 80.46 266.26 115.99 o
1579 1 0 9 2 80.46 266.26 115.99 o
1580 3 -1 -9 2 82.90 247.80 134.45 <
1580 2 0 -9 2 82.90 247.80 134.45 <
1580 1 0 9 -2 82.90 247.80 134.45 <
1581 3 2 -9 -2 308.10 392.80 118.63 o
1581 2 -1 -9 -2 308.10 392.80 118.63 o
1581 1 1 9 2 308.10 392.80 118.63 o
1582 3 -2 -9 2 314.34 163.45 142.35 <
1582 2 1 -9 2 314.34 163.45 142.35 <
1582 1 -1 9 -2 314.34 163.45 142.35 <
1583 3 3 -9 -2 9.57 18.45 126.54 <
1583 2 -2 -9 -2 9.57 18.45 126.54 <
1583 1 2 9 2 9.57 18.45 126.54 <
1584 3 -3 -9 2 8.19 52.72 142.35 <
1584 2 2 -9 2 8.19 52.72 142.35 <
1584 1 -2 9 -2 8.19 52.72 142.35 <
1585 3 4 -9 -2 152.10 152.90 121.27 <
1585 2 -3 -9 -2 152.10 152.90 121.27 <
1585 1 3 9 2 152.10 152.90 121.27 <
1586 3 -4 -9 2 168.81 279.44 131.81 o
1586 2 3 -9 2 168.81 279.44 131.81 o
1586 1 -3 9 -2 168.81 279.44 131.81 o
1587 3 5 -9 -2 91.77 -110.72 123.90 <
1587 2 -4 -9 -2 91.77 -110.72 123.90 <
1587 1 4 9 2 91.77 -110.72 123.90 <
1588 3 -5 -9 2 103.11 126.54 134.45 <
1588 2 4 -9 2 103.11 126.54 134.45 <
1588 1 -4 9 -2 103.11 126.54 134.45 <
1589 3 6 -9 -2 34.31 208.26 121.27 <
1589 2 -5 -9 -2 34.31 208.26 121.27 <
1589 1 5 9 2 34.31 208.26 121.27 <
1590 3 -6 -9 2 31.52 308.44 137.08 o
1590 2 5 -9 2 31.52 308.44 137.08 o
1590 1 -5 9 -2 31.52 308.44 137.08 o
1591 3 7 -9 -2 197.36 -52.72 131.81 <
1591 2 -6 -9 -2 197.36 -52.72 131.81 <
1591 1 6 9 2 197.36 -52.72 131.81 <
1592 3 -7 -9 2 214.80 340.07 147.63 o
1592 2 6 -9 2 214.80 340.07 147.63 o
1592 1 -6 9 -2 214.80 340.07 147.63 o
1593 3 8 -9 -2 14.94 -102.81 126.54 <
1593 2 -7 -9 -2 14.94 -102.81 126.54 <
1593 1 7 9 2 14.94 -102.81 126.54 <
1594 3 -8 -9 2 15.01 92.27 242.53 <
1594 2 7 -9 2 15.01 92.27 242.53 <
1594 1 -7 9 -2 15.01 92.27 242.53 <
1595 3 9 -9 -2 8.36 160.81 108.08 <
1595 2 -8 -9 -2 8.36 160.81 108.08 <
1595 1 8 9 2 8.36 160.81 108.08 <
1596 3 -9 -9 2 17.41 -110.72 210.90 <
1596 2 8 -9 2 17.41 -110.72 210.90 <
1596 1 -8 9 -2 17.41 -110.72 210.90 <
1597 3 10 -9 -2 31.27 -60.63 155.54 <
1597 2 -9 -9 -2 31.27 -60.63 155.54 <
1597 1 9 9 2 31.27 -60.63 155.54 <
1598 3 -10 -9 2 43.19 -23.73 234.62 <
1598 2 9 -9 2 43.19 -23.73 234.62 <
1598 1 -9 9 -2 43.19 -23.73 234.62 <
1599 3 -6 -10 -2 422.85 875.22 189.81 o
1599 2 7 -10 -2 422.85 875.22 189.81 o
1599 1 -7 10 2 422.85 875.22 189.81 o
1600 3 6 -10 2 441.76 1252.20 150.26 o
1600 2 -7 -10 2 441.76 1252.20 150.26 o
1600 1 7 10 -2 441.76 1252.20 150.26 o
1601 3 -5 -10 -2 5354.31 5833.93 144.99 o
1601 2 6 -10 -2 5354.31 5833.93 144.99 o
1601 1 -6 10 2 5354.31 5833.93 144.99 o
1602 3 5 -10 2 5201.75 5905.11 173.99 o
1602 2 -6 -10 2 5201.75 5905.11 173.99 o
1602 1 6 10 -2 5201.75 5905.11 173.99 o
1603 3 -4 -10 -2 5691.46 5441.14 137.08 o
1603 2 5 -10 -2 5691.46 5441.14 137.08 o
1603 1 -5 10 2 5691.46 5441.14 137.08 o
1604 3 4 -10 2 5654.99 5533.40 160.81 o
1604 2 -5 -10 2 5654.99 5533.40 160.81 o
1604 1 5 10 -2 5654.99 5533.40 160.81 o
1605 3 -3 -10 -2 1353.77 2019.34 134.45 o
1605 2 4 -10 -2 1353.77 2019.34 134.45 o
1605 1 -4 10 2 1353.77 2019.34 134.45 o
1606 3 3 -10 2 1304.76 1697.72 142.35 o
1606 2 -4 -10 2 1304.76 1697.72 142.35 o
1606 1 4 10 -2 1304.76 1697.72 142.35 o
1607 3 -2 -10 -2 12442.40 10394.60 144.99 o
1607 2 3 -10 -2 12442.40 10394.60 144.99 o
1607 1 -3 10 2 12442.40 10394.60 144.99 o
1608 3 2 -10 2 12373.00 10671.40 166.08 o
1608 2 -3 -10 2 12373.00 10671.40 166.08 o
1608 1 3 10 -2 12373.00 10671.40 166.08 o
1609 3 -1 -10 -2 1137.80 1945.52 126.54 o
1609 2 2 -10 -2 1137.80 1945.52 126.54 o
1609 1 -2 10 2 1137.80 1945.52 126.54 o
1610 3 1 -10 2 1171.35 2050.97 150.26 o
1610 2 -2 -10 2 1171.35 2050.97 150.26 o
1610 1 2 10 -2 1171.35 2050.97 150.26 o
1611 3 0 -10 -2 7645.02 8699.49 139.72 o
1611 2 1 -10 -2 7645.02 8699.49 139.72 o
1611 1 -1 10 2 7645.02 8699.49 139.72 o
1612 3 0 -10 2 7583.13 7919.17 147.63 o
1612 2 -1 -10 2 7583.13 7919.17 147.63 o
1612 1 1 10 -2 7583.13 7919.17 147.63 o
1613 3 1 -10 -2 7758.25 8530.77 142.35 o
1613 2 0 -10 -2 7758.25 8530.77 142.35 o
1613 1 0 10 2 7758.25 8530.77 142.35 o
1614 3 -1 -10 2 7843.00 8741.67 166.08 o
1614 2 0 -10 2 7843.00 8741.67 166.08 o
1614 1 0 10 -2 7843.00 8741.67 166.08 o
1615 3 2 -10 -2 1082.20 2011.43 134.45 o
1615 2 -1 -10 -2 1082.20 2011.43 134.45 o
1615 1 1 10 2 1082.20 2011.43 134.45 o
1616 3 -2 -10 2 1047.91 2016.70 150.26 o
1616 2 1 -10 2 1047.91 2016.70 150.26 o
1616 1 -1 10 -2 1047.91 2016.70 150.26 o
1617 3 3 -10 -2 12018.80 10152.00 155.54 o
1617 2 -2 -10 -2 12018.80 10152.00 155.54 o
1617 1 2 10 2 12018.80 10152.00 155.54 o
1618 3 -3 -10 2 12141.10 10073.00 166.08 o
1618 2 2 -10 2 12141.10 10073.00 166.08 o
1618 1 -2 10 -2 12141.10 10073.00 166.08 o
1619 3 4 -10 -2 1333.78 1708.26 137.08 o
1619 2 -3 -10 -2 1333.78 1708.26 137.08 o
1619 1 3 10 2 1333.78 1708.26 137.08 o
1620 3 -4 -10 2 1400.90 1399.83 150.26 o
1620 2 3 -10 2 1400.90 1399.83 150.26 o
1620 1 -3 10 -2 1400.90 1399.83 150.26 o
1621 3 5 -10 -2 5309.48 4913.89 144.99 o
1621 2 -4 -10 -2 5309.48 4913.89 144.99 o
1621 1 4 10 2 5309.48 4913.89 144.99 o
1622 3 -5 -10 2 5337.11 4845.35 176.63 o
1622 2 4 -10 2 5337.11 4845.35 176.63 o
1622 1 -4 10 -2 5337.11 4845.35 176.63 o
1623 3 6 -10 -2 5144.47 6200.36 150.26 o
1623 2 -5 -10 -2 5144.47 6200.36 150.26 o
1623 1 5 10 2 5144.47 6200.36 150.26 o
1624 3 -6 -10 2 5313.79 5928.83 168.72 o
1624 2 5 -10 2 5313.79 5928.83 168.72 o
1624 1 -5 10 -2 5313.79 5928.83 168.72 o
1625 3 7 -10 -2 418.46 1191.57 137.08 o
1625 2 -6 -10 -2 418.46 1191.57 137.08 o
1625 1 6 10 2 418.46 1191.57 137.08 o
1626 3 -7 -10 2 393.95 1133.57 150.26 o
1626 2 6 -10 2 393.95 1133.57 150.26 o
1626 1 -6 10 -2 393.95 1133.57 150.26 o
1627 2 19 -1 -3 123.43 26.36 181.90 <
1627 1 -19 1 3 123.43 26.36 181.90 <
1628 2 -19 -1 3 130.66 173.99 187.17 <
1628 1 19 1 -3 130.66 173.99 187.17 <
1629 2 18 -1 -3 737.98 516.70 184.54 o
1629 1 -18 1 3 737.98 516.70 184.54 o
1630 2 -18 -1 3 711.78 579.97 171.35 o
1630 1 18 1 -3 711.78 579.97 171.35 o
1631 2 17 -1 -3 198.46 490.33 173.99 o
1631 1 -17 1 3 198.46 490.33 173.99 o
1632 2 -17 -1 3 195.77 313.71 171.35 <
1632 1 17 1 -3 195.77 313.71 171.35 <
1633 2 16 -1 -3 8363.62 5636.22 210.90 o
1633 1 -16 1 3 8363.62 5636.22 210.90 o
1634 2 -16 -1 3 8356.37 11230.30 210.90 o
1634 1 16 1 -3 8356.37 11230.30 210.90 o
1635 2 15 -1 -3 813.59 877.86 197.72 o
1635 1 -15 1 3 813.59 877.86 197.72 o
1636 2 -15 -1 3 828.99 1302.29 221.44 o
1636 1 15 1 -3 828.99 1302.29 221.44 o
1637 2 14 -1 -3 711.39 234.62 218.80 <
1637 1 -14 1 3 711.39 234.62 218.80 <
1638 2 -14 -1 3 751.38 247.80 237.26 <
1638 1 14 1 -3 751.38 247.80 237.26 <
1639 2 13 -1 -3 2879.27 2512.31 234.62 o
1639 1 -13 1 3 2879.27 2512.31 234.62 o
1640 2 -13 -1 3 2844.59 3142.36 237.26 o
1640 1 13 1 -3 2844.59 3142.36 237.26 o
1641 2 12 -1 -3 51.99 653.78 231.99 o
1641 1 -12 1 3 51.99 653.78 231.99 o
1642 2 -12 -1 3 51.99 405.98 221.44 <
1642 1 12 1 -3 51.99 405.98 221.44 <
1643 2 11 -1 -3 32853.30 28898.10 311.07 o
1643 1 -11 1 3 32853.30 28898.10 311.07 o
1644 2 -11 -1 3 32747.00 40687.30 311.07 o
1644 1 11 1 -3 32747.00 40687.30 311.07 o
1645 2 10 -1 -3 3813.90 3569.43 226.71 o
1645 1 -10 1 3 3813.90 3569.43 226.71 o
1646 2 -10 -1 3 3859.15 4202.12 237.26 o
1646 1 10 1 -3 3859.15 4202.12 237.26 o
1647 2 9 -1 -3 3516.03 2253.96 229.35 o
1647 1 -9 1 3 3516.03 2253.96 229.35 o
1648 2 -9 -1 3 3614.08 2433.22 268.89 o
1648 1 9 1 -3 3614.08 2433.22 268.89 o
1649 2 8 -1 -3 7942.76 6261.00 271.53 o
1649 1 -8 1 3 7942.76 6261.00 271.53 o
1650 2 -8 -1 3 7991.20 9395.45 282.07 o
1650 1 8 1 -3 7991.20 9395.45 282.07 o
1651 2 7 -1 -3 85.72 1181.02 282.07 o
1651 1 -7 1 3 85.72 1181.02 282.07 o
1652 2 -7 -1 3 87.69 1075.57 245.17 o
1652 1 7 1 -3 87.69 1075.57 245.17 o
1653 2 6 -1 -3 77758.10 70581.90 540.42 o
1653 1 -6 1 3 77758.10 70581.90 540.42 o
1654 2 -6 -1 3 77383.60 88078.40 408.61 o
1654 1 6 1 -3 77383.60 88078.40 408.61 o
1655 2 5 -1 -3 15464.40 11762.80 516.70 o
1655 1 -5 1 3 15464.40 11762.80 516.70 o
1656 2 -5 -1 3 15562.80 14873.50 250.44 o
1656 1 5 1 -3 15562.80 14873.50 250.44 o
1657 2 4 -1 -3 11505.00 8768.03 477.15 o
1657 1 -4 1 3 11505.00 8768.03 477.15 o
1658 2 -4 -1 3 11596.70 9922.69 210.90 o
1658 1 4 1 -3 11596.70 9922.69 210.90 o
1659 2 3 -1 -3 12505.40 17230.30 498.24 o
1659 1 -3 1 3 12505.40 17230.30 498.24 o
1660 2 -3 -1 3 12911.70 13233.80 231.99 o
1660 1 3 1 -3 12911.70 13233.80 231.99 o
1661 2 2 -1 -3 2534.43 3129.18 379.61 o
1661 1 -2 1 3 2534.43 3129.18 379.61 o
1662 2 -2 -1 3 2504.55 3688.06 221.44 o
1662 1 2 1 -3 2504.55 3688.06 221.44 o
1663 2 1 -1 -3 112430.00 119890.00 516.70 o
1663 1 -1 1 3 112430.00 119890.00 516.70 o
1664 2 -1 -1 3 111555.00 124748.00 521.97 o
1664 1 1 1 -3 111555.00 124748.00 521.97 o
1665 2 0 -1 -3 24527.10 18029.00 245.17 o
1665 1 0 1 3 24527.10 18029.00 245.17 o
1666 2 -1 -1 -3 10738.50 7898.08 208.26 o
1666 1 1 1 3 10738.50 7898.08 208.26 o
1667 2 -2 -1 -3 10966.20 12719.70 453.43 o
1667 1 2 1 3 10966.20 12719.70 453.43 o
1668 2 2 -1 3 11969.10 11878.80 229.35 o
1668 1 -2 1 -3 11969.10 11878.80 229.35 o
1669 2 -3 -1 -3 3901.66 3804.05 477.15 o
1669 1 3 1 3 3901.66 3804.05 477.15 o
1670 2 3 -1 3 3794.26 3701.24 221.44 o
1670 1 -3 1 -3 3794.26 3701.24 221.44 o
1671 2 -4 -1 -3 61680.60 67624.00 659.05 o
1671 1 4 1 3 61680.60 67624.00 659.05 o
1672 2 4 -1 3 61128.90 66403.50 350.62 o
1672 1 -4 1 -3 61128.90 66403.50 350.62 o
1673 2 -5 -1 -3 28956.40 29454.40 416.52 o
1673 1 5 1 3 28956.40 29454.40 416.52 o
1674 2 5 -1 3 28555.20 29646.80 295.26 o
1674 1 -5 1 -3 28555.20 29646.80 295.26 o
1675 2 -6 -1 -3 10171.60 11122.20 292.62 o
1675 1 6 1 3 10171.60 11122.20 292.62 o
1676 2 6 -1 3 10072.10 8889.30 229.35 o
1676 1 -6 1 -3 10072.10 8889.30 229.35 o
1677 2 -7 -1 -3 2803.13 3116.00 253.08 o
1677 1 7 1 3 2803.13 3116.00 253.08 o
1678 2 7 -1 3 3509.78 4890.17 234.62 o
1678 1 -7 1 -3 3509.78 4890.17 234.62 o
1679 2 -8 -1 -3 2417.43 2565.03 224.08 o
1679 1 8 1 3 2417.43 2565.03 224.08 o
1680 2 8 -1 3 2385.97 2396.31 237.26 o
1680 1 -8 1 -3 2385.97 2396.31 237.26 o
1681 2 -9 -1 -3 20578.30 23876.10 300.53 o
1681 1 9 1 3 20578.30 23876.10 300.53 o
1682 2 9 -1 3 20341.60 19036.10 305.80 o
1682 1 -9 1 -3 20341.60 19036.10 305.80 o
1683 2 -10 -1 -3 14842.70 16708.30 274.17 o
1683 1 10 1 3 14842.70 16708.30 274.17 o
1684 2 10 -1 3 14604.90 8723.22 329.53 o
1684 1 -10 1 -3 14604.90 8723.22 329.53 o
1685 2 -11 -1 -3 3345.02 3013.19 255.71 o
1685 1 11 1 3 3345.02 3013.19 255.71 o
1686 2 11 -1 3 3294.09 2264.50 247.80 o
1686 1 -11 1 -3 3294.09 2264.50 247.80 o
1687 2 -12 -1 -3 1187.05 1318.10 260.98 o
1687 1 12 1 3 1187.05 1318.10 260.98 o
1688 2 12 -1 3 1533.82 1067.66 253.08 o
1688 1 -12 1 -3 1533.82 1067.66 253.08 o
1689 2 -13 -1 -3 548.00 384.89 231.99 <
1689 1 13 1 3 548.00 384.89 231.99 <
1690 2 13 -1 3 539.48 445.52 237.26 <
1690 1 -13 1 -3 539.48 445.52 237.26 <
1691 2 -14 -1 -3 3886.07 4418.29 210.90 o
1691 1 14 1 3 3886.07 4418.29 210.90 o
1692 2 14 -1 3 3806.05 2064.15 237.26 o
1692 1 -14 1 -3 3806.05 2064.15 237.26 o
1693 2 -15 -1 -3 5367.27 6503.53 216.17 o
1693 1 15 1 3 5367.27 6503.53 216.17 o
1694 2 15 -1 3 5263.56 2116.88 247.80 o
1694 1 -15 1 -3 5263.56 2116.88 247.80 o
1695 2 -16 -1 -3 692.14 680.14 187.17 o
1695 1 16 1 3 692.14 680.14 187.17 o
1696 2 16 -1 3 673.41 65.91 195.08 <
1696 1 -16 1 -3 673.41 65.91 195.08 <
1697 2 -17 -1 -3 351.36 395.43 184.54 o
1697 1 17 1 3 351.36 395.43 184.54 o
1698 2 17 -1 3 456.97 353.25 200.35 <
1698 1 -17 1 -3 456.97 353.25 200.35 <
1699 2 18 -2 -3 160.40 453.43 200.35 o
1699 1 -18 2 3 160.40 453.43 200.35 o
1700 2 -18 -2 3 158.19 363.80 195.08 <
1700 1 18 2 -3 158.19 363.80 195.08 <
1701 2 17 -2 -3 11.29 -313.71 205.62 <
1701 1 -17 2 3 11.29 -313.71 205.62 <
1702 2 -17 -2 3 9.97 47.45 208.26 <
1702 1 17 2 -3 9.97 47.45 208.26 <
1703 2 16 -2 -3 26.09 284.71 231.99 <
1703 1 -16 2 3 26.09 284.71 231.99 <
1704 2 -16 -2 3 26.91 688.05 239.90 o
1704 1 16 2 -3 26.91 688.05 239.90 o
1705 2 15 -2 -3 917.61 980.67 224.08 o
1705 1 -15 2 3 917.61 980.67 224.08 o
1706 2 -15 -2 3 919.01 1270.65 224.08 o
1706 1 15 2 -3 919.01 1270.65 224.08 o
1707 2 14 -2 -3 27.68 -166.08 210.90 <
1707 1 -14 2 3 27.68 -166.08 210.90 <
1708 2 -14 -2 3 29.60 392.80 200.35 <
1708 1 14 2 -3 29.60 392.80 200.35 <
1709 2 13 -2 -3 229.82 44.82 200.35 <
1709 1 -13 2 3 229.82 44.82 200.35 <
1710 2 -13 -2 3 226.10 769.77 189.81 o
1710 1 13 2 -3 226.10 769.77 189.81 o
1711 2 12 -2 -3 102.99 163.45 197.72 <
1711 1 -12 2 3 102.99 163.45 197.72 <
1712 2 -12 -2 3 101.49 105.45 192.44 <
1712 1 12 2 -3 101.49 105.45 192.44 <
1713 2 11 -2 -3 75.37 200.35 216.17 <
1713 1 -11 2 3 75.37 200.35 216.17 <
1714 2 -11 -2 3 74.54 126.54 184.54 <
1714 1 11 2 -3 74.54 126.54 184.54 <
1715 2 10 -2 -3 3543.30 3163.45 224.08 o
1715 1 -10 2 3 3543.30 3163.45 224.08 o
1716 2 -10 -2 3 3545.45 5045.70 229.35 o
1716 1 10 2 -3 3545.45 5045.70 229.35 o
1717 2 9 -2 -3 13.79 -76.45 282.07 <
1717 1 -9 2 3 13.79 -76.45 282.07 <
1718 2 -9 -2 3 15.36 86.99 234.62 <
1718 1 9 2 -3 15.36 86.99 234.62 <
1719 2 8 -2 -3 165.98 63.27 287.35 <
1719 1 -8 2 3 165.98 63.27 287.35 <
1720 2 -8 -2 3 162.65 405.98 216.17 <
1720 1 8 2 -3 162.65 405.98 216.17 <
1721 2 7 -2 -3 1125.49 1573.82 284.71 o
1721 1 -7 2 3 1125.49 1573.82 284.71 o
1722 2 -7 -2 3 1127.04 1457.82 242.53 o
1722 1 7 2 -3 1127.04 1457.82 242.53 o
1723 2 6 -2 -3 469.27 266.26 253.08 <
1723 1 -6 2 3 469.27 266.26 253.08 <
1724 2 -6 -2 3 471.58 300.53 279.44 <
1724 1 6 2 -3 471.58 300.53 279.44 <
1725 2 5 -2 -3 4806.98 4510.55 245.17 o
1725 1 -5 2 3 4806.98 4510.55 245.17 o
1726 2 -5 -2 3 4797.02 5222.33 376.98 o
1726 1 5 2 -3 4797.02 5222.33 376.98 o
1727 2 4 -2 -3 153.37 23.73 234.62 <
1727 1 -4 2 3 153.37 23.73 234.62 <
1728 2 -4 -2 3 149.96 340.07 347.98 <
1728 1 4 2 -3 149.96 340.07 347.98 <
1729 2 3 -2 -3 329.12 205.62 224.08 <
1729 1 -3 2 3 329.12 205.62 224.08 <
1730 2 -3 -2 3 325.27 382.25 371.71 <
1730 1 3 2 -3 325.27 382.25 371.71 <
1731 2 2 -2 -3 6386.62 7447.29 221.44 o
1731 1 -2 2 3 6386.62 7447.29 221.44 o
1732 2 -2 -2 3 6381.85 7368.21 366.43 o
1732 1 2 2 -3 6381.85 7368.21 366.43 o
1733 2 1 -2 -3 604.02 305.80 226.71 <
1733 1 -1 2 3 604.02 305.80 226.71 <
1734 2 -1 -2 3 615.19 442.88 300.53 <
1734 1 1 2 -3 615.19 442.88 300.53 <
1735 2 0 -2 -3 1524.40 1083.48 152.90 o
1735 1 0 2 3 1524.40 1083.48 152.90 o
1736 2 -1 -2 -3 622.60 150.26 137.08 <
1736 1 1 2 3 622.60 150.26 137.08 <
1737 2 -2 -2 -3 417.27 86.99 205.62 <
1737 1 2 2 3 417.27 86.99 205.62 <
1738 2 2 -2 3 415.29 144.99 287.35 <
1738 1 -2 2 -3 415.29 144.99 287.35 <
1739 2 -3 -2 -3 9719.86 10824.30 237.26 o
1739 1 3 2 3 9719.86 10824.30 237.26 o
1740 2 3 -2 3 9715.99 10763.60 361.16 o
1740 1 -3 2 -3 9715.99 10763.60 361.16 o
1741 2 -4 -2 -3 12.99 276.80 218.80 <
1741 1 4 2 3 12.99 276.80 218.80 <
1742 2 4 -2 3 10.88 92.27 318.98 <
1742 1 -4 2 -3 10.88 92.27 318.98 <
1743 2 -5 -2 -3 34.61 -79.09 226.71 <
1743 1 5 2 3 34.61 -79.09 226.71 <
1744 2 5 -2 3 35.70 -29.00 345.34 <
1744 1 -5 2 -3 35.70 -29.00 345.34 <
1745 2 -6 -2 -3 943.79 627.42 258.35 o
1745 1 6 2 3 943.79 627.42 258.35 o
1746 2 6 -2 3 949.95 55.36 305.80 <
1746 1 -6 2 -3 949.95 55.36 305.80 <
1747 2 -7 -2 -3 325.55 105.45 276.80 <
1747 1 7 2 3 325.55 105.45 276.80 <
1748 2 7 -2 3 322.09 44.82 255.71 <
1748 1 -7 2 -3 322.09 44.82 255.71 <
1749 2 -8 -2 -3 3394.36 3195.09 340.07 o
1749 1 8 2 3 3394.36 3195.09 340.07 o
1750 2 8 -2 3 3383.36 2612.48 210.90 o
1750 1 -8 2 -3 3383.36 2612.48 210.90 o
1751 2 -9 -2 -3 318.93 31.63 295.26 <
1751 1 9 2 3 318.93 31.63 295.26 <
1752 2 9 -2 3 311.06 347.98 195.08 <
1752 1 -9 2 -3 311.06 347.98 195.08 <
1753 2 -10 -2 -3 156.40 300.53 226.71 <
1753 1 10 2 3 156.40 300.53 226.71 <
1754 2 10 -2 3 161.02 195.08 189.81 <
1754 1 -10 2 -3 161.02 195.08 189.81 <
1755 2 -11 -2 -3 929.71 991.22 239.90 o
1755 1 11 2 3 929.71 991.22 239.90 o
1756 2 11 -2 3 940.35 759.23 187.17 o
1756 1 -11 2 -3 940.35 759.23 187.17 o
1757 2 -12 -2 -3 58.99 -224.08 218.80 <
1757 1 12 2 3 58.99 -224.08 218.80 <
1758 2 12 -2 3 57.62 -118.63 195.08 <
1758 1 -12 2 -3 57.62 -118.63 195.08 <
1759 2 -13 -2 -3 486.49 711.78 231.99 o
1759 1 13 2 3 486.49 711.78 231.99 o
1760 2 13 -2 3 482.95 300.53 205.62 <
1760 1 -13 2 -3 482.95 300.53 205.62 <
1761 2 -14 -2 -3 335.61 398.07 245.17 <
1761 1 14 2 3 335.61 398.07 245.17 <
1762 2 14 -2 3 329.32 71.18 213.53 <
1762 1 -14 2 -3 329.32 71.18 213.53 <
1763 2 -15 -2 -3 134.60 -263.62 229.35 <
1763 1 15 2 3 134.60 -263.62 229.35 <
1764 2 15 -2 3 136.42 548.33 255.71 o
1764 1 -15 2 -3 136.42 548.33 255.71 o
1765 2 -16 -2 -3 350.65 268.89 213.53 <
1765 1 16 2 3 350.65 268.89 213.53 <
1766 2 16 -2 3 356.01 311.07 221.44 <
1766 1 -16 2 -3 356.01 311.07 221.44 <
1767 2 -17 -2 -3 0.31 242.53 200.35 <
1767 1 17 2 3 0.31 242.53 200.35 <
1768 2 17 -2 3 0.38 -60.63 200.35 <
1768 1 -17 2 -3 0.38 -60.63 200.35 <
1769 2 18 -3 -3 412.98 353.25 234.62 <
1769 1 -18 3 3 412.98 353.25 234.62 <
1770 2 -18 -3 3 395.85 58.00 231.99 <
1770 1 18 3 -3 395.85 58.00 231.99 <
1771 2 17 -3 -3 20.26 -271.53 255.71 <
1771 1 -17 3 3 20.26 -271.53 255.71 <
1772 2 -17 -3 3 21.88 239.90 247.80 <
1772 1 17 3 -3 21.88 239.90 247.80 <
1773 2 16 -3 -3 5990.73 4808.45 231.99 o
1773 1 -16 3 3 5990.73 4808.45 231.99 o
1774 2 -16 -3 3 5976.26 6846.24 226.71 o
1774 1 16 3 -3 5976.26 6846.24 226.71 o
1775 2 15 -3 -3 523.18 345.34 210.90 <
1775 1 -15 3 3 523.18 345.34 210.90 <
1776 2 -15 -3 3 548.17 677.51 210.90 o
1776 1 15 3 -3 548.17 677.51 210.90 o
1777 2 14 -3 -3 2061.74 1457.82 210.90 o
1777 1 -14 3 3 2061.74 1457.82 210.90 o
1778 2 -14 -3 3 2101.93 2459.58 195.08 o
1778 1 14 3 -3 2101.93 2459.58 195.08 o
1779 2 13 -3 -3 1307.93 943.76 216.17 o
1779 1 -13 3 3 1307.93 943.76 216.17 o
1780 2 -13 -3 3 1308.92 843.59 189.81 o
1780 1 13 3 -3 1308.92 843.59 189.81 o
1781 2 12 -3 -3 63.61 738.14 245.17 o
1781 1 -12 3 3 63.61 738.14 245.17 o
1782 2 -12 -3 3 76.90 363.80 187.17 <
1782 1 12 3 -3 76.90 363.80 187.17 <
1783 2 11 -3 -3 17112.60 18221.50 287.35 o
1783 1 -11 3 3 17112.60 18221.50 287.35 o
1784 2 -11 -3 3 17026.30 20425.30 237.26 o
1784 1 11 3 -3 17026.30 20425.30 237.26 o
1785 2 10 -3 -3 3129.70 3798.78 231.99 o
1785 1 -10 3 3 3129.70 3798.78 231.99 o
1786 2 -10 -3 3 3176.76 4054.49 216.17 o
1786 1 10 3 -3 3176.76 4054.49 216.17 o
1787 2 9 -3 -3 4821.81 4154.67 239.90 o
1787 1 -9 3 3 4821.81 4154.67 239.90 o
1788 2 -9 -3 3 4878.41 4913.89 226.71 o
1788 1 9 3 -3 4878.41 4913.89 226.71 o
1789 2 8 -3 -3 2669.10 2074.70 208.26 o
1789 1 -8 3 3 2669.10 2074.70 208.26 o
1790 2 -8 -3 3 2707.45 2765.38 245.17 o
1790 1 8 3 -3 2707.45 2765.38 245.17 o
1791 2 7 -3 -3 745.49 1360.28 168.72 o
1791 1 -7 3 3 745.49 1360.28 168.72 o
1792 2 -7 -3 3 759.85 1824.26 274.17 o
1792 1 7 3 -3 759.85 1824.26 274.17 o
1793 2 6 -3 -3 26288.40 31890.20 242.53 o
1793 1 -6 3 3 26288.40 31890.20 242.53 o
1794 2 -6 -3 3 26207.60 30482.50 379.61 o
1794 1 6 3 -3 26207.60 30482.50 379.61 o
1795 2 5 -3 -3 9634.57 9854.15 173.99 o
1795 1 -5 3 3 9634.57 9854.15 173.99 o
1796 2 -5 -3 3 9702.32 9912.15 361.16 o
1796 1 5 3 -3 9702.32 9912.15 361.16 o
1797 2 4 -3 -3 5939.68 4871.71 168.72 o
1797 1 -4 3 3 5939.68 4871.71 168.72 o
1798 2 -4 -3 3 5976.18 5248.69 311.07 o
1798 1 4 3 -3 5976.18 5248.69 311.07 o
1799 2 3 -3 -3 3343.39 4339.20 163.45 o
1799 1 -3 3 3 3343.39 4339.20 163.45 o
1800 2 -3 -3 3 3727.77 3413.89 284.71 o
1800 1 3 3 -3 3727.77 3413.89 284.71 o
1801 2 2 -3 -3 1700.51 2359.41 155.54 o
1801 1 -2 3 3 1700.51 2359.41 155.54 o
1802 2 -2 -3 3 1674.95 2575.58 263.62 o
1802 1 2 3 -3 1674.95 2575.58 263.62 o
1803 2 1 -3 -3 31424.40 33092.30 260.98 o
1803 1 -1 3 3 31424.40 33092.30 260.98 o
1804 2 -1 -3 3 31331.00 33348.00 263.62 o
1804 1 1 3 -3 31331.00 33348.00 263.62 o
1805 2 0 -3 -3 13953.90 13017.60 147.63 o
1805 1 0 3 3 13953.90 13017.60 147.63 o
1806 2 0 -3 3 14248.90 12237.30 305.80 o
1806 1 0 3 -3 14248.90 12237.30 305.80 o
1807 2 -1 -3 -3 5899.88 5087.88 129.17 o
1807 1 1 3 3 5899.88 5087.88 129.17 o
1808 2 1 -3 3 5771.62 4742.54 276.80 o
1808 1 -1 3 -3 5771.62 4742.54 276.80 o
1809 2 -2 -3 -3 5808.08 5804.93 189.81 o
1809 1 2 3 3 5808.08 5804.93 189.81 o
1810 2 2 -3 3 6449.92 5770.66 498.24 o
1810 1 -2 3 -3 6449.92 5770.66 498.24 o
1811 2 -3 -3 -3 2249.04 3113.36 163.45 o
1811 1 3 3 3 2249.04 3113.36 163.45 o
1812 2 3 -3 3 2260.26 3145.00 297.89 o
1812 1 -3 3 -3 2260.26 3145.00 297.89 o
1813 2 -4 -3 -3 28198.80 29122.20 221.44 o
1813 1 4 3 3 28198.80 29122.20 221.44 o
1814 2 4 -3 3 28138.70 27964.90 400.70 o
1814 1 -4 3 -3 28138.70 27964.90 400.70 o
1815 2 -5 -3 -3 15417.10 13927.10 195.08 o
1815 1 5 3 3 15417.10 13927.10 195.08 o
1816 2 5 -3 3 15514.50 11841.90 387.52 o
1816 1 -5 3 -3 15514.50 11841.90 387.52 o
1817 2 -6 -3 -3 3667.18 3023.73 147.63 o
1817 1 6 3 3 3667.18 3023.73 147.63 o
1818 2 6 -3 3 3529.68 2409.50 292.62 o
1818 1 -6 3 -3 3529.68 2409.50 292.62 o
1819 2 -7 -3 -3 5185.56 5638.85 189.81 o
1819 1 7 3 3 5185.56 5638.85 189.81 o
1820 2 7 -3 3 5501.88 5116.88 268.89 o
1820 1 -7 3 -3 5501.88 5116.88 268.89 o
1821 2 -8 -3 -3 1959.13 2064.15 192.44 o
1821 1 8 3 3 1959.13 2064.15 192.44 o
1822 2 8 -3 3 1986.79 1697.72 195.08 o
1822 1 -8 3 -3 1986.79 1697.72 195.08 o
1823 2 -9 -3 -3 12662.70 11615.10 210.90 o
1823 1 9 3 3 12662.70 11615.10 210.90 o
1824 2 9 -3 3 12551.00 9479.81 208.26 o
1824 1 -9 3 -3 12551.00 9479.81 208.26 o
1825 2 -10 -3 -3 9005.24 8032.53 258.35 o
1825 1 10 3 3 9005.24 8032.53 258.35 o
1826 2 10 -3 3 8991.93 6284.72 218.80 o
1826 1 -10 3 -3 8991.93 6284.72 218.80 o
1827 2 -11 -3 -3 1180.29 761.86 237.26 o
1827 1 11 3 3 1180.29 761.86 237.26 o
1828 2 11 -3 3 1149.28 382.25 200.35 <
1828 1 -11 3 -3 1149.28 382.25 200.35 <
1829 2 -12 -3 -3 1854.84 1861.16 282.07 o
1829 1 12 3 3 1854.84 1861.16 282.07 o
1830 2 12 -3 3 2009.47 1716.17 187.17 o
1830 1 -12 3 -3 2009.47 1716.17 187.17 o
1831 2 -13 -3 -3 857.36 550.97 250.44 o
1831 1 13 3 3 857.36 550.97 250.44 o
1832 2 13 -3 3 856.62 321.62 187.17 <
1832 1 -13 3 -3 856.62 321.62 187.17 <
1833 2 -14 -3 -3 3475.19 3379.62 255.71 o
1833 1 14 3 3 3475.19 3379.62 255.71 o
1834 2 14 -3 3 3423.95 2217.05 218.80 o
1834 1 -14 3 -3 3423.95 2217.05 218.80 o
1835 2 -15 -3 -3 2875.95 2881.38 284.71 o
1835 1 15 3 3 2875.95 2881.38 284.71 o
1836 2 15 -3 3 2858.35 1065.03 218.80 o
1836 1 -15 3 -3 2858.35 1065.03 218.80 o
1837 2 -16 -3 -3 317.14 268.89 268.89 <
1837 1 16 3 3 317.14 268.89 268.89 <
1838 2 16 -3 3 309.07 137.08 239.90 <
1838 1 -16 3 -3 309.07 137.08 239.90 <
1839 2 -17 -3 -3 368.94 303.16 250.44 <
1839 1 17 3 3 368.94 303.16 250.44 <
1840 2 17 -3 3 428.15 -42.18 255.71 <
1840 1 -17 3 -3 428.15 -42.18 255.71 <
1841 2 17 -4 -3 95.44 -131.81 237.26 <
1841 1 -17 4 3 95.44 -131.81 237.26 <
1842 2 -17 -4 3 92.37 896.31 218.80 o
1842 1 17 4 -3 92.37 896.31 218.80 o
1843 2 16 -4 -3 59.14 -79.09 226.71 <
1843 1 -16 4 3 59.14 -79.09 226.71 <
1844 2 -16 -4 3 56.97 205.62 208.26 <
1844 1 16 4 -3 56.97 205.62 208.26 <
1845 2 15 -4 -3 973.51 487.70 231.99 o
1845 1 -15 4 3 973.51 487.70 231.99 o
1846 2 -15 -4 3 977.29 1149.39 195.08 o
1846 1 15 4 -3 977.29 1149.39 195.08 o
1847 2 14 -4 -3 57.98 -113.36 282.07 <
1847 1 -14 4 3 57.98 -113.36 282.07 <
1848 2 -14 -4 3 63.31 -89.63 200.35 <
1848 1 14 4 -3 63.31 -89.63 200.35 <
1849 2 13 -4 -3 665.85 964.85 221.44 o
1849 1 -13 4 3 665.85 964.85 221.44 o
1850 2 -13 -4 3 657.15 1534.27 189.81 o
1850 1 13 4 -3 657.15 1534.27 189.81 o
1851 2 12 -4 -3 939.83 582.60 202.99 o
1851 1 -12 4 3 939.83 582.60 202.99 o
1852 2 -12 -4 3 940.48 503.52 197.72 o
1852 1 12 4 -3 940.48 503.52 197.72 o
1853 2 11 -4 -3 452.60 316.35 200.35 <
1853 1 -11 4 3 452.60 316.35 200.35 <
1854 2 -11 -4 3 447.64 239.90 218.80 <
1854 1 11 4 -3 447.64 239.90 218.80 <
1855 2 10 -4 -3 1782.83 1328.65 184.54 o
1855 1 -10 4 3 1782.83 1328.65 184.54 o
1856 2 -10 -4 3 1791.06 1012.30 287.35 o
1856 1 10 4 -3 1791.06 1012.30 287.35 o
1857 2 9 -4 -3 25.21 202.99 152.90 <
1857 1 -9 4 3 25.21 202.99 152.90 <
1858 2 -9 -4 3 28.89 337.43 237.26 <
1858 1 9 4 -3 28.89 337.43 237.26 <
1859 2 8 -4 -3 669.47 1028.12 147.63 o
1859 1 -8 4 3 669.47 1028.12 147.63 o
1860 2 -8 -4 3 663.26 1033.39 226.71 o
1860 1 8 4 -3 663.26 1033.39 226.71 o
1861 2 7 -4 -3 3448.72 3535.16 160.81 o
1861 1 -7 4 3 3448.72 3535.16 160.81 o
1862 2 -7 -4 3 3457.06 3730.24 205.62 o
1862 1 7 4 -3 3457.06 3730.24 205.62 o
1863 2 6 -4 -3 620.25 419.16 129.17 o
1863 1 -6 4 3 620.25 419.16 129.17 o
1864 2 -6 -4 3 617.77 366.43 179.26 o
1864 1 6 4 -3 617.77 366.43 179.26 o
1865 2 5 -4 -3 3342.04 2949.92 147.63 o
1865 1 -5 4 3 3342.04 2949.92 147.63 o
1866 2 -5 -4 3 3333.40 2894.56 202.99 o
1866 1 5 4 -3 3333.40 2894.56 202.99 o
1867 2 4 -4 -3 615.31 1001.76 139.72 o
1867 1 -4 4 3 615.31 1001.76 139.72 o
1868 2 -4 -4 3 619.38 1112.48 176.63 o
1868 1 4 4 -3 619.38 1112.48 176.63 o
1869 2 3 -4 -3 6.48 266.26 129.17 o
1869 1 -3 4 3 6.48 266.26 129.17 o
1870 2 -3 -4 3 5.96 97.54 160.81 <
1870 1 3 4 -3 5.96 97.54 160.81 <
1871 2 2 -4 -3 3329.88 3822.50 142.35 o
1871 1 -2 4 3 3329.88 3822.50 142.35 o
1872 2 -2 -4 3 3337.10 3714.42 173.99 o
1872 1 2 4 -3 3337.10 3714.42 173.99 o
1873 2 1 -4 -3 885.54 630.05 163.45 o
1873 1 -1 4 3 885.54 630.05 163.45 o
1874 2 -1 -4 3 897.43 640.60 181.90 o
1874 1 1 4 -3 897.43 640.60 181.90 o
1875 2 0 -4 -3 4934.44 4689.82 123.90 o
1875 1 0 4 3 4934.44 4689.82 123.90 o
1876 2 0 -4 3 4934.48 4442.01 189.81 o
1876 1 0 4 -3 4934.48 4442.01 189.81 o
1877 2 -1 -4 -3 3926.46 4320.75 123.90 o
1877 1 1 4 3 3926.46 4320.75 123.90 o
1878 2 1 -4 3 3914.50 4072.94 189.81 o
1878 1 -1 4 -3 3914.50 4072.94 189.81 o
1879 2 -2 -4 -3 372.79 405.98 113.36 o
1879 1 2 4 3 372.79 405.98 113.36 o
1880 2 2 -4 3 368.04 363.80 231.99 <
1880 1 -2 4 -3 368.04 363.80 231.99 <
1881 2 -3 -4 -3 1620.44 1792.62 142.35 o
1881 1 3 4 3 1620.44 1792.62 142.35 o
1882 2 3 -4 3 1603.36 1642.36 263.62 o
1882 1 -3 4 -3 1603.36 1642.36 263.62 o
1883 2 -4 -4 -3 267.83 405.98 142.35 o
1883 1 4 4 3 267.83 405.98 142.35 o
1884 2 4 -4 3 276.94 361.16 166.08 o
1884 1 -4 4 -3 276.94 361.16 166.08 o
1885 2 -5 -4 -3 1103.93 1133.57 137.08 o
1885 1 5 4 3 1103.93 1133.57 137.08 o
1886 2 5 -4 3 1097.23 1399.83 189.81 o
1886 1 -5 4 -3 1097.23 1399.83 189.81 o
1887 2 -6 -4 -3 5059.70 4426.20 147.63 o
1887 1 6 4 3 5059.70 4426.20 147.63 o
1888 2 6 -4 3 5083.77 4776.81 229.35 o
1888 1 -6 4 -3 5083.77 4776.81 229.35 o
1889 2 -7 -4 -3 274.61 163.45 144.99 <
1889 1 7 4 3 274.61 163.45 144.99 <
1890 2 7 -4 3 264.37 39.54 237.26 <
1890 1 -7 4 -3 264.37 39.54 237.26 <
1891 2 -8 -4 -3 1263.32 1091.39 137.08 o
1891 1 8 4 3 1263.32 1091.39 137.08 o
1892 2 8 -4 3 1245.37 1133.57 282.07 o
1892 1 -8 4 -3 1245.37 1133.57 282.07 o
1893 2 -9 -4 -3 36.68 308.44 160.81 <
1893 1 9 4 3 36.68 308.44 160.81 <
1894 2 9 -4 3 34.42 108.08 247.80 <
1894 1 -9 4 -3 34.42 108.08 247.80 <
1895 2 -10 -4 -3 28.89 -18.45 179.26 <
1895 1 10 4 3 28.89 -18.45 179.26 <
1896 2 10 -4 3 24.79 -15.82 189.81 <
1896 1 -10 4 -3 24.79 -15.82 189.81 <
1897 2 -11 -4 -3 1769.40 1167.84 168.72 o
1897 1 11 4 3 1769.40 1167.84 168.72 o
1898 2 11 -4 3 1794.23 1154.66 200.35 o
1898 1 -11 4 -3 1794.23 1154.66 200.35 o
1899 2 -12 -4 -3 131.26 347.98 224.08 <
1899 1 12 4 3 131.26 347.98 224.08 <
1900 2 12 -4 3 125.37 432.34 210.90 o
1900 1 -12 4 -3 125.37 432.34 210.90 o
1901 2 -13 -4 -3 455.31 216.17 234.62 <
1901 1 13 4 3 455.31 216.17 234.62 <
1902 2 13 -4 3 445.17 79.09 179.26 <
1902 1 -13 4 -3 445.17 79.09 179.26 <
1903 2 -14 -4 -3 284.76 487.70 297.89 <
1903 1 14 4 3 284.76 487.70 297.89 <
1904 2 14 -4 3 276.29 532.51 187.17 o
1904 1 -14 4 -3 276.29 532.51 187.17 o
1905 2 -15 -4 -3 66.03 -100.18 337.43 <
1905 1 15 4 3 66.03 -100.18 337.43 <
1906 2 15 -4 3 65.95 187.17 192.44 <
1906 1 -15 4 -3 65.95 187.17 192.44 <
1907 2 -16 -4 -3 486.16 226.71 316.35 <
1907 1 16 4 3 486.16 226.71 316.35 <
1908 2 16 -4 3 497.65 274.17 237.26 <
1908 1 -16 4 -3 497.65 274.17 237.26 <
1909 2 16 -5 -3 3403.30 2536.03 276.80 o
1909 1 -16 5 3 3403.30 2536.03 276.80 o
1910 2 -16 -5 3 3350.30 3237.27 213.53 o
1910 1 16 5 -3 3350.30 3237.27 213.53 o
1911 2 15 -5 -3 972.83 1217.93 242.53 o
1911 1 -15 5 3 972.83 1217.93 242.53 o
1912 2 -15 -5 3 993.21 954.31 200.35 o
1912 1 15 5 -3 993.21 954.31 200.35 o
1913 2 14 -5 -3 3350.43 2923.56 210.90 o
1913 1 -14 5 3 3350.43 2923.56 210.90 o
1914 2 -14 -5 3 3344.07 3714.42 210.90 o
1914 1 14 5 -3 3344.07 3714.42 210.90 o
1915 2 13 -5 -3 2098.56 1492.09 176.63 o
1915 1 -13 5 3 2098.56 1492.09 176.63 o
1916 2 -13 -5 3 2101.19 1692.45 226.71 o
1916 1 13 5 -3 2101.19 1692.45 226.71 o
1917 2 12 -5 -3 99.74 390.16 160.81 o
1917 1 -12 5 3 99.74 390.16 160.81 o
1918 2 -12 -5 3 108.76 659.05 237.26 o
1918 1 12 5 -3 108.76 659.05 237.26 o
1919 2 11 -5 -3 10739.70 11602.00 176.63 o
1919 1 -11 5 3 10739.70 11602.00 176.63 o
1920 2 -11 -5 3 10659.50 10460.50 250.44 o
1920 1 11 5 -3 10659.50 10460.50 250.44 o
1921 2 10 -5 -3 4982.74 5509.68 168.72 o
1921 1 -10 5 3 4982.74 5509.68 168.72 o
1922 2 -10 -5 3 5020.85 4468.38 213.53 o
1922 1 10 5 -3 5020.85 4468.38 213.53 o
1923 2 9 -5 -3 11582.50 13832.20 173.99 o
1923 1 -9 5 3 11582.50 13832.20 173.99 o
1924 2 -9 -5 3 11460.70 12706.50 208.26 o
1924 1 9 5 -3 11460.70 12706.50 208.26 o
1925 2 8 -5 -3 10007.30 9593.17 152.90 o
1925 1 -8 5 3 10007.30 9593.17 152.90 o
1926 2 -8 -5 3 10095.60 11728.50 197.72 o
1926 1 8 5 -3 10095.60 11728.50 197.72 o
1927 2 7 -5 -3 4.44 785.59 126.54 o
1927 1 -7 5 3 4.44 785.59 126.54 o
1928 2 -7 -5 3 6.24 730.23 166.08 o
1928 1 7 5 -3 6.24 730.23 166.08 o
1929 2 6 -5 -3 27383.50 30392.90 181.90 o
1929 1 -6 5 3 27383.50 30392.90 181.90 o
1930 2 -6 -5 3 27270.50 31724.10 229.35 o
1930 1 6 5 -3 27270.50 31724.10 229.35 o
1931 2 5 -5 -3 13821.90 14109.00 160.81 o
1931 1 -5 5 3 13821.90 14109.00 160.81 o
1932 2 -5 -5 3 13895.20 14836.60 189.81 o
1932 1 5 5 -3 13895.20 14836.60 189.81 o
1933 2 4 -5 -3 20613.00 20678.40 173.99 o
1933 1 -4 5 3 20613.00 20678.40 173.99 o
1934 2 -4 -5 3 20384.70 21511.50 200.35 o
1934 1 4 5 -3 20384.70 21511.50 200.35 o
1935 2 3 -5 -3 27002.60 27392.80 187.17 o
1935 1 -3 5 3 27002.60 27392.80 187.17 o
1936 2 -3 -5 3 26895.80 28890.20 208.26 o
1936 1 3 5 -3 26895.80 28890.20 208.26 o
1937 2 2 -5 -3 58.39 1921.80 166.08 o
1937 1 -2 5 3 58.39 1921.80 166.08 o
1938 2 -2 -5 3 53.79 1829.53 121.27 o
1938 1 2 5 -3 53.79 1829.53 121.27 o
1939 2 1 -5 -3 35059.70 39495.70 173.99 o
1939 1 -1 5 3 35059.70 39495.70 173.99 o
1940 2 -1 -5 3 34954.00 36440.30 242.53 o
1940 1 1 5 -3 34954.00 36440.30 242.53 o
1941 2 0 -5 -3 18593.50 16347.10 144.99 o
1941 1 0 5 3 18593.50 16347.10 144.99 o
1942 2 0 -5 3 18432.80 15732.90 195.08 o
1942 1 0 5 -3 18432.80 15732.90 195.08 o
1943 2 -1 -5 -3 13436.10 11356.80 131.81 o
1943 1 1 5 3 13436.10 11356.80 131.81 o
1944 2 1 -5 3 13304.60 10637.10 179.26 o
1944 1 -1 5 -3 13304.60 10637.10 179.26 o
1945 2 -2 -5 -3 23928.90 28099.40 160.81 o
1945 1 2 5 3 23928.90 28099.40 160.81 o
1946 2 2 -5 3 23701.90 26211.80 221.44 o
1946 1 -2 5 -3 23701.90 26211.80 221.44 o
1947 2 -3 -5 -3 753.32 1642.36 102.81 o
1947 1 3 5 3 753.32 1642.36 102.81 o
1948 2 3 -5 3 709.61 1539.55 229.35 o
1948 1 -3 5 -3 709.61 1539.55 229.35 o
1949 2 -4 -5 -3 20355.60 22592.30 179.26 o
1949 1 4 5 3 20355.60 22592.30 179.26 o
1950 2 4 -5 3 20466.90 21664.40 332.16 o
1950 1 -4 5 -3 20466.90 21664.40 332.16 o
1951 2 -5 -5 -3 8890.29 9247.82 150.26 o
1951 1 5 5 3 8890.29 9247.82 150.26 o
1952 2 5 -5 3 8719.74 7384.02 166.08 o
1952 1 -5 5 -3 8719.74 7384.02 166.08 o
1953 2 -6 -5 -3 4500.84 3050.09 137.08 o
1953 1 6 5 3 4500.84 3050.09 137.08 o
1954 2 6 -5 3 4531.21 3854.14 173.99 o
1954 1 -6 5 -3 4531.21 3854.14 173.99 o
1955 2 -7 -5 -3 9512.85 11093.20 147.63 o
1955 1 7 5 3 9512.85 11093.20 147.63 o
1956 2 7 -5 3 9429.02 12010.60 213.53 o
1956 1 -7 5 -3 9429.02 12010.60 213.53 o
1957 2 -8 -5 -3 440.89 962.22 131.81 o
1957 1 8 5 3 440.89 962.22 131.81 o
1958 2 8 -5 3 403.12 361.16 216.17 <
1958 1 -8 5 -3 403.12 361.16 216.17 <
1959 2 -9 -5 -3 7735.49 8694.22 171.35 o
1959 1 9 5 3 7735.49 8694.22 171.35 o
1960 2 9 -5 3 7786.65 7797.91 229.35 o
1960 1 -9 5 -3 7786.65 7797.91 229.35 o
1961 2 -10 -5 -3 2654.37 1990.34 147.63 o
1961 1 10 5 3 2654.37 1990.34 147.63 o
1962 2 10 -5 3 2650.67 2340.95 276.80 o
1962 1 -10 5 -3 2650.67 2340.95 276.80 o
1963 2 -11 -5 -3 960.79 416.52 152.90 o
1963 1 11 5 3 960.79 416.52 152.90 o
1964 2 11 -5 3 971.43 901.58 224.08 o
1964 1 -11 5 -3 971.43 901.58 224.08 o
1965 2 -12 -5 -3 2555.57 3255.72 195.08 o
1965 1 12 5 3 2555.57 3255.72 195.08 o
1966 2 12 -5 3 2539.19 2739.02 208.26 o
1966 1 -12 5 -3 2539.19 2739.02 208.26 o
1967 2 -13 -5 -3 338.13 258.35 208.26 <
1967 1 13 5 3 338.13 258.35 208.26 <
1968 2 13 -5 3 324.49 358.52 210.90 <
1968 1 -13 5 -3 324.49 358.52 210.90 <
1969 2 -14 -5 -3 2218.00 2006.16 218.80 o
1969 1 14 5 3 2218.00 2006.16 218.80 o
1970 2 14 -5 3 2199.81 1998.25 213.53 o
1970 1 -14 5 -3 2199.81 1998.25 213.53 o
1971 2 -15 -5 -3 781.50 582.60 271.53 o
1971 1 15 5 3 781.50 582.60 271.53 o
1972 2 15 -5 3 796.54 100.18 202.99 <
1972 1 -15 5 -3 796.54 100.18 202.99 <
1973 2 15 -6 -3 1123.56 1307.56 205.62 o
1973 1 -15 6 3 1123.56 1307.56 205.62 o
1974 2 -15 -6 3 1126.08 685.41 224.08 o
1974 1 15 6 -3 1126.08 685.41 224.08 o
1975 2 14 -6 -3 121.59 295.26 176.63 <
1975 1 -14 6 3 121.59 295.26 176.63 <
1976 2 -14 -6 3 127.35 527.24 239.90 o
1976 1 14 6 -3 127.35 527.24 239.90 o
1977 2 13 -6 -3 49.40 324.25 173.99 <
1977 1 -13 6 3 49.40 324.25 173.99 <
1978 2 -13 -6 3 52.45 -287.35 231.99 <
1978 1 13 6 -3 52.45 -287.35 231.99 <
1979 2 12 -6 -3 106.76 58.00 142.35 <
1979 1 -12 6 3 106.76 58.00 142.35 <
1980 2 -12 -6 3 109.51 -253.08 208.26 <
1980 1 12 6 -3 109.51 -253.08 208.26 <
1981 2 11 -6 -3 115.86 52.72 139.72 <
1981 1 -11 6 3 115.86 52.72 139.72 <
1982 2 -11 -6 3 111.88 226.71 192.44 <
1982 1 11 6 -3 111.88 226.71 192.44 <
1983 2 10 -6 -3 2129.45 1618.63 134.45 o
1983 1 -10 6 3 2129.45 1618.63 134.45 o
1984 2 -10 -6 3 2133.86 1370.83 179.26 o
1984 1 10 6 -3 2133.86 1370.83 179.26 o
1985 2 9 -6 -3 325.10 769.77 129.17 o
1985 1 -9 6 3 325.10 769.77 129.17 o
1986 2 -9 -6 3 324.30 303.16 166.08 <
1986 1 9 6 -3 324.30 303.16 166.08 <
1987 2 8 -6 -3 142.06 324.25 121.27 o
1987 1 -8 6 3 142.06 324.25 121.27 o
1988 2 -8 -6 3 146.65 332.16 150.26 o
1988 1 8 6 -3 146.65 332.16 150.26 o
1989 2 7 -6 -3 410.05 326.89 131.81 o
1989 1 -7 6 3 410.05 326.89 131.81 o
1990 2 -7 -6 3 414.66 181.90 166.08 <
1990 1 7 6 -3 414.66 181.90 166.08 <
1991 2 6 -6 -3 129.53 279.44 131.81 o
1991 1 -6 6 3 129.53 279.44 131.81 o
1992 2 -6 -6 3 124.49 308.44 142.35 o
1992 1 6 6 -3 124.49 308.44 142.35 o
1993 2 5 -6 -3 999.96 659.05 131.81 o
1993 1 -5 6 3 999.96 659.05 131.81 o
1994 2 -5 -6 3 998.39 830.41 144.99 o
1994 1 5 6 -3 998.39 830.41 144.99 o
1995 2 4 -6 -3 459.46 819.86 123.90 o
1995 1 -4 6 3 459.46 819.86 123.90 o
1996 2 -4 -6 3 454.21 537.79 123.90 o
1996 1 4 6 -3 454.21 537.79 123.90 o
1997 2 3 -6 -3 152.35 305.80 155.54 <
1997 1 -3 6 3 152.35 305.80 155.54 <
1998 2 -3 -6 3 153.01 166.08 94.90 <
1998 1 3 6 -3 153.01 166.08 94.90 <
1999 2 2 -6 -3 2719.74 2311.96 110.72 o
1999 1 -2 6 3 2719.74 2311.96 110.72 o
2000 2 -2 -6 3 2722.41 2293.50 137.08 o
2000 1 2 6 -3 2722.41 2293.50 137.08 o
2001 2 1 -6 -3 382.89 353.25 108.08 o
2001 1 -1 6 3 382.89 353.25 108.08 o
2002 2 -1 -6 3 380.17 363.80 142.35 o
2002 1 1 6 -3 380.17 363.80 142.35 o
2003 2 0 -6 -3 75.31 421.79 110.72 o
2003 1 0 6 3 75.31 421.79 110.72 o
2004 2 0 -6 3 73.48 450.79 139.72 o
2004 1 0 6 -3 73.48 450.79 139.72 o
2005 2 -1 -6 -3 169.37 490.33 108.08 o
2005 1 1 6 3 169.37 490.33 108.08 o
2006 2 1 -6 3 172.58 305.80 139.72 o
2006 1 -1 6 -3 172.58 305.80 139.72 o
2007 2 -2 -6 -3 301.10 398.07 110.72 o
2007 1 2 6 3 301.10 398.07 110.72 o
2008 2 2 -6 3 299.71 266.26 142.35 <
2008 1 -2 6 -3 299.71 266.26 142.35 <
2009 2 -3 -6 -3 4929.15 5050.98 118.63 o
2009 1 3 6 3 4929.15 5050.98 118.63 o
2010 2 3 -6 3 4923.08 5137.97 155.54 o
2010 1 -3 6 -3 4923.08 5137.97 155.54 o
2011 2 -4 -6 -3 337.85 659.05 92.27 o
2011 1 4 6 3 337.85 659.05 92.27 o
2012 2 4 -6 3 330.01 579.97 229.35 o
2012 1 -4 6 -3 330.01 579.97 229.35 o
2013 2 -5 -6 -3 231.87 326.89 129.17 o
2013 1 5 6 3 231.87 326.89 129.17 o
2014 2 5 -6 3 232.58 155.54 234.62 <
2014 1 -5 6 -3 232.58 155.54 234.62 <
2015 2 -6 -6 -3 71.58 86.99 134.45 <
2015 1 6 6 3 71.58 86.99 134.45 <
2016 2 6 -6 3 76.21 234.62 152.90 <
2016 1 -6 6 -3 76.21 234.62 152.90 <
2017 2 -7 -6 -3 15.35 179.26 137.08 <
2017 1 7 6 3 15.35 179.26 137.08 <
2018 2 7 -6 3 14.96 166.08 168.72 <
2018 1 -7 6 -3 14.96 166.08 168.72 <
2019 2 -8 -6 -3 2254.09 1929.71 142.35 o
2019 1 8 6 3 2254.09 1929.71 142.35 o
2020 2 8 -6 3 2247.43 2000.88 163.45 o
2020 1 -8 6 -3 2247.43 2000.88 163.45 o
2021 2 -9 -6 -3 203.55 73.81 142.35 <
2021 1 9 6 3 203.55 73.81 142.35 <
2022 2 9 -6 3 193.77 200.35 166.08 <
2022 1 -9 6 -3 193.77 200.35 166.08 <
2023 2 -10 -6 -3 125.05 163.45 142.35 <
2023 1 10 6 3 125.05 163.45 142.35 <
2024 2 10 -6 3 132.19 197.72 226.71 <
2024 1 -10 6 -3 132.19 197.72 226.71 <
2025 2 -11 -6 -3 77.92 47.45 158.17 <
2025 1 11 6 3 77.92 47.45 158.17 <
2026 2 11 -6 3 87.98 65.91 245.17 <
2026 1 -11 6 -3 87.98 65.91 245.17 <
2027 2 -12 -6 -3 0.60 -139.72 155.54 <
2027 1 12 6 3 0.60 -139.72 155.54 <
2028 2 12 -6 3 0.77 -242.53 266.26 <
2028 1 -12 6 -3 0.77 -242.53 266.26 <
2029 2 -13 -6 -3 588.30 376.98 179.26 o
2029 1 13 6 3 588.30 376.98 179.26 o
2030 2 13 -6 3 585.11 437.61 247.80 <
2030 1 -13 6 -3 585.11 437.61 247.80 <
2031 2 -14 -6 -3 79.31 47.45 187.17 <
2031 1 14 6 3 79.31 47.45 187.17 <
2032 2 14 -6 3 74.58 271.53 208.26 <
2032 1 -14 6 -3 74.58 271.53 208.26 <
2033 2 14 -7 -3 2432.82 2670.48 181.90 o
2033 1 -14 7 3 2432.82 2670.48 181.90 o
2034 2 -14 -7 3 2443.77 2409.50 253.08 o
2034 1 14 7 -3 2443.77 2409.50 253.08 o
2035 2 13 -7 -3 1068.33 1502.64 171.35 o
2035 1 -13 7 3 1068.33 1502.64 171.35 o
2036 2 -13 -7 3 1100.98 827.77 247.80 o
2036 1 13 7 -3 1100.98 827.77 247.80 o
2037 2 12 -7 -3 84.99 242.53 150.26 <
2037 1 -12 7 3 84.99 242.53 150.26 <
2038 2 -12 -7 3 96.84 521.97 195.08 o
2038 1 12 7 -3 96.84 521.97 195.08 o
2039 2 11 -7 -3 2298.26 2746.93 158.17 o
2039 1 -11 7 3 2298.26 2746.93 158.17 o
2040 2 -11 -7 3 2315.91 2915.65 213.53 o
2040 1 11 7 -3 2315.91 2915.65 213.53 o
2041 2 10 -7 -3 1680.84 1312.83 147.63 o
2041 1 -10 7 3 1680.84 1312.83 147.63 o
2042 2 -10 -7 3 1659.13 1529.00 173.99 o
2042 1 10 7 -3 1659.13 1529.00 173.99 o
2043 2 9 -7 -3 3297.85 3268.90 131.81 o
2043 1 -9 7 3 3297.85 3268.90 131.81 o
2044 2 -9 -7 3 3322.09 3587.88 160.81 o
2044 1 9 7 -3 3322.09 3587.88 160.81 o
2045 2 8 -7 -3 2888.90 2551.85 129.17 o
2045 1 -8 7 3 2888.90 2551.85 129.17 o
2046 2 -8 -7 3 2911.89 2881.38 155.54 o
2046 1 8 7 -3 2911.89 2881.38 155.54 o
2047 2 7 -7 -3 241.87 511.42 126.54 o
2047 1 -7 7 3 241.87 511.42 126.54 o
2048 2 -7 -7 3 254.26 332.16 158.17 o
2048 1 7 7 -3 254.26 332.16 158.17 o
2049 2 6 -7 -3 2411.16 3042.19 131.81 o
2049 1 -6 7 3 2411.16 3042.19 131.81 o
2050 2 -6 -7 3 2543.00 3405.98 134.45 o
2050 1 6 7 -3 2543.00 3405.98 134.45 o
2051 2 5 -7 -3 2810.95 2430.58 166.08 o
2051 1 -5 7 3 2810.95 2430.58 166.08 o
2052 2 -5 -7 3 2759.17 2704.75 134.45 o
2052 1 5 7 -3 2759.17 2704.75 134.45 o
2053 2 4 -7 -3 2277.25 2591.39 166.08 o
2053 1 -4 7 3 2277.25 2591.39 166.08 o
2054 2 -4 -7 3 2334.56 2369.95 113.36 o
2054 1 4 7 -3 2334.56 2369.95 113.36 o
2055 2 3 -7 -3 4607.24 4724.09 171.35 o
2055 1 -3 7 3 4607.24 4724.09 171.35 o
2056 2 -3 -7 3 4682.90 4249.57 142.35 o
2056 1 3 7 -3 4682.90 4249.57 142.35 o
2057 2 2 -7 -3 134.79 714.41 118.63 o
2057 1 -2 7 3 134.79 714.41 118.63 o
2058 2 -2 -7 3 133.12 321.62 139.72 o
2058 1 2 7 -3 133.12 321.62 139.72 o
2059 2 1 -7 -3 2866.14 2981.55 115.99 o
2059 1 -1 7 3 2866.14 2981.55 115.99 o
2060 2 -1 -7 3 3072.02 3063.28 139.72 o
2060 1 1 7 -3 3072.02 3063.28 139.72 o
2061 2 0 -7 -3 3318.72 3047.46 115.99 o
2061 1 0 7 3 3318.72 3047.46 115.99 o
2062 2 0 -7 3 3404.55 2960.46 152.90 o
2062 1 0 7 -3 3404.55 2960.46 152.90 o
2063 2 -1 -7 -3 1901.29 2101.06 113.36 o
2063 1 1 7 3 1901.29 2101.06 113.36 o
2064 2 1 -7 3 1859.47 2064.15 137.08 o
2064 1 -1 7 -3 1859.47 2064.15 137.08 o
2065 2 -2 -7 -3 7053.65 7260.12 123.90 o
2065 1 2 7 3 7053.65 7260.12 123.90 o
2066 2 2 -7 3 7132.95 7289.12 163.45 o
2066 1 -2 7 -3 7132.95 7289.12 163.45 o
2067 2 -3 -7 -3 323.24 635.33 108.08 o
2067 1 3 7 3 323.24 635.33 108.08 o
2068 2 3 -7 3 342.28 637.96 152.90 o
2068 1 -3 7 -3 342.28 637.96 152.90 o
2069 2 -4 -7 -3 4419.95 4573.82 118.63 o
2069 1 4 7 3 4419.95 4573.82 118.63 o
2070 2 4 -7 3 4458.16 4768.90 160.81 o
2070 1 -4 7 -3 4458.16 4768.90 160.81 o
2071 2 -5 -7 -3 3768.03 3305.81 100.18 o
2071 1 5 7 3 3768.03 3305.81 100.18 o
2072 2 5 -7 3 3880.66 3419.16 237.26 o
2072 1 -5 7 -3 3880.66 3419.16 237.26 o
2073 2 -6 -7 -3 1011.55 1107.21 123.90 o
2073 1 6 7 3 1011.55 1107.21 123.90 o
2074 2 6 -7 3 942.62 1307.56 253.08 o
2074 1 -6 7 -3 942.62 1307.56 253.08 o
2075 2 -7 -7 -3 6899.40 6279.45 152.90 o
2075 1 7 7 3 6899.40 6279.45 152.90 o
2076 2 7 -7 3 6854.34 6321.63 168.72 o
2076 1 -7 7 -3 6854.34 6321.63 168.72 o
2077 2 -8 -7 -3 498.34 1096.66 139.72 o
2077 1 8 7 3 498.34 1096.66 139.72 o
2078 2 8 -7 3 515.47 1057.12 166.08 o
2078 1 -8 7 -3 515.47 1057.12 166.08 o
2079 2 -9 -7 -3 3055.61 3622.15 155.54 o
2079 1 9 7 3 3055.61 3622.15 155.54 o
2080 2 9 -7 3 3039.91 3192.45 166.08 o
2080 1 -9 7 -3 3039.91 3192.45 166.08 o
2081 2 -10 -7 -3 2158.31 1452.55 152.90 o
2081 1 10 7 3 2158.31 1452.55 152.90 o
2082 2 10 -7 3 2208.24 1784.71 197.72 o
2082 1 -10 7 -3 2208.24 1784.71 197.72 o
2083 2 -11 -7 -3 261.06 500.88 155.54 o
2083 1 11 7 3 261.06 500.88 155.54 o
2084 2 11 -7 3 250.42 387.52 195.08 <
2084 1 -11 7 -3 250.42 387.52 195.08 <
2085 2 -12 -7 -3 2849.21 2354.14 173.99 o
2085 1 12 7 3 2849.21 2354.14 173.99 o
2086 2 12 -7 3 2818.84 2554.49 266.26 o
2086 1 -12 7 -3 2818.84 2554.49 266.26 o
2087 2 12 -8 -3 130.13 213.53 152.90 <
2087 1 -12 8 3 130.13 213.53 152.90 <
2088 2 -12 -8 3 131.32 292.62 197.72 <
2088 1 12 8 -3 131.32 292.62 197.72 <
2089 2 11 -8 -3 117.30 274.17 155.54 <
2089 1 -11 8 3 117.30 274.17 155.54 <
2090 2 -11 -8 3 110.78 26.36 205.62 <
2090 1 11 8 -3 110.78 26.36 205.62 <
2091 2 10 -8 -3 33.55 94.90 150.26 <
2091 1 -10 8 3 33.55 94.90 150.26 <
2092 2 -10 -8 3 29.95 208.26 168.72 <
2092 1 10 8 -3 29.95 208.26 168.72 <
2093 2 9 -8 -3 116.78 350.62 131.81 o
2093 1 -9 8 3 116.78 350.62 131.81 o
2094 2 -9 -8 3 114.47 714.41 152.90 o
2094 1 9 8 -3 114.47 714.41 152.90 o
2095 2 8 -8 -3 16.19 105.45 126.54 <
2095 1 -8 8 3 16.19 105.45 126.54 <
2096 2 -8 -8 3 15.20 -58.00 150.26 <
2096 1 8 8 -3 15.20 -58.00 150.26 <
2097 2 7 -8 -3 161.54 408.61 137.08 o
2097 1 -7 8 3 161.54 408.61 137.08 o
2098 2 -7 -8 3 164.45 197.72 152.90 <
2098 1 7 8 -3 164.45 197.72 152.90 <
2099 2 6 -8 -3 41.96 50.09 155.54 <
2099 1 -6 8 3 41.96 50.09 155.54 <
2100 2 -6 -8 3 42.27 84.36 137.08 <
2100 1 6 8 -3 42.27 84.36 137.08 <
2101 2 5 -8 -3 94.25 292.62 181.90 <
2101 1 -5 8 3 94.25 292.62 181.90 <
2102 2 -5 -8 3 91.40 63.27 121.27 <
2102 1 5 8 -3 91.40 63.27 121.27 <
2103 2 4 -8 -3 241.15 550.97 152.90 o
2103 1 -4 8 3 241.15 550.97 152.90 o
2104 2 -4 -8 3 242.17 477.15 150.26 o
2104 1 4 8 -3 242.17 477.15 150.26 o
2105 2 3 -8 -3 201.48 15.82 108.08 <
2105 1 -3 8 3 201.48 15.82 108.08 <
2106 2 -3 -8 3 201.71 26.36 134.45 <
2106 1 3 8 -3 201.71 26.36 134.45 <
2107 2 2 -8 -3 1.13 144.99 105.45 <
2107 1 -2 8 3 1.13 144.99 105.45 <
2108 2 -2 -8 3 1.06 387.52 147.63 o
2108 1 2 8 -3 1.06 387.52 147.63 o
2109 2 1 -8 -3 101.16 189.81 108.08 <
2109 1 -1 8 3 101.16 189.81 108.08 <
2110 2 -1 -8 3 102.43 311.07 134.45 o
2110 1 1 8 -3 102.43 311.07 134.45 o
2111 2 0 -8 -3 491.56 205.62 108.08 <
2111 1 0 8 3 491.56 205.62 108.08 <
2112 2 0 -8 3 490.27 247.80 142.35 <
2112 1 0 8 -3 490.27 247.80 142.35 <
2113 2 -1 -8 -3 496.83 1051.85 108.08 o
2113 1 1 8 3 496.83 1051.85 108.08 o
2114 2 1 -8 3 501.85 830.41 139.72 o
2114 1 -1 8 -3 501.85 830.41 139.72 o
2115 2 -2 -8 -3 125.28 15.82 110.72 <
2115 1 2 8 3 125.28 15.82 110.72 <
2116 2 2 -8 3 125.24 76.45 147.63 <
2116 1 -2 8 -3 125.24 76.45 147.63 <
2117 2 -3 -8 -3 83.21 42.18 113.36 <
2117 1 3 8 3 83.21 42.18 113.36 <
2118 2 3 -8 3 86.39 187.17 150.26 <
2118 1 -3 8 -3 86.39 187.17 150.26 <
2119 2 -4 -8 -3 14.36 234.62 113.36 o
2119 1 4 8 3 14.36 234.62 113.36 o
2120 2 4 -8 3 16.53 -44.82 137.08 <
2120 1 -4 8 -3 16.53 -44.82 137.08 <
2121 2 -5 -8 -3 186.65 282.07 113.36 o
2121 1 5 8 3 186.65 282.07 113.36 o
2122 2 5 -8 3 183.78 218.80 152.90 <
2122 1 -5 8 -3 183.78 218.80 152.90 <
2123 2 -6 -8 -3 245.95 173.99 121.27 <
2123 1 6 8 3 245.95 173.99 121.27 <
2124 2 6 -8 3 257.17 -187.17 234.62 <
2124 1 -6 8 -3 257.17 -187.17 234.62 <
2125 2 -7 -8 -3 17.29 79.09 102.81 <
2125 1 7 8 3 17.29 79.09 102.81 <
2126 2 7 -8 3 14.78 239.90 258.35 <
2126 1 -7 8 -3 14.78 239.90 258.35 <
2127 2 -8 -8 -3 6.10 42.18 137.08 <
2127 1 8 8 3 6.10 42.18 137.08 <
2128 2 8 -8 3 6.06 0.00 229.35 <
2128 1 -8 8 -3 6.06 0.00 229.35 <
2129 2 -9 -8 -3 29.97 -26.36 144.99 <
2129 1 9 8 3 29.97 -26.36 144.99 <
2130 2 9 -8 3 31.61 94.90 168.72 <
2130 1 -9 8 -3 31.61 94.90 168.72 <
2131 2 -10 -8 -3 29.08 224.08 152.90 <
2131 1 10 8 3 29.08 224.08 152.90 <
2132 2 10 -8 3 23.57 -102.81 168.72 <
2132 1 -10 8 -3 23.57 -102.81 168.72 <
2133 2 -11 -8 -3 16.98 147.63 155.54 <
2133 1 11 8 3 16.98 147.63 155.54 <
2134 2 11 -8 3 21.73 427.07 224.08 <
2134 1 -11 8 -3 21.73 427.07 224.08 <
2135 2 10 -9 -3 1291.39 804.04 150.26 o
2135 1 -10 9 3 1291.39 804.04 150.26 o
2136 2 -10 -9 3 1307.91 585.24 197.72 o
2136 1 10 9 -3 1307.91 585.24 197.72 o
2137 2 9 -9 -3 2940.56 2430.58 144.99 o
2137 1 -9 9 3 2940.56 2430.58 144.99 o
2138 2 -9 -9 3 2884.42 2451.67 184.54 o
2138 1 9 9 -3 2884.42 2451.67 184.54 o
2139 2 8 -9 -3 5269.92 4507.92 200.35 o
2139 1 -8 9 3 5269.92 4507.92 200.35 o
2140 2 -8 -9 3 5280.93 4270.66 160.81 o
2140 1 8 9 -3 5280.93 4270.66 160.81 o
2141 2 7 -9 -3 83.87 524.61 184.54 o
2141 1 -7 9 3 83.87 524.61 184.54 o
2142 2 -7 -9 3 77.52 237.26 129.17 <
2142 1 7 9 -3 77.52 237.26 129.17 <
2143 2 6 -9 -3 6597.23 8398.96 197.72 o
2143 1 -6 9 3 6597.23 8398.96 197.72 o
2144 2 -6 -9 3 6543.31 6798.78 173.99 o
2144 1 6 9 -3 6543.31 6798.78 173.99 o
2145 2 5 -9 -3 2783.81 2441.13 123.90 o
2145 1 -5 9 3 2783.81 2441.13 123.90 o
2146 2 -5 -9 3 2815.82 2251.32 150.26 o
2146 1 5 9 -3 2815.82 2251.32 150.26 o
2147 2 4 -9 -3 4654.71 4249.57 129.17 o
2147 1 -4 9 3 4654.71 4249.57 129.17 o
2148 2 -4 -9 3 4576.58 4531.64 160.81 o
2148 1 4 9 -3 4576.58 4531.64 160.81 o
2149 2 3 -9 -3 10097.50 9695.98 131.81 o
2149 1 -3 9 3 10097.50 9695.98 131.81 o
2150 2 -3 -9 3 10055.70 9503.53 179.26 o
2150 1 3 9 -3 10055.70 9503.53 179.26 o
2151 2 2 -9 -3 4.68 1062.39 126.54 o
2151 1 -2 9 3 4.68 1062.39 126.54 o
2152 2 -2 -9 3 3.65 669.60 158.17 o
2152 1 2 9 -3 3.65 669.60 158.17 o
2153 2 1 -9 -3 8346.11 9993.87 134.45 o
2153 1 -1 9 3 8346.11 9993.87 134.45 o
2154 2 -1 -9 3 8300.49 9506.17 173.99 o
2154 1 1 9 -3 8300.49 9506.17 173.99 o
2155 2 0 -9 -3 3525.90 3888.41 123.90 o
2155 1 0 9 3 3525.90 3888.41 123.90 o
2156 2 0 -9 3 3507.25 3036.91 137.08 o
2156 1 0 9 -3 3507.25 3036.91 137.08 o
2157 2 -1 -9 -3 3286.96 3316.35 123.90 o
2157 1 1 9 3 3286.96 3316.35 123.90 o
2158 2 1 -9 3 3283.69 3187.18 163.45 o
2158 1 -1 9 -3 3283.69 3187.18 163.45 o
2159 2 -2 -9 -3 8392.03 7365.57 134.45 o
2159 1 2 9 3 8392.03 7365.57 134.45 o
2160 2 2 -9 3 8335.40 7078.22 147.63 o
2160 1 -2 9 -3 8335.40 7078.22 147.63 o
2161 2 -3 -9 -3 137.18 469.24 123.90 o
2161 1 3 9 3 137.18 469.24 123.90 o
2162 2 3 -9 3 126.68 466.61 160.81 o
2162 1 -3 9 -3 126.68 466.61 160.81 o
2163 2 -4 -9 -3 4891.19 5860.29 129.17 o
2163 1 4 9 3 4891.19 5860.29 129.17 o
2164 2 4 -9 3 4940.69 5288.24 171.35 o
2164 1 -4 9 -3 4940.69 5288.24 171.35 o
2165 2 -5 -9 -3 1991.36 3767.14 137.08 o
2165 1 5 9 3 1991.36 3767.14 137.08 o
2166 2 5 -9 3 1966.96 1766.26 166.08 o
2166 1 -5 9 -3 1966.96 1766.26 166.08 o
2167 2 -6 -9 -3 1333.58 1078.21 126.54 o
2167 1 6 9 3 1333.58 1078.21 126.54 o
2168 2 6 -9 3 1360.17 1331.29 160.81 o
2168 1 -6 9 -3 1360.17 1331.29 160.81 o
2169 2 -7 -9 -3 3858.57 4484.19 137.08 o
2169 1 7 9 3 3858.57 4484.19 137.08 o
2170 2 7 -9 3 3852.20 3224.08 166.08 o
2170 1 -7 9 -3 3852.20 3224.08 166.08 o
2171 2 -8 -9 -3 117.06 437.61 144.99 o
2171 1 8 9 3 117.06 437.61 144.99 o
2172 2 8 -9 3 105.90 627.42 274.17 o
2172 1 -8 9 -3 105.90 627.42 274.17 o
2173 2 5 -10 -3 27.00 142.35 131.81 <
2173 1 -5 10 3 27.00 142.35 131.81 <
2174 2 -5 -10 3 29.30 89.63 166.08 <
2174 1 5 10 -3 29.30 89.63 166.08 <
2175 2 4 -10 -3 12.64 55.36 134.45 <
2175 1 -4 10 3 12.64 55.36 134.45 <
2176 2 -4 -10 3 11.62 100.18 171.35 <
2176 1 4 10 -3 11.62 100.18 171.35 <
2177 2 3 -10 -3 83.73 -126.54 131.81 <
2177 1 -3 10 3 83.73 -126.54 131.81 <
2178 2 -3 -10 3 83.47 92.27 163.45 <
2178 1 3 10 -3 83.47 92.27 163.45 <
2179 2 2 -10 -3 93.42 0.00 123.90 <
2179 1 -2 10 3 93.42 0.00 123.90 <
2180 2 -2 -10 3 94.50 340.07 158.17 o
2180 1 2 10 -3 94.50 340.07 158.17 o
2181 2 1 -10 -3 70.08 318.98 129.17 o
2181 1 -1 10 3 70.08 318.98 129.17 o
2182 2 -1 -10 3 68.95 213.53 144.99 <
2182 1 1 10 -3 68.95 213.53 144.99 <
2183 2 0 -10 -3 269.96 173.99 126.54 <
2183 1 0 10 3 269.96 173.99 126.54 <
2184 2 0 -10 3 269.36 263.62 155.54 <
2184 1 0 10 -3 269.36 263.62 155.54 <
2185 2 -1 -10 -3 83.44 258.35 123.90 o
2185 1 1 10 3 83.44 258.35 123.90 o
2186 2 1 -10 3 82.43 81.72 163.45 <
2186 1 -1 10 -3 82.43 81.72 163.45 <
2187 2 -2 -10 -3 168.96 416.52 123.90 o
2187 1 2 10 3 168.96 416.52 123.90 o
2188 2 2 -10 3 168.81 58.00 160.81 <
2188 1 -2 10 -3 168.81 58.00 160.81 <
2189 2 -3 -10 -3 357.88 463.97 121.27 o
2189 1 3 10 3 357.88 463.97 121.27 o
2190 2 3 -10 3 354.28 287.35 160.81 <
2190 1 -3 10 -3 354.28 287.35 160.81 <
2191 2 -4 -10 -3 59.47 -245.17 134.45 <
2191 1 4 10 3 59.47 -245.17 134.45 <
2192 2 4 -10 3 58.07 192.44 152.90 <
2192 1 -4 10 -3 58.07 192.44 152.90 <
2193 3 -16 0 -4 1195.75 1022.85 247.80 o
2193 2 18 0 -4 1195.75 1022.85 247.80 o
2193 1 -18 0 4 1195.75 1022.85 247.80 o
2194 3 16 0 4 1202.04 722.32 276.80 o
2194 2 -18 0 4 1202.04 722.32 276.80 o
2194 1 18 0 -4 1202.04 722.32 276.80 o
2195 3 -15 0 -4 1237.45 1739.90 274.17 o
2195 2 17 0 -4 1237.45 1739.90 274.17 o
2195 1 -17 0 4 1237.45 1739.90 274.17 o
2196 3 15 0 4 1300.32 1086.12 297.89 o
2196 2 -17 0 4 1300.32 1086.12 297.89 o
2196 1 17 0 -4 1300.32 1086.12 297.89 o
2197 3 -14 0 -4 8616.60 9701.25 313.71 o
2197 2 16 0 -4 8616.60 9701.25 313.71 o
2197 1 -16 0 4 8616.60 9701.25 313.71 o
2198 3 14 0 4 8838.97 10589.70 345.34 o
2198 2 -16 0 4 8838.97 10589.70 345.34 o
2198 1 16 0 -4 8838.97 10589.70 345.34 o
2199 3 -13 0 -4 756.53 427.07 297.89 <
2199 2 15 0 -4 756.53 427.07 297.89 <
2199 1 -15 0 4 756.53 427.07 297.89 <
2200 3 13 0 4 742.21 1188.93 379.61 o
2200 2 -15 0 4 742.21 1188.93 379.61 o
2200 1 15 0 -4 742.21 1188.93 379.61 o
2201 3 -12 0 -4 1513.17 485.06 321.62 <
2201 2 14 0 -4 1513.17 485.06 321.62 <
2201 1 -14 0 4 1513.17 485.06 321.62 <
2202 3 12 0 4 960.64 390.16 405.98 <
2202 2 -14 0 4 960.64 390.16 405.98 <
2202 1 14 0 -4 960.64 390.16 405.98 <
2203 3 -11 0 -4 7299.30 7929.72 376.98 o
2203 2 13 0 -4 7299.30 7929.72 376.98 o
2203 1 -13 0 4 7299.30 7929.72 376.98 o
2204 3 11 0 4 7200.21 7038.68 384.89 o
2204 2 -13 0 4 7200.21 7038.68 384.89 o
2204 1 13 0 -4 7200.21 7038.68 384.89 o
2205 3 -10 0 -4 2524.59 2011.43 427.07 o
2205 2 12 0 -4 2524.59 2011.43 427.07 o
2205 1 -12 0 4 2524.59 2011.43 427.07 o
2206 3 10 0 4 2580.10 2351.50 358.52 o
2206 2 -12 0 4 2580.10 2351.50 358.52 o
2206 1 12 0 -4 2580.10 2351.50 358.52 o
2207 3 -9 0 -4 47610.50 56378.00 590.51 o
2207 2 11 0 -4 47610.50 56378.00 590.51 o
2207 1 -11 0 4 47610.50 56378.00 590.51 o
2208 3 9 0 4 48229.00 55513.30 442.88 o
2208 2 -11 0 4 48229.00 55513.30 442.88 o
2208 1 11 0 -4 48229.00 55513.30 442.88 o
2209 3 -8 0 -4 3096.09 2551.85 413.89 o
2209 2 10 0 -4 3096.09 2551.85 413.89 o
2209 1 -10 0 4 3096.09 2551.85 413.89 o
2210 3 8 0 4 3028.94 2994.73 292.62 o
2210 2 -10 0 4 3028.94 2994.73 292.62 o
2210 1 10 0 -4 3028.94 2994.73 292.62 o
2211 3 -7 0 -4 10948.60 11101.10 403.34 o
2211 2 9 0 -4 10948.60 11101.10 403.34 o
2211 1 -9 0 4 10948.60 11101.10 403.34 o
2212 3 7 0 4 10179.00 10753.10 295.26 o
2212 2 -9 0 4 10179.00 10753.10 295.26 o
2212 1 9 0 -4 10179.00 10753.10 295.26 o
2213 3 -6 0 -4 29990.60 31004.50 427.07 o
2213 2 8 0 -4 29990.60 31004.50 427.07 o
2213 1 -8 0 4 29990.60 31004.50 427.07 o
2214 3 6 0 4 29523.00 29744.40 329.53 o
2214 2 -8 0 4 29523.00 29744.40 329.53 o
2214 1 8 0 -4 29523.00 29744.40 329.53 o
2215 3 -5 0 -4 7064.17 4162.57 324.25 o
2215 2 7 0 -4 7064.17 4162.57 324.25 o
2215 1 -7 0 4 7064.17 4162.57 324.25 o
2216 3 5 0 4 7050.90 6276.81 255.71 o
2216 2 -7 0 4 7050.90 6276.81 255.71 o
2216 1 7 0 -4 7050.90 6276.81 255.71 o
2217 3 -4 0 -4 202095.00 234251.00 761.86 o
2217 2 6 0 -4 202095.00 234251.00 761.86 o
2217 1 -6 0 4 202095.00 234251.00 761.86 o
2218 3 4 0 4 202924.00 248950.00 669.60 o
2218 2 -6 0 4 202924.00 248950.00 669.60 o
2218 1 6 0 -4 202924.00 248950.00 669.60 o
2219 3 -3 0 -4 6617.43 6234.63 289.98 o
2219 2 5 0 -4 6617.43 6234.63 289.98 o
2219 1 -5 0 4 6617.43 6234.63 289.98 o
2220 3 3 0 4 6580.19 5728.48 234.62 o
2220 2 -5 0 4 6580.19 5728.48 234.62 o
2220 1 5 0 -4 6580.19 5728.48 234.62 o
2221 3 -2 0 -4 56635.40 56204.00 471.88 o
2221 2 4 0 -4 56635.40 56204.00 471.88 o
2221 1 -4 0 4 56635.40 56204.00 471.88 o
2222 3 2 0 4 56536.80 56612.60 403.34 o
2222 2 -4 0 4 56536.80 56612.60 403.34 o
2222 1 4 0 -4 56536.80 56612.60 403.34 o
2223 3 -1 0 -4 86430.40 77994.90 479.79 o
2223 2 3 0 -4 86430.40 77994.90 479.79 o
2223 1 -3 0 4 86430.40 77994.90 479.79 o
2224 3 1 0 4 85529.50 85252.40 474.52 o
2224 2 -3 0 4 85529.50 85252.40 474.52 o
2224 1 3 0 -4 85529.50 85252.40 474.52 o
2225 3 0 0 -4 12481.70 8673.13 292.62 o
2225 2 2 0 -4 12481.70 8673.13 292.62 o
2225 1 -2 0 4 12481.70 8673.13 292.62 o
2226 3 0 0 4 12268.50 8939.39 279.44 o
2226 2 -2 0 4 12268.50 8939.39 279.44 o
2226 1 2 0 -4 12268.50 8939.39 279.44 o
2227 3 2 0 -4 20214.60 17725.90 229.35 o
2227 2 0 0 -4 20214.60 17725.90 229.35 o
2227 1 0 0 4 20214.60 17725.90 229.35 o
2228 3 3 0 -4 84260.50 68193.50 334.80 o
2228 2 -1 0 -4 84260.50 68193.50 334.80 o
2228 1 1 0 4 84260.50 68193.50 334.80 o
2229 3 4 0 -4 65599.70 62494.00 463.97 o
2229 2 -2 0 -4 65599.70 62494.00 463.97 o
2229 1 2 0 4 65599.70 62494.00 463.97 o
2230 3 5 0 -4 3190.75 2765.38 263.62 o
2230 2 -3 0 -4 3190.75 2765.38 263.62 o
2230 1 3 0 4 3190.75 2765.38 263.62 o
2231 3 -5 0 4 3214.03 2151.15 245.17 o
2231 2 3 0 4 3214.03 2151.15 245.17 o
2231 1 -3 0 -4 3214.03 2151.15 245.17 o
2232 3 6 0 -4 217808.00 263621.00 819.86 o
2232 2 -4 0 -4 217808.00 263621.00 819.86 o
2232 1 4 0 4 217808.00 263621.00 819.86 o
2233 3 7 0 -4 11073.30 9187.19 297.89 o
2233 2 -5 0 -4 11073.30 9187.19 297.89 o
2233 1 5 0 4 11073.30 9187.19 297.89 o
2234 3 -7 0 4 11035.90 9511.44 242.53 o
2234 2 5 0 4 11035.90 9511.44 242.53 o
2234 1 -5 0 -4 11035.90 9511.44 242.53 o
2235 3 8 0 -4 28950.50 27332.20 387.52 o
2235 2 -6 0 -4 28950.50 27332.20 387.52 o
2235 1 6 0 4 28950.50 27332.20 387.52 o
2236 3 -8 0 4 29303.40 28210.10 329.53 o
2236 2 6 0 4 29303.40 28210.10 329.53 o
2236 1 -6 0 -4 29303.40 28210.10 329.53 o
2237 3 9 0 -4 14034.60 14757.50 384.89 o
2237 2 -7 0 -4 14034.60 14757.50 384.89 o
2237 1 7 0 4 14034.60 14757.50 384.89 o
2238 3 -9 0 4 14122.30 13703.00 271.53 o
2238 2 7 0 4 14122.30 13703.00 271.53 o
2238 1 -7 0 -4 14122.30 13703.00 271.53 o
2239 3 10 0 -4 1844.56 2061.52 453.43 o
2239 2 -8 0 -4 1844.56 2061.52 453.43 o
2239 1 8 0 4 1844.56 2061.52 453.43 o
2240 3 -10 0 4 1881.27 1352.38 287.35 o
2240 2 8 0 4 1881.27 1352.38 287.35 o
2240 1 -8 0 -4 1881.27 1352.38 287.35 o
2241 3 11 0 -4 52629.10 60044.90 630.05 o
2241 2 -9 0 -4 52629.10 60044.90 630.05 o
2241 1 9 0 4 52629.10 60044.90 630.05 o
2242 3 -11 0 4 52549.30 57972.90 411.25 o
2242 2 9 0 4 52549.30 57972.90 411.25 o
2242 1 -9 0 -4 52549.30 57972.90 411.25 o
2243 3 12 0 -4 3672.57 3811.96 479.79 o
2243 2 -10 0 -4 3672.57 3811.96 479.79 o
2243 1 10 0 4 3672.57 3811.96 479.79 o
2244 3 -12 0 4 3681.83 3432.34 334.80 o
2244 2 10 0 4 3681.83 3432.34 334.80 o
2244 1 -10 0 -4 3681.83 3432.34 334.80 o
2245 3 13 0 -4 7755.15 8304.06 376.98 o
2245 2 -11 0 -4 7755.15 8304.06 376.98 o
2245 1 11 0 4 7755.15 8304.06 376.98 o
2246 3 -13 0 4 7908.09 7297.03 332.16 o
2246 2 11 0 4 7908.09 7297.03 332.16 o
2246 1 -11 0 -4 7908.09 7297.03 332.16 o
2247 3 14 0 -4 1611.57 514.06 358.52 <
2247 2 -12 0 -4 1611.57 514.06 358.52 <
2247 1 12 0 4 1611.57 514.06 358.52 <
2248 3 -14 0 4 1870.64 698.59 337.43 o
2248 2 12 0 4 1870.64 698.59 337.43 o
2248 1 -12 0 -4 1870.64 698.59 337.43 o
2249 3 15 0 -4 558.03 263.62 289.98 <
2249 2 -13 0 -4 558.03 263.62 289.98 <
2249 1 13 0 4 558.03 263.62 289.98 <
2250 3 -15 0 4 565.81 727.59 384.89 <
2250 2 13 0 4 565.81 727.59 384.89 <
2250 1 -13 0 -4 565.81 727.59 384.89 <
2251 3 16 0 -4 9332.75 10790.00 300.53 o
2251 2 -14 0 -4 9332.75 10790.00 300.53 o
2251 1 14 0 4 9332.75 10790.00 300.53 o
2252 3 -16 0 4 9233.54 9461.36 387.52 o
2252 2 14 0 4 9233.54 9461.36 387.52 o
2252 1 -14 0 -4 9233.54 9461.36 387.52 o
2253 3 17 0 -4 1581.94 1289.11 266.26 o
2253 2 -15 0 -4 1581.94 1289.11 266.26 o
2253 1 15 0 4 1581.94 1289.11 266.26 o
2254 3 -17 0 4 1564.65 769.77 318.98 o
2254 2 15 0 4 1564.65 769.77 318.98 o
2254 1 -15 0 -4 1564.65 769.77 318.98 o
2255 3 18 0 -4 1430.09 1971.88 258.35 o
2255 2 -16 0 -4 1430.09 1971.88 258.35 o
2255 1 16 0 4 1430.09 1971.88 258.35 o
2256 3 -18 0 4 1452.99 1001.76 303.16 o
2256 2 16 0 4 1452.99 1001.76 303.16 o
2256 1 -16 0 -4 1452.99 1001.76 303.16 o
2257 3 -16 -1 -4 49.66 115.99 192.44 <
2257 2 18 -1 -4 49.66 115.99 192.44 <
2257 1 -18 1 4 49.66 115.99 192.44 <
2258 3 16 -1 4 46.98 44.82 208.26 <
2258 2 -18 -1 4 46.98 44.82 208.26 <
2258 1 18 1 -4 46.98 44.82 208.26 <
2259 3 -15 -1 -4 251.96 -197.72 210.90 <
2259 2 17 -1 -4 251.96 -197.72 210.90 <
2259 1 -17 1 4 251.96 -197.72 210.90 <
2260 3 15 -1 4 249.51 253.08 221.44 <
2260 2 -17 -1 4 249.51 253.08 221.44 <
2260 1 17 1 -4 249.51 253.08 221.44 <
2261 3 -14 -1 -4 39.01 47.45 208.26 <
2261 2 16 -1 -4 39.01 47.45 208.26 <
2261 1 -16 1 4 39.01 47.45 208.26 <
2262 3 14 -1 4 40.42 532.51 234.62 o
2262 2 -16 -1 4 40.42 532.51 234.62 o
2262 1 16 1 -4 40.42 532.51 234.62 o
2263 3 -13 -1 -4 1165.38 1233.75 226.71 o
2263 2 15 -1 -4 1165.38 1233.75 226.71 o
2263 1 -15 1 4 1165.38 1233.75 226.71 o
2264 3 13 -1 4 1169.23 334.80 250.44 <
2264 2 -15 -1 4 1169.23 334.80 250.44 <
2264 1 15 1 -4 1169.23 334.80 250.44 <
2265 3 -12 -1 -4 190.75 268.89 250.44 <
2265 2 14 -1 -4 190.75 268.89 250.44 <
2265 1 -14 1 4 190.75 268.89 250.44 <
2266 3 12 -1 4 189.79 648.51 231.99 o
2266 2 -14 -1 4 189.79 648.51 231.99 o
2266 1 14 1 -4 189.79 648.51 231.99 o
2267 3 -11 -1 -4 226.97 295.26 231.99 <
2267 2 13 -1 -4 226.97 295.26 231.99 <
2267 1 -13 1 4 226.97 295.26 231.99 <
2268 3 11 -1 4 228.39 577.33 226.71 o
2268 2 -13 -1 4 228.39 577.33 226.71 o
2268 1 13 1 -4 228.39 577.33 226.71 o
2269 3 -10 -1 -4 1971.91 1521.09 221.44 o
2269 2 12 -1 -4 1971.91 1521.09 221.44 o
2269 1 -12 1 4 1971.91 1521.09 221.44 o
2270 3 10 -1 4 1965.69 1671.36 253.08 o
2270 2 -12 -1 4 1965.69 1671.36 253.08 o
2270 1 12 1 -4 1965.69 1671.36 253.08 o
2271 3 -9 -1 -4 314.19 398.07 224.08 <
2271 2 11 -1 -4 314.19 398.07 224.08 <
2271 1 -11 1 4 314.19 398.07 224.08 <
2272 3 9 -1 4 319.36 245.17 237.26 <
2272 2 -11 -1 4 319.36 245.17 237.26 <
2272 1 11 1 -4 319.36 245.17 237.26 <
2273 3 -8 -1 -4 8533.78 8414.78 247.80 o
2273 2 10 -1 -4 8533.78 8414.78 247.80 o
2273 1 -10 1 4 8533.78 8414.78 247.80 o
2274 3 8 -1 4 8540.04 9355.91 276.80 o
2274 2 -10 -1 4 8540.04 9355.91 276.80 o
2274 1 10 1 -4 8540.04 9355.91 276.80 o
2275 3 -7 -1 -4 761.25 817.22 274.17 o
2275 2 9 -1 -4 761.25 817.22 274.17 o
2275 1 -9 1 4 761.25 817.22 274.17 o
2276 3 7 -1 4 759.50 993.85 205.62 o
2276 2 -9 -1 4 759.50 993.85 205.62 o
2276 1 9 1 -4 759.50 993.85 205.62 o
2277 3 -6 -1 -4 2485.82 1697.72 274.17 o
2277 2 8 -1 -4 2485.82 1697.72 274.17 o
2277 1 -8 1 4 2485.82 1697.72 274.17 o
2278 3 6 -1 4 2497.52 2327.77 184.54 o
2278 2 -8 -1 4 2497.52 2327.77 184.54 o
2278 1 8 1 -4 2497.52 2327.77 184.54 o
2279 3 -5 -1 -4 6278.36 6102.82 371.71 o
2279 2 7 -1 -4 6278.36 6102.82 371.71 o
2279 1 -7 1 4 6278.36 6102.82 371.71 o
2280 3 5 -1 4 6275.11 6637.98 184.54 o
2280 2 -7 -1 4 6275.11 6637.98 184.54 o
2280 1 7 1 -4 6275.11 6637.98 184.54 o
2281 3 -4 -1 -4 321.26 126.54 379.61 <
2281 2 6 -1 -4 321.26 126.54 379.61 <
2281 1 -6 1 4 321.26 126.54 379.61 <
2282 3 4 -1 4 325.83 52.72 187.17 <
2282 2 -6 -1 4 325.83 52.72 187.17 <
2282 1 6 1 -4 325.83 52.72 187.17 <
2283 3 -3 -1 -4 15946.30 17736.40 342.71 o
2283 2 5 -1 -4 15946.30 17736.40 342.71 o
2283 1 -5 1 4 15946.30 17736.40 342.71 o
2284 3 3 -1 4 15955.20 18221.50 213.53 o
2284 2 -5 -1 4 15955.20 18221.50 213.53 o
2284 1 5 1 -4 15955.20 18221.50 213.53 o
2285 3 -2 -1 -4 1887.32 2264.50 308.44 o
2285 2 4 -1 -4 1887.32 2264.50 308.44 o
2285 1 -4 1 4 1887.32 2264.50 308.44 o
2286 3 2 -1 4 1886.07 2132.69 173.99 o
2286 2 -4 -1 4 1886.07 2132.69 173.99 o
2286 1 4 1 -4 1886.07 2132.69 173.99 o
2287 3 -1 -1 -4 1051.23 1492.09 274.17 o
2287 2 3 -1 -4 1051.23 1492.09 274.17 o
2287 1 -3 1 4 1051.23 1492.09 274.17 o
2288 3 1 -1 4 1045.05 1426.19 163.45 o
2288 2 -3 -1 4 1045.05 1426.19 163.45 o
2288 1 3 1 -4 1045.05 1426.19 163.45 o
2289 3 0 -1 -4 3081.85 3482.43 276.80 o
2289 2 2 -1 -4 3081.85 3482.43 276.80 o
2289 1 -2 1 4 3081.85 3482.43 276.80 o
2290 3 0 -1 4 3066.99 3395.44 181.90 o
2290 2 -2 -1 4 3066.99 3395.44 181.90 o
2290 1 2 1 -4 3066.99 3395.44 181.90 o
2291 3 1 -1 -4 157.32 332.16 202.99 <
2291 2 1 -1 -4 157.32 332.16 202.99 <
2291 1 -1 1 4 157.32 332.16 202.99 <
2292 3 -1 -1 4 158.79 345.34 181.90 <
2292 2 -1 -1 4 158.79 345.34 181.90 <
2292 1 1 1 -4 158.79 345.34 181.90 <
2293 3 2 -1 -4 3494.39 3648.51 150.26 o
2293 2 0 -1 -4 3494.39 3648.51 150.26 o
2293 1 0 1 4 3494.39 3648.51 150.26 o
2294 3 3 -1 -4 513.63 666.96 139.72 o
2294 2 -1 -1 -4 513.63 666.96 139.72 o
2294 1 1 1 4 513.63 666.96 139.72 o
2295 3 4 -1 -4 996.55 1038.67 239.90 o
2295 2 -2 -1 -4 996.55 1038.67 239.90 o
2295 1 2 1 4 996.55 1038.67 239.90 o
2296 3 5 -1 -4 10086.60 12812.00 337.43 o
2296 2 -3 -1 -4 10086.60 12812.00 337.43 o
2296 1 3 1 4 10086.60 12812.00 337.43 o
2297 3 -5 -1 4 10085.40 11894.60 210.90 o
2297 2 3 -1 4 10085.40 11894.60 210.90 o
2297 1 -3 1 -4 10085.40 11894.60 210.90 o
2298 3 6 -1 -4 413.01 424.43 350.62 <
2298 2 -4 -1 -4 413.01 424.43 350.62 <
2298 1 4 1 4 413.01 424.43 350.62 <
2299 3 -6 -1 4 406.80 81.72 166.08 <
2299 2 4 -1 4 406.80 81.72 166.08 <
2299 1 -4 1 -4 406.80 81.72 166.08 <
2300 3 7 -1 -4 3529.79 3013.19 363.80 o
2300 2 -5 -1 -4 3529.79 3013.19 363.80 o
2300 1 5 1 4 3529.79 3013.19 363.80 o
2301 3 -7 -1 4 3526.38 2918.28 163.45 o
2301 2 5 -1 4 3526.38 2918.28 163.45 o
2301 1 -5 1 -4 3526.38 2918.28 163.45 o
2302 3 8 -1 -4 2390.96 1971.88 287.35 o
2302 2 -6 -1 -4 2390.96 1971.88 287.35 o
2302 1 6 1 4 2390.96 1971.88 287.35 o
2303 3 -8 -1 4 2387.57 2114.24 184.54 o
2303 2 6 -1 4 2387.57 2114.24 184.54 o
2303 1 -6 1 -4 2387.57 2114.24 184.54 o
2304 3 9 -1 -4 364.82 268.89 260.98 <
2304 2 -7 -1 -4 364.82 268.89 260.98 <
2304 1 7 1 4 364.82 268.89 260.98 <
2305 3 -9 -1 4 367.48 329.53 176.63 <
2305 2 7 -1 4 367.48 329.53 176.63 <
2305 1 -7 1 -4 367.48 329.53 176.63 <
2306 3 10 -1 -4 7607.91 8151.16 258.35 o
2306 2 -8 -1 -4 7607.91 8151.16 258.35 o
2306 1 8 1 4 7607.91 8151.16 258.35 o
2307 3 -10 -1 4 7597.87 8491.23 192.44 o
2307 2 8 -1 4 7597.87 8491.23 192.44 o
2307 1 -8 1 -4 7597.87 8491.23 192.44 o
2308 3 11 -1 -4 403.81 521.97 234.62 o
2308 2 -9 -1 -4 403.81 521.97 234.62 o
2308 1 9 1 4 403.81 521.97 234.62 o
2309 3 -11 -1 4 398.39 469.24 202.99 o
2309 2 9 -1 4 398.39 469.24 202.99 o
2309 1 -9 1 -4 398.39 469.24 202.99 o
2310 3 12 -1 -4 1220.42 693.32 237.26 o
2310 2 -10 -1 -4 1220.42 693.32 237.26 o
2310 1 10 1 4 1220.42 693.32 237.26 o
2311 3 -12 -1 4 1226.99 975.40 202.99 o
2311 2 10 -1 4 1226.99 975.40 202.99 o
2311 1 -10 1 -4 1226.99 975.40 202.99 o
2312 3 13 -1 -4 380.95 442.88 226.71 <
2312 2 -11 -1 -4 380.95 442.88 226.71 <
2312 1 11 1 4 380.95 442.88 226.71 <
2313 3 -13 -1 4 379.10 519.33 258.35 o
2313 2 11 -1 4 379.10 519.33 258.35 o
2313 1 -11 1 -4 379.10 519.33 258.35 o
2314 3 14 -1 -4 95.64 226.71 242.53 <
2314 2 -12 -1 -4 95.64 226.71 242.53 <
2314 1 12 1 4 95.64 226.71 242.53 <
2315 3 -14 -1 4 97.72 363.80 271.53 <
2315 2 12 -1 4 97.72 363.80 271.53 <
2315 1 -12 1 -4 97.72 363.80 271.53 <
2316 3 15 -1 -4 1200.88 645.87 234.62 o
2316 2 -13 -1 -4 1200.88 645.87 234.62 o
2316 1 13 1 4 1200.88 645.87 234.62 o
2317 3 -15 -1 4 1197.08 1183.66 224.08 o
2317 2 13 -1 4 1197.08 1183.66 224.08 o
2317 1 -13 1 -4 1197.08 1183.66 224.08 o
2318 3 16 -1 -4 54.40 284.71 226.71 <
2318 2 -14 -1 -4 54.40 284.71 226.71 <
2318 1 14 1 4 54.40 284.71 226.71 <
2319 3 -16 -1 4 53.38 -39.54 234.62 <
2319 2 14 -1 4 53.38 -39.54 234.62 <
2319 1 -14 1 -4 53.38 -39.54 234.62 <
2320 3 17 -1 -4 193.23 345.34 197.72 <
2320 2 -15 -1 -4 193.23 345.34 197.72 <
2320 1 15 1 4 193.23 345.34 197.72 <
2321 3 -17 -1 4 196.23 2.64 245.17 <
2321 2 15 -1 4 196.23 2.64 245.17 <
2321 1 -15 1 -4 196.23 2.64 245.17 <
2322 3 18 -1 -4 67.23 129.17 200.35 <
2322 2 -16 -1 -4 67.23 129.17 200.35 <
2322 1 16 1 4 67.23 129.17 200.35 <
2323 3 -18 -1 4 69.28 437.61 224.08 <
2323 2 16 -1 4 69.28 437.61 224.08 <
2323 1 -16 1 -4 69.28 437.61 224.08 <
2324 3 -16 -2 -4 677.95 474.52 221.44 o
2324 2 18 -2 -4 677.95 474.52 221.44 o
2324 1 -18 2 4 677.95 474.52 221.44 o
2325 3 16 -2 4 689.43 63.27 213.53 <
2325 2 -18 -2 4 689.43 63.27 213.53 <
2325 1 18 2 -4 689.43 63.27 213.53 <
2326 3 -15 -2 -4 2166.38 1568.54 231.99 o
2326 2 17 -2 -4 2166.38 1568.54 231.99 o
2326 1 -17 2 4 2166.38 1568.54 231.99 o
2327 3 15 -2 4 2185.95 2053.61 239.90 o
2327 2 -17 -2 4 2185.95 2053.61 239.90 o
2327 1 17 2 -4 2185.95 2053.61 239.90 o
2328 3 -14 -2 -4 8291.92 8143.25 260.98 o
2328 2 16 -2 -4 8291.92 8143.25 260.98 o
2328 1 -16 2 4 8291.92 8143.25 260.98 o
2329 3 14 -2 4 8557.24 9297.91 234.62 o
2329 2 -16 -2 4 8557.24 9297.91 234.62 o
2329 1 16 2 -4 8557.24 9297.91 234.62 o
2330 3 -13 -2 -4 386.78 669.60 208.26 o
2330 2 15 -2 -4 386.78 669.60 208.26 o
2330 1 -15 2 4 386.78 669.60 208.26 o
2331 3 13 -2 4 360.34 347.98 200.35 <
2331 2 -15 -2 4 360.34 347.98 200.35 <
2331 1 15 2 -4 360.34 347.98 200.35 <
2332 3 -12 -2 -4 3205.65 2646.75 202.99 o
2332 2 14 -2 -4 3205.65 2646.75 202.99 o
2332 1 -14 2 4 3205.65 2646.75 202.99 o
2333 3 12 -2 4 2971.65 3949.04 197.72 o
2333 2 -14 -2 4 2971.65 3949.04 197.72 o
2333 1 14 2 -4 2971.65 3949.04 197.72 o
2334 3 -11 -2 -4 1612.28 761.86 200.35 o
2334 2 13 -2 -4 1612.28 761.86 200.35 o
2334 1 -13 2 4 1612.28 761.86 200.35 o
2335 3 11 -2 4 1644.48 1123.03 208.26 o
2335 2 -13 -2 4 1644.48 1123.03 208.26 o
2335 1 13 2 -4 1644.48 1123.03 208.26 o
2336 3 -10 -2 -4 4962.05 4144.12 210.90 o
2336 2 12 -2 -4 4962.05 4144.12 210.90 o
2336 1 -12 2 4 4962.05 4144.12 210.90 o
2337 3 10 -2 4 4982.70 4932.35 213.53 o
2337 2 -12 -2 4 4982.70 4932.35 213.53 o
2337 1 12 2 -4 4982.70 4932.35 213.53 o
2338 3 -9 -2 -4 22615.90 23014.10 245.17 o
2338 2 11 -2 -4 22615.90 23014.10 245.17 o
2338 1 -11 2 4 22615.90 23014.10 245.17 o
2339 3 9 -2 4 23329.00 26040.50 255.71 o
2339 2 -11 -2 4 23329.00 26040.50 255.71 o
2339 1 11 2 -4 23329.00 26040.50 255.71 o
2340 3 -8 -2 -4 786.81 408.61 242.53 <
2340 2 10 -2 -4 786.81 408.61 242.53 <
2340 1 -10 2 4 786.81 408.61 242.53 <
2341 3 8 -2 4 759.99 540.42 229.35 o
2341 2 -10 -2 4 759.99 540.42 229.35 o
2341 1 10 2 -4 759.99 540.42 229.35 o
2342 3 -7 -2 -4 3877.70 2559.76 231.99 o
2342 2 9 -2 -4 3877.70 2559.76 231.99 o
2342 1 -9 2 4 3877.70 2559.76 231.99 o
2343 3 7 -2 4 3426.84 3537.79 266.26 o
2343 2 -9 -2 4 3426.84 3537.79 266.26 o
2343 1 9 2 -4 3426.84 3537.79 266.26 o
2344 3 -6 -2 -4 974.65 848.86 245.17 o
2344 2 8 -2 -4 974.65 848.86 245.17 o
2344 1 -8 2 4 974.65 848.86 245.17 o
2345 3 6 -2 4 998.82 1265.38 229.35 o
2345 2 -8 -2 4 998.82 1265.38 229.35 o
2345 1 8 2 -4 998.82 1265.38 229.35 o
2346 3 -5 -2 -4 1744.85 1539.55 316.35 o
2346 2 7 -2 -4 1744.85 1539.55 316.35 o
2346 1 -7 2 4 1744.85 1539.55 316.35 o
2347 3 5 -2 4 1733.18 1961.34 242.53 o
2347 2 -7 -2 4 1733.18 1961.34 242.53 o
2347 1 7 2 -4 1733.18 1961.34 242.53 o
2348 3 -4 -2 -4 24610.60 27168.80 366.43 o
2348 2 6 -2 -4 24610.60 27168.80 366.43 o
2348 1 -6 2 4 24610.60 27168.80 366.43 o
2349 3 4 -2 4 25444.60 27316.40 255.71 o
2349 2 -6 -2 4 25444.60 27316.40 255.71 o
2349 1 6 2 -4 25444.60 27316.40 255.71 o
2350 3 -3 -2 -4 809.86 769.77 313.71 o
2350 2 5 -2 -4 809.86 769.77 313.71 o
2350 1 -5 2 4 809.86 769.77 313.71 o
2351 3 3 -2 4 791.94 798.77 181.90 o
2351 2 -5 -2 4 791.94 798.77 181.90 o
2351 1 5 2 -4 791.94 798.77 181.90 o
2352 3 -2 -2 -4 2315.92 2259.23 266.26 o
2352 2 4 -2 -4 2315.92 2259.23 266.26 o
2352 1 -4 2 4 2315.92 2259.23 266.26 o
2353 3 2 -2 4 1871.49 2219.69 187.17 o
2353 2 -4 -2 4 1871.49 2219.69 187.17 o
2353 1 4 2 -4 1871.49 2219.69 187.17 o
2354 3 -1 -2 -4 2110.06 2393.68 250.44 o
2354 2 3 -2 -4 2110.06 2393.68 250.44 o
2354 1 -3 2 4 2110.06 2393.68 250.44 o
2355 3 1 -2 4 2005.77 1919.16 184.54 o
2355 2 -3 -2 4 2005.77 1919.16 184.54 o
2355 1 3 2 -4 2005.77 1919.16 184.54 o
2356 3 0 -2 -4 285.85 268.89 208.26 <
2356 2 2 -2 -4 285.85 268.89 208.26 <
2356 1 -2 2 4 285.85 268.89 208.26 <
2357 3 0 -2 4 355.55 392.80 189.81 o
2357 2 -2 -2 4 355.55 392.80 189.81 o
2357 1 2 2 -4 355.55 392.80 189.81 o
2358 3 1 -2 -4 12804.00 15208.30 234.62 o
2358 2 1 -2 -4 12804.00 15208.30 234.62 o
2358 1 -1 2 4 12804.00 15208.30 234.62 o
2359 3 -1 -2 4 13489.30 14454.30 226.71 o
2359 2 -1 -2 4 13489.30 14454.30 226.71 o
2359 1 1 2 -4 13489.30 14454.30 226.71 o
2360 3 2 -2 -4 346.20 440.25 126.54 o
2360 2 0 -2 -4 346.20 440.25 126.54 o
2360 1 0 2 4 346.20 440.25 126.54 o
2361 3 3 -2 -4 1536.07 1254.84 129.17 o
2361 2 -1 -2 -4 1536.07 1254.84 129.17 o
2361 1 1 2 4 1536.07 1254.84 129.17 o
2362 3 4 -2 -4 3807.30 4523.74 137.08 o
2362 2 -2 -2 -4 3807.30 4523.74 137.08 o
2362 1 2 2 4 3807.30 4523.74 137.08 o
2363 3 5 -2 -4 1028.64 751.32 218.80 o
2363 2 -3 -2 -4 1028.64 751.32 218.80 o
2363 1 3 2 4 1028.64 751.32 218.80 o
2364 3 -5 -2 4 948.86 558.88 187.17 o
2364 2 3 -2 4 948.86 558.88 187.17 o
2364 1 -3 2 -4 948.86 558.88 187.17 o
2365 3 6 -2 -4 20896.00 22220.60 297.89 o
2365 2 -4 -2 -4 20896.00 22220.60 297.89 o
2365 1 4 2 4 20896.00 22220.60 297.89 o
2366 3 -6 -2 4 21092.30 20665.20 234.62 o
2366 2 4 -2 4 21092.30 20665.20 234.62 o
2366 1 -4 2 -4 21092.30 20665.20 234.62 o
2367 3 7 -2 -4 1240.88 1196.84 239.90 o
2367 2 -5 -2 -4 1240.88 1196.84 239.90 o
2367 1 5 2 4 1240.88 1196.84 239.90 o
2368 3 -7 -2 4 1276.98 1104.57 168.72 o
2368 2 5 -2 4 1276.98 1104.57 168.72 o
2368 1 -5 2 -4 1276.98 1104.57 168.72 o
2369 3 8 -2 -4 1029.48 740.78 284.71 o
2369 2 -6 -2 -4 1029.48 740.78 284.71 o
2369 1 6 2 4 1029.48 740.78 284.71 o
2370 3 -8 -2 4 804.82 735.50 200.35 o
2370 2 6 -2 4 804.82 735.50 200.35 o
2370 1 -6 2 -4 804.82 735.50 200.35 o
2371 3 9 -2 -4 2401.62 1692.45 347.98 o
2371 2 -7 -2 -4 2401.62 1692.45 347.98 o
2371 1 7 2 4 2401.62 1692.45 347.98 o
2372 3 -9 -2 4 2390.98 2035.15 221.44 o
2372 2 7 -2 4 2390.98 2035.15 221.44 o
2372 1 -7 2 -4 2390.98 2035.15 221.44 o
2373 3 10 -2 -4 1199.26 991.22 287.35 o
2373 2 -8 -2 -4 1199.26 991.22 287.35 o
2373 1 8 2 4 1199.26 991.22 287.35 o
2374 3 -10 -2 4 1170.70 1059.76 231.99 o
2374 2 8 -2 4 1170.70 1059.76 231.99 o
2374 1 -8 2 -4 1170.70 1059.76 231.99 o
2375 3 11 -2 -4 20435.40 22012.30 268.89 o
2375 2 -9 -2 -4 20435.40 22012.30 268.89 o
2375 1 9 2 4 20435.40 22012.30 268.89 o
2376 3 -11 -2 4 20072.10 23217.10 303.16 o
2376 2 9 -2 4 20072.10 23217.10 303.16 o
2376 1 -9 2 -4 20072.10 23217.10 303.16 o
2377 3 12 -2 -4 4546.52 4721.45 250.44 o
2377 2 -10 -2 -4 4546.52 4721.45 250.44 o
2377 1 10 2 4 4546.52 4721.45 250.44 o
2378 3 -12 -2 4 4564.19 4407.74 239.90 o
2378 2 10 -2 4 4564.19 4407.74 239.90 o
2378 1 -10 2 -4 4564.19 4407.74 239.90 o
2379 3 13 -2 -4 1555.09 1323.38 237.26 o
2379 2 -11 -2 -4 1555.09 1323.38 237.26 o
2379 1 11 2 4 1555.09 1323.38 237.26 o
2380 3 -13 -2 4 1518.84 1465.73 229.35 o
2380 2 11 -2 4 1518.84 1465.73 229.35 o
2380 1 -11 2 -4 1518.84 1465.73 229.35 o
2381 3 14 -2 -4 2280.41 2243.41 234.62 o
2381 2 -12 -2 -4 2280.41 2243.41 234.62 o
2381 1 12 2 4 2280.41 2243.41 234.62 o
2382 3 -14 -2 4 2274.28 2683.66 205.62 o
2382 2 12 -2 4 2274.28 2683.66 205.62 o
2382 1 -12 2 -4 2274.28 2683.66 205.62 o
2383 3 15 -2 -4 674.73 970.12 242.53 o
2383 2 -13 -2 -4 674.73 970.12 242.53 o
2383 1 13 2 4 674.73 970.12 242.53 o
2384 3 -15 -2 4 685.28 1070.30 218.80 o
2384 2 13 -2 4 685.28 1070.30 218.80 o
2384 1 -13 2 -4 685.28 1070.30 218.80 o
2385 3 16 -2 -4 7537.64 7162.58 276.80 o
2385 2 -14 -2 -4 7537.64 7162.58 276.80 o
2385 1 14 2 4 7537.64 7162.58 276.80 o
2386 3 -16 -2 4 7358.46 7043.95 226.71 o
2386 2 14 -2 4 7358.46 7043.95 226.71 o
2386 1 -14 2 -4 7358.46 7043.95 226.71 o
2387 3 17 -2 -4 2259.44 3129.18 268.89 o
2387 2 -15 -2 -4 2259.44 3129.18 268.89 o
2387 1 15 2 4 2259.44 3129.18 268.89 o
2388 3 -17 -2 4 2267.29 1879.62 234.62 o
2388 2 15 -2 4 2267.29 1879.62 234.62 o
2388 1 -15 2 -4 2267.29 1879.62 234.62 o
2389 3 18 -2 -4 667.60 432.34 234.62 <
2389 2 -16 -2 -4 667.60 432.34 234.62 <
2389 1 16 2 4 667.60 432.34 234.62 <
2390 3 -18 -2 4 668.89 -71.18 258.35 <
2390 2 16 -2 4 668.89 -71.18 258.35 <
2390 1 -16 2 -4 668.89 -71.18 258.35 <
2391 3 -16 -3 -4 492.71 419.16 255.71 <
2391 2 18 -3 -4 492.71 419.16 255.71 <
2391 1 -18 3 4 492.71 419.16 255.71 <
2392 3 16 -3 4 476.06 -13.18 234.62 <
2392 2 -18 -3 4 476.06 -13.18 234.62 <
2392 1 18 3 -4 476.06 -13.18 234.62 <
2393 3 -15 -3 -4 45.19 -5.27 229.35 <
2393 2 17 -3 -4 45.19 -5.27 229.35 <
2393 1 -17 3 4 45.19 -5.27 229.35 <
2394 3 15 -3 4 45.85 258.35 229.35 <
2394 2 -17 -3 4 45.85 258.35 229.35 <
2394 1 17 3 -4 45.85 258.35 229.35 <
2395 3 -14 -3 -4 121.91 635.33 216.17 o
2395 2 16 -3 -4 121.91 635.33 216.17 o
2395 1 -16 3 4 121.91 635.33 216.17 o
2396 3 14 -3 4 124.05 413.89 205.62 o
2396 2 -16 -3 4 124.05 413.89 205.62 o
2396 1 16 3 -4 124.05 413.89 205.62 o
2397 3 -13 -3 -4 201.89 89.63 202.99 <
2397 2 15 -3 -4 201.89 89.63 202.99 <
2397 1 -15 3 4 201.89 89.63 202.99 <
2398 3 13 -3 4 222.19 421.79 202.99 o
2398 2 -15 -3 4 222.19 421.79 202.99 o
2398 1 15 3 -4 222.19 421.79 202.99 o
2399 3 -12 -3 -4 472.72 100.18 200.35 <
2399 2 14 -3 -4 472.72 100.18 200.35 <
2399 1 -14 3 4 472.72 100.18 200.35 <
2400 3 12 -3 4 486.37 -126.54 176.63 <
2400 2 -14 -3 4 486.37 -126.54 176.63 <
2400 1 14 3 -4 486.37 -126.54 176.63 <
2401 3 -11 -3 -4 2891.40 1916.52 210.90 o
2401 2 13 -3 -4 2891.40 1916.52 210.90 o
2401 1 -13 3 4 2891.40 1916.52 210.90 o
2402 3 11 -3 4 2851.04 2079.97 181.90 o
2402 2 -13 -3 4 2851.04 2079.97 181.90 o
2402 1 13 3 -4 2851.04 2079.97 181.90 o
2403 3 -10 -3 -4 1464.67 727.59 231.99 o
2403 2 12 -3 -4 1464.67 727.59 231.99 o
2403 1 -12 3 4 1464.67 727.59 231.99 o
2404 3 10 -3 4 1467.32 1154.66 184.54 o
2404 2 -12 -3 4 1467.32 1154.66 184.54 o
2404 1 12 3 -4 1467.32 1154.66 184.54 o
2405 3 -9 -3 -4 289.95 595.78 253.08 o
2405 2 11 -3 -4 289.95 595.78 253.08 o
2405 1 -11 3 4 289.95 595.78 253.08 o
2406 3 9 -3 4 271.49 184.54 173.99 <
2406 2 -11 -3 4 271.49 184.54 173.99 <
2406 1 11 3 -4 271.49 184.54 173.99 <
2407 3 -8 -3 -4 422.18 487.70 231.99 o
2407 2 10 -3 -4 422.18 487.70 231.99 o
2407 1 -10 3 4 422.18 487.70 231.99 o
2408 3 8 -3 4 443.05 137.08 189.81 <
2408 2 -10 -3 4 443.05 137.08 189.81 <
2408 1 10 3 -4 443.05 137.08 189.81 <
2409 3 -7 -3 -4 1605.23 1088.75 210.90 o
2409 2 9 -3 -4 1605.23 1088.75 210.90 o
2409 1 -9 3 4 1605.23 1088.75 210.90 o
2410 3 7 -3 4 1618.01 1054.48 205.62 o
2410 2 -9 -3 4 1618.01 1054.48 205.62 o
2410 1 9 3 -4 1618.01 1054.48 205.62 o
2411 3 -6 -3 -4 8142.05 7434.11 202.99 o
2411 2 8 -3 -4 8142.05 7434.11 202.99 o
2411 1 -8 3 4 8142.05 7434.11 202.99 o
2412 3 6 -3 4 8080.69 8040.44 268.89 o
2412 2 -8 -3 4 8080.69 8040.44 268.89 o
2412 1 8 3 -4 8080.69 8040.44 268.89 o
2413 3 -5 -3 -4 8842.03 9174.01 213.53 o
2413 2 7 -3 -4 8842.03 9174.01 213.53 o
2413 1 -7 3 4 8842.03 9174.01 213.53 o
2414 3 5 -3 4 8855.58 9205.64 255.71 o
2414 2 -7 -3 4 8855.58 9205.64 255.71 o
2414 1 7 3 -4 8855.58 9205.64 255.71 o
2415 3 -4 -3 -4 904.80 395.43 171.35 o
2415 2 6 -3 -4 904.80 395.43 171.35 o
2415 1 -6 3 4 904.80 395.43 171.35 o
2416 3 4 -3 4 886.95 579.97 332.16 <
2416 2 -6 -3 4 886.95 579.97 332.16 <
2416 1 6 3 -4 886.95 579.97 332.16 <
2417 3 -3 -3 -4 1046.63 659.05 160.81 o
2417 2 5 -3 -4 1046.63 659.05 160.81 o
2417 1 -5 3 4 1046.63 659.05 160.81 o
2418 3 3 -3 4 1050.83 914.77 347.98 o
2418 2 -5 -3 4 1050.83 914.77 347.98 o
2418 1 5 3 -4 1050.83 914.77 347.98 o
2419 3 -2 -3 -4 2271.81 2346.23 166.08 o
2419 2 4 -3 -4 2271.81 2346.23 166.08 o
2419 1 -4 3 4 2271.81 2346.23 166.08 o
2420 3 2 -3 4 2272.89 2222.32 342.71 o
2420 2 -4 -3 4 2272.89 2222.32 342.71 o
2420 1 4 3 -4 2272.89 2222.32 342.71 o
2421 3 -1 -3 -4 3780.65 3561.52 171.35 o
2421 2 3 -3 -4 3780.65 3561.52 171.35 o
2421 1 -3 3 4 3780.65 3561.52 171.35 o
2422 3 1 -3 4 3796.10 3661.69 305.80 o
2422 2 -3 -3 4 3796.10 3661.69 305.80 o
2422 1 3 3 -4 3796.10 3661.69 305.80 o
2423 3 0 -3 -4 8191.12 8591.41 200.35 o
2423 2 2 -3 -4 8191.12 8591.41 200.35 o
2423 1 -2 3 4 8191.12 8591.41 200.35 o
2424 3 0 -3 4 8197.98 8528.14 308.44 o
2424 2 -2 -3 4 8197.98 8528.14 308.44 o
2424 1 2 3 -4 8197.98 8528.14 308.44 o
2425 3 1 -3 -4 756.79 255.71 173.99 <
2425 2 1 -3 -4 756.79 255.71 173.99 <
2425 1 -1 3 4 756.79 255.71 173.99 <
2426 3 2 -3 -4 5643.52 4987.71 139.72 o
2426 2 0 -3 -4 5643.52 4987.71 139.72 o
2426 1 0 3 4 5643.52 4987.71 139.72 o
2427 3 3 -3 -4 1876.16 1634.45 123.90 o
2427 2 -1 -3 -4 1876.16 1634.45 123.90 o
2427 1 1 3 4 1876.16 1634.45 123.90 o
2428 3 4 -3 -4 1122.51 914.77 131.81 o
2428 2 -2 -3 -4 1122.51 914.77 131.81 o
2428 1 2 3 4 1122.51 914.77 131.81 o
2429 3 5 -3 -4 1136.62 970.12 187.17 o
2429 2 -3 -3 -4 1136.62 970.12 187.17 o
2429 1 3 3 4 1136.62 970.12 187.17 o
2430 3 -5 -3 4 1145.23 1254.84 492.97 o
2430 2 3 -3 4 1145.23 1254.84 492.97 o
2430 1 -3 3 -4 1145.23 1254.84 492.97 o
2431 3 6 -3 -4 1319.40 888.40 168.72 o
2431 2 -4 -3 -4 1319.40 888.40 168.72 o
2431 1 4 3 4 1319.40 888.40 168.72 o
2432 3 -6 -3 4 1334.84 898.95 271.53 o
2432 2 4 -3 4 1334.84 898.95 271.53 o
2432 1 -4 3 -4 1334.84 898.95 271.53 o
2433 3 7 -3 -4 7685.23 6964.87 184.54 o
2433 2 -5 -3 -4 7685.23 6964.87 184.54 o
2433 1 5 3 4 7685.23 6964.87 184.54 o
2434 3 -7 -3 4 7666.15 6951.68 300.53 o
2434 2 5 -3 4 7666.15 6951.68 300.53 o
2434 1 -5 3 -4 7666.15 6951.68 300.53 o
2435 3 8 -3 -4 6007.73 5789.12 173.99 o
2435 2 -6 -3 -4 6007.73 5789.12 173.99 o
2435 1 6 3 4 6007.73 5789.12 173.99 o
2436 3 -8 -3 4 6051.10 6595.80 297.89 o
2436 2 6 -3 4 6051.10 6595.80 297.89 o
2436 1 -6 3 -4 6051.10 6595.80 297.89 o
2437 3 9 -3 -4 869.09 601.06 171.35 o
2437 2 -7 -3 -4 869.09 601.06 171.35 o
2437 1 7 3 4 869.09 601.06 171.35 o
2438 3 -9 -3 4 856.68 276.80 274.17 <
2438 2 7 -3 4 856.68 276.80 274.17 <
2438 1 -7 3 -4 856.68 276.80 274.17 <
2439 3 10 -3 -4 541.24 545.70 189.81 o
2439 2 -8 -3 -4 541.24 545.70 189.81 o
2439 1 8 3 4 541.24 545.70 189.81 o
2440 3 -10 -3 4 539.73 471.88 200.35 o
2440 2 8 -3 4 539.73 471.88 200.35 o
2440 1 -8 3 -4 539.73 471.88 200.35 o
2441 3 11 -3 -4 533.20 616.87 221.44 o
2441 2 -9 -3 -4 533.20 616.87 221.44 o
2441 1 9 3 4 533.20 616.87 221.44 o
2442 3 -11 -3 4 544.33 566.78 216.17 o
2442 2 9 -3 4 544.33 566.78 216.17 o
2442 1 -9 3 -4 544.33 566.78 216.17 o
2443 3 12 -3 -4 1347.92 1260.11 258.35 o
2443 2 -10 -3 -4 1347.92 1260.11 258.35 o
2443 1 10 3 4 1347.92 1260.11 258.35 o
2444 3 -12 -3 4 1345.50 854.13 216.17 o
2444 2 10 -3 4 1345.50 854.13 216.17 o
2444 1 -10 3 -4 1345.50 854.13 216.17 o
2445 3 13 -3 -4 2675.38 2546.58 297.89 o
2445 2 -11 -3 -4 2675.38 2546.58 297.89 o
2445 1 11 3 4 2675.38 2546.58 297.89 o
2446 3 -13 -3 4 2703.21 2103.70 213.53 o
2446 2 11 -3 4 2703.21 2103.70 213.53 o
2446 1 -11 3 -4 2703.21 2103.70 213.53 o
2447 3 14 -3 -4 350.15 427.07 324.25 <
2447 2 -12 -3 -4 350.15 427.07 324.25 <
2447 1 12 3 4 350.15 427.07 324.25 <
2448 3 -14 -3 4 334.85 94.90 200.35 <
2448 2 12 -3 4 334.85 94.90 200.35 <
2448 1 -12 3 -4 334.85 94.90 200.35 <
2449 3 15 -3 -4 365.36 611.60 284.71 o
2449 2 -13 -3 -4 365.36 611.60 284.71 o
2449 1 13 3 4 365.36 611.60 284.71 o
2450 3 -15 -3 4 351.66 474.52 205.62 o
2450 2 13 -3 4 351.66 474.52 205.62 o
2450 1 -13 3 -4 351.66 474.52 205.62 o
2451 3 16 -3 -4 61.90 -21.09 245.17 <
2451 2 -14 -3 -4 61.90 -21.09 245.17 <
2451 1 14 3 4 61.90 -21.09 245.17 <
2452 3 -16 -3 4 57.29 566.78 218.80 o
2452 2 14 -3 4 57.29 566.78 218.80 o
2452 1 -14 3 -4 57.29 566.78 218.80 o
2453 3 17 -3 -4 32.12 321.62 260.98 <
2453 2 -15 -3 -4 32.12 321.62 260.98 <
2453 1 15 3 4 32.12 321.62 260.98 <
2454 3 -17 -3 4 32.54 -461.34 208.26 <
2454 2 15 -3 4 32.54 -461.34 208.26 <
2454 1 -15 3 -4 32.54 -461.34 208.26 <
2455 3 18 -3 -4 547.59 231.99 271.53 <
2455 2 -16 -3 -4 547.59 231.99 271.53 <
2455 1 16 3 4 547.59 231.99 271.53 <
2456 3 -18 -3 4 559.04 398.07 221.44 <
2456 2 16 -3 4 559.04 398.07 221.44 <
2456 1 -16 3 -4 559.04 398.07 221.44 <
2457 3 -15 -4 -4 187.06 13.18 229.35 <
2457 2 17 -4 -4 187.06 13.18 229.35 <
2457 1 -17 4 4 187.06 13.18 229.35 <
2458 3 15 -4 4 172.37 -295.26 205.62 <
2458 2 -17 -4 4 172.37 -295.26 205.62 <
2458 1 17 4 -4 172.37 -295.26 205.62 <
2459 3 -14 -4 -4 5829.68 5467.50 247.80 o
2459 2 16 -4 -4 5829.68 5467.50 247.80 o
2459 1 -16 4 4 5829.68 5467.50 247.80 o
2460 3 14 -4 4 5841.31 6044.83 208.26 o
2460 2 -16 -4 4 5841.31 6044.83 208.26 o
2460 1 16 4 -4 5841.31 6044.83 208.26 o
2461 3 -13 -4 -4 162.65 653.78 216.17 o
2461 2 15 -4 -4 162.65 653.78 216.17 o
2461 1 -15 4 4 162.65 653.78 216.17 o
2462 3 13 -4 4 169.28 187.17 181.90 <
2462 2 -15 -4 4 169.28 187.17 181.90 <
2462 1 15 4 -4 169.28 187.17 181.90 <
2463 3 -12 -4 -4 3075.85 3239.90 255.71 o
2463 2 14 -4 -4 3075.85 3239.90 255.71 o
2463 1 -14 4 4 3075.85 3239.90 255.71 o
2464 3 12 -4 4 2989.41 3289.99 181.90 o
2464 2 -14 -4 4 2989.41 3289.99 181.90 o
2464 1 14 4 -4 2989.41 3289.99 181.90 o
2465 3 -11 -4 -4 3858.51 3398.07 242.53 o
2465 2 13 -4 -4 3858.51 3398.07 242.53 o
2465 1 -13 4 4 3858.51 3398.07 242.53 o
2466 3 11 -4 4 3763.80 3371.71 187.17 o
2466 2 -13 -4 4 3763.80 3371.71 187.17 o
2466 1 13 4 -4 3763.80 3371.71 187.17 o
2467 3 -10 -4 -4 748.76 972.76 229.35 o
2467 2 12 -4 -4 748.76 972.76 229.35 o
2467 1 -12 4 4 748.76 972.76 229.35 o
2468 3 10 -4 4 747.03 630.05 173.99 o
2468 2 -12 -4 4 747.03 630.05 173.99 o
2468 1 12 4 -4 747.03 630.05 173.99 o
2469 3 -9 -4 -4 24559.20 27205.70 242.53 o
2469 2 11 -4 -4 24559.20 27205.70 242.53 o
2469 1 -11 4 4 24559.20 27205.70 242.53 o
2470 3 9 -4 4 24468.90 28244.30 255.71 o
2470 2 -11 -4 4 24468.90 28244.30 255.71 o
2470 1 11 4 -4 24468.90 28244.30 255.71 o
2471 3 -8 -4 -4 1852.23 1840.07 168.72 o
2471 2 10 -4 -4 1852.23 1840.07 168.72 o
2471 1 -10 4 4 1852.23 1840.07 168.72 o
2472 3 8 -4 4 1857.21 2691.57 195.08 o
2472 2 -10 -4 4 1857.21 2691.57 195.08 o
2472 1 10 4 -4 1857.21 2691.57 195.08 o
2473 3 -7 -4 -4 17194.60 17546.60 192.44 o
2473 2 9 -4 -4 17194.60 17546.60 192.44 o
2473 1 -9 4 4 17194.60 17546.60 192.44 o
2474 3 7 -4 4 16937.50 18353.30 266.26 o
2474 2 -9 -4 4 16937.50 18353.30 266.26 o
2474 1 9 4 -4 16937.50 18353.30 266.26 o
2475 3 -6 -4 -4 19026.10 18395.50 181.90 o
2475 2 8 -4 -4 19026.10 18395.50 181.90 o
2475 1 -8 4 4 19026.10 18395.50 181.90 o
2476 3 6 -4 4 18932.10 18991.30 255.71 o
2476 2 -8 -4 4 18932.10 18991.30 255.71 o
2476 1 8 4 -4 18932.10 18991.30 255.71 o
2477 3 -5 -4 -4 4542.78 3492.98 142.35 o
2477 2 7 -4 -4 4542.78 3492.98 142.35 o
2477 1 -7 4 4 4542.78 3492.98 142.35 o
2478 3 5 -4 4 4580.28 3174.00 282.07 o
2478 2 -7 -4 4 4580.28 3174.00 282.07 o
2478 1 7 4 -4 4580.28 3174.00 282.07 o
2479 3 -4 -4 -4 82739.40 100537.00 303.16 o
2479 2 6 -4 -4 82739.40 100537.00 303.16 o
2479 1 -6 4 4 82739.40 100537.00 303.16 o
2480 3 4 -4 4 82743.60 101863.00 516.70 o
2480 2 -6 -4 4 82743.60 101863.00 516.70 o
2480 1 6 4 -4 82743.60 101863.00 516.70 o
2481 3 -3 -4 -4 7270.95 7183.67 155.54 o
2481 2 5 -4 -4 7270.95 7183.67 155.54 o
2481 1 -5 4 4 7270.95 7183.67 155.54 o
2482 3 3 -4 4 7242.61 7207.40 403.34 o
2482 2 -5 -4 4 7242.61 7207.40 403.34 o
2482 1 5 4 -4 7242.61 7207.40 403.34 o
2483 3 -2 -4 -4 58397.60 53762.90 245.17 o
2483 2 4 -4 -4 58397.60 53762.90 245.17 o
2483 1 -4 4 4 58397.60 53762.90 245.17 o
2484 3 2 -4 4 57973.70 60822.60 506.15 o
2484 2 -4 -4 4 57973.70 60822.60 506.15 o
2484 1 4 4 -4 57973.70 60822.60 506.15 o
2485 3 -1 -4 -4 57073.60 53011.50 247.80 o
2485 2 3 -4 -4 57073.60 53011.50 247.80 o
2485 1 -3 4 4 57073.60 53011.50 247.80 o
2486 3 1 -4 4 57252.30 64194.30 506.15 o
2486 2 -3 -4 4 57252.30 64194.30 506.15 o
2486 1 3 4 -4 57252.30 64194.30 506.15 o
2487 3 0 -4 -4 9162.83 7149.40 210.90 o
2487 2 2 -4 -4 9162.83 7149.40 210.90 o
2487 1 -2 4 4 9162.83 7149.40 210.90 o
2488 3 0 -4 4 9249.72 7270.67 279.44 o
2488 2 -2 -4 4 9249.72 7270.67 279.44 o
2488 1 2 4 -4 9249.72 7270.67 279.44 o
2489 3 1 -4 -4 140823.00 184007.00 321.62 o
2489 2 1 -4 -4 140823.00 184007.00 321.62 o
2489 1 -1 4 4 140823.00 184007.00 321.62 o
2490 3 2 -4 -4 15054.60 13244.30 139.72 o
2490 2 0 -4 -4 15054.60 13244.30 139.72 o
2490 1 0 4 4 15054.60 13244.30 139.72 o
2491 3 -2 -4 4 15001.50 13149.40 424.43 o
2491 2 0 -4 4 15001.50 13149.40 424.43 o
2491 1 0 4 -4 15001.50 13149.40 424.43 o
2492 3 3 -4 -4 60666.40 56161.80 200.35 o
2492 2 -1 -4 -4 60666.40 56161.80 200.35 o
2492 1 1 4 4 60666.40 56161.80 200.35 o
2493 3 -3 -4 4 60241.20 53923.70 640.60 o
2493 2 1 -4 4 60241.20 53923.70 640.60 o
2493 1 -1 4 -4 60241.20 53923.70 640.60 o
2494 3 4 -4 -4 57925.20 55903.50 197.72 o
2494 2 -2 -4 -4 57925.20 55903.50 197.72 o
2494 1 2 4 4 57925.20 55903.50 197.72 o
2495 3 -4 -4 4 58149.40 60332.30 709.14 o
2495 2 2 -4 4 58149.40 60332.30 709.14 o
2495 1 -2 4 -4 58149.40 60332.30 709.14 o
2496 3 5 -4 -4 4511.30 3727.60 118.63 o
2496 2 -3 -4 -4 4511.30 3727.60 118.63 o
2496 1 3 4 4 4511.30 3727.60 118.63 o
2497 3 -5 -4 4 4558.12 4518.46 1091.39 o
2497 2 3 -4 4 4558.12 4518.46 1091.39 o
2497 1 -3 4 -4 4558.12 4518.46 1091.39 o
2498 3 6 -4 -4 81485.30 97700.60 342.71 o
2498 2 -4 -4 -4 81485.30 97700.60 342.71 o
2498 1 4 4 4 81485.30 97700.60 342.71 o
2499 3 -6 -4 4 81908.70 89438.70 1159.93 o
2499 2 4 -4 4 81908.70 89438.70 1159.93 o
2499 1 -4 4 -4 81908.70 89438.70 1159.93 o
2500 3 7 -4 -4 8247.86 6914.78 155.54 o
2500 2 -5 -4 -4 8247.86 6914.78 155.54 o
2500 1 5 4 4 8247.86 6914.78 155.54 o
2501 3 -7 -4 4 8200.38 5815.48 311.07 o
2501 2 5 -4 4 8200.38 5815.48 311.07 o
2501 1 -5 4 -4 8200.38 5815.48 311.07 o
2502 3 8 -4 -4 20751.60 19065.10 197.72 o
2502 2 -6 -4 -4 20751.60 19065.10 197.72 o
2502 1 6 4 4 20751.60 19065.10 197.72 o
2503 3 -8 -4 4 20792.40 16718.80 316.35 o
2503 2 6 -4 4 20792.40 16718.80 316.35 o
2503 1 -6 4 -4 20792.40 16718.80 316.35 o
2504 3 9 -4 -4 17596.80 19476.30 195.08 o
2504 2 -7 -4 -4 17596.80 19476.30 195.08 o
2504 1 7 4 4 17596.80 19476.30 195.08 o
2505 3 -9 -4 4 17714.60 17857.70 289.98 o
2505 2 7 -4 4 17714.60 17857.70 289.98 o
2505 1 -7 4 -4 17714.60 17857.70 289.98 o
2506 3 10 -4 -4 1196.53 1365.56 163.45 o
2506 2 -8 -4 -4 1196.53 1365.56 163.45 o
2506 1 8 4 4 1196.53 1365.56 163.45 o
2507 3 -10 -4 4 1180.71 1191.57 224.08 o
2507 2 8 -4 4 1180.71 1191.57 224.08 o
2507 1 -8 4 -4 1180.71 1191.57 224.08 o
2508 3 11 -4 -4 23149.60 25312.90 231.99 o
2508 2 -9 -4 -4 23149.60 25312.90 231.99 o
2508 1 9 4 4 23149.60 25312.90 231.99 o
2509 3 -11 -4 4 23486.80 24095.00 268.89 o
2509 2 9 -4 4 23486.80 24095.00 268.89 o
2509 1 -9 4 -4 23486.80 24095.00 268.89 o
2510 3 12 -4 -4 1500.95 988.58 181.90 o
2510 2 -10 -4 -4 1500.95 988.58 181.90 o
2510 1 10 4 4 1500.95 988.58 181.90 o
2511 3 -12 -4 4 1499.75 949.03 176.63 o
2511 2 10 -4 4 1499.75 949.03 176.63 o
2511 1 -10 4 -4 1499.75 949.03 176.63 o
2512 3 13 -4 -4 4114.84 3722.33 216.17 o
2512 2 -11 -4 -4 4114.84 3722.33 216.17 o
2512 1 11 4 4 4114.84 3722.33 216.17 o
2513 3 -13 -4 4 4230.93 2976.28 202.99 o
2513 2 11 -4 4 4230.93 2976.28 202.99 o
2513 1 -11 4 -4 4230.93 2976.28 202.99 o
2514 3 14 -4 -4 3066.07 2899.83 245.17 o
2514 2 -12 -4 -4 3066.07 2899.83 245.17 o
2514 1 12 4 4 3066.07 2899.83 245.17 o
2515 3 -14 -4 4 3079.51 3139.73 179.26 o
2515 2 12 -4 4 3079.51 3139.73 179.26 o
2515 1 -12 4 -4 3079.51 3139.73 179.26 o
2516 3 15 -4 -4 132.33 181.90 231.99 <
2516 2 -13 -4 -4 132.33 181.90 231.99 <
2516 1 13 4 4 132.33 181.90 231.99 <
2517 3 -15 -4 4 122.22 347.98 189.81 <
2517 2 13 -4 4 122.22 347.98 189.81 <
2517 1 -13 4 -4 122.22 347.98 189.81 <
2518 3 16 -4 -4 5244.46 5533.40 326.89 o
2518 2 -14 -4 -4 5244.46 5533.40 326.89 o
2518 1 14 4 4 5244.46 5533.40 326.89 o
2519 3 -16 -4 4 5309.69 4916.53 216.17 o
2519 2 14 -4 4 5309.69 4916.53 216.17 o
2519 1 -14 4 -4 5309.69 4916.53 216.17 o
2520 3 17 -4 -4 322.66 334.80 318.98 <
2520 2 -15 -4 -4 322.66 334.80 318.98 <
2520 1 15 4 4 322.66 334.80 318.98 <
2521 3 -17 -4 4 335.31 224.08 189.81 <
2521 2 15 -4 4 335.31 224.08 189.81 <
2521 1 -15 4 -4 335.31 224.08 189.81 <
2522 3 -14 -5 -4 88.99 450.79 274.17 <
2522 2 16 -5 -4 88.99 450.79 274.17 <
2522 1 -16 5 4 88.99 450.79 274.17 <
2523 3 14 -5 4 90.15 200.35 189.81 <
2523 2 -16 -5 4 90.15 200.35 189.81 <
2523 1 16 5 -4 90.15 200.35 189.81 <
2524 3 -13 -5 -4 2189.59 1223.20 234.62 o
2524 2 15 -5 -4 2189.59 1223.20 234.62 o
2524 1 -15 5 4 2189.59 1223.20 234.62 o
2525 3 13 -5 4 2208.68 1758.35 195.08 o
2525 2 -15 -5 4 2208.68 1758.35 195.08 o
2525 1 15 5 -4 2208.68 1758.35 195.08 o
2526 3 -12 -5 -4 76.23 321.62 229.35 <
2526 2 14 -5 -4 76.23 321.62 229.35 <
2526 1 -14 5 4 76.23 321.62 229.35 <
2527 3 12 -5 4 79.65 245.17 179.26 <
2527 2 -14 -5 4 79.65 245.17 179.26 <
2527 1 14 5 -4 79.65 245.17 179.26 <
2528 3 -11 -5 -4 97.25 218.80 181.90 <
2528 2 13 -5 -4 97.25 218.80 181.90 <
2528 1 -13 5 4 97.25 218.80 181.90 <
2529 3 11 -5 4 88.17 260.98 181.90 <
2529 2 -13 -5 4 88.17 260.98 181.90 <
2529 1 13 5 -4 88.17 260.98 181.90 <
2530 3 -10 -5 -4 399.12 152.90 166.08 <
2530 2 12 -5 -4 399.12 152.90 166.08 <
2530 1 -12 5 4 399.12 152.90 166.08 <
2531 3 10 -5 4 384.09 796.14 216.17 o
2531 2 -12 -5 4 384.09 796.14 216.17 o
2531 1 12 5 -4 384.09 796.14 216.17 o
2532 3 -9 -5 -4 73.65 258.35 150.26 <
2532 2 11 -5 -4 73.65 258.35 150.26 <
2532 1 -11 5 4 73.65 258.35 150.26 <
2533 3 9 -5 4 81.61 226.71 226.71 <
2533 2 -11 -5 4 81.61 226.71 226.71 <
2533 1 11 5 -4 81.61 226.71 226.71 <
2534 3 -8 -5 -4 8137.58 6587.89 168.72 o
2534 2 10 -5 -4 8137.58 6587.89 168.72 o
2534 1 -10 5 4 8137.58 6587.89 168.72 o
2535 3 8 -5 4 8165.38 7104.58 255.71 o
2535 2 -10 -5 4 8165.38 7104.58 255.71 o
2535 1 10 5 -4 8165.38 7104.58 255.71 o
2536 3 -7 -5 -4 368.11 498.24 147.63 o
2536 2 9 -5 -4 368.11 498.24 147.63 o
2536 1 -9 5 4 368.11 498.24 147.63 o
2537 3 7 -5 4 365.72 434.98 287.35 <
2537 2 -9 -5 4 365.72 434.98 287.35 <
2537 1 9 5 -4 365.72 434.98 287.35 <
2538 3 -6 -5 -4 604.55 321.62 126.54 o
2538 2 8 -5 -4 604.55 321.62 126.54 o
2538 1 -8 5 4 604.55 321.62 126.54 o
2539 3 6 -5 4 623.49 -84.36 287.35 <
2539 2 -8 -5 4 623.49 -84.36 287.35 <
2539 1 8 5 -4 623.49 -84.36 287.35 <
2540 3 -5 -5 -4 670.95 846.22 137.08 o
2540 2 7 -5 -4 670.95 846.22 137.08 o
2540 1 -7 5 4 670.95 846.22 137.08 o
2541 3 5 -5 4 662.88 585.24 242.53 o
2541 2 -7 -5 4 662.88 585.24 242.53 o
2541 1 7 5 -4 662.88 585.24 242.53 o
2542 3 -4 -5 -4 128.01 268.89 126.54 o
2542 2 6 -5 -4 128.01 268.89 126.54 o
2542 1 -6 5 4 128.01 268.89 126.54 o
2543 3 4 -5 4 125.81 121.27 231.99 <
2543 2 -6 -5 4 125.81 121.27 231.99 <
2543 1 6 5 -4 125.81 121.27 231.99 <
2544 3 -3 -5 -4 10553.50 9788.25 150.26 o
2544 2 5 -5 -4 10553.50 9788.25 150.26 o
2544 1 -5 5 4 10553.50 9788.25 150.26 o
2545 3 3 -5 4 10573.40 10049.20 234.62 o
2545 2 -5 -5 4 10573.40 10049.20 234.62 o
2545 1 5 5 -4 10573.40 10049.20 234.62 o
2546 3 -2 -5 -4 740.64 1075.57 129.17 o
2546 2 4 -5 -4 740.64 1075.57 129.17 o
2546 1 -4 5 4 740.64 1075.57 129.17 o
2547 3 2 -5 4 738.40 1086.12 200.35 o
2547 2 -4 -5 4 738.40 1086.12 200.35 o
2547 1 4 5 -4 738.40 1086.12 200.35 o
2548 3 -1 -5 -4 157.32 -60.63 155.54 <
2548 2 3 -5 -4 157.32 -60.63 155.54 <
2548 1 -3 5 4 157.32 -60.63 155.54 <
2549 3 1 -5 4 154.96 -76.45 176.63 <
2549 2 -3 -5 4 154.96 -76.45 176.63 <
2549 1 3 5 -4 154.96 -76.45 176.63 <
2550 3 0 -5 -4 1058.74 843.59 158.17 o
2550 2 2 -5 -4 1058.74 843.59 158.17 o
2550 1 -2 5 4 1058.74 843.59 158.17 o
2551 3 0 -5 4 1068.30 601.06 176.63 o
2551 2 -2 -5 4 1068.30 601.06 176.63 o
2551 1 2 5 -4 1068.30 601.06 176.63 o
2552 3 1 -5 -4 611.09 200.35 108.08 <
2552 2 1 -5 -4 611.09 200.35 108.08 <
2552 1 -1 5 4 611.09 200.35 108.08 <
2553 3 -1 -5 4 608.71 92.27 176.63 <
2553 2 -1 -5 4 608.71 92.27 176.63 <
2553 1 1 5 -4 608.71 92.27 176.63 <
2554 3 2 -5 -4 1435.07 917.40 110.72 o
2554 2 0 -5 -4 1435.07 917.40 110.72 o
2554 1 0 5 4 1435.07 917.40 110.72 o
2555 3 -2 -5 4 1427.38 941.13 179.26 o
2555 2 0 -5 4 1427.38 941.13 179.26 o
2555 1 0 5 -4 1427.38 941.13 179.26 o
2556 3 3 -5 -4 73.03 102.81 102.81 <
2556 2 -1 -5 -4 73.03 102.81 102.81 <
2556 1 1 5 4 73.03 102.81 102.81 <
2557 3 -3 -5 4 77.04 50.09 189.81 <
2557 2 1 -5 4 77.04 50.09 189.81 <
2557 1 -1 5 -4 77.04 50.09 189.81 <
2558 3 4 -5 -4 592.38 656.42 105.45 o
2558 2 -2 -5 -4 592.38 656.42 105.45 o
2558 1 2 5 4 592.38 656.42 105.45 o
2559 3 -4 -5 4 592.22 558.88 195.08 o
2559 2 2 -5 4 592.22 558.88 195.08 o
2559 1 -2 5 -4 592.22 558.88 195.08 o
2560 3 5 -5 -4 8858.61 9034.29 121.27 o
2560 2 -3 -5 -4 8858.61 9034.29 121.27 o
2560 1 3 5 4 8858.61 9034.29 121.27 o
2561 3 -5 -5 4 8848.29 8298.79 247.80 o
2561 2 3 -5 4 8848.29 8298.79 247.80 o
2561 1 -3 5 -4 8848.29 8298.79 247.80 o
2562 3 6 -5 -4 112.64 189.81 105.45 <
2562 2 -4 -5 -4 112.64 189.81 105.45 <
2562 1 4 5 4 112.64 189.81 105.45 <
2563 3 -6 -5 4 116.25 -7.91 408.61 <
2563 2 4 -5 4 116.25 -7.91 408.61 <
2563 1 -4 5 -4 116.25 -7.91 408.61 <
2564 3 7 -5 -4 400.92 593.15 131.81 o
2564 2 -5 -5 -4 400.92 593.15 131.81 o
2564 1 5 5 4 400.92 593.15 131.81 o
2565 3 -7 -5 4 400.66 429.70 500.88 <
2565 2 5 -5 4 400.66 429.70 500.88 <
2565 1 -5 5 -4 400.66 429.70 500.88 <
2566 3 8 -5 -4 660.03 266.26 134.45 <
2566 2 -6 -5 -4 660.03 266.26 134.45 <
2566 1 6 5 4 660.03 266.26 134.45 <
2567 3 -8 -5 4 639.98 427.07 318.98 <
2567 2 6 -5 4 639.98 427.07 318.98 <
2567 1 -6 5 -4 639.98 427.07 318.98 <
2568 3 9 -5 -4 256.22 255.71 139.72 <
2568 2 -7 -5 -4 256.22 255.71 139.72 <
2568 1 7 5 4 256.22 255.71 139.72 <
2569 3 -9 -5 4 251.63 405.98 289.98 <
2569 2 7 -5 4 251.63 405.98 289.98 <
2569 1 -7 5 -4 251.63 405.98 289.98 <
2570 3 10 -5 -4 7139.45 6753.97 158.17 o
2570 2 -8 -5 -4 7139.45 6753.97 158.17 o
2570 1 8 5 4 7139.45 6753.97 158.17 o
2571 3 -10 -5 4 7131.67 6055.37 253.08 o
2571 2 8 -5 4 7131.67 6055.37 253.08 o
2571 1 -8 5 -4 7131.67 6055.37 253.08 o
2572 3 11 -5 -4 106.02 258.35 150.26 <
2572 2 -9 -5 -4 106.02 258.35 150.26 <
2572 1 9 5 4 106.02 258.35 150.26 <
2573 3 -11 -5 4 102.79 -52.72 224.08 <
2573 2 9 -5 4 102.79 -52.72 224.08 <
2573 1 -9 5 -4 102.79 -52.72 224.08 <
2574 3 12 -5 -4 304.73 366.43 158.17 o
2574 2 -10 -5 -4 304.73 366.43 158.17 o
2574 1 10 5 4 304.73 366.43 158.17 o
2575 3 -12 -5 4 317.01 231.99 205.62 <
2575 2 10 -5 4 317.01 231.99 205.62 <
2575 1 -10 5 -4 317.01 231.99 205.62 <
2576 3 13 -5 -4 165.91 -195.08 171.35 <
2576 2 -11 -5 -4 165.91 -195.08 171.35 <
2576 1 11 5 4 165.91 -195.08 171.35 <
2577 3 -13 -5 4 168.16 363.80 195.08 <
2577 2 11 -5 4 168.16 363.80 195.08 <
2577 1 -11 5 -4 168.16 363.80 195.08 <
2578 3 14 -5 -4 43.76 176.63 192.44 <
2578 2 -12 -5 -4 43.76 176.63 192.44 <
2578 1 12 5 4 43.76 176.63 192.44 <
2579 3 -14 -5 4 36.58 284.71 184.54 <
2579 2 12 -5 4 36.58 284.71 184.54 <
2579 1 -12 5 -4 36.58 284.71 184.54 <
2580 3 15 -5 -4 1954.99 1407.74 210.90 o
2580 2 -13 -5 -4 1954.99 1407.74 210.90 o
2580 1 13 5 4 1954.99 1407.74 210.90 o
2581 3 -15 -5 4 1944.23 996.49 202.99 o
2581 2 13 -5 4 1944.23 996.49 202.99 o
2581 1 -13 5 -4 1944.23 996.49 202.99 o
2582 3 16 -5 -4 60.61 363.80 245.17 <
2582 2 -14 -5 -4 60.61 363.80 245.17 <
2582 1 14 5 4 60.61 363.80 245.17 <
2583 3 -16 -5 4 62.04 152.90 208.26 <
2583 2 14 -5 4 62.04 152.90 208.26 <
2583 1 -14 5 -4 62.04 152.90 208.26 <
2584 3 -13 -6 -4 59.64 231.99 226.71 <
2584 2 15 -6 -4 59.64 231.99 226.71 <
2584 1 -15 6 4 59.64 231.99 226.71 <
2585 3 13 -6 4 58.66 540.42 216.17 o
2585 2 -15 -6 4 58.66 540.42 216.17 o
2585 1 15 6 -4 58.66 540.42 216.17 o
2586 3 -12 -6 -4 4570.16 4283.84 189.81 o
2586 2 14 -6 -4 4570.16 4283.84 189.81 o
2586 1 -14 6 4 4570.16 4283.84 189.81 o
2587 3 12 -6 4 4694.59 4318.11 229.35 o
2587 2 -14 -6 4 4694.59 4318.11 229.35 o
2587 1 14 6 -4 4694.59 4318.11 229.35 o
2588 3 -11 -6 -4 673.97 334.80 171.35 <
2588 2 13 -6 -4 673.97 334.80 171.35 <
2588 1 -13 6 4 673.97 334.80 171.35 <
2589 3 11 -6 4 714.63 585.24 239.90 o
2589 2 -13 -6 4 714.63 585.24 239.90 o
2589 1 13 6 -4 714.63 585.24 239.90 o
2590 3 -10 -6 -4 900.84 579.97 152.90 o
2590 2 12 -6 -4 900.84 579.97 152.90 o
2590 1 -12 6 4 900.84 579.97 152.90 o
2591 3 10 -6 4 930.67 635.33 250.44 o
2591 2 -12 -6 4 930.67 635.33 250.44 o
2591 1 12 6 -4 930.67 635.33 250.44 o
2592 3 -9 -6 -4 6144.30 7120.40 187.17 o
2592 2 11 -6 -4 6144.30 7120.40 187.17 o
2592 1 -11 6 4 6144.30 7120.40 187.17 o
2593 3 9 -6 4 6179.26 6893.69 305.80 o
2593 2 -11 -6 4 6179.26 6893.69 305.80 o
2593 1 11 6 -4 6179.26 6893.69 305.80 o
2594 3 -8 -6 -4 67.92 -23.73 158.17 <
2594 2 10 -6 -4 67.92 -23.73 158.17 <
2594 1 -10 6 4 67.92 -23.73 158.17 <
2595 3 8 -6 4 68.30 113.36 279.44 <
2595 2 -10 -6 4 68.30 113.36 279.44 <
2595 1 10 6 -4 68.30 113.36 279.44 <
2596 3 -7 -6 -4 6722.26 6830.42 144.99 o
2596 2 9 -6 -4 6722.26 6830.42 144.99 o
2596 1 -9 6 4 6722.26 6830.42 144.99 o
2597 3 7 -6 4 6918.75 7125.67 234.62 o
2597 2 -9 -6 4 6918.75 7125.67 234.62 o
2597 1 9 6 -4 6918.75 7125.67 234.62 o
2598 3 -6 -6 -4 1256.30 1075.57 129.17 o
2598 2 8 -6 -4 1256.30 1075.57 129.17 o
2598 1 -8 6 4 1256.30 1075.57 129.17 o
2599 3 6 -6 4 1410.17 1065.03 231.99 o
2599 2 -8 -6 4 1410.17 1065.03 231.99 o
2599 1 8 6 -4 1410.17 1065.03 231.99 o
2600 3 -5 -6 -4 777.57 437.61 129.17 o
2600 2 7 -6 -4 777.57 437.61 129.17 o
2600 1 -7 6 4 777.57 437.61 129.17 o
2601 3 5 -6 4 849.01 521.97 184.54 o
2601 2 -7 -6 4 849.01 521.97 184.54 o
2601 1 7 6 -4 849.01 521.97 184.54 o
2602 3 -4 -6 -4 3882.67 4323.38 139.72 o
2602 2 6 -6 -4 3882.67 4323.38 139.72 o
2602 1 -6 6 4 3882.67 4323.38 139.72 o
2603 3 4 -6 4 3918.32 4602.82 179.26 o
2603 2 -6 -6 4 3918.32 4602.82 179.26 o
2603 1 6 6 -4 3918.32 4602.82 179.26 o
2604 3 -3 -6 -4 389.14 392.80 129.17 o
2604 2 5 -6 -4 389.14 392.80 129.17 o
2604 1 -5 6 4 389.14 392.80 129.17 o
2605 3 3 -6 4 362.91 289.98 179.26 <
2605 2 -5 -6 4 362.91 289.98 179.26 <
2605 1 5 6 -4 362.91 289.98 179.26 <
2606 3 -2 -6 -4 3029.56 3092.27 163.45 o
2606 2 4 -6 -4 3029.56 3092.27 163.45 o
2606 1 -4 6 4 3029.56 3092.27 163.45 o
2607 3 2 -6 4 3052.50 3337.44 171.35 o
2607 2 -4 -6 4 3052.50 3337.44 171.35 o
2607 1 4 6 -4 3052.50 3337.44 171.35 o
2608 3 -1 -6 -4 940.64 912.13 160.81 o
2608 2 3 -6 -4 940.64 912.13 160.81 o
2608 1 -3 6 4 940.64 912.13 160.81 o
2609 3 1 -6 4 1068.30 1054.48 176.63 o
2609 2 -3 -6 4 1068.30 1054.48 176.63 o
2609 1 3 6 -4 1068.30 1054.48 176.63 o
2610 3 0 -6 -4 296.67 221.44 110.72 <
2610 2 2 -6 -4 296.67 221.44 110.72 <
2610 1 -2 6 4 296.67 221.44 110.72 <
2611 3 0 -6 4 382.56 374.34 179.26 o
2611 2 -2 -6 4 382.56 374.34 179.26 o
2611 1 2 6 -4 382.56 374.34 179.26 o
2612 3 1 -6 -4 1630.22 1616.00 113.36 o
2612 2 1 -6 -4 1630.22 1616.00 113.36 o
2612 1 -1 6 4 1630.22 1616.00 113.36 o
2613 3 -1 -6 4 1528.87 1647.63 176.63 o
2613 2 -1 -6 4 1528.87 1647.63 176.63 o
2613 1 1 6 -4 1528.87 1647.63 176.63 o
2614 3 2 -6 -4 553.48 553.60 110.72 o
2614 2 0 -6 -4 553.48 553.60 110.72 o
2614 1 0 6 4 553.48 553.60 110.72 o
2615 3 -2 -6 4 446.45 376.98 173.99 o
2615 2 0 -6 4 446.45 376.98 173.99 o
2615 1 0 6 -4 446.45 376.98 173.99 o
2616 3 3 -6 -4 1523.82 1405.10 121.27 o
2616 2 -1 -6 -4 1523.82 1405.10 121.27 o
2616 1 1 6 4 1523.82 1405.10 121.27 o
2617 3 -3 -6 4 1306.77 1307.56 181.90 o
2617 2 1 -6 4 1306.77 1307.56 181.90 o
2617 1 -1 6 -4 1306.77 1307.56 181.90 o
2618 3 4 -6 -4 2254.47 2000.88 110.72 o
2618 2 -2 -6 -4 2254.47 2000.88 110.72 o
2618 1 2 6 4 2254.47 2000.88 110.72 o
2619 3 -4 -6 4 2159.65 1900.71 187.17 o
2619 2 2 -6 4 2159.65 1900.71 187.17 o
2619 1 -2 6 -4 2159.65 1900.71 187.17 o
2620 3 5 -6 -4 168.66 202.99 113.36 <
2620 2 -3 -6 -4 168.66 202.99 113.36 <
2620 1 3 6 4 168.66 202.99 113.36 <
2621 3 -5 -6 4 208.00 123.90 168.72 <
2621 2 3 -6 4 208.00 123.90 168.72 <
2621 1 -3 6 -4 208.00 123.90 168.72 <
2622 3 6 -6 -4 3353.38 3814.59 121.27 o
2622 2 -4 -6 -4 3353.38 3814.59 121.27 o
2622 1 4 6 4 3353.38 3814.59 121.27 o
2623 3 -6 -6 4 3226.46 3456.07 195.08 o
2623 2 4 -6 4 3226.46 3456.07 195.08 o
2623 1 -4 6 -4 3226.46 3456.07 195.08 o
2624 3 7 -6 -4 1300.56 970.12 108.08 o
2624 2 -5 -6 -4 1300.56 970.12 108.08 o
2624 1 5 6 4 1300.56 970.12 108.08 o
2625 3 -7 -6 4 1179.13 688.05 345.34 <
2625 2 5 -6 4 1179.13 688.05 345.34 <
2625 1 -5 6 -4 1179.13 688.05 345.34 <
2626 3 8 -6 -4 1672.37 1270.65 144.99 o
2626 2 -6 -6 -4 1672.37 1270.65 144.99 o
2626 1 6 6 4 1672.37 1270.65 144.99 o
2627 3 -8 -6 4 1471.86 1268.02 392.80 o
2627 2 6 -6 4 1471.86 1268.02 392.80 o
2627 1 -6 6 -4 1471.86 1268.02 392.80 o
2628 3 9 -6 -4 5730.79 6197.73 152.90 o
2628 2 -7 -6 -4 5730.79 6197.73 152.90 o
2628 1 7 6 4 5730.79 6197.73 152.90 o
2629 3 -9 -6 4 5495.71 5876.11 231.99 o
2629 2 7 -6 4 5495.71 5876.11 231.99 o
2629 1 -7 6 -4 5495.71 5876.11 231.99 o
2630 3 10 -6 -4 54.59 -121.27 144.99 <
2630 2 -8 -6 -4 54.59 -121.27 144.99 <
2630 1 8 6 4 54.59 -121.27 144.99 <
2631 3 -10 -6 4 43.22 163.45 255.71 <
2631 2 8 -6 4 43.22 163.45 255.71 <
2631 1 -8 6 -4 43.22 163.45 255.71 <
2632 3 11 -6 -4 5100.10 5923.56 160.81 o
2632 2 -9 -6 -4 5100.10 5923.56 160.81 o
2632 1 9 6 4 5100.10 5923.56 160.81 o
2633 3 -11 -6 4 5072.38 5224.97 289.98 o
2633 2 9 -6 4 5072.38 5224.97 289.98 o
2633 1 -9 6 -4 5072.38 5224.97 289.98 o
2634 3 12 -6 -4 1370.85 1115.12 152.90 o
2634 2 -10 -6 -4 1370.85 1115.12 152.90 o
2634 1 10 6 4 1370.85 1115.12 152.90 o
2635 3 -12 -6 4 1305.60 917.40 210.90 o
2635 2 10 -6 4 1305.60 917.40 210.90 o
2635 1 -10 6 -4 1305.60 917.40 210.90 o
2636 3 13 -6 -4 802.88 479.79 163.45 o
2636 2 -11 -6 -4 802.88 479.79 163.45 o
2636 1 11 6 4 802.88 479.79 163.45 o
2637 3 -13 -6 4 736.66 168.72 229.35 <
2637 2 11 -6 4 736.66 168.72 229.35 <
2637 1 -11 6 -4 736.66 168.72 229.35 <
2638 3 14 -6 -4 4015.18 4167.85 184.54 o
2638 2 -12 -6 -4 4015.18 4167.85 184.54 o
2638 1 12 6 4 4015.18 4167.85 184.54 o
2639 3 -14 -6 4 3869.63 3680.15 213.53 o
2639 2 12 -6 4 3869.63 3680.15 213.53 o
2639 1 -12 6 -4 3869.63 3680.15 213.53 o
2640 3 15 -6 -4 71.68 179.26 189.81 <
2640 2 -13 -6 -4 71.68 179.26 189.81 <
2640 1 13 6 4 71.68 179.26 189.81 <
2641 3 -15 -6 4 64.52 195.08 216.17 <
2641 2 13 -6 4 64.52 195.08 216.17 <
2641 1 -13 6 -4 64.52 195.08 216.17 <
2642 3 -11 -7 -4 191.48 279.44 155.54 <
2642 2 13 -7 -4 191.48 279.44 155.54 <
2642 1 -13 7 4 191.48 279.44 155.54 <
2643 3 11 -7 4 173.31 619.51 239.90 o
2643 2 -13 -7 4 173.31 619.51 239.90 o
2643 1 13 7 -4 173.31 619.51 239.90 o
2644 3 -10 -7 -4 444.70 384.89 160.81 o
2644 2 12 -7 -4 444.70 384.89 160.81 o
2644 1 -12 7 4 444.70 384.89 160.81 o
2645 3 10 -7 4 452.72 -5.27 260.98 <
2645 2 -12 -7 4 452.72 -5.27 260.98 <
2645 1 12 7 -4 452.72 -5.27 260.98 <
2646 3 -9 -7 -4 231.77 231.99 155.54 <
2646 2 11 -7 -4 231.77 231.99 155.54 <
2646 1 -11 7 4 231.77 231.99 155.54 <
2647 3 9 -7 4 217.95 42.18 260.98 <
2647 2 -11 -7 4 217.95 42.18 260.98 <
2647 1 11 7 -4 217.95 42.18 260.98 <
2648 3 -8 -7 -4 60.31 21.09 147.63 <
2648 2 10 -7 -4 60.31 21.09 147.63 <
2648 1 -10 7 4 60.31 21.09 147.63 <
2649 3 8 -7 4 54.46 305.80 210.90 <
2649 2 -10 -7 4 54.46 305.80 210.90 <
2649 1 10 7 -4 54.46 305.80 210.90 <
2650 3 -7 -7 -4 73.46 -134.45 137.08 <
2650 2 9 -7 -4 73.46 -134.45 137.08 <
2650 1 -9 7 4 73.46 -134.45 137.08 <
2651 3 7 -7 4 84.42 -189.81 216.17 <
2651 2 -9 -7 4 84.42 -189.81 216.17 <
2651 1 9 7 -4 84.42 -189.81 216.17 <
2652 3 -6 -7 -4 566.38 614.24 134.45 o
2652 2 8 -7 -4 566.38 614.24 134.45 o
2652 1 -8 7 4 566.38 614.24 134.45 o
2653 3 6 -7 4 529.09 564.15 176.63 o
2653 2 -8 -7 4 529.09 564.15 176.63 o
2653 1 8 7 -4 529.09 564.15 176.63 o
2654 3 -5 -7 -4 1584.49 1426.19 137.08 o
2654 2 7 -7 -4 1584.49 1426.19 137.08 o
2654 1 -7 7 4 1584.49 1426.19 137.08 o
2655 3 5 -7 4 1589.24 1283.83 160.81 o
2655 2 -7 -7 4 1589.24 1283.83 160.81 o
2655 1 7 7 -4 1589.24 1283.83 160.81 o
2656 3 -4 -7 -4 161.43 158.17 115.99 <
2656 2 6 -7 -4 161.43 158.17 115.99 <
2656 1 -6 7 4 161.43 158.17 115.99 <
2657 3 4 -7 4 153.42 200.35 147.63 <
2657 2 -6 -7 4 153.42 200.35 147.63 <
2657 1 6 7 -4 153.42 200.35 147.63 <
2658 3 -3 -7 -4 164.19 321.62 160.81 <
2658 2 5 -7 -4 164.19 321.62 160.81 <
2658 1 -5 7 4 164.19 321.62 160.81 <
2659 3 3 -7 4 152.63 390.16 166.08 o
2659 2 -5 -7 4 152.63 390.16 166.08 o
2659 1 5 7 -4 152.63 390.16 166.08 o
2660 3 -2 -7 -4 93.80 134.45 158.17 <
2660 2 4 -7 -4 93.80 134.45 158.17 <
2660 1 -4 7 4 93.80 134.45 158.17 <
2661 3 2 -7 4 95.10 108.08 171.35 <
2661 2 -4 -7 4 95.10 108.08 171.35 <
2661 1 4 7 -4 95.10 108.08 171.35 <
2662 3 -1 -7 -4 212.20 263.62 108.08 o
2662 2 3 -7 -4 212.20 263.62 108.08 o
2662 1 -3 7 4 212.20 263.62 108.08 o
2663 3 1 -7 4 202.22 237.26 163.45 <
2663 2 -3 -7 4 202.22 237.26 163.45 <
2663 1 3 7 -4 202.22 237.26 163.45 <
2664 3 0 -7 -4 843.06 666.96 108.08 o
2664 2 2 -7 -4 843.06 666.96 108.08 o
2664 1 -2 7 4 843.06 666.96 108.08 o
2665 3 0 -7 4 839.53 740.78 158.17 o
2665 2 -2 -7 4 839.53 740.78 158.17 o
2665 1 2 7 -4 839.53 740.78 158.17 o
2666 3 1 -7 -4 6.38 160.81 108.08 <
2666 2 1 -7 -4 6.38 160.81 108.08 <
2666 1 -1 7 4 6.38 160.81 108.08 <
2667 3 -1 -7 4 5.79 160.81 152.90 <
2667 2 -1 -7 4 5.79 160.81 152.90 <
2667 1 1 7 -4 5.79 160.81 152.90 <
2668 3 2 -7 -4 740.16 390.16 105.45 o
2668 2 0 -7 -4 740.16 390.16 105.45 o
2668 1 0 7 4 740.16 390.16 105.45 o
2669 3 -2 -7 4 742.10 419.16 163.45 o
2669 2 0 -7 4 742.10 419.16 163.45 o
2669 1 0 7 -4 742.10 419.16 163.45 o
2670 3 3 -7 -4 293.40 561.51 108.08 o
2670 2 -1 -7 -4 293.40 561.51 108.08 o
2670 1 1 7 4 293.40 561.51 108.08 o
2671 3 -3 -7 4 297.61 345.34 160.81 o
2671 2 1 -7 4 297.61 345.34 160.81 o
2671 1 -1 7 -4 297.61 345.34 160.81 o
2672 3 4 -7 -4 108.91 239.90 108.08 o
2672 2 -2 -7 -4 108.91 239.90 108.08 o
2672 1 2 7 4 108.91 239.90 108.08 o
2673 3 -4 -7 4 108.75 134.45 152.90 <
2673 2 2 -7 4 108.75 134.45 152.90 <
2673 1 -2 7 -4 108.75 134.45 152.90 <
2674 3 5 -7 -4 83.17 408.61 108.08 o
2674 2 -3 -7 -4 83.17 408.61 108.08 o
2674 1 3 7 4 83.17 408.61 108.08 o
2675 3 -5 -7 4 96.76 316.35 173.99 <
2675 2 3 -7 4 96.76 316.35 173.99 <
2675 1 -3 7 -4 96.76 316.35 173.99 <
2676 3 6 -7 -4 109.84 379.61 108.08 o
2676 2 -4 -7 -4 109.84 379.61 108.08 o
2676 1 4 7 4 109.84 379.61 108.08 o
2677 3 -6 -7 4 117.20 173.99 173.99 <
2677 2 4 -7 4 117.20 173.99 173.99 <
2677 1 -4 7 -4 117.20 173.99 173.99 <
2678 3 7 -7 -4 1174.82 840.95 113.36 o
2678 2 -5 -7 -4 1174.82 840.95 113.36 o
2678 1 5 7 4 1174.82 840.95 113.36 o
2679 3 -7 -7 4 1167.70 711.78 179.26 o
2679 2 5 -7 4 1167.70 711.78 179.26 o
2679 1 -5 7 -4 1167.70 711.78 179.26 o
2680 3 8 -7 -4 660.30 648.51 102.81 o
2680 2 -6 -7 -4 660.30 648.51 102.81 o
2680 1 6 7 4 660.30 648.51 102.81 o
2681 3 -8 -7 4 685.19 630.05 297.89 o
2681 2 6 -7 4 685.19 630.05 297.89 o
2681 1 -6 7 -4 685.19 630.05 297.89 o
2682 3 9 -7 -4 57.31 105.45 139.72 <
2682 2 -7 -7 -4 57.31 105.45 139.72 <
2682 1 7 7 4 57.31 105.45 139.72 <
2683 3 -9 -7 4 46.46 42.18 318.98 <
2683 2 7 -7 4 46.46 42.18 318.98 <
2683 1 -7 7 -4 46.46 42.18 318.98 <
2684 3 10 -7 -4 25.83 166.08 155.54 <
2684 2 -8 -7 -4 25.83 166.08 155.54 <
2684 1 8 7 4 25.83 166.08 155.54 <
2685 3 -10 -7 4 38.76 -71.18 376.98 <
2685 2 8 -7 4 38.76 -71.18 376.98 <
2685 1 -8 7 -4 38.76 -71.18 376.98 <
2686 3 11 -7 -4 134.81 168.72 144.99 <
2686 2 -9 -7 -4 134.81 168.72 144.99 <
2686 1 9 7 4 134.81 168.72 144.99 <
2687 3 -11 -7 4 150.79 192.44 258.35 <
2687 2 9 -7 4 150.79 192.44 258.35 <
2687 1 -9 7 -4 150.79 192.44 258.35 <
2688 3 12 -7 -4 304.10 303.16 166.08 <
2688 2 -10 -7 -4 304.10 303.16 166.08 <
2688 1 10 7 4 304.10 303.16 166.08 <
2689 3 -12 -7 4 296.51 100.18 289.98 <
2689 2 10 -7 4 296.51 100.18 289.98 <
2689 1 -10 7 -4 296.51 100.18 289.98 <
2690 3 13 -7 -4 179.30 94.90 160.81 <
2690 2 -11 -7 -4 179.30 94.90 160.81 <
2690 1 11 7 4 179.30 94.90 160.81 <
2691 3 -13 -7 4 189.24 39.54 250.44 <
2691 2 11 -7 4 189.24 39.54 250.44 <
2691 1 -11 7 -4 189.24 39.54 250.44 <
2692 3 -9 -8 -4 5540.44 6408.62 152.90 o
2692 2 11 -8 -4 5540.44 6408.62 152.90 o
2692 1 -11 8 4 5540.44 6408.62 152.90 o
2693 3 9 -8 4 5379.56 6985.95 234.62 o
2693 2 -11 -8 4 5379.56 6985.95 234.62 o
2693 1 11 8 -4 5379.56 6985.95 234.62 o
2694 3 -8 -8 -4 762.10 603.69 150.26 o
2694 2 10 -8 -4 762.10 603.69 150.26 o
2694 1 -10 8 4 762.10 603.69 150.26 o
2695 3 8 -8 4 775.43 682.78 197.72 o
2695 2 -10 -8 4 775.43 682.78 197.72 o
2695 1 10 8 -4 775.43 682.78 197.72 o
2696 3 -7 -8 -4 8681.17 8636.22 150.26 o
2696 2 9 -8 -4 8681.17 8636.22 150.26 o
2696 1 -9 8 4 8681.17 8636.22 150.26 o
2697 3 7 -8 4 8567.15 8783.85 202.99 o
2697 2 -9 -8 4 8567.15 8783.85 202.99 o
2697 1 9 8 -4 8567.15 8783.85 202.99 o
2698 3 -6 -8 -4 6816.33 6050.10 150.26 o
2698 2 8 -8 -4 6816.33 6050.10 150.26 o
2698 1 -8 8 4 6816.33 6050.10 150.26 o
2699 3 6 -8 4 6807.91 6234.63 205.62 o
2699 2 -8 -8 4 6807.91 6234.63 205.62 o
2699 1 8 8 -4 6807.91 6234.63 205.62 o
2700 3 -5 -8 -4 1538.20 624.78 171.35 o
2700 2 7 -8 -4 1538.20 624.78 171.35 o
2700 1 -7 8 4 1538.20 624.78 171.35 o
2701 3 5 -8 4 1504.17 400.70 192.44 o
2701 2 -7 -8 4 1504.17 400.70 192.44 o
2701 1 7 8 -4 1504.17 400.70 192.44 o
2702 3 -4 -8 -4 16411.20 19871.70 216.17 o
2702 2 6 -8 -4 16411.20 19871.70 216.17 o
2702 1 -6 8 4 16411.20 19871.70 216.17 o
2703 3 4 -8 4 16206.20 20857.70 166.08 o
2703 2 -6 -8 4 16206.20 20857.70 166.08 o
2703 1 6 8 -4 16206.20 20857.70 166.08 o
2704 3 -3 -8 -4 2111.61 1924.43 166.08 o
2704 2 5 -8 -4 2111.61 1924.43 166.08 o
2704 1 -5 8 4 2111.61 1924.43 166.08 o
2705 3 3 -8 4 2127.28 1481.55 171.35 o
2705 2 -5 -8 4 2127.28 1481.55 171.35 o
2705 1 5 8 -4 2127.28 1481.55 171.35 o
2706 3 -2 -8 -4 18525.30 18284.70 144.99 o
2706 2 4 -8 -4 18525.30 18284.70 144.99 o
2706 1 -4 8 4 18525.30 18284.70 144.99 o
2707 3 2 -8 4 18409.10 18200.40 216.17 o
2707 2 -4 -8 4 18409.10 18200.40 216.17 o
2707 1 4 8 -4 18409.10 18200.40 216.17 o
2708 3 -1 -8 -4 16940.30 17910.40 142.35 o
2708 2 3 -8 -4 16940.30 17910.40 142.35 o
2708 1 -3 8 4 16940.30 17910.40 142.35 o
2709 3 1 -8 4 17040.30 16623.90 205.62 o
2709 2 -3 -8 4 17040.30 16623.90 205.62 o
2709 1 3 8 -4 17040.30 16623.90 205.62 o
2710 3 0 -8 -4 2488.81 2027.24 126.54 o
2710 2 2 -8 -4 2488.81 2027.24 126.54 o
2710 1 -2 8 4 2488.81 2027.24 126.54 o
2711 3 0 -8 4 2473.32 1191.57 160.81 o
2711 2 -2 -8 4 2473.32 1191.57 160.81 o
2711 1 2 8 -4 2473.32 1191.57 160.81 o
2712 3 1 -8 -4 25353.70 31025.50 160.81 o
2712 2 1 -8 -4 25353.70 31025.50 160.81 o
2712 1 -1 8 4 25353.70 31025.50 160.81 o
2713 3 -1 -8 4 25389.60 29781.30 229.35 o
2713 2 -1 -8 4 25389.60 29781.30 229.35 o
2713 1 1 8 -4 25389.60 29781.30 229.35 o
2714 3 2 -8 -4 3261.38 2488.58 118.63 o
2714 2 0 -8 -4 3261.38 2488.58 118.63 o
2714 1 0 8 4 3261.38 2488.58 118.63 o
2715 3 -2 -8 4 3297.31 2536.03 160.81 o
2715 2 0 -8 4 3297.31 2536.03 160.81 o
2715 1 0 8 -4 3297.31 2536.03 160.81 o
2716 3 3 -8 -4 16673.20 17623.10 142.35 o
2716 2 -1 -8 -4 16673.20 17623.10 142.35 o
2716 1 1 8 4 16673.20 17623.10 142.35 o
2717 3 -3 -8 4 16660.10 15674.90 200.35 o
2717 2 1 -8 4 16660.10 15674.90 200.35 o
2717 1 -1 8 -4 16660.10 15674.90 200.35 o
2718 3 4 -8 -4 17588.20 17973.70 142.35 o
2718 2 -2 -8 -4 17588.20 17973.70 142.35 o
2718 1 2 8 4 17588.20 17973.70 142.35 o
2719 3 -4 -8 4 17866.30 16898.10 218.80 o
2719 2 2 -8 4 17866.30 16898.10 218.80 o
2719 1 -2 8 -4 17866.30 16898.10 218.80 o
2720 3 5 -8 -4 1542.00 1297.02 121.27 o
2720 2 -3 -8 -4 1542.00 1297.02 121.27 o
2720 1 3 8 4 1542.00 1297.02 121.27 o
2721 3 -5 -8 4 1511.34 817.22 160.81 o
2721 2 3 -8 4 1511.34 817.22 160.81 o
2721 1 -3 8 -4 1511.34 817.22 160.81 o
2722 3 6 -8 -4 15469.00 19797.90 150.26 o
2722 2 -4 -8 -4 15469.00 19797.90 150.26 o
2722 1 4 8 4 15469.00 19797.90 150.26 o
2723 3 -6 -8 4 15707.20 17978.90 210.90 o
2723 2 4 -8 4 15707.20 17978.90 210.90 o
2723 1 -4 8 -4 15707.20 17978.90 210.90 o
2724 3 7 -8 -4 1902.19 1133.57 118.63 o
2724 2 -5 -8 -4 1902.19 1133.57 118.63 o
2724 1 5 8 4 1902.19 1133.57 118.63 o
2725 3 -7 -8 4 1951.31 1159.93 179.26 o
2725 2 5 -8 4 1951.31 1159.93 179.26 o
2725 1 -5 8 -4 1951.31 1159.93 179.26 o
2726 3 8 -8 -4 6710.83 6274.18 139.72 o
2726 2 -6 -8 -4 6710.83 6274.18 139.72 o
2726 1 6 8 4 6710.83 6274.18 139.72 o
2727 3 -8 -8 4 6712.44 6152.91 202.99 o
2727 2 6 -8 4 6712.44 6152.91 202.99 o
2727 1 -6 8 -4 6712.44 6152.91 202.99 o
2728 3 9 -8 -4 7731.15 7030.77 139.72 o
2728 2 -7 -8 -4 7731.15 7030.77 139.72 o
2728 1 7 8 4 7731.15 7030.77 139.72 o
2729 3 -9 -8 4 7933.79 6229.36 342.71 o
2729 2 7 -8 4 7933.79 6229.36 342.71 o
2729 1 -7 8 -4 7933.79 6229.36 342.71 o
2730 3 10 -8 -4 525.18 492.97 118.63 o
2730 2 -8 -8 -4 525.18 492.97 118.63 o
2730 1 8 8 4 525.18 492.97 118.63 o
2731 3 -10 -8 4 504.95 -129.17 374.34 <
2731 2 8 -8 4 504.95 -129.17 374.34 <
2731 1 -8 8 -4 504.95 -129.17 374.34 <
2732 3 11 -8 -4 5040.96 6268.91 173.99 o
2732 2 -9 -8 -4 5040.96 6268.91 173.99 o
2732 1 9 8 4 5040.96 6268.91 173.99 o
2733 3 -11 -8 4 5222.92 5095.79 427.07 o
2733 2 9 -8 4 5222.92 5095.79 427.07 o
2733 1 -9 8 -4 5222.92 5095.79 427.07 o
2734 3 -6 -9 -4 290.59 108.08 187.17 <
2734 2 8 -9 -4 290.59 108.08 187.17 <
2734 1 -8 9 4 290.59 108.08 187.17 <
2735 3 6 -9 4 304.65 403.34 137.08 o
2735 2 -8 -9 4 304.65 403.34 137.08 o
2735 1 8 9 -4 304.65 403.34 137.08 o
2736 3 -5 -9 -4 313.06 26.36 176.63 <
2736 2 7 -9 -4 313.06 26.36 176.63 <
2736 1 -7 9 4 313.06 26.36 176.63 <
2737 3 5 -9 4 322.20 622.15 131.81 o
2737 2 -7 -9 4 322.20 622.15 131.81 o
2737 1 7 9 -4 322.20 622.15 131.81 o
2738 3 -4 -9 -4 27.82 -65.91 187.17 <
2738 2 6 -9 -4 27.82 -65.91 187.17 <
2738 1 -6 9 4 27.82 -65.91 187.17 <
2739 3 4 -9 4 29.15 305.80 166.08 <
2739 2 -6 -9 4 29.15 305.80 166.08 <
2739 1 6 9 -4 29.15 305.80 166.08 <
2740 3 -3 -9 -4 473.56 395.43 123.90 o
2740 2 5 -9 -4 473.56 395.43 123.90 o
2740 1 -5 9 4 473.56 395.43 123.90 o
2741 3 3 -9 4 491.38 345.34 158.17 o
2741 2 -5 -9 4 491.38 345.34 158.17 o
2741 1 5 9 -4 491.38 345.34 158.17 o
2742 3 -2 -9 -4 201.02 954.31 118.63 o
2742 2 4 -9 -4 201.02 954.31 118.63 o
2742 1 -4 9 4 201.02 954.31 118.63 o
2743 3 2 -9 4 200.72 529.88 176.63 o
2743 2 -4 -9 4 200.72 529.88 176.63 o
2743 1 4 9 -4 200.72 529.88 176.63 o
2744 3 -1 -9 -4 71.90 139.72 118.63 <
2744 2 3 -9 -4 71.90 139.72 118.63 <
2744 1 -3 9 4 71.90 139.72 118.63 <
2745 3 1 -9 4 73.89 168.72 168.72 <
2745 2 -3 -9 4 73.89 168.72 168.72 <
2745 1 3 9 -4 73.89 168.72 168.72 <
2746 3 0 -9 -4 201.77 250.44 115.99 o
2746 2 2 -9 -4 201.77 250.44 115.99 o
2746 1 -2 9 4 201.77 250.44 115.99 o
2747 3 0 -9 4 207.81 213.53 160.81 <
2747 2 -2 -9 4 207.81 213.53 160.81 <
2747 1 2 9 -4 207.81 213.53 160.81 <
2748 3 1 -9 -4 100.47 118.63 123.90 <
2748 2 1 -9 -4 100.47 118.63 123.90 <
2748 1 -1 9 4 100.47 118.63 123.90 <
2749 3 -1 -9 4 100.36 79.09 163.45 <
2749 2 -1 -9 4 100.36 79.09 163.45 <
2749 1 1 9 -4 100.36 79.09 163.45 <
2750 3 2 -9 -4 283.11 382.25 121.27 o
2750 2 0 -9 -4 283.11 382.25 121.27 o
2750 1 0 9 4 283.11 382.25 121.27 o
2751 3 -2 -9 4 279.09 450.79 166.08 o
2751 2 0 -9 4 279.09 450.79 166.08 o
2751 1 0 9 -4 279.09 450.79 166.08 o
2752 3 3 -9 -4 43.84 -29.00 113.36 <
2752 2 -1 -9 -4 43.84 -29.00 113.36 <
2752 1 1 9 4 43.84 -29.00 113.36 <
2753 3 -3 -9 4 43.24 47.45 160.81 <
2753 2 1 -9 4 43.24 47.45 160.81 <
2753 1 -1 9 -4 43.24 47.45 160.81 <
2754 3 4 -9 -4 244.33 487.70 123.90 o
2754 2 -2 -9 -4 244.33 487.70 123.90 o
2754 1 2 9 4 244.33 487.70 123.90 o
2755 3 -4 -9 4 244.64 448.16 171.35 o
2755 2 2 -9 4 244.64 448.16 171.35 o
2755 1 -2 9 -4 244.64 448.16 171.35 o
2756 3 5 -9 -4 619.67 701.23 121.27 o
2756 2 -3 -9 -4 619.67 701.23 121.27 o
2756 1 3 9 4 619.67 701.23 121.27 o
2757 3 -5 -9 4 606.63 366.43 173.99 o
2757 2 3 -9 4 606.63 366.43 173.99 o
2757 1 -3 9 -4 606.63 366.43 173.99 o
2758 3 6 -9 -4 34.60 347.98 121.27 o
2758 2 -4 -9 -4 34.60 347.98 121.27 o
2758 1 4 9 4 34.60 347.98 121.27 o
2759 3 -6 -9 4 34.94 76.45 187.17 <
2759 2 4 -9 4 34.94 76.45 187.17 <
2759 1 -4 9 -4 34.94 76.45 187.17 <
2760 3 7 -9 -4 444.45 751.32 126.54 o
2760 2 -5 -9 -4 444.45 751.32 126.54 o
2760 1 5 9 4 444.45 751.32 126.54 o
2761 3 -7 -9 4 434.81 630.05 187.17 o
2761 2 5 -9 4 434.81 630.05 187.17 o
2761 1 -5 9 -4 434.81 630.05 187.17 o
2762 3 8 -9 -4 254.24 279.44 131.81 o
2762 2 -6 -9 -4 254.24 279.44 131.81 o
2762 1 6 9 4 254.24 279.44 131.81 o
2763 3 -8 -9 4 242.90 392.80 184.54 o
2763 2 6 -9 4 242.90 392.80 184.54 o
2763 1 -6 9 -4 242.90 392.80 184.54 o
2764 3 0 -10 -4 227.09 139.72 131.81 <
2764 2 2 -10 -4 227.09 139.72 131.81 <
2764 1 -2 10 4 227.09 139.72 131.81 <
2765 3 0 -10 4 245.45 173.99 176.63 <
2765 2 -2 -10 4 245.45 173.99 176.63 <
2765 1 2 10 -4 245.45 173.99 176.63 <
2766 3 1 -10 -4 1654.67 2322.50 134.45 o
2766 2 1 -10 -4 1654.67 2322.50 134.45 o
2766 1 -1 10 4 1654.67 2322.50 134.45 o
2767 3 -1 -10 4 1604.28 2053.61 176.63 o
2767 2 -1 -10 4 1604.28 2053.61 176.63 o
2767 1 1 10 -4 1604.28 2053.61 176.63 o
2768 3 2 -10 -4 337.57 -68.54 129.17 <
2768 2 0 -10 -4 337.57 -68.54 129.17 <
2768 1 0 10 4 337.57 -68.54 129.17 <
2769 3 -2 -10 4 304.85 142.35 168.72 <
2769 2 0 -10 4 304.85 142.35 168.72 <
2769 1 0 10 -4 304.85 142.35 168.72 <
2770 2 18 -1 -5 244.99 129.17 213.53 <
2770 1 -18 1 5 244.99 129.17 213.53 <
2771 2 -18 -1 5 241.15 313.71 245.17 <
2771 1 18 1 -5 241.15 313.71 245.17 <
2772 2 17 -1 -5 2134.13 1339.19 221.44 o
2772 1 -17 1 5 2134.13 1339.19 221.44 o
2773 2 -17 -1 5 2111.63 2720.57 268.89 o
2773 1 17 1 -5 2111.63 2720.57 268.89 o
2774 2 16 -1 -5 3428.95 2066.79 245.17 o
2774 1 -16 1 5 3428.95 2066.79 245.17 o
2775 2 -16 -1 5 3438.07 3279.44 266.26 o
2775 1 16 1 -5 3438.07 3279.44 266.26 o
2776 2 15 -1 -5 84.02 326.89 247.80 <
2776 1 -15 1 5 84.02 326.89 247.80 <
2777 2 -15 -1 5 85.45 73.81 239.90 <
2777 1 15 1 -5 85.45 73.81 239.90 <
2778 2 14 -1 -5 2037.32 1637.09 245.17 o
2778 1 -14 1 5 2037.32 1637.09 245.17 o
2779 2 -14 -1 5 2100.46 2688.93 250.44 o
2779 1 14 1 -5 2100.46 2688.93 250.44 o
2780 2 13 -1 -5 1375.93 1241.65 239.90 o
2780 1 -13 1 5 1375.93 1241.65 239.90 o
2781 2 -13 -1 5 1356.39 833.04 234.62 o
2781 1 13 1 -5 1356.39 833.04 234.62 o
2782 2 12 -1 -5 5751.53 3943.77 237.26 o
2782 1 -12 1 5 5751.53 3943.77 237.26 o
2783 2 -12 -1 5 5682.91 5185.42 221.44 o
2783 1 12 1 -5 5682.91 5185.42 221.44 o
2784 2 11 -1 -5 12723.80 10402.50 255.71 o
2784 1 -11 1 5 12723.80 10402.50 255.71 o
2785 2 -11 -1 5 12689.70 12664.30 239.90 o
2785 1 11 1 -5 12689.70 12664.30 239.90 o
2786 2 10 -1 -5 184.50 213.53 255.71 <
2786 1 -10 1 5 184.50 213.53 255.71 <
2787 2 -10 -1 5 183.38 63.27 168.72 <
2787 1 10 1 -5 183.38 63.27 168.72 <
2788 2 9 -1 -5 4510.00 4608.09 311.07 o
2788 1 -9 1 5 4510.00 4608.09 311.07 o
2789 2 -9 -1 5 4736.41 4399.83 195.08 o
2789 1 9 1 -5 4736.41 4399.83 195.08 o
2790 2 8 -1 -5 4223.94 3126.54 355.89 o
2790 1 -8 1 5 4223.94 3126.54 355.89 o
2791 2 -8 -1 5 4162.77 3094.91 181.90 o
2791 1 8 1 -5 4162.77 3094.91 181.90 o
2792 2 7 -1 -5 8649.42 6954.32 332.16 o
2792 1 -7 1 5 8649.42 6954.32 332.16 o
2793 2 -7 -1 5 8525.65 7434.11 176.63 o
2793 1 7 1 -5 8525.65 7434.11 176.63 o
2794 2 6 -1 -5 28112.70 33350.70 347.98 o
2794 1 -6 1 5 28112.70 33350.70 347.98 o
2795 2 -6 -1 5 27870.30 29633.60 213.53 o
2795 1 6 1 -5 27870.30 29633.60 213.53 o
2796 2 5 -1 -5 188.45 287.35 231.99 <
2796 1 -5 1 5 188.45 287.35 231.99 <
2797 2 -5 -1 5 190.45 674.87 147.63 o
2797 1 5 1 -5 190.45 674.87 147.63 o
2798 2 4 -1 -5 6380.80 6904.23 260.98 o
2798 1 -4 1 5 6380.80 6904.23 260.98 o
2799 2 -4 -1 5 6887.52 6730.24 158.17 o
2799 1 4 1 -5 6887.52 6730.24 158.17 o
2800 2 3 -1 -5 6001.05 5646.76 229.35 o
2800 1 -3 1 5 6001.05 5646.76 229.35 o
2801 2 -3 -1 5 5983.70 4992.98 166.08 o
2801 1 3 1 -5 5983.70 4992.98 166.08 o
2802 2 2 -1 -5 6315.77 5572.95 229.35 o
2802 1 -2 1 5 6315.77 5572.95 229.35 o
2803 2 -2 -1 5 6283.69 4771.54 163.45 o
2803 1 2 1 -5 6283.69 4771.54 163.45 o
2804 2 1 -1 -5 41575.80 37974.60 202.99 o
2804 1 -1 1 5 41575.80 37974.60 202.99 o
2805 2 0 -1 -5 531.07 772.41 126.54 o
2805 1 0 1 5 531.07 772.41 126.54 o
2806 2 -1 -1 -5 5559.08 5456.95 139.72 o
2806 1 1 1 5 5559.08 5456.95 139.72 o
2807 2 -2 -1 -5 5819.82 4979.80 142.35 o
2807 1 2 1 5 5819.82 4979.80 142.35 o
2808 2 -3 -1 -5 2700.64 2296.14 242.53 o
2808 1 3 1 5 2700.64 2296.14 242.53 o
2809 2 -4 -1 -5 35854.00 40537.00 387.52 o
2809 1 4 1 5 35854.00 40537.00 387.52 o
2810 2 4 -1 5 35192.00 38509.70 247.80 o
2810 1 -4 1 -5 35192.00 38509.70 247.80 o
2811 2 -5 -1 -5 343.85 461.34 305.80 <
2811 1 5 1 5 343.85 461.34 305.80 <
2812 2 5 -1 5 396.91 651.14 158.17 o
2812 1 -5 1 -5 396.91 651.14 158.17 o
2813 2 -6 -1 -5 4723.66 6116.01 318.98 o
2813 1 6 1 5 4723.66 6116.01 318.98 o
2814 2 6 -1 5 4996.82 5169.61 155.54 o
2814 1 -6 1 -5 4996.82 5169.61 155.54 o
2815 2 -7 -1 -5 2694.26 1861.16 260.98 o
2815 1 7 1 5 2694.26 1861.16 260.98 o
2816 2 7 -1 5 2914.11 1905.98 150.26 o
2816 1 -7 1 -5 2914.11 1905.98 150.26 o
2817 2 -8 -1 -5 374.02 -58.00 245.17 <
2817 1 8 1 5 374.02 -58.00 245.17 <
2818 2 8 -1 5 428.45 213.53 139.72 <
2818 1 -8 1 -5 428.45 213.53 139.72 <
2819 2 -9 -1 -5 18317.60 22776.80 268.89 o
2819 1 9 1 5 18317.60 22776.80 268.89 o
2820 2 9 -1 5 17929.80 20847.10 226.71 o
2820 1 -9 1 -5 17929.80 20847.10 226.71 o
2821 2 -10 -1 -5 179.62 189.81 218.80 <
2821 1 10 1 5 179.62 189.81 218.80 <
2822 2 10 -1 5 202.58 229.35 187.17 <
2822 1 -10 1 -5 202.58 229.35 187.17 <
2823 2 -11 -1 -5 1949.08 2298.77 234.62 o
2823 1 11 1 5 1949.08 2298.77 234.62 o
2824 2 11 -1 5 2039.10 1876.98 216.17 o
2824 1 -11 1 -5 2039.10 1876.98 216.17 o
2825 2 -12 -1 -5 910.75 685.41 263.62 o
2825 1 12 1 5 910.75 685.41 263.62 o
2826 2 12 -1 5 1042.18 434.98 245.17 <
2826 1 -12 1 -5 1042.18 434.98 245.17 <
2827 2 -13 -1 -5 152.44 400.70 279.44 <
2827 1 13 1 5 152.44 400.70 279.44 <
2828 2 13 -1 5 184.09 123.90 266.26 <
2828 1 -13 1 -5 184.09 123.90 266.26 <
2829 2 -14 -1 -5 5242.40 6010.56 242.53 o
2829 1 14 1 5 5242.40 6010.56 242.53 o
2830 2 14 -1 5 5091.29 5193.33 311.07 o
2830 1 -14 1 -5 5091.29 5193.33 311.07 o
2831 2 -15 -1 -5 148.44 318.98 205.62 <
2831 1 15 1 5 148.44 318.98 205.62 <
2832 2 15 -1 5 151.48 300.53 274.17 <
2832 1 -15 1 -5 151.48 300.53 274.17 <
2833 2 17 -2 -5 7.59 29.00 242.53 <
2833 1 -17 2 5 7.59 29.00 242.53 <
2834 2 -17 -2 5 7.27 429.70 231.99 <
2834 1 17 2 -5 7.27 429.70 231.99 <
2835 2 16 -2 -5 110.88 347.98 234.62 <
2835 1 -16 2 5 110.88 347.98 234.62 <
2836 2 -16 -2 5 111.50 150.26 208.26 <
2836 1 16 2 -5 111.50 150.26 208.26 <
2837 2 15 -2 -5 12.84 245.17 202.99 <
2837 1 -15 2 5 12.84 245.17 202.99 <
2838 2 -15 -2 5 13.43 482.43 221.44 o
2838 1 15 2 -5 13.43 482.43 221.44 o
2839 2 14 -2 -5 1.90 160.81 208.26 <
2839 1 -14 2 5 1.90 160.81 208.26 <
2840 2 -14 -2 5 1.74 84.36 216.17 <
2840 1 14 2 -5 1.74 84.36 216.17 <
2841 2 13 -2 -5 574.95 247.80 216.17 <
2841 1 -13 2 5 574.95 247.80 216.17 <
2842 2 -13 -2 5 573.08 569.42 210.90 o
2842 1 13 2 -5 573.08 569.42 210.90 o
2843 2 12 -2 -5 9.97 487.70 216.17 o
2843 1 -12 2 5 9.97 487.70 216.17 o
2844 2 -12 -2 5 8.84 -300.53 234.62 <
2844 1 12 2 -5 8.84 -300.53 234.62 <
2845 2 11 -2 -5 145.38 144.99 218.80 <
2845 1 -11 2 5 145.38 144.99 218.80 <
2846 2 -11 -2 5 143.46 424.43 213.53 <
2846 1 11 2 -5 143.46 424.43 213.53 <
2847 2 10 -2 -5 52.00 253.08 229.35 <
2847 1 -10 2 5 52.00 253.08 229.35 <
2848 2 -10 -2 5 52.10 247.80 197.72 <
2848 1 10 2 -5 52.10 247.80 197.72 <
2849 2 9 -2 -5 51.83 -81.72 213.53 <
2849 1 -9 2 5 51.83 -81.72 213.53 <
2850 2 -9 -2 5 53.79 121.27 184.54 <
2850 1 9 2 -5 53.79 121.27 184.54 <
2851 2 8 -2 -5 2061.42 1629.18 242.53 o
2851 1 -8 2 5 2061.42 1629.18 242.53 o
2852 2 -8 -2 5 2060.64 2166.96 189.81 o
2852 1 8 2 -5 2060.64 2166.96 189.81 o
2853 2 7 -2 -5 8.19 105.45 313.71 <
2853 1 -7 2 5 8.19 105.45 313.71 <
2854 2 -7 -2 5 8.51 137.08 168.72 <
2854 1 7 2 -5 8.51 137.08 168.72 <
2855 2 6 -2 -5 180.09 76.45 400.70 <
2855 1 -6 2 5 180.09 76.45 400.70 <
2856 2 -6 -2 5 179.29 115.99 160.81 <
2856 1 6 2 -5 179.29 115.99 160.81 <
2857 2 5 -2 -5 388.60 366.43 345.34 <
2857 1 -5 2 5 388.60 366.43 345.34 <
2858 2 -5 -2 5 387.65 311.07 147.63 o
2858 1 5 2 -5 387.65 311.07 147.63 o
2859 2 4 -2 -5 357.97 60.63 318.98 <
2859 1 -4 2 5 357.97 60.63 318.98 <
2860 2 -4 -2 5 361.95 208.26 150.26 <
2860 1 4 2 -5 361.95 208.26 150.26 <
2861 2 3 -2 -5 1905.56 1389.28 287.35 o
2861 1 -3 2 5 1905.56 1389.28 287.35 o
2862 2 -3 -2 5 1904.78 1418.28 158.17 o
2862 1 3 2 -5 1904.78 1418.28 158.17 o
2863 2 2 -2 -5 168.57 -29.00 268.89 <
2863 1 -2 2 5 168.57 -29.00 268.89 <
2864 2 -2 -2 5 167.85 -50.09 184.54 <
2864 1 2 2 -5 167.85 -50.09 184.54 <
2865 2 1 -2 -5 122.18 -21.09 137.08 <
2865 1 -1 2 5 122.18 -21.09 137.08 <
2866 2 0 -2 -5 2292.45 2565.03 134.45 o
2866 1 0 2 5 2292.45 2565.03 134.45 o
2867 2 -1 -2 -5 153.04 121.27 115.99 <
2867 1 1 2 5 153.04 121.27 115.99 <
2868 2 -2 -2 -5 482.43 448.16 129.17 o
2868 1 2 2 5 482.43 448.16 129.17 o
2869 2 -3 -2 -5 203.70 -7.91 181.90 <
2869 1 3 2 5 203.70 -7.91 181.90 <
2870 2 -4 -2 -5 193.88 113.36 266.26 <
2870 1 4 2 5 193.88 113.36 266.26 <
2871 2 4 -2 5 200.51 305.80 166.08 <
2871 1 -4 2 -5 200.51 305.80 166.08 <
2872 2 -5 -2 -5 2103.05 2470.13 313.71 o
2872 1 5 2 5 2103.05 2470.13 313.71 o
2873 2 5 -2 5 2110.15 2008.79 158.17 o
2873 1 -5 2 -5 2110.15 2008.79 158.17 o
2874 2 -6 -2 -5 32.79 -76.45 332.16 <
2874 1 6 2 5 32.79 -76.45 332.16 <
2875 2 6 -2 5 33.77 10.54 168.72 <
2875 1 -6 2 -5 33.77 10.54 168.72 <
2876 2 -7 -2 -5 69.54 36.91 384.89 <
2876 1 7 2 5 69.54 36.91 384.89 <
2877 2 7 -2 5 67.36 58.00 168.72 <
2877 1 -7 2 -5 67.36 58.00 168.72 <
2878 2 -8 -2 -5 335.13 155.54 292.62 <
2878 1 8 2 5 335.13 155.54 292.62 <
2879 2 8 -2 5 327.21 216.17 173.99 <
2879 1 -8 2 -5 327.21 216.17 173.99 <
2880 2 -9 -2 -5 228.04 619.51 250.44 o
2880 1 9 2 5 228.04 619.51 250.44 o
2881 2 9 -2 5 231.45 234.62 192.44 <
2881 1 -9 2 -5 231.45 234.62 192.44 <
2882 2 -10 -2 -5 489.44 155.54 242.53 <
2882 1 10 2 5 489.44 155.54 242.53 <
2883 2 10 -2 5 492.57 266.26 213.53 <
2883 1 -10 2 -5 492.57 266.26 213.53 <
2884 2 -11 -2 -5 90.23 519.33 245.17 o
2884 1 11 2 5 90.23 519.33 245.17 o
2885 2 11 -2 5 93.21 392.80 200.35 <
2885 1 -11 2 -5 93.21 392.80 200.35 <
2886 2 -12 -2 -5 24.09 121.27 229.35 <
2886 1 12 2 5 24.09 121.27 229.35 <
2887 2 12 -2 5 22.66 23.73 250.44 <
2887 1 -12 2 -5 22.66 23.73 250.44 <
2888 2 -13 -2 -5 305.06 94.90 237.26 <
2888 1 13 2 5 305.06 94.90 237.26 <
2889 2 13 -2 5 299.38 640.60 250.44 o
2889 1 -13 2 -5 299.38 640.60 250.44 o
2890 2 -14 -2 -5 42.41 150.26 287.35 <
2890 1 14 2 5 42.41 150.26 287.35 <
2891 2 14 -2 5 43.30 163.45 224.08 <
2891 1 -14 2 -5 43.30 163.45 224.08 <
2892 2 -15 -2 -5 32.12 168.72 260.98 <
2892 1 15 2 5 32.12 168.72 260.98 <
2893 2 15 -2 5 33.27 392.80 253.08 <
2893 1 -15 2 -5 33.27 392.80 253.08 <
2894 2 17 -3 -5 1030.00 590.51 237.26 o
2894 1 -17 3 5 1030.00 590.51 237.26 o
2895 2 -17 -3 5 1009.11 345.34 213.53 <
2895 1 17 3 -5 1009.11 345.34 213.53 <
2896 2 16 -3 -5 3570.93 2214.42 221.44 o
2896 1 -16 3 5 3570.93 2214.42 221.44 o
2897 2 -16 -3 5 3567.85 3656.42 197.72 o
2897 1 16 3 -5 3567.85 3656.42 197.72 o
2898 2 15 -3 -5 131.69 -260.98 205.62 <
2898 1 -15 3 5 131.69 -260.98 205.62 <
2899 2 -15 -3 5 127.43 102.81 181.90 <
2899 1 15 3 -5 127.43 102.81 181.90 <
2900 2 14 -3 -5 2368.82 1992.97 205.62 o
2900 1 -14 3 5 2368.82 1992.97 205.62 o
2901 2 -14 -3 5 2424.75 2860.29 192.44 o
2901 1 14 3 -5 2424.75 2860.29 192.44 o
2902 2 13 -3 -5 1667.59 1159.93 210.90 o
2902 1 -13 3 5 1667.59 1159.93 210.90 o
2903 2 -13 -3 5 1635.49 1716.17 213.53 o
2903 1 13 3 -5 1635.49 1716.17 213.53 o
2904 2 12 -3 -5 2813.27 2367.32 260.98 o
2904 1 -12 3 5 2813.27 2367.32 260.98 o
2905 2 -12 -3 5 2787.08 2219.69 202.99 o
2905 1 12 3 -5 2787.08 2219.69 202.99 o
2906 2 11 -3 -5 14627.30 14425.30 300.53 o
2906 1 -11 3 5 14627.30 14425.30 300.53 o
2907 2 -11 -3 5 14579.90 17401.60 287.35 o
2907 1 11 3 -5 14579.90 17401.60 287.35 o
2908 2 10 -3 -5 311.98 556.24 284.71 <
2908 1 -10 3 5 311.98 556.24 284.71 <
2909 2 -10 -3 5 304.91 -416.52 287.35 <
2909 1 10 3 -5 304.91 -416.52 287.35 <
2910 2 9 -3 -5 9547.47 11586.10 276.80 o
2910 1 -9 3 5 9547.47 11586.10 276.80 o
2911 2 -9 -3 5 9712.42 12195.10 289.98 o
2911 1 9 3 -5 9712.42 12195.10 289.98 o
2912 2 8 -3 -5 5046.50 3403.35 229.35 o
2912 1 -8 3 5 5046.50 3403.35 229.35 o
2913 2 -8 -3 5 4998.06 4062.40 213.53 o
2913 1 8 3 -5 4998.06 4062.40 213.53 o
2914 2 7 -3 -5 7292.15 6862.05 195.08 o
2914 1 -7 3 5 7292.15 6862.05 195.08 o
2915 2 -7 -3 5 7296.89 6232.00 202.99 o
2915 1 7 3 -5 7296.89 6232.00 202.99 o
2916 2 6 -3 -5 38841.70 42804.10 308.44 o
2916 1 -6 3 5 38841.70 42804.10 308.44 o
2917 2 -6 -3 5 38712.10 37001.80 292.62 o
2917 1 6 3 -5 38712.10 37001.80 292.62 o
2918 2 5 -3 -5 283.11 772.41 173.99 o
2918 1 -5 3 5 283.11 772.41 173.99 o
2919 2 -5 -3 5 286.24 811.95 171.35 o
2919 1 5 3 -5 286.24 811.95 171.35 o
2920 2 4 -3 -5 23875.40 29873.50 247.80 o
2920 1 -4 3 5 23875.40 29873.50 247.80 o
2921 2 -4 -3 5 24056.70 26789.20 250.44 o
2921 1 4 3 -5 24056.70 26789.20 250.44 o
2922 2 3 -3 -5 10607.20 8770.67 195.08 o
2922 1 -3 3 5 10607.20 8770.67 195.08 o
2923 2 -3 -3 5 10548.80 8467.50 200.35 o
2923 1 3 3 -5 10548.80 8467.50 200.35 o
2924 2 2 -3 -5 9326.48 7515.83 202.99 o
2924 1 -2 3 5 9326.48 7515.83 202.99 o
2925 2 -2 -3 5 9425.33 7937.63 197.72 o
2925 1 2 3 -5 9425.33 7937.63 197.72 o
2926 2 1 -3 -5 56364.30 57965.00 218.80 o
2926 1 -1 3 5 56364.30 57965.00 218.80 o
2927 2 0 -3 -5 24.63 1012.30 126.54 o
2927 1 0 3 5 24.63 1012.30 126.54 o
2928 2 -1 -3 -5 21450.10 23778.60 168.72 o
2928 1 1 3 5 21450.10 23778.60 168.72 o
2929 2 -2 -3 -5 9858.48 8667.86 142.35 o
2929 1 2 3 5 9858.48 8667.86 142.35 o
2930 2 -3 -3 -5 4634.59 3087.00 144.99 o
2930 1 3 3 5 4634.59 3087.00 144.99 o
2931 2 -4 -3 -5 33889.50 37571.30 334.80 o
2931 1 4 3 5 33889.50 37571.30 334.80 o
2932 2 4 -3 5 33518.90 36153.00 603.69 o
2932 1 -4 3 -5 33518.90 36153.00 603.69 o
2933 2 -5 -3 -5 215.89 682.78 181.90 o
2933 1 5 3 5 215.89 682.78 181.90 o
2934 2 5 -3 5 190.64 680.14 184.54 o
2934 1 -5 3 -5 190.64 680.14 184.54 o
2935 2 -6 -3 -5 8832.41 9287.37 205.62 o
2935 1 6 3 5 8832.41 9287.37 205.62 o
2936 2 6 -3 5 8909.43 9579.98 224.08 o
2936 1 -6 3 -5 8909.43 9579.98 224.08 o
2937 2 -7 -3 -5 3418.47 2949.92 208.26 o
2937 1 7 3 5 3418.47 2949.92 208.26 o
2938 2 7 -3 5 3424.41 2720.57 213.53 o
2938 1 -7 3 -5 3424.41 2720.57 213.53 o
2939 2 -8 -3 -5 1407.31 869.95 202.99 o
2939 1 8 3 5 1407.31 869.95 202.99 o
2940 2 8 -3 5 1469.94 856.77 224.08 o
2940 1 -8 3 -5 1469.94 856.77 224.08 o
2941 2 -9 -3 -5 11681.90 12630.10 266.26 o
2941 1 9 3 5 11681.90 12630.10 266.26 o
2942 2 9 -3 5 11504.60 14130.10 292.62 o
2942 1 -9 3 -5 11504.60 14130.10 292.62 o
2943 2 -10 -3 -5 104.93 160.81 242.53 <
2943 1 10 3 5 104.93 160.81 242.53 <
2944 2 10 -3 5 97.28 -39.54 250.44 <
2944 1 -10 3 -5 97.28 -39.54 250.44 <
2945 2 -11 -3 -5 2342.49 2430.58 295.26 o
2945 1 11 3 5 2342.49 2430.58 295.26 o
2946 2 11 -3 5 2381.71 2522.85 274.17 o
2946 1 -11 3 -5 2381.71 2522.85 274.17 o
2947 2 -12 -3 -5 904.84 780.32 303.16 o
2947 1 12 3 5 904.84 780.32 303.16 o
2948 2 12 -3 5 936.04 313.71 231.99 <
2948 1 -12 3 -5 936.04 313.71 231.99 <
2949 2 -13 -3 -5 210.96 482.43 242.53 <
2949 1 13 3 5 210.96 482.43 242.53 <
2950 2 13 -3 5 225.61 221.44 218.80 <
2950 1 -13 3 -5 225.61 221.44 218.80 <
2951 2 -14 -3 -5 3143.52 3461.34 287.35 o
2951 1 14 3 5 3143.52 3461.34 287.35 o
2952 2 14 -3 5 3070.47 2841.83 239.90 o
2952 1 -14 3 -5 3070.47 2841.83 239.90 o
2953 2 16 -4 -5 287.20 260.98 229.35 <
2953 1 -16 4 5 287.20 260.98 229.35 <
2954 2 -16 -4 5 288.77 376.98 181.90 o
2954 1 16 4 -5 288.77 376.98 181.90 o
2955 2 15 -4 -5 499.70 561.51 234.62 o
2955 1 -15 4 5 499.70 561.51 234.62 o
2956 2 -15 -4 5 500.01 268.89 181.90 <
2956 1 15 4 -5 500.01 268.89 181.90 <
2957 2 14 -4 -5 43.80 730.23 276.80 o
2957 1 -14 4 5 43.80 730.23 276.80 o
2958 2 -14 -4 5 46.48 268.89 181.90 <
2958 1 14 4 -5 46.48 268.89 181.90 <
2959 2 13 -4 -5 126.63 358.52 245.17 <
2959 1 -13 4 5 126.63 358.52 245.17 <
2960 2 -13 -4 5 129.29 81.72 176.63 <
2960 1 13 4 -5 129.29 81.72 176.63 <
2961 2 12 -4 -5 249.06 303.16 234.62 <
2961 1 -12 4 5 249.06 303.16 234.62 <
2962 2 -12 -4 5 243.30 353.25 181.90 <
2962 1 12 4 -5 243.30 353.25 181.90 <
2963 2 11 -4 -5 586.22 764.50 192.44 o
2963 1 -11 4 5 586.22 764.50 192.44 o
2964 2 -11 -4 5 587.93 1724.08 189.81 o
2964 1 11 4 -5 587.93 1724.08 189.81 o
2965 2 10 -4 -5 2088.19 1995.61 173.99 o
2965 1 -10 4 5 2088.19 1995.61 173.99 o
2966 2 -10 -4 5 2086.71 1987.70 221.44 o
2966 1 10 4 -5 2086.71 1987.70 221.44 o
2967 2 9 -4 -5 174.17 340.07 171.35 <
2967 1 -9 4 5 174.17 340.07 171.35 <
2968 2 -9 -4 5 179.27 84.36 234.62 <
2968 1 9 4 -5 179.27 84.36 234.62 <
2969 2 8 -4 -5 222.80 73.81 158.17 <
2969 1 -8 4 5 222.80 73.81 158.17 <
2970 2 -8 -4 5 228.02 374.34 268.89 <
2970 1 8 4 -5 228.02 374.34 268.89 <
2971 2 7 -4 -5 244.11 311.07 144.99 o
2971 1 -7 4 5 244.11 311.07 144.99 o
2972 2 -7 -4 5 241.18 379.61 295.26 <
2972 1 7 4 -5 241.18 379.61 295.26 <
2973 2 6 -4 -5 198.72 577.33 144.99 o
2973 1 -6 4 5 198.72 577.33 144.99 o
2974 2 -6 -4 5 199.18 500.88 282.07 <
2974 1 6 4 -5 199.18 500.88 282.07 <
2975 2 5 -4 -5 3291.39 2565.03 139.72 o
2975 1 -5 4 5 3291.39 2565.03 139.72 o
2976 2 -5 -4 5 3278.60 2393.68 258.35 o
2976 1 5 4 -5 3278.60 2393.68 258.35 o
2977 2 4 -4 -5 189.31 166.08 139.72 <
2977 1 -4 4 5 189.31 166.08 139.72 <
2978 2 -4 -4 5 188.43 192.44 250.44 <
2978 1 4 4 -5 188.43 192.44 250.44 <
2979 2 3 -4 -5 1129.85 780.32 158.17 o
2979 1 -3 4 5 1129.85 780.32 158.17 o
2980 2 -3 -4 5 1131.56 796.14 231.99 o
2980 1 3 4 -5 1131.56 796.14 231.99 o
2981 2 2 -4 -5 253.59 282.07 163.45 <
2981 1 -2 4 5 253.59 282.07 163.45 <
2982 2 1 -4 -5 174.99 200.35 121.27 <
2982 1 -1 4 5 174.99 200.35 121.27 <
2983 2 0 -4 -5 1075.45 516.70 113.36 o
2983 1 0 4 5 1075.45 516.70 113.36 o
2984 2 -1 -4 -5 609.97 313.71 123.90 o
2984 1 1 4 5 609.97 313.71 123.90 o
2985 2 -2 -4 -5 1671.86 1365.56 118.63 o
2985 1 2 4 5 1671.86 1365.56 118.63 o
2986 2 -3 -4 -5 2475.10 2514.94 121.27 o
2986 1 3 4 5 2475.10 2514.94 121.27 o
2987 2 -4 -4 -5 256.21 332.16 115.99 o
2987 1 4 4 5 256.21 332.16 115.99 o
2988 2 4 -4 5 259.98 115.99 474.52 <
2988 1 -4 4 -5 259.98 115.99 474.52 <
2989 2 -5 -4 -5 354.16 105.45 176.63 <
2989 1 5 4 5 354.16 105.45 176.63 <
2990 2 5 -4 5 367.34 129.17 437.61 <
2990 1 -5 4 -5 367.34 129.17 437.61 <
2991 2 -6 -4 -5 346.42 271.53 163.45 <
2991 1 6 4 5 346.42 271.53 163.45 <
2992 2 6 -4 5 340.06 168.72 250.44 <
2992 1 -6 4 -5 340.06 168.72 250.44 <
2993 2 -7 -4 -5 372.23 342.71 158.17 o
2993 1 7 4 5 372.23 342.71 158.17 o
2994 2 7 -4 5 376.22 268.89 274.17 <
2994 1 -7 4 -5 376.22 268.89 274.17 <
2995 2 -8 -4 -5 2089.51 2127.42 166.08 o
2995 1 8 4 5 2089.51 2127.42 166.08 o
2996 2 8 -4 5 2066.75 1734.63 268.89 o
2996 1 -8 4 -5 2066.75 1734.63 268.89 o
2997 2 -9 -4 -5 107.67 50.09 163.45 <
2997 1 9 4 5 107.67 50.09 163.45 <
2998 2 9 -4 5 112.54 79.09 268.89 <
2998 1 -9 4 -5 112.54 79.09 268.89 <
2999 2 -10 -4 -5 182.39 231.99 176.63 <
2999 1 10 4 5 182.39 231.99 176.63 <
3000 2 10 -4 5 193.74 129.17 237.26 <
3000 1 -10 4 -5 193.74 129.17 237.26 <
3001 2 -11 -4 -5 32.56 384.89 213.53 <
3001 1 11 4 5 32.56 384.89 213.53 <
3002 2 11 -4 5 33.15 102.81 216.17 <
3002 1 -11 4 -5 33.15 102.81 216.17 <
3003 2 -12 -4 -5 27.55 216.17 242.53 <
3003 1 12 4 5 27.55 216.17 242.53 <
3004 2 12 -4 5 29.80 76.45 208.26 <
3004 1 -12 4 -5 29.80 76.45 208.26 <
3005 2 -13 -4 -5 671.28 643.23 234.62 o
3005 1 13 4 5 671.28 643.23 234.62 o
3006 2 13 -4 5 659.39 263.62 221.44 <
3006 1 -13 4 -5 659.39 263.62 221.44 <
3007 2 -14 -4 -5 38.98 -60.63 311.07 <
3007 1 14 4 5 38.98 -60.63 311.07 <
3008 2 14 -4 5 41.21 195.08 210.90 <
3008 1 -14 4 -5 41.21 195.08 210.90 <
3009 2 15 -5 -5 518.57 239.90 260.98 <
3009 1 -15 5 5 518.57 239.90 260.98 <
3010 2 -15 -5 5 509.82 864.68 189.81 o
3010 1 15 5 -5 509.82 864.68 189.81 o
3011 2 14 -5 -5 2303.35 2298.77 231.99 o
3011 1 -14 5 5 2303.35 2298.77 231.99 o
3012 2 -14 -5 5 2370.85 2306.68 192.44 o
3012 1 14 5 -5 2370.85 2306.68 192.44 o
3013 2 13 -5 -5 322.71 266.26 218.80 <
3013 1 -13 5 5 322.71 266.26 218.80 <
3014 2 -13 -5 5 303.36 208.26 205.62 <
3014 1 13 5 -5 303.36 208.26 205.62 <
3015 2 12 -5 -5 929.12 229.35 189.81 <
3015 1 -12 5 5 929.12 229.35 189.81 <
3016 2 -12 -5 5 966.93 817.22 181.90 o
3016 1 12 5 -5 966.93 817.22 181.90 o
3017 2 11 -5 -5 5975.98 6893.69 189.81 o
3017 1 -11 5 5 5975.98 6893.69 189.81 o
3018 2 -11 -5 5 5925.91 7784.73 208.26 o
3018 1 11 5 -5 5925.91 7784.73 208.26 o
3019 2 10 -5 -5 357.87 593.15 152.90 o
3019 1 -10 5 5 357.87 593.15 152.90 o
3020 2 -10 -5 5 350.82 345.34 187.17 <
3020 1 10 5 -5 350.82 345.34 187.17 <
3021 2 9 -5 -5 4437.25 4811.08 168.72 o
3021 1 -9 5 5 4437.25 4811.08 168.72 o
3022 2 -9 -5 5 4494.13 5601.94 242.53 o
3022 1 9 5 -5 4494.13 5601.94 242.53 o
3023 2 8 -5 -5 590.82 231.99 152.90 <
3023 1 -8 5 5 590.82 231.99 152.90 <
3024 2 -8 -5 5 574.86 487.70 263.62 <
3024 1 8 5 -5 574.86 487.70 263.62 <
3025 2 7 -5 -5 532.23 313.71 142.35 o
3025 1 -7 5 5 532.23 313.71 142.35 o
3026 2 -7 -5 5 649.24 152.90 274.17 <
3026 1 7 5 -5 649.24 152.90 274.17 <
3027 2 6 -5 -5 7137.55 8984.20 158.17 o
3027 1 -6 5 5 7137.55 8984.20 158.17 o
3028 2 -6 -5 5 7027.89 9804.06 329.53 o
3028 1 6 5 -5 7027.89 9804.06 329.53 o
3029 2 5 -5 -5 32.17 13.18 139.72 <
3029 1 -5 5 5 32.17 13.18 139.72 <
3030 2 -5 -5 5 34.20 84.36 371.71 <
3030 1 5 5 -5 34.20 84.36 371.71 <
3031 2 4 -5 -5 3643.46 4123.03 142.35 o
3031 1 -4 5 5 3643.46 4123.03 142.35 o
3032 2 -4 -5 5 3695.41 4407.74 477.15 o
3032 1 4 5 -5 3695.41 4407.74 477.15 o
3033 2 3 -5 -5 669.84 543.06 155.54 o
3033 1 -3 5 5 669.84 543.06 155.54 o
3034 2 -3 -5 5 732.54 387.52 384.89 <
3034 1 3 5 -5 732.54 387.52 384.89 <
3035 2 2 -5 -5 342.33 205.62 110.72 <
3035 1 -2 5 5 342.33 205.62 110.72 <
3036 2 -2 -5 5 465.31 255.71 553.60 <
3036 1 2 5 -5 465.31 255.71 553.60 <
3037 2 1 -5 -5 5621.43 6529.89 121.27 o
3037 1 -1 5 5 5621.43 6529.89 121.27 o
3038 2 -1 -5 5 5683.25 6118.64 643.23 o
3038 1 1 5 -5 5683.25 6118.64 643.23 o
3039 2 0 -5 -5 221.39 274.17 113.36 o
3039 1 0 5 5 221.39 274.17 113.36 o
3040 2 -1 -5 -5 4062.90 4942.89 123.90 o
3040 1 1 5 5 4062.90 4942.89 123.90 o
3041 2 -2 -5 -5 1667.05 1075.57 121.27 o
3041 1 2 5 5 1667.05 1075.57 121.27 o
3042 2 -3 -5 -5 384.80 508.79 115.99 o
3042 1 3 5 5 384.80 508.79 115.99 o
3043 2 -4 -5 -5 6857.30 8164.34 131.81 o
3043 1 4 5 5 6857.30 8164.34 131.81 o
3044 2 4 -5 5 6950.20 6324.27 503.52 o
3044 1 -4 5 -5 6950.20 6324.27 503.52 o
3045 2 -5 -5 -5 578.67 545.70 123.90 o
3045 1 5 5 5 578.67 545.70 123.90 o
3046 2 5 -5 5 619.78 550.97 746.05 <
3046 1 -5 5 -5 619.78 550.97 746.05 <
3047 2 -6 -5 -5 3803.69 3996.49 163.45 o
3047 1 6 5 5 3803.69 3996.49 163.45 o
3048 2 6 -5 5 3716.61 3029.00 682.78 o
3048 1 -6 5 -5 3716.61 3029.00 682.78 o
3049 2 -7 -5 -5 2782.83 2201.23 160.81 o
3049 1 7 5 5 2782.83 2201.23 160.81 o
3050 2 7 -5 5 2869.33 1547.45 300.53 o
3050 1 -7 5 -5 2869.33 1547.45 300.53 o
3051 2 -8 -5 -5 272.71 316.35 158.17 <
3051 1 8 5 5 272.71 316.35 158.17 <
3052 2 8 -5 5 262.27 237.26 260.98 <
3052 1 -8 5 -5 262.27 237.26 260.98 <
3053 2 -9 -5 -5 4743.21 6147.64 187.17 o
3053 1 9 5 5 4743.21 6147.64 187.17 o
3054 2 9 -5 5 4766.41 5269.78 263.62 o
3054 1 -9 5 -5 4766.41 5269.78 263.62 o
3055 2 -10 -5 -5 470.35 458.70 166.08 o
3055 1 10 5 5 470.35 458.70 166.08 o
3056 2 10 -5 5 488.60 242.53 226.71 <
3056 1 -10 5 -5 488.60 242.53 226.71 <
3057 2 -11 -5 -5 1493.84 1344.47 192.44 o
3057 1 11 5 5 1493.84 1344.47 192.44 o
3058 2 11 -5 5 1482.87 914.77 208.26 o
3058 1 -11 5 -5 1482.87 914.77 208.26 o
3059 2 -12 -5 -5 1561.08 1210.02 202.99 o
3059 1 12 5 5 1561.08 1210.02 202.99 o
3060 2 12 -5 5 1566.08 1078.21 216.17 o
3060 1 -12 5 -5 1566.08 1078.21 216.17 o
3061 2 -13 -5 -5 85.36 181.90 213.53 <
3061 1 13 5 5 85.36 181.90 213.53 <
3062 2 13 -5 5 86.62 276.80 210.90 <
3062 1 -13 5 -5 86.62 276.80 210.90 <
3063 2 14 -6 -5 68.57 -168.72 181.90 <
3063 1 -14 6 5 68.57 -168.72 181.90 <
3064 2 -14 -6 5 72.73 579.97 208.26 o
3064 1 14 6 -5 72.73 579.97 208.26 o
3065 2 13 -6 -5 515.80 453.43 163.45 o
3065 1 -13 6 5 515.80 453.43 163.45 o
3066 2 -13 -6 5 516.96 374.34 189.81 <
3066 1 13 6 -5 516.96 374.34 189.81 <
3067 2 12 -6 -5 31.62 231.99 152.90 <
3067 1 -12 6 5 31.62 231.99 152.90 <
3068 2 -12 -6 5 29.07 -108.08 213.53 <
3068 1 12 6 -5 29.07 -108.08 213.53 <
3069 2 11 -6 -5 156.19 213.53 158.17 <
3069 1 -11 6 5 156.19 213.53 158.17 <
3070 2 -11 -6 5 151.06 305.80 195.08 <
3070 1 11 6 -5 151.06 305.80 195.08 <
3071 2 10 -6 -5 132.47 255.71 147.63 <
3071 1 -10 6 5 132.47 255.71 147.63 <
3072 2 -10 -6 5 127.76 158.17 224.08 <
3072 1 10 6 -5 127.76 158.17 224.08 <
3073 2 9 -6 -5 110.23 121.27 144.99 <
3073 1 -9 6 5 110.23 121.27 144.99 <
3074 2 -9 -6 5 114.94 266.26 245.17 <
3074 1 9 6 -5 114.94 266.26 245.17 <
3075 2 8 -6 -5 1007.80 935.85 126.54 o
3075 1 -8 6 5 1007.80 935.85 126.54 o
3076 2 -8 -6 5 1009.30 711.78 268.89 o
3076 1 8 6 -5 1009.30 711.78 268.89 o
3077 2 7 -6 -5 244.06 234.62 137.08 <
3077 1 -7 6 5 244.06 234.62 137.08 <
3078 2 -7 -6 5 248.10 574.69 318.98 <
3078 1 7 6 -5 248.10 574.69 318.98 <
3079 2 6 -6 -5 177.59 39.54 123.90 <
3079 1 -6 6 5 177.59 39.54 123.90 <
3080 2 -6 -6 5 176.82 432.34 347.98 <
3080 1 6 6 -5 176.82 432.34 347.98 <
3081 2 5 -6 -5 230.53 -15.82 134.45 <
3081 1 -5 6 5 230.53 -15.82 134.45 <
3082 2 -5 -6 5 227.06 192.44 384.89 <
3082 1 5 6 -5 227.06 192.44 384.89 <
3083 2 4 -6 -5 278.08 71.18 158.17 <
3083 1 -4 6 5 278.08 71.18 158.17 <
3084 2 -4 -6 5 280.14 163.45 247.80 <
3084 1 4 6 -5 280.14 163.45 247.80 <
3085 2 3 -6 -5 175.61 187.17 158.17 <
3085 1 -3 6 5 175.61 187.17 158.17 <
3086 2 -3 -6 5 177.26 168.72 345.34 <
3086 1 3 6 -5 177.26 168.72 345.34 <
3087 2 2 -6 -5 261.14 324.25 108.08 o
3087 1 -2 6 5 261.14 324.25 108.08 o
3088 2 -2 -6 5 259.95 131.81 345.34 <
3088 1 2 6 -5 259.95 131.81 345.34 <
3089 2 1 -6 -5 46.95 -60.63 108.08 <
3089 1 -1 6 5 46.95 -60.63 108.08 <
3090 2 -1 -6 5 48.93 29.00 337.43 <
3090 1 1 6 -5 48.93 29.00 337.43 <
3091 2 0 -6 -5 1377.93 1268.02 110.72 o
3091 1 0 6 5 1377.93 1268.02 110.72 o
3092 2 0 -6 5 1377.81 1014.94 347.98 o
3092 1 0 6 -5 1377.81 1014.94 347.98 o
3093 2 -1 -6 -5 87.01 274.17 113.36 o
3093 1 1 6 5 87.01 274.17 113.36 o
3094 2 1 -6 5 88.67 326.89 334.80 <
3094 1 -1 6 -5 88.67 326.89 334.80 <
3095 2 -2 -6 -5 39.92 213.53 113.36 <
3095 1 2 6 5 39.92 213.53 113.36 <
3096 2 2 -6 5 37.82 189.81 384.89 <
3096 1 -2 6 -5 37.82 189.81 384.89 <
3097 2 -3 -6 -5 72.83 266.26 108.08 o
3097 1 3 6 5 72.83 266.26 108.08 o
3098 2 3 -6 5 70.15 84.36 529.88 <
3098 1 -3 6 -5 70.15 84.36 529.88 <
3099 2 -4 -6 -5 35.49 -97.54 118.63 <
3099 1 4 6 5 35.49 -97.54 118.63 <
3100 2 4 -6 5 38.82 118.63 453.43 <
3100 1 -4 6 -5 38.82 118.63 453.43 <
3101 2 -5 -6 -5 1120.48 901.58 123.90 o
3101 1 5 6 5 1120.48 901.58 123.90 o
3102 2 5 -6 5 1125.89 1014.94 347.98 o
3102 1 -5 6 -5 1125.89 1014.94 347.98 o
3103 2 -6 -6 -5 174.04 260.98 108.08 o
3103 1 6 6 5 174.04 260.98 108.08 o
3104 2 6 -6 5 183.87 -495.61 532.51 <
3104 1 -6 6 -5 183.87 -495.61 532.51 <
3105 2 -7 -6 -5 43.56 -36.91 158.17 <
3105 1 7 6 5 43.56 -36.91 158.17 <
3106 2 7 -6 5 37.43 -55.36 506.15 <
3106 1 -7 6 -5 37.43 -55.36 506.15 <
3107 2 -8 -6 -5 16.68 -94.90 147.63 <
3107 1 8 6 5 16.68 -94.90 147.63 <
3108 2 8 -6 5 12.93 34.27 450.79 <
3108 1 -8 6 -5 12.93 34.27 450.79 <
3109 2 -9 -6 -5 93.68 -10.54 152.90 <
3109 1 9 6 5 93.68 -10.54 152.90 <
3110 2 9 -6 5 95.09 479.79 226.71 o
3110 1 -9 6 -5 95.09 479.79 226.71 o
3111 2 -10 -6 -5 178.78 202.99 166.08 <
3111 1 10 6 5 178.78 202.99 166.08 <
3112 2 10 -6 5 180.62 10.54 234.62 <
3112 1 -10 6 -5 180.62 10.54 234.62 <
3113 2 -11 -6 -5 67.81 -134.45 176.63 <
3113 1 11 6 5 67.81 -134.45 176.63 <
3114 2 11 -6 5 73.93 50.09 213.53 <
3114 1 -11 6 -5 73.93 50.09 213.53 <
3115 2 -12 -6 -5 30.91 -94.90 197.72 <
3115 1 12 6 5 30.91 -94.90 197.72 <
3116 2 12 -6 5 26.81 -216.17 213.53 <
3116 1 -12 6 -5 26.81 -216.17 213.53 <
3117 2 12 -7 -5 611.69 482.43 155.54 o
3117 1 -12 7 5 611.69 482.43 155.54 o
3118 2 -12 -7 5 619.09 672.23 237.26 o
3118 1 12 7 -5 619.09 672.23 237.26 o
3119 2 11 -7 -5 5596.03 6034.28 158.17 o
3119 1 -11 7 5 5596.03 6034.28 158.17 o
3120 2 -11 -7 5 5541.58 6664.34 274.17 o
3120 1 11 7 -5 5541.58 6664.34 274.17 o
3121 2 10 -7 -5 85.96 398.07 147.63 o
3121 1 -10 7 5 85.96 398.07 147.63 o
3122 2 -10 -7 5 80.14 601.06 260.98 o
3122 1 10 7 -5 80.14 601.06 260.98 o
3123 2 9 -7 -5 9122.23 9047.47 166.08 o
3123 1 -9 7 5 9122.23 9047.47 166.08 o
3124 2 -9 -7 5 9064.75 11638.90 326.89 o
3124 1 9 7 -5 9064.75 11638.90 326.89 o
3125 2 8 -7 -5 2095.36 1958.70 147.63 o
3125 1 -8 7 5 2095.36 1958.70 147.63 o
3126 2 -8 -7 5 2130.12 2014.06 308.44 o
3126 1 8 7 -5 2130.12 2014.06 308.44 o
3127 2 7 -7 -5 2964.27 2072.06 139.72 o
3127 1 -7 7 5 2964.27 2072.06 139.72 o
3128 2 -7 -7 5 2965.12 2723.20 292.62 o
3128 1 7 7 -5 2965.12 2723.20 292.62 o
3129 2 6 -7 -5 13894.70 15880.50 195.08 o
3129 1 -6 7 5 13894.70 15880.50 195.08 o
3130 2 -6 -7 5 13837.10 14891.90 308.44 o
3130 1 6 7 -5 13837.10 14891.90 308.44 o
3131 2 5 -7 -5 35.77 569.42 163.45 o
3131 1 -5 7 5 35.77 569.42 163.45 o
3132 2 -5 -7 5 37.41 666.96 179.26 o
3132 1 5 7 -5 37.41 666.96 179.26 o
3133 2 4 -7 -5 19368.60 21058.00 205.62 o
3133 1 -4 7 5 19368.60 21058.00 205.62 o
3134 2 -4 -7 5 19212.40 19492.10 300.53 o
3134 1 4 7 -5 19212.40 19492.10 300.53 o
3135 2 3 -7 -5 5767.95 5947.29 129.17 o
3135 1 -3 7 5 5767.95 5947.29 129.17 o
3136 2 -3 -7 5 5774.95 4542.19 263.62 o
3136 1 3 7 -5 5774.95 4542.19 263.62 o
3137 2 2 -7 -5 4886.00 3276.81 123.90 o
3137 1 -2 7 5 4886.00 3276.81 123.90 o
3138 2 -2 -7 5 4898.65 3184.54 237.26 o
3138 1 2 7 -5 4898.65 3184.54 237.26 o
3139 2 1 -7 -5 18134.70 22289.20 147.63 o
3139 1 -1 7 5 18134.70 22289.20 147.63 o
3140 2 -1 -7 5 18029.80 18092.30 324.25 o
3140 1 1 7 -5 18029.80 18092.30 324.25 o
3141 2 0 -7 -5 217.16 843.59 108.08 o
3141 1 0 7 5 217.16 843.59 108.08 o
3142 2 0 -7 5 211.47 608.96 231.99 o
3142 1 0 7 -5 211.47 608.96 231.99 o
3143 2 -1 -7 -5 16138.30 17446.40 139.72 o
3143 1 1 7 5 16138.30 17446.40 139.72 o
3144 2 1 -7 5 16022.80 16365.60 297.89 o
3144 1 -1 7 -5 16022.80 16365.60 297.89 o
3145 2 -2 -7 -5 5815.96 5462.23 118.63 o
3145 1 2 7 5 5815.96 5462.23 118.63 o
3146 2 2 -7 5 5728.48 5441.14 268.89 o
3146 1 -2 7 -5 5728.48 5441.14 268.89 o
3147 2 -3 -7 -5 2779.64 1600.18 118.63 o
3147 1 3 7 5 2779.64 1600.18 118.63 o
3148 2 3 -7 5 2838.90 1631.81 276.80 o
3148 1 -3 7 -5 2838.90 1631.81 276.80 o
3149 2 -4 -7 -5 9503.38 11098.40 137.08 o
3149 1 4 7 5 9503.38 11098.40 137.08 o
3150 2 4 -7 5 9487.23 11725.90 347.98 o
3150 1 -4 7 -5 9487.23 11725.90 347.98 o
3151 2 -5 -7 -5 323.75 384.89 118.63 o
3151 1 5 7 5 323.75 384.89 118.63 o
3152 2 5 -7 5 300.03 387.52 334.80 <
3152 1 -5 7 -5 300.03 387.52 334.80 <
3153 2 -6 -7 -5 6003.84 6946.41 142.35 o
3153 1 6 7 5 6003.84 6946.41 142.35 o
3154 2 6 -7 5 5994.53 5335.69 416.52 o
3154 1 -6 7 -5 5994.53 5335.69 416.52 o
3155 2 -7 -7 -5 2472.51 1592.27 139.72 o
3155 1 7 7 5 2472.51 1592.27 139.72 o
3156 2 7 -7 5 2421.80 627.42 611.60 <
3156 1 -7 7 -5 2421.80 627.42 611.60 <
3157 2 -8 -7 -5 1010.97 503.52 118.63 o
3157 1 8 7 5 1010.97 503.52 118.63 o
3158 2 8 -7 5 1034.01 100.18 506.15 <
3158 1 -8 7 -5 1034.01 100.18 506.15 <
3159 2 -9 -7 -5 2872.15 4399.83 181.90 o
3159 1 9 7 5 2872.15 4399.83 181.90 o
3160 2 9 -7 5 2899.06 1847.98 479.79 o
3160 1 -9 7 -5 2899.06 1847.98 479.79 o
3161 2 -10 -7 -5 91.05 181.90 171.35 <
3161 1 10 7 5 91.05 181.90 171.35 <
3162 2 10 -7 5 83.12 -237.26 419.16 <
3162 1 -10 7 -5 83.12 -237.26 419.16 <
3163 2 10 -8 -5 788.65 782.95 152.90 o
3163 1 -10 8 5 788.65 782.95 152.90 o
3164 2 -10 -8 5 784.99 885.77 279.44 o
3164 1 10 8 -5 784.99 885.77 279.44 o
3165 2 9 -8 -5 37.86 44.82 137.08 <
3165 1 -9 8 5 37.86 44.82 137.08 <
3166 2 -9 -8 5 40.58 -163.45 255.71 <
3166 1 9 8 -5 40.58 -163.45 255.71 <
3167 2 8 -8 -5 195.89 624.78 147.63 o
3167 1 -8 8 5 195.89 624.78 147.63 o
3168 2 -8 -8 5 199.63 946.40 274.17 o
3168 1 8 8 -5 199.63 946.40 274.17 o
3169 2 7 -8 -5 24.84 5.27 166.08 <
3169 1 -7 8 5 24.84 5.27 166.08 <
3170 2 -7 -8 5 24.56 -173.99 268.89 <
3170 1 7 8 -5 24.56 -173.99 268.89 <
3171 2 6 -8 -5 39.22 34.27 173.99 <
3171 1 -6 8 5 39.22 34.27 173.99 <
3172 2 -6 -8 5 39.56 405.98 242.53 <
3172 1 6 8 -5 39.56 405.98 242.53 <
3173 2 5 -8 -5 359.39 353.25 168.72 o
3173 1 -5 8 5 359.39 353.25 168.72 o
3174 2 -5 -8 5 357.01 173.99 231.99 <
3174 1 5 8 -5 357.01 173.99 231.99 <
3175 2 4 -8 -5 43.26 97.54 113.36 <
3175 1 -4 8 5 43.26 97.54 113.36 <
3176 2 -4 -8 5 42.21 23.73 213.53 <
3176 1 4 8 -5 42.21 23.73 213.53 <
3177 2 3 -8 -5 96.50 50.09 113.36 <
3177 1 -3 8 5 96.50 50.09 113.36 <
3178 2 -3 -8 5 97.13 137.08 221.44 <
3178 1 3 8 -5 97.13 137.08 221.44 <
3179 2 2 -8 -5 96.05 239.90 110.72 o
3179 1 -2 8 5 96.05 239.90 110.72 o
3180 2 -2 -8 5 95.17 363.80 205.62 <
3180 1 2 8 -5 95.17 363.80 205.62 <
3181 2 1 -8 -5 345.98 -44.82 118.63 <
3181 1 -1 8 5 345.98 -44.82 118.63 <
3182 2 -1 -8 5 347.26 176.63 224.08 <
3182 1 1 8 -5 347.26 176.63 224.08 <
3183 2 0 -8 -5 101.19 424.43 123.90 o
3183 1 0 8 5 101.19 424.43 123.90 o
3184 2 0 -8 5 100.95 379.61 226.71 <
3184 1 0 8 -5 100.95 379.61 226.71 <
3185 2 -1 -8 -5 108.69 118.63 115.99 <
3185 1 1 8 5 108.69 118.63 115.99 <
3186 2 1 -8 5 106.97 -42.18 202.99 <
3186 1 -1 8 -5 106.97 -42.18 202.99 <
3187 2 -2 -8 -5 488.91 131.81 113.36 <
3187 1 2 8 5 488.91 131.81 113.36 <
3188 2 2 -8 5 490.09 392.80 208.26 <
3188 1 -2 8 -5 490.09 392.80 208.26 <
3189 2 -3 -8 -5 673.43 1012.30 118.63 o
3189 1 3 8 5 673.43 1012.30 118.63 o
3190 2 3 -8 5 664.66 914.77 224.08 o
3190 1 -3 8 -5 664.66 914.77 224.08 o
3191 2 -4 -8 -5 131.01 -15.82 115.99 <
3191 1 4 8 5 131.01 -15.82 115.99 <
3192 2 4 -8 5 133.09 92.27 242.53 <
3192 1 -4 8 -5 133.09 92.27 242.53 <
3193 2 -5 -8 -5 397.00 516.70 123.90 o
3193 1 5 8 5 397.00 516.70 123.90 o
3194 2 5 -8 5 395.63 666.96 266.26 o
3194 1 -5 8 -5 395.63 666.96 266.26 o
3195 2 -6 -8 -5 99.01 287.35 129.17 o
3195 1 6 8 5 99.01 287.35 129.17 o
3196 2 6 -8 5 94.17 -39.54 316.35 <
3196 1 -6 8 -5 94.17 -39.54 316.35 <
3197 2 -7 -8 -5 254.65 371.71 129.17 o
3197 1 7 8 5 254.65 371.71 129.17 o
3198 2 7 -8 5 259.45 137.08 392.80 <
3198 1 -7 8 -5 259.45 137.08 392.80 <
3199 2 -8 -8 -5 420.87 411.25 142.35 o
3199 1 8 8 5 420.87 411.25 142.35 o
3200 2 8 -8 5 413.08 284.71 347.98 <
3200 1 -8 8 -5 413.08 284.71 347.98 <
3201 2 6 -9 -5 1144.80 2261.87 131.81 o
3201 1 -6 9 5 1144.80 2261.87 131.81 o
3202 2 -6 -9 5 1166.07 1550.09 255.71 o
3202 1 6 9 -5 1166.07 1550.09 255.71 o
3203 2 5 -9 -5 106.90 50.09 118.63 <
3203 1 -5 9 5 106.90 50.09 118.63 <
3204 2 -5 -9 5 107.18 -115.99 224.08 <
3204 1 5 9 -5 107.18 -115.99 224.08 <
3205 2 4 -9 -5 1335.17 1476.28 126.54 o
3205 1 -4 9 5 1335.17 1476.28 126.54 o
3206 2 -4 -9 5 1387.47 983.31 224.08 o
3206 1 4 9 -5 1387.47 983.31 224.08 o
3207 2 3 -9 -5 540.01 698.59 126.54 o
3207 1 -3 9 5 540.01 698.59 126.54 o
3208 2 -3 -9 5 547.20 514.06 226.71 o
3208 1 3 9 -5 547.20 514.06 226.71 o
3209 2 2 -9 -5 221.69 461.34 123.90 o
3209 1 -2 9 5 221.69 461.34 123.90 o
3210 2 -2 -9 5 264.94 195.08 224.08 <
3210 1 2 9 -5 264.94 195.08 224.08 <
3211 2 1 -9 -5 1159.18 2045.70 118.63 o
3211 1 -1 9 5 1159.18 2045.70 118.63 o
3212 2 -1 -9 5 1229.55 1473.64 218.80 o
3212 1 1 9 -5 1229.55 1473.64 218.80 o
3213 2 0 -9 -5 76.12 345.34 121.27 o
3213 1 0 9 5 76.12 345.34 121.27 o
3214 2 0 -9 5 80.33 123.90 210.90 <
3214 1 0 9 -5 80.33 123.90 210.90 <
3215 2 -1 -9 -5 1431.11 1613.36 123.90 o
3215 1 1 9 5 1431.11 1613.36 123.90 o
3216 2 1 -9 5 1431.30 1075.57 218.80 o
3216 1 -1 9 -5 1431.30 1075.57 218.80 o
3217 2 -2 -9 -5 969.96 582.60 126.54 o
3217 1 2 9 5 969.96 582.60 126.54 o
3218 2 2 -9 5 1006.43 698.59 226.71 o
3218 1 -2 9 -5 1006.43 698.59 226.71 o
3219 2 -3 -9 -5 228.16 79.09 134.45 <
3219 1 3 9 5 228.16 79.09 134.45 <
3220 2 3 -9 5 213.22 221.44 221.44 <
3220 1 -3 9 -5 213.22 221.44 221.44 <
3221 2 -4 -9 -5 1743.53 2240.78 129.17 o
3221 1 4 9 5 1743.53 2240.78 129.17 o
3222 2 4 -9 5 1772.43 1876.98 237.26 o
3222 1 -4 9 -5 1772.43 1876.98 237.26 o
3223 3 -14 0 -6 4778.28 4262.75 337.43 o
3223 2 17 0 -6 4778.28 4262.75 337.43 o
3223 1 -17 0 6 4778.28 4262.75 337.43 o
3224 3 14 0 6 4973.90 5214.42 434.98 o
3224 2 -17 0 6 4973.90 5214.42 434.98 o
3224 1 17 0 -6 4973.90 5214.42 434.98 o
3225 3 -13 0 -6 1603.14 1196.84 313.71 o
3225 2 16 0 -6 1603.14 1196.84 313.71 o
3225 1 -16 0 6 1603.14 1196.84 313.71 o
3226 3 13 0 6 1579.88 1336.56 379.61 o
3226 2 -16 0 6 1579.88 1336.56 379.61 o
3226 1 16 0 -6 1579.88 1336.56 379.61 o
3227 3 -12 0 -6 1371.80 1123.03 376.98 o
3227 2 15 0 -6 1371.80 1123.03 376.98 o
3227 1 -15 0 6 1371.80 1123.03 376.98 o
3228 3 12 0 6 1337.69 1220.56 324.25 o
3228 2 -15 0 6 1337.69 1220.56 324.25 o
3228 1 15 0 -6 1337.69 1220.56 324.25 o
3229 3 -11 0 -6 3599.14 3002.64 405.98 o
3229 2 14 0 -6 3599.14 3002.64 405.98 o
3229 1 -14 0 6 3599.14 3002.64 405.98 o
3230 3 11 0 6 3375.70 4128.30 292.62 o
3230 2 -14 0 6 3375.70 4128.30 292.62 o
3230 1 14 0 -6 3375.70 4128.30 292.62 o
3231 3 -10 0 -6 101.74 245.17 421.79 <
3231 2 13 0 -6 101.74 245.17 421.79 <
3231 1 -13 0 6 101.74 245.17 421.79 <
3232 3 10 0 6 118.03 139.72 247.80 <
3232 2 -13 0 6 118.03 139.72 247.80 <
3232 1 13 0 -6 118.03 139.72 247.80 <
3233 3 -9 0 -6 12777.70 14185.40 474.52 o
3233 2 12 0 -6 12777.70 14185.40 474.52 o
3233 1 -12 0 6 12777.70 14185.40 474.52 o
3234 3 9 0 6 13189.90 13170.50 271.53 o
3234 2 -12 0 6 13189.90 13170.50 271.53 o
3234 1 12 0 -6 13189.90 13170.50 271.53 o
3235 3 -8 0 -6 4122.10 4154.67 403.34 o
3235 2 11 0 -6 4122.10 4154.67 403.34 o
3235 1 -11 0 6 4122.10 4154.67 403.34 o
3236 3 8 0 6 4168.38 3964.86 266.26 o
3236 2 -11 0 6 4168.38 3964.86 266.26 o
3236 1 11 0 -6 4168.38 3964.86 266.26 o
3237 3 -7 0 -6 2928.26 3100.18 363.80 o
3237 2 10 0 -6 2928.26 3100.18 363.80 o
3237 1 -10 0 6 2928.26 3100.18 363.80 o
3238 3 7 0 6 2929.82 2514.94 213.53 o
3238 2 -10 0 6 2929.82 2514.94 213.53 o
3238 1 10 0 -6 2929.82 2514.94 213.53 o
3239 3 -6 0 -6 4251.84 4341.84 379.61 o
3239 2 9 0 -6 4251.84 4341.84 379.61 o
3239 1 -9 0 6 4251.84 4341.84 379.61 o
3240 3 6 0 6 3724.33 3885.77 205.62 o
3240 2 -9 0 6 3724.33 3885.77 205.62 o
3240 1 9 0 -6 3724.33 3885.77 205.62 o
3241 3 -5 0 -6 549.33 -47.45 358.52 <
3241 2 8 0 -6 549.33 -47.45 358.52 <
3241 1 -8 0 6 549.33 -47.45 358.52 <
3242 3 5 0 6 591.33 440.25 189.81 o
3242 2 -8 0 6 591.33 440.25 189.81 o
3242 1 8 0 -6 591.33 440.25 189.81 o
3243 3 -4 0 -6 12843.40 13616.00 305.80 o
3243 2 7 0 -6 12843.40 13616.00 305.80 o
3243 1 -7 0 6 12843.40 13616.00 305.80 o
3244 3 4 0 6 13187.00 13763.60 255.71 o
3244 2 -7 0 6 13187.00 13763.60 255.71 o
3244 1 7 0 -6 13187.00 13763.60 255.71 o
3245 3 -3 0 -6 5134.70 5248.69 300.53 o
3245 2 6 0 -6 5134.70 5248.69 300.53 o
3245 1 -6 0 6 5134.70 5248.69 300.53 o
3246 3 3 0 6 5402.04 5180.15 226.71 o
3246 2 -6 0 6 5402.04 5180.15 226.71 o
3246 1 6 0 -6 5402.04 5180.15 226.71 o
3247 3 -2 0 -6 1974.78 2420.04 231.99 o
3247 2 5 0 -6 1974.78 2420.04 231.99 o
3247 1 -5 0 6 1974.78 2420.04 231.99 o
3248 3 2 0 6 2150.10 2459.58 213.53 o
3248 2 -5 0 6 2150.10 2459.58 213.53 o
3248 1 5 0 -6 2150.10 2459.58 213.53 o
3249 3 -1 0 -6 1212.51 954.31 253.08 o
3249 2 4 0 -6 1212.51 954.31 253.08 o
3249 1 -4 0 6 1212.51 954.31 253.08 o
3250 3 1 0 6 660.18 962.22 200.35 o
3250 2 -4 0 6 660.18 962.22 200.35 o
3250 1 4 0 -6 660.18 962.22 200.35 o
3251 3 0 0 -6 906.53 666.96 229.35 o
3251 2 3 0 -6 906.53 666.96 229.35 o
3251 1 -3 0 6 906.53 666.96 229.35 o
3252 3 0 0 6 896.00 616.87 202.99 o
3252 2 -3 0 6 896.00 616.87 202.99 o
3252 1 3 0 -6 896.00 616.87 202.99 o
3253 3 1 0 -6 5141.58 5048.34 239.90 o
3253 2 2 0 -6 5141.58 5048.34 239.90 o
3253 1 -2 0 6 5141.58 5048.34 239.90 o
3254 3 2 0 -6 4802.50 4012.31 155.54 o
3254 2 1 0 -6 4802.50 4012.31 155.54 o
3254 1 -1 0 6 4802.50 4012.31 155.54 o
3255 3 3 0 -6 1148.40 970.12 152.90 o
3255 2 0 0 -6 1148.40 970.12 152.90 o
3255 1 0 0 6 1148.40 970.12 152.90 o
3256 3 4 0 -6 1220.13 1152.02 147.63 o
3256 2 -1 0 -6 1220.13 1152.02 147.63 o
3256 1 1 0 6 1220.13 1152.02 147.63 o
3257 3 5 0 -6 1416.79 1431.46 158.17 o
3257 2 -2 0 -6 1416.79 1431.46 158.17 o
3257 1 2 0 6 1416.79 1431.46 158.17 o
3258 3 6 0 -6 3682.68 3158.18 160.81 o
3258 2 -3 0 -6 3682.68 3158.18 160.81 o
3258 1 3 0 6 3682.68 3158.18 160.81 o
3259 3 7 0 -6 10448.40 10220.60 189.81 o
3259 2 -4 0 -6 10448.40 10220.60 189.81 o
3259 1 4 0 6 10448.40 10220.60 189.81 o
3260 3 8 0 -6 981.17 867.31 268.89 o
3260 2 -5 0 -6 981.17 867.31 268.89 o
3260 1 5 0 6 981.17 867.31 268.89 o
3261 3 -8 0 6 951.57 717.05 197.72 o
3261 2 5 0 6 951.57 717.05 197.72 o
3261 1 -5 0 -6 951.57 717.05 197.72 o
3262 3 9 0 -6 2646.07 2868.20 326.89 o
3262 2 -6 0 -6 2646.07 2868.20 326.89 o
3262 1 6 0 6 2646.07 2868.20 326.89 o
3263 3 -9 0 6 2720.40 2607.21 224.08 o
3263 2 6 0 6 2720.40 2607.21 224.08 o
3263 1 -6 0 -6 2720.40 2607.21 224.08 o
3264 3 10 0 -6 2352.68 2409.50 384.89 o
3264 2 -7 0 -6 2352.68 2409.50 384.89 o
3264 1 7 0 6 2352.68 2409.50 384.89 o
3265 3 -10 0 6 2339.81 1945.52 200.35 o
3265 2 7 0 6 2339.81 1945.52 200.35 o
3265 1 -7 0 -6 2339.81 1945.52 200.35 o
3266 3 11 0 -6 2687.10 2472.76 379.61 o
3266 2 -8 0 -6 2687.10 2472.76 379.61 o
3266 1 8 0 6 2687.10 2472.76 379.61 o
3267 3 -11 0 6 2621.17 2522.85 250.44 o
3267 2 8 0 6 2621.17 2522.85 250.44 o
3267 1 -8 0 -6 2621.17 2522.85 250.44 o
3268 3 12 0 -6 11923.00 12638.00 529.88 o
3268 2 -9 0 -6 11923.00 12638.00 529.88 o
3268 1 9 0 6 11923.00 12638.00 529.88 o
3269 3 -12 0 6 11803.30 10932.40 279.44 o
3269 2 9 0 6 11803.30 10932.40 279.44 o
3269 1 -9 0 -6 11803.30 10932.40 279.44 o
3270 3 13 0 -6 220.96 271.53 474.52 <
3270 2 -10 0 -6 220.96 271.53 474.52 <
3270 1 10 0 6 220.96 271.53 474.52 <
3271 3 -13 0 6 209.87 487.70 250.44 <
3271 2 10 0 6 209.87 487.70 250.44 <
3271 1 -10 0 -6 209.87 487.70 250.44 <
3272 3 14 0 -6 2460.06 1563.27 363.80 o
3272 2 -11 0 -6 2460.06 1563.27 363.80 o
3272 1 11 0 6 2460.06 1563.27 363.80 o
3273 3 -14 0 6 2507.33 2296.14 274.17 o
3273 2 11 0 6 2507.33 2296.14 274.17 o
3273 1 -11 0 -6 2507.33 2296.14 274.17 o
3274 3 15 0 -6 1253.00 371.71 405.98 <
3274 2 -12 0 -6 1253.00 371.71 405.98 <
3274 1 12 0 6 1253.00 371.71 405.98 <
3275 3 -15 0 6 1249.12 1307.56 292.62 o
3275 2 12 0 6 1249.12 1307.56 292.62 o
3275 1 -12 0 -6 1249.12 1307.56 292.62 o
3276 3 16 0 -6 919.04 210.90 311.07 <
3276 2 -13 0 -6 919.04 210.90 311.07 <
3276 1 13 0 6 919.04 210.90 311.07 <
3277 3 -16 0 6 912.74 506.15 326.89 <
3277 2 13 0 6 912.74 506.15 326.89 <
3277 1 -13 0 -6 912.74 506.15 326.89 <
3278 3 17 0 -6 4973.11 4721.45 311.07 o
3278 2 -14 0 -6 4973.11 4721.45 311.07 o
3278 1 14 0 6 4973.11 4721.45 311.07 o
3279 3 -17 0 6 4887.28 4637.09 353.25 o
3279 2 14 0 6 4887.28 4637.09 353.25 o
3279 1 -14 0 -6 4887.28 4637.09 353.25 o
3280 3 -14 -1 -6 54.83 226.71 221.44 <
3280 2 17 -1 -6 54.83 226.71 221.44 <
3280 1 -17 1 6 54.83 226.71 221.44 <
3281 3 14 -1 6 55.42 869.95 260.98 o
3281 2 -17 -1 6 55.42 869.95 260.98 o
3281 1 17 1 -6 55.42 869.95 260.98 o
3282 3 -13 -1 -6 22.85 2.64 239.90 <
3282 2 16 -1 -6 22.85 2.64 239.90 <
3282 1 -16 1 6 22.85 2.64 239.90 <
3283 3 13 -1 6 23.62 -208.26 263.62 <
3283 2 -16 -1 6 23.62 -208.26 263.62 <
3283 1 16 1 -6 23.62 -208.26 263.62 <
3284 3 -12 -1 -6 254.13 242.53 258.35 <
3284 2 15 -1 -6 254.13 242.53 258.35 <
3284 1 -15 1 6 254.13 242.53 258.35 <
3285 3 12 -1 6 256.51 398.07 239.90 <
3285 2 -15 -1 6 256.51 398.07 239.90 <
3285 1 15 1 -6 256.51 398.07 239.90 <
3286 3 -11 -1 -6 22.63 930.58 250.44 o
3286 2 14 -1 -6 22.63 930.58 250.44 o
3286 1 -14 1 6 22.63 930.58 250.44 o
3287 3 11 -1 6 21.08 73.81 205.62 <
3287 2 -14 -1 6 21.08 73.81 205.62 <
3287 1 14 1 -6 21.08 73.81 205.62 <
3288 3 -10 -1 -6 1059.02 374.34 226.71 <
3288 2 13 -1 -6 1059.02 374.34 226.71 <
3288 1 -13 1 6 1059.02 374.34 226.71 <
3289 3 10 -1 6 1056.37 830.41 189.81 o
3289 2 -13 -1 6 1056.37 830.41 189.81 o
3289 1 13 1 -6 1056.37 830.41 189.81 o
3290 3 -9 -1 -6 232.19 416.52 224.08 <
3290 2 12 -1 -6 232.19 416.52 224.08 <
3290 1 -12 1 6 232.19 416.52 224.08 <
3291 3 9 -1 6 232.55 284.71 195.08 <
3291 2 -12 -1 6 232.55 284.71 195.08 <
3291 1 12 1 -6 232.55 284.71 195.08 <
3292 3 -8 -1 -6 472.52 698.59 231.99 o
3292 2 11 -1 -6 472.52 698.59 231.99 o
3292 1 -11 1 6 472.52 698.59 231.99 o
3293 3 8 -1 6 470.03 213.53 176.63 <
3293 2 -11 -1 6 470.03 213.53 176.63 <
3293 1 11 1 -6 470.03 213.53 176.63 <
3294 3 -7 -1 -6 1803.98 1797.89 274.17 o
3294 2 10 -1 -6 1803.98 1797.89 274.17 o
3294 1 -10 1 6 1803.98 1797.89 274.17 o
3295 3 7 -1 6 1810.39 1945.52 152.90 o
3295 2 -10 -1 6 1810.39 1945.52 152.90 o
3295 1 10 1 -6 1810.39 1945.52 152.90 o
3296 3 -6 -1 -6 128.11 21.09 295.26 <
3296 2 9 -1 -6 128.11 21.09 295.26 <
3296 1 -9 1 6 128.11 21.09 295.26 <
3297 3 6 -1 6 124.02 345.34 150.26 o
3297 2 -9 -1 6 124.02 345.34 150.26 o
3297 1 9 1 -6 124.02 345.34 150.26 o
3298 3 -5 -1 -6 4788.17 4842.72 342.71 o
3298 2 8 -1 -6 4788.17 4842.72 342.71 o
3298 1 -8 1 6 4788.17 4842.72 342.71 o
3299 3 5 -1 6 4791.10 4634.46 142.35 o
3299 2 -8 -1 6 4791.10 4634.46 142.35 o
3299 1 8 1 -6 4791.10 4634.46 142.35 o
3300 3 -4 -1 -6 781.52 1191.57 300.53 o
3300 2 7 -1 -6 781.52 1191.57 300.53 o
3300 1 -7 1 6 781.52 1191.57 300.53 o
3301 3 4 -1 6 782.72 1112.48 144.99 o
3301 2 -7 -1 6 782.72 1112.48 144.99 o
3301 1 7 1 -6 782.72 1112.48 144.99 o
3302 3 -3 -1 -6 1309.96 740.78 268.89 o
3302 2 6 -1 -6 1309.96 740.78 268.89 o
3302 1 -6 1 6 1309.96 740.78 268.89 o
3303 3 3 -1 6 1305.04 1022.85 126.54 o
3303 2 -6 -1 6 1305.04 1022.85 126.54 o
3303 1 6 1 -6 1305.04 1022.85 126.54 o
3304 3 -2 -1 -6 3436.85 4157.30 255.71 o
3304 2 5 -1 -6 3436.85 4157.30 255.71 o
3304 1 -5 1 6 3436.85 4157.30 255.71 o
3305 3 2 -1 6 3443.39 3838.32 158.17 o
3305 2 -5 -1 6 3443.39 3838.32 158.17 o
3305 1 5 1 -6 3443.39 3838.32 158.17 o
3306 3 -1 -1 -6 27.85 163.45 218.80 <
3306 2 4 -1 -6 27.85 163.45 218.80 <
3306 1 -4 1 6 27.85 163.45 218.80 <
3307 3 1 -1 6 29.38 347.98 147.63 o
3307 2 -4 -1 6 29.38 347.98 147.63 o
3307 1 4 1 -6 29.38 347.98 147.63 o
3308 3 0 -1 -6 4462.33 4750.45 218.80 o
3308 2 3 -1 -6 4462.33 4750.45 218.80 o
3308 1 -3 1 6 4462.33 4750.45 218.80 o
3309 3 0 -1 6 4464.69 4484.19 150.26 o
3309 2 -3 -1 6 4464.69 4484.19 150.26 o
3309 1 3 1 -6 4464.69 4484.19 150.26 o
3310 3 1 -1 -6 654.95 1051.85 192.44 o
3310 2 2 -1 -6 654.95 1051.85 192.44 o
3310 1 -2 1 6 654.95 1051.85 192.44 o
3311 3 2 -1 -6 449.31 709.14 115.99 o
3311 2 1 -1 -6 449.31 709.14 115.99 o
3311 1 -1 1 6 449.31 709.14 115.99 o
3312 3 3 -1 -6 2270.89 2802.29 134.45 o
3312 2 0 -1 -6 2270.89 2802.29 134.45 o
3312 1 0 1 6 2270.89 2802.29 134.45 o
3313 3 4 -1 -6 47.61 311.07 126.54 o
3313 2 -1 -1 -6 47.61 311.07 126.54 o
3313 1 1 1 6 47.61 311.07 126.54 o
3314 3 5 -1 -6 2043.15 2058.88 137.08 o
3314 2 -2 -1 -6 2043.15 2058.88 137.08 o
3314 1 2 1 6 2043.15 2058.88 137.08 o
3315 3 6 -1 -6 797.62 751.32 139.72 o
3315 2 -3 -1 -6 797.62 751.32 139.72 o
3315 1 3 1 6 797.62 751.32 139.72 o
3316 3 7 -1 -6 385.32 569.42 163.45 o
3316 2 -4 -1 -6 385.32 569.42 163.45 o
3316 1 4 1 6 385.32 569.42 163.45 o
3317 3 8 -1 -6 3117.36 3160.81 321.62 o
3317 2 -5 -1 -6 3117.36 3160.81 321.62 o
3317 1 5 1 6 3117.36 3160.81 321.62 o
3318 3 -8 -1 6 3114.34 3419.16 163.45 o
3318 2 5 -1 6 3114.34 3419.16 163.45 o
3318 1 -5 1 -6 3114.34 3419.16 163.45 o
3319 3 9 -1 -6 186.28 -65.91 289.98 <
3319 2 -6 -1 -6 186.28 -65.91 289.98 <
3319 1 6 1 6 186.28 -65.91 289.98 <
3320 3 -9 -1 6 188.56 213.53 150.26 <
3320 2 6 -1 6 188.56 213.53 150.26 <
3320 1 -6 1 -6 188.56 213.53 150.26 <
3321 3 10 -1 -6 1007.30 983.31 274.17 o
3321 2 -7 -1 -6 1007.30 983.31 274.17 o
3321 1 7 1 6 1007.30 983.31 274.17 o
3322 3 -10 -1 6 1002.15 851.50 158.17 o
3322 2 7 -1 6 1002.15 851.50 158.17 o
3322 1 -7 1 -6 1002.15 851.50 158.17 o
3323 3 11 -1 -6 538.11 574.69 247.80 o
3323 2 -8 -1 -6 538.11 574.69 247.80 o
3323 1 8 1 6 538.11 574.69 247.80 o
3324 3 -11 -1 6 542.17 384.89 158.17 o
3324 2 8 -1 6 542.17 384.89 158.17 o
3324 1 -8 1 -6 542.17 384.89 158.17 o
3325 3 12 -1 -6 132.26 247.80 263.62 <
3325 2 -9 -1 -6 132.26 247.80 263.62 <
3325 1 9 1 6 132.26 247.80 263.62 <
3326 3 -12 -1 6 130.74 292.62 168.72 <
3326 2 9 -1 6 130.74 292.62 168.72 <
3326 1 -9 1 -6 130.74 292.62 168.72 <
3327 3 13 -1 -6 944.91 1020.21 247.80 o
3327 2 -10 -1 -6 944.91 1020.21 247.80 o
3327 1 10 1 6 944.91 1020.21 247.80 o
3328 3 -13 -1 6 946.20 724.96 166.08 o
3328 2 10 -1 6 946.20 724.96 166.08 o
3328 1 -10 1 -6 946.20 724.96 166.08 o
3329 3 14 -1 -6 44.93 242.53 253.08 <
3329 2 -11 -1 -6 44.93 242.53 253.08 <
3329 1 11 1 6 44.93 242.53 253.08 <
3330 3 -14 -1 6 45.74 429.70 197.72 o
3330 2 11 -1 6 45.74 429.70 197.72 o
3330 1 -11 1 -6 45.74 429.70 197.72 o
3331 3 15 -1 -6 149.76 44.82 274.17 <
3331 2 -12 -1 -6 149.76 44.82 274.17 <
3331 1 12 1 6 149.76 44.82 274.17 <
3332 3 -15 -1 6 147.62 284.71 197.72 <
3332 2 12 -1 6 147.62 284.71 197.72 <
3332 1 -12 1 -6 147.62 284.71 197.72 <
3333 3 16 -1 -6 41.28 448.16 247.80 <
3333 2 -13 -1 -6 41.28 448.16 247.80 <
3333 1 13 1 6 41.28 448.16 247.80 <
3334 3 -16 -1 6 41.01 321.62 231.99 <
3334 2 13 -1 6 41.01 321.62 231.99 <
3334 1 -13 1 -6 41.01 321.62 231.99 <
3335 3 17 -1 -6 37.21 477.15 255.71 <
3335 2 -14 -1 -6 37.21 477.15 255.71 <
3335 1 14 1 6 37.21 477.15 255.71 <
3336 3 -17 -1 6 36.03 202.99 253.08 <
3336 2 14 -1 6 36.03 202.99 253.08 <
3336 1 -14 1 -6 36.03 202.99 253.08 <
3337 3 -13 -2 -6 2185.95 1260.11 245.17 o
3337 2 16 -2 -6 2185.95 1260.11 245.17 o
3337 1 -16 2 6 2185.95 1260.11 245.17 o
3338 3 13 -2 6 2155.68 2594.03 245.17 o
3338 2 -16 -2 6 2155.68 2594.03 245.17 o
3338 1 16 2 -6 2155.68 2594.03 245.17 o
3339 3 -12 -2 -6 380.91 653.78 221.44 o
3339 2 15 -2 -6 380.91 653.78 221.44 o
3339 1 -15 2 6 380.91 653.78 221.44 o
3340 3 12 -2 6 363.91 213.53 234.62 <
3340 2 -15 -2 6 363.91 213.53 234.62 <
3340 1 15 2 -6 363.91 213.53 234.62 <
3341 3 -11 -2 -6 3581.44 4012.31 218.80 o
3341 2 14 -2 -6 3581.44 4012.31 218.80 o
3341 1 -14 2 6 3581.44 4012.31 218.80 o
3342 3 11 -2 6 3381.33 4576.46 250.44 o
3342 2 -14 -2 6 3381.33 4576.46 250.44 o
3342 1 14 2 -6 3381.33 4576.46 250.44 o
3343 3 -10 -2 -6 1379.06 1075.57 205.62 o
3343 2 13 -2 -6 1379.06 1075.57 205.62 o
3343 1 -13 2 6 1379.06 1075.57 205.62 o
3344 3 10 -2 6 1392.38 1386.65 239.90 o
3344 2 -13 -2 6 1392.38 1386.65 239.90 o
3344 1 13 2 -6 1392.38 1386.65 239.90 o
3345 3 -9 -2 -6 10343.80 10299.70 224.08 o
3345 2 12 -2 -6 10343.80 10299.70 224.08 o
3345 1 -12 2 6 10343.80 10299.70 224.08 o
3346 3 9 -2 6 10587.50 10041.30 218.80 o
3346 2 -12 -2 6 10587.50 10041.30 218.80 o
3346 1 12 2 -6 10587.50 10041.30 218.80 o
3347 3 -8 -2 -6 11353.00 10270.70 245.17 o
3347 2 11 -2 -6 11353.00 10270.70 245.17 o
3347 1 -11 2 6 11353.00 10270.70 245.17 o
3348 3 8 -2 6 11288.50 10692.50 202.99 o
3348 2 -11 -2 6 11288.50 10692.50 202.99 o
3348 1 11 2 -6 11288.50 10692.50 202.99 o
3349 3 -7 -2 -6 2053.76 1729.35 216.17 o
3349 2 10 -2 -6 2053.76 1729.35 216.17 o
3349 1 -10 2 6 2053.76 1729.35 216.17 o
3350 3 7 -2 6 2055.44 1647.63 160.81 o
3350 2 -10 -2 6 2055.44 1647.63 160.81 o
3350 1 10 2 -6 2055.44 1647.63 160.81 o
3351 3 -6 -2 -6 16770.90 18717.10 266.26 o
3351 2 9 -2 -6 16770.90 18717.10 266.26 o
3351 1 -9 2 6 16770.90 18717.10 266.26 o
3352 3 6 -2 6 16385.30 19344.50 202.99 o
3352 2 -9 -2 6 16385.30 19344.50 202.99 o
3352 1 9 2 -6 16385.30 19344.50 202.99 o
3353 3 -5 -2 -6 5112.16 4555.37 284.71 o
3353 2 8 -2 -6 5112.16 4555.37 284.71 o
3353 1 -8 2 6 5112.16 4555.37 284.71 o
3354 3 5 -2 6 5119.35 4832.17 155.54 o
3354 2 -8 -2 6 5119.35 4832.17 155.54 o
3354 1 8 2 -6 5119.35 4832.17 155.54 o
3355 3 -4 -2 -6 34671.00 40312.90 442.88 o
3355 2 7 -2 -6 34671.00 40312.90 442.88 o
3355 1 -7 2 6 34671.00 40312.90 442.88 o
3356 3 4 -2 6 35062.30 37447.40 231.99 o
3356 2 -7 -2 6 35062.30 37447.40 231.99 o
3356 1 7 2 -6 35062.30 37447.40 231.99 o
3357 3 -3 -2 -6 40828.20 39403.40 529.88 o
3357 2 6 -2 -6 40828.20 39403.40 529.88 o
3357 1 -6 2 6 40828.20 39403.40 529.88 o
3358 3 3 -2 6 40810.90 39999.20 226.71 o
3358 2 -6 -2 6 40810.90 39999.20 226.71 o
3358 1 6 2 -6 40810.90 39999.20 226.71 o
3359 3 -2 -2 -6 7660.48 5915.65 392.80 o
3359 2 5 -2 -6 7660.48 5915.65 392.80 o
3359 1 -5 2 6 7660.48 5915.65 392.80 o
3360 3 2 -2 6 7648.03 5156.43 163.45 o
3360 2 -5 -2 6 7648.03 5156.43 163.45 o
3360 1 5 2 -6 7648.03 5156.43 163.45 o
3361 3 -1 -2 -6 51463.00 62633.70 519.33 o
3361 2 4 -2 -6 51463.00 62633.70 519.33 o
3361 1 -4 2 6 51463.00 62633.70 519.33 o
3362 3 1 -2 6 51043.70 61394.70 287.35 o
3362 2 -4 -2 6 51043.70 61394.70 287.35 o
3362 1 4 2 -6 51043.70 61394.70 287.35 o
3363 3 0 -2 -6 11531.30 10739.90 355.89 o
3363 2 3 -2 -6 11531.30 10739.90 355.89 o
3363 1 -3 2 6 11531.30 10739.90 355.89 o
3364 3 0 -2 6 11536.50 10623.90 200.35 o
3364 2 -3 -2 6 11536.50 10623.90 200.35 o
3364 1 3 2 -6 11536.50 10623.90 200.35 o
3365 3 1 -2 -6 59828.90 52204.90 453.43 o
3365 2 2 -2 -6 59828.90 52204.90 453.43 o
3365 1 -2 2 6 59828.90 52204.90 453.43 o
3366 3 2 -2 -6 71963.30 73302.40 242.53 o
3366 2 1 -2 -6 71963.30 73302.40 242.53 o
3366 1 -1 2 6 71963.30 73302.40 242.53 o
3367 3 3 -2 -6 7793.55 6210.91 152.90 o
3367 2 0 -2 -6 7793.55 6210.91 152.90 o
3367 1 0 2 6 7793.55 6210.91 152.90 o
3368 3 4 -2 -6 54823.40 65317.40 242.53 o
3368 2 -1 -2 -6 54823.40 65317.40 242.53 o
3368 1 1 2 6 54823.40 65317.40 242.53 o
3369 3 5 -2 -6 11726.70 10104.60 150.26 o
3369 2 -2 -2 -6 11726.70 10104.60 150.26 o
3369 1 2 2 6 11726.70 10104.60 150.26 o
3370 3 6 -2 -6 34541.70 29609.90 189.81 o
3370 2 -3 -2 -6 34541.70 29609.90 189.81 o
3370 1 3 2 6 34541.70 29609.90 189.81 o
3371 3 7 -2 -6 45480.80 45118.70 287.35 o
3371 2 -4 -2 -6 45480.80 45118.70 287.35 o
3371 1 4 2 6 45480.80 45118.70 287.35 o
3372 3 8 -2 -6 3450.22 3282.08 350.62 o
3372 2 -5 -2 -6 3450.22 3282.08 350.62 o
3372 1 5 2 6 3450.22 3282.08 350.62 o
3373 3 -8 -2 6 3491.89 3163.45 292.62 o
3373 2 5 -2 6 3491.89 3163.45 292.62 o
3373 1 -5 2 -6 3491.89 3163.45 292.62 o
3374 3 9 -2 -6 18354.10 20449.10 421.79 o
3374 2 -6 -2 -6 18354.10 20449.10 421.79 o
3374 1 6 2 6 18354.10 20449.10 421.79 o
3375 3 -9 -2 6 18352.30 19407.80 216.17 o
3375 2 6 -2 6 18352.30 19407.80 216.17 o
3375 1 -6 2 -6 18352.30 19407.80 216.17 o
3376 3 10 -2 -6 3625.34 3637.97 390.16 o
3376 2 -7 -2 -6 3625.34 3637.97 390.16 o
3376 1 7 2 6 3625.34 3637.97 390.16 o
3377 3 -10 -2 6 3607.08 3129.18 166.08 o
3377 2 7 -2 6 3607.08 3129.18 166.08 o
3377 1 -7 2 -6 3607.08 3129.18 166.08 o
3378 3 11 -2 -6 9172.22 8823.39 321.62 o
3378 2 -8 -2 -6 9172.22 8823.39 321.62 o
3378 1 8 2 6 9172.22 8823.39 321.62 o
3379 3 -11 -2 6 9264.03 8164.34 179.26 o
3379 2 8 -2 6 9264.03 8164.34 179.26 o
3379 1 -8 2 -6 9264.03 8164.34 179.26 o
3380 3 12 -2 -6 13486.50 13742.60 292.62 o
3380 2 -9 -2 -6 13486.50 13742.60 292.62 o
3380 1 9 2 6 13486.50 13742.60 292.62 o
3381 3 -12 -2 6 13481.20 12854.20 205.62 o
3381 2 9 -2 6 13481.20 12854.20 205.62 o
3381 1 -9 2 -6 13481.20 12854.20 205.62 o
3382 3 13 -2 -6 1025.59 1094.03 250.44 o
3382 2 -10 -2 -6 1025.59 1094.03 250.44 o
3382 1 10 2 6 1025.59 1094.03 250.44 o
3383 3 -13 -2 6 1030.36 1007.03 181.90 o
3383 2 10 -2 6 1030.36 1007.03 181.90 o
3383 1 -10 2 -6 1030.36 1007.03 181.90 o
3384 3 14 -2 -6 3703.26 3674.88 245.17 o
3384 2 -11 -2 -6 3703.26 3674.88 245.17 o
3384 1 11 2 6 3703.26 3674.88 245.17 o
3385 3 -14 -2 6 3791.07 3482.43 208.26 o
3385 2 11 -2 6 3791.07 3482.43 208.26 o
3385 1 -11 2 -6 3791.07 3482.43 208.26 o
3386 3 15 -2 -6 574.55 487.70 245.17 <
3386 2 -12 -2 -6 574.55 487.70 245.17 <
3386 1 12 2 6 574.55 487.70 245.17 <
3387 3 -15 -2 6 572.92 308.44 210.90 <
3387 2 12 -2 6 572.92 308.44 210.90 <
3387 1 -12 2 -6 572.92 308.44 210.90 <
3388 3 16 -2 -6 1617.35 1254.84 263.62 o
3388 2 -13 -2 -6 1617.35 1254.84 263.62 o
3388 1 13 2 6 1617.35 1254.84 263.62 o
3389 3 -16 -2 6 1635.42 772.41 245.17 o
3389 2 13 -2 6 1635.42 772.41 245.17 o
3389 1 -13 2 -6 1635.42 772.41 245.17 o
3390 3 17 -2 -6 3293.61 2475.40 297.89 o
3390 2 -14 -2 -6 3293.61 2475.40 297.89 o
3390 1 14 2 6 3293.61 2475.40 297.89 o
3391 3 -17 -2 6 3278.56 2404.22 279.44 o
3391 2 14 -2 6 3278.56 2404.22 279.44 o
3391 1 -14 2 -6 3278.56 2404.22 279.44 o
3392 3 -13 -3 -6 490.33 748.68 234.62 o
3392 2 16 -3 -6 490.33 748.68 234.62 o
3392 1 -16 3 6 490.33 748.68 234.62 o
3393 3 13 -3 6 502.49 632.69 237.26 o
3393 2 -16 -3 6 502.49 632.69 237.26 o
3393 1 16 3 -6 502.49 632.69 237.26 o
3394 3 -12 -3 -6 397.89 181.90 242.53 <
3394 2 15 -3 -6 397.89 181.90 242.53 <
3394 1 -15 3 6 397.89 181.90 242.53 <
3395 3 12 -3 6 396.59 94.90 221.44 <
3395 2 -15 -3 6 396.59 94.90 221.44 <
3395 1 15 3 -6 396.59 94.90 221.44 <
3396 3 -11 -3 -6 79.52 666.96 216.17 o
3396 2 14 -3 -6 79.52 666.96 216.17 o
3396 1 -14 3 6 79.52 666.96 216.17 o
3397 3 11 -3 6 87.26 540.42 229.35 o
3397 2 -14 -3 6 87.26 540.42 229.35 o
3397 1 14 3 -6 87.26 540.42 229.35 o
3398 3 -10 -3 -6 257.60 324.25 218.80 <
3398 2 13 -3 -6 257.60 324.25 218.80 <
3398 1 -13 3 6 257.60 324.25 218.80 <
3399 3 10 -3 6 243.51 200.35 282.07 <
3399 2 -13 -3 6 243.51 200.35 282.07 <
3399 1 13 3 -6 243.51 200.35 282.07 <
3400 3 -9 -3 -6 680.35 329.53 245.17 <
3400 2 12 -3 -6 680.35 329.53 245.17 <
3400 1 -12 3 6 680.35 329.53 245.17 <
3401 3 9 -3 6 672.04 453.43 255.71 <
3401 2 -12 -3 6 672.04 453.43 255.71 <
3401 1 12 3 -6 672.04 453.43 255.71 <
3402 3 -8 -3 -6 2077.93 1639.72 340.07 o
3402 2 11 -3 -6 2077.93 1639.72 340.07 o
3402 1 -11 3 6 2077.93 1639.72 340.07 o
3403 3 8 -3 6 2099.37 1768.90 208.26 o
3403 2 -11 -3 6 2099.37 1768.90 208.26 o
3403 1 11 3 -6 2099.37 1768.90 208.26 o
3404 3 -7 -3 -6 2515.31 1571.18 305.80 o
3404 2 10 -3 -6 2515.31 1571.18 305.80 o
3404 1 -10 3 6 2515.31 1571.18 305.80 o
3405 3 7 -3 6 2509.24 2288.23 208.26 o
3405 2 -10 -3 6 2509.24 2288.23 208.26 o
3405 1 10 3 -6 2509.24 2288.23 208.26 o
3406 3 -6 -3 -6 329.91 334.80 260.98 <
3406 2 9 -3 -6 329.91 334.80 260.98 <
3406 1 -9 3 6 329.91 334.80 260.98 <
3407 3 6 -3 6 352.68 424.43 173.99 o
3407 2 -9 -3 6 352.68 424.43 173.99 o
3407 1 9 3 -6 352.68 424.43 173.99 o
3408 3 -5 -3 -6 1276.02 1405.10 226.71 o
3408 2 8 -3 -6 1276.02 1405.10 226.71 o
3408 1 -8 3 6 1276.02 1405.10 226.71 o
3409 3 5 -3 6 1261.88 1621.27 173.99 o
3409 2 -8 -3 6 1261.88 1621.27 173.99 o
3409 1 8 3 -6 1261.88 1621.27 173.99 o
3410 3 -4 -3 -6 1572.58 1457.82 202.99 o
3410 2 7 -3 -6 1572.58 1457.82 202.99 o
3410 1 -7 3 6 1572.58 1457.82 202.99 o
3411 3 4 -3 6 1561.74 1273.29 163.45 o
3411 2 -7 -3 6 1561.74 1273.29 163.45 o
3411 1 7 3 -6 1561.74 1273.29 163.45 o
3412 3 -3 -3 -6 2923.53 2596.67 200.35 o
3412 2 6 -3 -6 2923.53 2596.67 200.35 o
3412 1 -6 3 6 2923.53 2596.67 200.35 o
3413 3 3 -3 6 2924.25 2475.40 152.90 o
3413 2 -6 -3 6 2924.25 2475.40 152.90 o
3413 1 6 3 -6 2924.25 2475.40 152.90 o
3414 3 -2 -3 -6 4780.40 4645.00 179.26 o
3414 2 5 -3 -6 4780.40 4645.00 179.26 o
3414 1 -5 3 6 4780.40 4645.00 179.26 o
3415 3 2 -3 6 4783.49 4573.82 171.35 o
3415 2 -5 -3 6 4783.49 4573.82 171.35 o
3415 1 5 3 -6 4783.49 4573.82 171.35 o
3416 3 -1 -3 -6 209.74 115.99 176.63 <
3416 2 4 -3 -6 209.74 115.99 176.63 <
3416 1 -4 3 6 209.74 115.99 176.63 <
3417 3 1 -3 6 221.12 202.99 160.81 <
3417 2 -4 -3 6 221.12 202.99 160.81 <
3417 1 4 3 -6 221.12 202.99 160.81 <
3418 3 0 -3 -6 1004.61 901.58 179.26 o
3418 2 3 -3 -6 1004.61 901.58 179.26 o
3418 1 -3 3 6 1004.61 901.58 179.26 o
3419 3 0 -3 6 991.74 640.60 224.08 o
3419 2 -3 -3 6 991.74 640.60 224.08 o
3419 1 3 3 -6 991.74 640.60 224.08 o
3420 3 1 -3 -6 1055.33 1207.38 131.81 o
3420 2 2 -3 -6 1055.33 1207.38 131.81 o
3420 1 -2 3 6 1055.33 1207.38 131.81 o
3421 3 2 -3 -6 846.69 751.32 123.90 o
3421 2 1 -3 -6 846.69 751.32 123.90 o
3421 1 -1 3 6 846.69 751.32 123.90 o
3422 3 3 -3 -6 1477.17 1204.75 131.81 o
3422 2 0 -3 -6 1477.17 1204.75 131.81 o
3422 1 0 3 6 1477.17 1204.75 131.81 o
3423 3 4 -3 -6 296.51 358.52 142.35 o
3423 2 -1 -3 -6 296.51 358.52 142.35 o
3423 1 1 3 6 296.51 358.52 142.35 o
3424 3 5 -3 -6 3192.52 2731.11 134.45 o
3424 2 -2 -3 -6 3192.52 2731.11 134.45 o
3424 1 2 3 6 3192.52 2731.11 134.45 o
3425 3 6 -3 -6 1708.58 1471.00 118.63 o
3425 2 -3 -3 -6 1708.58 1471.00 118.63 o
3425 1 3 3 6 1708.58 1471.00 118.63 o
3426 3 7 -3 -6 760.69 645.87 139.72 o
3426 2 -4 -3 -6 760.69 645.87 139.72 o
3426 1 4 3 6 760.69 645.87 139.72 o
3427 3 8 -3 -6 1003.81 983.31 176.63 o
3427 2 -5 -3 -6 1003.81 983.31 176.63 o
3427 1 5 3 6 1003.81 983.31 176.63 o
3428 3 -8 -3 6 1003.96 798.77 361.16 o
3428 2 5 -3 6 1003.96 798.77 361.16 o
3428 1 -5 3 -6 1003.96 798.77 361.16 o
3429 3 9 -3 -6 627.45 524.61 208.26 o
3429 2 -6 -3 -6 627.45 524.61 208.26 o
3429 1 6 3 6 627.45 524.61 208.26 o
3430 3 -9 -3 6 615.08 490.33 284.71 <
3430 2 6 -3 6 615.08 490.33 284.71 <
3430 1 -6 3 -6 615.08 490.33 284.71 <
3431 3 10 -3 -6 2077.36 1502.64 202.99 o
3431 2 -7 -3 -6 2077.36 1502.64 202.99 o
3431 1 7 3 6 2077.36 1502.64 202.99 o
3432 3 -10 -3 6 2083.19 1787.35 173.99 o
3432 2 7 -3 6 2083.19 1787.35 173.99 o
3432 1 -7 3 -6 2083.19 1787.35 173.99 o
3433 3 11 -3 -6 1748.53 1621.27 221.44 o
3433 2 -8 -3 -6 1748.53 1621.27 221.44 o
3433 1 8 3 6 1748.53 1621.27 221.44 o
3434 3 -11 -3 6 1728.37 1692.45 181.90 o
3434 2 8 -3 6 1728.37 1692.45 181.90 o
3434 1 -8 3 -6 1728.37 1692.45 181.90 o
3435 3 12 -3 -6 385.77 115.99 245.17 <
3435 2 -9 -3 -6 385.77 115.99 245.17 <
3435 1 9 3 6 385.77 115.99 245.17 <
3436 3 -12 -3 6 397.75 200.35 179.26 <
3436 2 9 -3 6 397.75 200.35 179.26 <
3436 1 -9 3 -6 397.75 200.35 179.26 <
3437 3 13 -3 -6 317.55 200.35 239.90 <
3437 2 -10 -3 -6 317.55 200.35 239.90 <
3437 1 10 3 6 317.55 200.35 239.90 <
3438 3 -13 -3 6 323.06 189.81 197.72 <
3438 2 10 -3 6 323.06 189.81 197.72 <
3438 1 -10 3 -6 323.06 189.81 197.72 <
3439 3 14 -3 -6 147.69 685.41 295.26 o
3439 2 -11 -3 -6 147.69 685.41 295.26 o
3439 1 11 3 6 147.69 685.41 295.26 o
3440 3 -14 -3 6 144.26 442.88 210.90 o
3440 2 11 -3 6 144.26 442.88 210.90 o
3440 1 -11 3 -6 144.26 442.88 210.90 o
3441 3 15 -3 -6 329.45 108.08 313.71 <
3441 2 -12 -3 -6 329.45 108.08 313.71 <
3441 1 12 3 6 329.45 108.08 313.71 <
3442 3 -15 -3 6 329.28 84.36 229.35 <
3442 2 12 -3 6 329.28 84.36 229.35 <
3442 1 -12 3 -6 329.28 84.36 229.35 <
3443 3 16 -3 -6 512.24 595.78 297.89 <
3443 2 -13 -3 -6 512.24 595.78 297.89 <
3443 1 13 3 6 512.24 595.78 297.89 <
3444 3 -16 -3 6 504.50 477.15 260.98 <
3444 2 13 -3 6 504.50 477.15 260.98 <
3444 1 -13 3 -6 504.50 477.15 260.98 <
3445 3 -12 -4 -6 1768.96 1818.98 271.53 o
3445 2 15 -4 -6 1768.96 1818.98 271.53 o
3445 1 -15 4 6 1768.96 1818.98 271.53 o
3446 3 12 -4 6 1751.47 1913.89 208.26 o
3446 2 -15 -4 6 1751.47 1913.89 208.26 o
3446 1 15 4 -6 1751.47 1913.89 208.26 o
3447 3 -11 -4 -6 2621.46 1850.62 300.53 o
3447 2 14 -4 -6 2621.46 1850.62 300.53 o
3447 1 -14 4 6 2621.46 1850.62 300.53 o
3448 3 11 -4 6 2667.18 2398.95 229.35 o
3448 2 -14 -4 6 2667.18 2398.95 229.35 o
3448 1 14 4 -6 2667.18 2398.95 229.35 o
3449 3 -10 -4 -6 58.21 218.80 258.35 <
3449 2 13 -4 -6 58.21 218.80 258.35 <
3449 1 -13 4 6 58.21 218.80 258.35 <
3450 3 10 -4 6 46.30 79.09 208.26 <
3450 2 -13 -4 6 46.30 79.09 208.26 <
3450 1 13 4 -6 46.30 79.09 208.26 <
3451 3 -9 -4 -6 5509.42 6015.83 263.62 o
3451 2 12 -4 -6 5509.42 6015.83 263.62 o
3451 1 -12 4 6 5509.42 6015.83 263.62 o
3452 3 9 -4 6 5588.92 5646.76 266.26 o
3452 2 -12 -4 6 5588.92 5646.76 266.26 o
3452 1 12 4 -6 5588.92 5646.76 266.26 o
3453 3 -8 -4 -6 3567.36 3105.45 205.62 o
3453 2 11 -4 -6 3567.36 3105.45 205.62 o
3453 1 -11 4 6 3567.36 3105.45 205.62 o
3454 3 8 -4 6 3549.97 3622.15 287.35 o
3454 2 -11 -4 6 3549.97 3622.15 287.35 o
3454 1 11 4 -6 3549.97 3622.15 287.35 o
3455 3 -7 -4 -6 2842.53 3081.73 181.90 o
3455 2 10 -4 -6 2842.53 3081.73 181.90 o
3455 1 -10 4 6 2842.53 3081.73 181.90 o
3456 3 7 -4 6 2766.71 3073.82 253.08 o
3456 2 -10 -4 6 2766.71 3073.82 253.08 o
3456 1 10 4 -6 2766.71 3073.82 253.08 o
3457 3 -6 -4 -6 3648.15 3833.05 189.81 o
3457 2 9 -4 -6 3648.15 3833.05 189.81 o
3457 1 -9 4 6 3648.15 3833.05 189.81 o
3458 3 6 -4 6 3716.87 4070.31 242.53 o
3458 2 -9 -4 6 3716.87 4070.31 242.53 o
3458 1 9 4 -6 3716.87 4070.31 242.53 o
3459 3 -5 -4 -6 93.41 110.72 160.81 <
3459 2 8 -4 -6 93.41 110.72 160.81 <
3459 1 -8 4 6 93.41 110.72 160.81 <
3460 3 5 -4 6 105.74 -42.18 208.26 <
3460 2 -8 -4 6 105.74 -42.18 208.26 <
3460 1 8 4 -6 105.74 -42.18 208.26 <
3461 3 -4 -4 -6 3866.23 4038.67 163.45 o
3461 2 7 -4 -6 3866.23 4038.67 163.45 o
3461 1 -7 4 6 3866.23 4038.67 163.45 o
3462 3 4 -4 6 4049.67 3872.59 195.08 o
3462 2 -7 -4 6 4049.67 3872.59 195.08 o
3462 1 7 4 -6 4049.67 3872.59 195.08 o
3463 3 -3 -4 -6 3764.09 3611.61 155.54 o
3463 2 6 -4 -6 3764.09 3611.61 155.54 o
3463 1 -6 4 6 3764.09 3611.61 155.54 o
3464 3 3 -4 6 3614.01 3326.90 189.81 o
3464 2 -6 -4 6 3614.01 3326.90 189.81 o
3464 1 6 4 -6 3614.01 3326.90 189.81 o
3465 3 -2 -4 -6 1277.55 1191.57 176.63 o
3465 2 5 -4 -6 1277.55 1191.57 176.63 o
3465 1 -5 4 6 1277.55 1191.57 176.63 o
3466 3 2 -4 6 1185.14 1112.48 179.26 o
3466 2 -5 -4 6 1185.14 1112.48 179.26 o
3466 1 5 4 -6 1185.14 1112.48 179.26 o
3467 3 -1 -4 -6 1204.40 1194.20 184.54 o
3467 2 4 -4 -6 1204.40 1194.20 184.54 o
3467 1 -4 4 6 1204.40 1194.20 184.54 o
3468 3 1 -4 6 1149.43 1220.56 189.81 o
3468 2 -4 -4 6 1149.43 1220.56 189.81 o
3468 1 4 4 -6 1149.43 1220.56 189.81 o
3469 3 0 -4 -6 174.11 379.61 166.08 o
3469 2 3 -4 -6 174.11 379.61 166.08 o
3469 1 -3 4 6 174.11 379.61 166.08 o
3470 3 1 -4 -6 1139.25 1159.93 115.99 o
3470 2 2 -4 -6 1139.25 1159.93 115.99 o
3470 1 -2 4 6 1139.25 1159.93 115.99 o
3471 3 2 -4 -6 2201.76 1932.34 121.27 o
3471 2 1 -4 -6 2201.76 1932.34 121.27 o
3471 1 -1 4 6 2201.76 1932.34 121.27 o
3472 3 3 -4 -6 364.15 268.89 115.99 o
3472 2 0 -4 -6 364.15 268.89 115.99 o
3472 1 0 4 6 364.15 268.89 115.99 o
3473 3 4 -4 -6 1035.17 970.12 118.63 o
3473 2 -1 -4 -6 1035.17 970.12 118.63 o
3473 1 1 4 6 1035.17 970.12 118.63 o
3474 3 5 -4 -6 614.68 724.96 121.27 o
3474 2 -2 -4 -6 614.68 724.96 121.27 o
3474 1 2 4 6 614.68 724.96 121.27 o
3475 3 6 -4 -6 1970.25 1700.35 123.90 o
3475 2 -3 -4 -6 1970.25 1700.35 123.90 o
3475 1 3 4 6 1970.25 1700.35 123.90 o
3476 3 7 -4 -6 4019.30 3920.04 126.54 o
3476 2 -4 -4 -6 4019.30 3920.04 126.54 o
3476 1 4 4 6 4019.30 3920.04 126.54 o
3477 3 8 -4 -6 94.12 -58.00 121.27 <
3477 2 -5 -4 -6 94.12 -58.00 121.27 <
3477 1 5 4 6 94.12 -58.00 121.27 <
3478 3 9 -4 -6 3078.18 2873.47 213.53 o
3478 2 -6 -4 -6 3078.18 2873.47 213.53 o
3478 1 6 4 6 3078.18 2873.47 213.53 o
3479 3 -9 -4 6 2812.30 2741.66 390.16 o
3479 2 6 -4 6 2812.30 2741.66 390.16 o
3479 1 -6 4 -6 2812.30 2741.66 390.16 o
3480 3 10 -4 -6 1890.81 1742.53 176.63 o
3480 2 -7 -4 -6 1890.81 1742.53 176.63 o
3480 1 7 4 6 1890.81 1742.53 176.63 o
3481 3 -10 -4 6 1961.55 1542.18 355.89 o
3481 2 7 -4 6 1961.55 1542.18 355.89 o
3481 1 -7 4 -6 1961.55 1542.18 355.89 o
3482 3 11 -4 -6 2136.97 1956.07 189.81 o
3482 2 -8 -4 -6 2136.97 1956.07 189.81 o
3482 1 8 4 6 2136.97 1956.07 189.81 o
3483 3 -11 -4 6 2143.49 1391.92 205.62 o
3483 2 8 -4 6 2143.49 1391.92 205.62 o
3483 1 -8 4 -6 2143.49 1391.92 205.62 o
3484 3 12 -4 -6 5258.79 5177.52 200.35 o
3484 2 -9 -4 -6 5258.79 5177.52 200.35 o
3484 1 9 4 6 5258.79 5177.52 200.35 o
3485 3 -12 -4 6 5244.99 5050.98 226.71 o
3485 2 9 -4 6 5244.99 5050.98 226.71 o
3485 1 -9 4 -6 5244.99 5050.98 226.71 o
3486 3 13 -4 -6 24.14 110.72 205.62 <
3486 2 -10 -4 -6 24.14 110.72 205.62 <
3486 1 10 4 6 24.14 110.72 205.62 <
3487 3 -13 -4 6 42.86 31.63 237.26 <
3487 2 10 -4 6 42.86 31.63 237.26 <
3487 1 -10 4 -6 42.86 31.63 237.26 <
3488 3 14 -4 -6 2300.83 1758.35 216.17 o
3488 2 -11 -4 -6 2300.83 1758.35 216.17 o
3488 1 11 4 6 2300.83 1758.35 216.17 o
3489 3 -14 -4 6 2165.22 1502.64 258.35 o
3489 2 11 -4 6 2165.22 1502.64 258.35 o
3489 1 -11 4 -6 2165.22 1502.64 258.35 o
3490 3 15 -4 -6 1405.64 1120.39 253.08 o
3490 2 -12 -4 -6 1405.64 1120.39 253.08 o
3490 1 12 4 6 1405.64 1120.39 253.08 o
3491 3 -15 -4 6 1418.63 1017.58 295.26 o
3491 2 12 -4 6 1418.63 1017.58 295.26 o
3491 1 -12 4 -6 1418.63 1017.58 295.26 o
3492 3 -11 -5 -6 27.10 -213.53 226.71 <
3492 2 14 -5 -6 27.10 -213.53 226.71 <
3492 1 -14 5 6 27.10 -213.53 226.71 <
3493 3 11 -5 6 24.59 -150.26 205.62 <
3493 2 -14 -5 6 24.59 -150.26 205.62 <
3493 1 14 5 -6 24.59 -150.26 205.62 <
3494 3 -10 -5 -6 1112.68 619.51 208.26 o
3494 2 13 -5 -6 1112.68 619.51 208.26 o
3494 1 -13 5 6 1112.68 619.51 208.26 o
3495 3 10 -5 6 1099.18 564.15 195.08 o
3495 2 -13 -5 6 1099.18 564.15 195.08 o
3495 1 13 5 -6 1099.18 564.15 195.08 o
3496 3 -9 -5 -6 55.43 239.90 192.44 <
3496 2 12 -5 -6 55.43 239.90 192.44 <
3496 1 -12 5 6 55.43 239.90 192.44 <
3497 3 9 -5 6 55.48 -21.09 224.08 <
3497 2 -12 -5 6 55.48 -21.09 224.08 <
3497 1 12 5 -6 55.48 -21.09 224.08 <
3498 3 -8 -5 -6 172.04 0.00 160.81 <
3498 2 11 -5 -6 172.04 0.00 160.81 <
3498 1 -11 5 6 172.04 0.00 160.81 <
3499 3 8 -5 6 163.57 311.07 245.17 <
3499 2 -11 -5 6 163.57 311.07 245.17 <
3499 1 11 5 -6 163.57 311.07 245.17 <
3500 3 -7 -5 -6 203.87 490.33 139.72 o
3500 2 10 -5 -6 203.87 490.33 139.72 o
3500 1 -10 5 6 203.87 490.33 139.72 o
3501 3 7 -5 6 219.54 474.52 284.71 <
3501 2 -10 -5 6 219.54 474.52 284.71 <
3501 1 10 5 -6 219.54 474.52 284.71 <
3502 3 -6 -5 -6 41.53 258.35 158.17 <
3502 2 9 -5 -6 41.53 258.35 158.17 <
3502 1 -9 5 6 41.53 258.35 158.17 <
3503 3 6 -5 6 36.32 237.26 295.26 <
3503 2 -9 -5 6 36.32 237.26 295.26 <
3503 1 9 5 -6 36.32 237.26 295.26 <
3504 3 -5 -5 -6 3811.27 2870.83 150.26 o
3504 2 8 -5 -6 3811.27 2870.83 150.26 o
3504 1 -8 5 6 3811.27 2870.83 150.26 o
3505 3 5 -5 6 3792.67 3268.90 268.89 o
3505 2 -8 -5 6 3792.67 3268.90 268.89 o
3505 1 8 5 -6 3792.67 3268.90 268.89 o
3506 3 -4 -5 -6 201.85 482.43 142.35 o
3506 2 7 -5 -6 201.85 482.43 142.35 o
3506 1 -7 5 6 201.85 482.43 142.35 o
3507 3 4 -5 6 205.12 400.70 234.62 <
3507 2 -7 -5 6 205.12 400.70 234.62 <
3507 1 7 5 -6 205.12 400.70 234.62 <
3508 3 -3 -5 -6 437.18 479.79 150.26 o
3508 2 6 -5 -6 437.18 479.79 150.26 o
3508 1 -6 5 6 437.18 479.79 150.26 o
3509 3 3 -5 6 431.54 553.60 239.90 o
3509 2 -6 -5 6 431.54 553.60 239.90 o
3509 1 6 5 -6 431.54 553.60 239.90 o
3510 3 -2 -5 -6 393.16 440.25 155.54 o
3510 2 5 -5 -6 393.16 440.25 155.54 o
3510 1 -5 5 6 393.16 440.25 155.54 o
3511 3 2 -5 6 400.82 516.70 202.99 o
3511 2 -5 -5 6 400.82 516.70 202.99 o
3511 1 5 5 -6 400.82 516.70 202.99 o
3512 3 -1 -5 -6 186.79 31.63 168.72 <
3512 2 4 -5 -6 186.79 31.63 168.72 <
3512 1 -4 5 6 186.79 31.63 168.72 <
3513 3 1 -5 6 192.07 39.54 168.72 <
3513 2 -4 -5 6 192.07 39.54 168.72 <
3513 1 4 5 -6 192.07 39.54 168.72 <
3514 3 0 -5 -6 2498.43 1597.54 171.35 o
3514 2 3 -5 -6 2498.43 1597.54 171.35 o
3514 1 -3 5 6 2498.43 1597.54 171.35 o
3515 3 1 -5 -6 176.24 332.16 115.99 o
3515 2 2 -5 -6 176.24 332.16 115.99 o
3515 1 -2 5 6 176.24 332.16 115.99 o
3516 3 2 -5 -6 97.29 126.54 113.36 <
3516 2 1 -5 -6 97.29 126.54 113.36 <
3516 1 -1 5 6 97.29 126.54 113.36 <
3517 3 3 -5 -6 1458.30 1133.57 121.27 o
3517 2 0 -5 -6 1458.30 1133.57 121.27 o
3517 1 0 5 6 1458.30 1133.57 121.27 o
3518 3 4 -5 -6 145.87 139.72 123.90 <
3518 2 -1 -5 -6 145.87 139.72 123.90 <
3518 1 1 5 6 145.87 139.72 123.90 <
3519 3 5 -5 -6 407.63 347.98 121.27 o
3519 2 -2 -5 -6 407.63 347.98 121.27 o
3519 1 2 5 6 407.63 347.98 121.27 o
3520 3 6 -5 -6 259.97 39.54 121.27 <
3520 2 -3 -5 -6 259.97 39.54 121.27 <
3520 1 3 5 6 259.97 39.54 121.27 <
3521 3 7 -5 -6 115.08 21.09 131.81 <
3521 2 -4 -5 -6 115.08 21.09 131.81 <
3521 1 4 5 6 115.08 21.09 131.81 <
3522 3 8 -5 -6 2813.63 2773.29 123.90 o
3522 2 -5 -5 -6 2813.63 2773.29 123.90 o
3522 1 5 5 6 2813.63 2773.29 123.90 o
3523 3 9 -5 -6 37.03 237.26 131.81 <
3523 2 -6 -5 -6 37.03 237.26 131.81 <
3523 1 6 5 6 37.03 237.26 131.81 <
3524 3 10 -5 -6 178.23 242.53 142.35 <
3524 2 -7 -5 -6 178.23 242.53 142.35 <
3524 1 7 5 6 178.23 242.53 142.35 <
3525 3 -10 -5 6 168.29 131.81 432.34 <
3525 2 7 -5 6 168.29 131.81 432.34 <
3525 1 -7 5 -6 168.29 131.81 432.34 <
3526 3 11 -5 -6 125.21 123.90 179.26 <
3526 2 -8 -5 -6 125.21 123.90 179.26 <
3526 1 8 5 6 125.21 123.90 179.26 <
3527 3 -11 -5 6 137.30 110.72 419.16 <
3527 2 8 -5 6 137.30 110.72 419.16 <
3527 1 -8 5 -6 137.30 110.72 419.16 <
3528 3 12 -5 -6 74.77 221.44 173.99 <
3528 2 -9 -5 -6 74.77 221.44 173.99 <
3528 1 9 5 6 74.77 221.44 173.99 <
3529 3 -12 -5 6 77.62 -29.00 250.44 <
3529 2 9 -5 6 77.62 -29.00 250.44 <
3529 1 -9 5 -6 77.62 -29.00 250.44 <
3530 3 13 -5 -6 871.48 661.69 176.63 o
3530 2 -10 -5 -6 871.48 661.69 176.63 o
3530 1 10 5 6 871.48 661.69 176.63 o
3531 3 -13 -5 6 875.99 759.23 276.80 o
3531 2 10 -5 6 875.99 759.23 276.80 o
3531 1 -10 5 -6 875.99 759.23 276.80 o
3532 3 14 -5 -6 26.40 134.45 197.72 <
3532 2 -11 -5 -6 26.40 134.45 197.72 <
3532 1 11 5 6 26.40 134.45 197.72 <
3533 3 -14 -5 6 26.01 21.09 318.98 <
3533 2 11 -5 6 26.01 21.09 318.98 <
3533 1 -11 5 -6 26.01 21.09 318.98 <
3534 3 -10 -6 -6 453.28 680.14 195.08 o
3534 2 13 -6 -6 453.28 680.14 195.08 o
3534 1 -13 6 6 453.28 680.14 195.08 o
3535 3 10 -6 6 448.75 558.88 197.72 o
3535 2 -13 -6 6 448.75 558.88 197.72 o
3535 1 13 6 -6 448.75 558.88 197.72 o
3536 3 -9 -6 -6 3082.70 2691.57 181.90 o
3536 2 12 -6 -6 3082.70 2691.57 181.90 o
3536 1 -12 6 6 3082.70 2691.57 181.90 o
3537 3 9 -6 6 3044.60 2810.20 224.08 o
3537 2 -12 -6 6 3044.60 2810.20 224.08 o
3537 1 12 6 -6 3044.60 2810.20 224.08 o
3538 3 -8 -6 -6 6675.19 6358.54 181.90 o
3538 2 11 -6 -6 6675.19 6358.54 181.90 o
3538 1 -11 6 6 6675.19 6358.54 181.90 o
3539 3 8 -6 6 6576.87 7014.95 258.35 o
3539 2 -11 -6 6 6576.87 7014.95 258.35 o
3539 1 11 6 -6 6576.87 7014.95 258.35 o
3540 3 -7 -6 -6 1621.25 1589.63 158.17 o
3540 2 10 -6 -6 1621.25 1589.63 158.17 o
3540 1 -10 6 6 1621.25 1589.63 158.17 o
3541 3 7 -6 6 1596.90 1666.08 245.17 o
3541 2 -10 -6 6 1596.90 1666.08 245.17 o
3541 1 10 6 -6 1596.90 1666.08 245.17 o
3542 3 -6 -6 -6 12449.60 12999.10 181.90 o
3542 2 9 -6 -6 12449.60 12999.10 181.90 o
3542 1 -9 6 6 12449.60 12999.10 181.90 o
3543 3 6 -6 6 12510.90 13439.40 287.35 o
3543 2 -9 -6 6 12510.90 13439.40 287.35 o
3543 1 9 6 -6 12510.90 13439.40 287.35 o
3544 3 -5 -6 -6 1327.71 1916.52 150.26 o
3544 2 8 -6 -6 1327.71 1916.52 150.26 o
3544 1 -8 6 6 1327.71 1916.52 150.26 o
3545 3 5 -6 6 1320.37 2053.61 303.16 o
3545 2 -8 -6 6 1320.37 2053.61 303.16 o
3545 1 8 6 -6 1320.37 2053.61 303.16 o
3546 3 -4 -6 -6 12064.10 12116.00 173.99 o
3546 2 7 -6 -6 12064.10 12116.00 173.99 o
3546 1 -7 6 6 12064.10 12116.00 173.99 o
3547 3 4 -6 6 12149.20 13128.30 369.07 o
3547 2 -7 -6 6 12149.20 13128.30 369.07 o
3547 1 7 6 -6 12149.20 13128.30 369.07 o
3548 3 -3 -6 -6 18592.50 19784.80 192.44 o
3548 2 6 -6 -6 18592.50 19784.80 192.44 o
3548 1 -6 6 6 18592.50 19784.80 192.44 o
3549 3 3 -6 6 18403.40 18590.50 400.70 o
3549 2 -6 -6 6 18403.40 18590.50 400.70 o
3549 1 6 6 -6 18403.40 18590.50 400.70 o
3550 3 -2 -6 -6 3477.11 2704.75 179.26 o
3550 2 5 -6 -6 3477.11 2704.75 179.26 o
3550 1 -5 6 6 3477.11 2704.75 179.26 o
3551 3 2 -6 6 3457.60 3089.64 224.08 o
3551 2 -5 -6 6 3457.60 3089.64 224.08 o
3551 1 5 6 -6 3457.60 3089.64 224.08 o
3552 3 -1 -6 -6 33771.70 37486.90 255.71 o
3552 2 4 -6 -6 33771.70 37486.90 255.71 o
3552 1 -4 6 6 33771.70 37486.90 255.71 o
3553 3 1 -6 6 33854.00 36211.00 437.61 o
3553 2 -4 -6 6 33854.00 36211.00 437.61 o
3553 1 4 6 -6 33854.00 36211.00 437.61 o
3554 3 0 -6 -6 3361.57 3403.35 134.45 o
3554 2 3 -6 -6 3361.57 3403.35 134.45 o
3554 1 -3 6 6 3361.57 3403.35 134.45 o
3555 3 0 -6 6 3383.86 2807.56 355.89 o
3555 2 -3 -6 6 3383.86 2807.56 355.89 o
3555 1 3 6 -6 3383.86 2807.56 355.89 o
3556 3 1 -6 -6 22434.80 21350.70 155.54 o
3556 2 2 -6 -6 22434.80 21350.70 155.54 o
3556 1 -2 6 6 22434.80 21350.70 155.54 o
3557 3 2 -6 -6 27818.20 29934.20 168.72 o
3557 2 1 -6 -6 27818.20 29934.20 168.72 o
3557 1 -1 6 6 27818.20 29934.20 168.72 o
3558 3 3 -6 -6 2532.59 2243.41 123.90 o
3558 2 0 -6 -6 2532.59 2243.41 123.90 o
3558 1 0 6 6 2532.59 2243.41 123.90 o
3559 3 4 -6 -6 33963.80 37761.10 176.63 o
3559 2 -1 -6 -6 33963.80 37761.10 176.63 o
3559 1 1 6 6 33963.80 37761.10 176.63 o
3560 3 5 -6 -6 4124.57 3746.05 126.54 o
3560 2 -2 -6 -6 4124.57 3746.05 126.54 o
3560 1 2 6 6 4124.57 3746.05 126.54 o
3561 3 6 -6 -6 14714.50 13671.40 147.63 o
3561 2 -3 -6 -6 14714.50 13671.40 147.63 o
3561 1 3 6 6 14714.50 13671.40 147.63 o
3562 3 7 -6 -6 14942.80 16755.70 152.90 o
3562 2 -4 -6 -6 14942.80 16755.70 152.90 o
3562 1 4 6 6 14942.80 16755.70 152.90 o
3563 3 8 -6 -6 887.03 1217.93 129.17 o
3563 2 -5 -6 -6 887.03 1217.93 129.17 o
3563 1 5 6 6 887.03 1217.93 129.17 o
3564 3 9 -6 -6 12922.70 13821.60 152.90 o
3564 2 -6 -6 -6 12922.70 13821.60 152.90 o
3564 1 6 6 6 12922.70 13821.60 152.90 o
3565 3 10 -6 -6 1654.63 1436.73 137.08 o
3565 2 -7 -6 -6 1654.63 1436.73 137.08 o
3565 1 7 6 6 1654.63 1436.73 137.08 o
3566 3 -10 -6 6 1713.64 1157.30 595.78 <
3566 2 7 -6 6 1713.64 1157.30 595.78 <
3566 1 -7 6 -6 1713.64 1157.30 595.78 <
3567 3 11 -6 -6 4985.60 4513.19 158.17 o
3567 2 -8 -6 -6 4985.60 4513.19 158.17 o
3567 1 8 6 6 4985.60 4513.19 158.17 o
3568 3 -11 -6 6 5115.12 3448.16 619.51 o
3568 2 8 -6 6 5115.12 3448.16 619.51 o
3568 1 -8 6 -6 5115.12 3448.16 619.51 o
3569 3 12 -6 -6 3851.13 3429.71 192.44 o
3569 2 -9 -6 -6 3851.13 3429.71 192.44 o
3569 1 9 6 6 3851.13 3429.71 192.44 o
3570 3 -12 -6 6 3910.84 3906.86 656.42 o
3570 2 9 -6 6 3910.84 3906.86 656.42 o
3570 1 -9 6 -6 3910.84 3906.86 656.42 o
3571 3 13 -6 -6 271.05 340.07 187.17 <
3571 2 -10 -6 -6 271.05 340.07 187.17 <
3571 1 10 6 6 271.05 340.07 187.17 <
3572 3 -13 -6 6 286.22 622.15 666.96 <
3572 2 10 -6 6 286.22 622.15 666.96 <
3572 1 -10 6 -6 286.22 622.15 666.96 <
3573 3 -8 -7 -6 495.90 321.62 163.45 <
3573 2 11 -7 -6 495.90 321.62 163.45 <
3573 1 -11 7 6 495.90 321.62 163.45 <
3574 3 8 -7 6 517.89 471.88 208.26 o
3574 2 -11 -7 6 517.89 471.88 208.26 o
3574 1 11 7 -6 517.89 471.88 208.26 o
3575 3 -7 -7 -6 1368.54 1125.66 160.81 o
3575 2 10 -7 -6 1368.54 1125.66 160.81 o
3575 1 -10 7 6 1368.54 1125.66 160.81 o
3576 3 7 -7 6 1356.86 1336.56 239.90 o
3576 2 -10 -7 6 1356.86 1336.56 239.90 o
3576 1 10 7 -6 1356.86 1336.56 239.90 o
3577 3 -6 -7 -6 184.65 324.25 147.63 o
3577 2 9 -7 -6 184.65 324.25 147.63 o
3577 1 -9 7 6 184.65 324.25 147.63 o
3578 3 6 -7 6 197.29 400.70 255.71 <
3578 2 -9 -7 6 197.29 400.70 255.71 <
3578 1 9 7 -6 197.29 400.70 255.71 <
3579 3 -5 -7 -6 493.30 1033.39 147.63 o
3579 2 8 -7 -6 493.30 1033.39 147.63 o
3579 1 -8 7 6 493.30 1033.39 147.63 o
3580 3 5 -7 6 495.79 1138.84 292.62 o
3580 2 -8 -7 6 495.79 1138.84 292.62 o
3580 1 8 7 -6 495.79 1138.84 292.62 o
3581 3 -4 -7 -6 294.75 131.81 171.35 <
3581 2 7 -7 -6 294.75 131.81 171.35 <
3581 1 -7 7 6 294.75 131.81 171.35 <
3582 3 4 -7 6 288.12 -229.35 329.53 <
3582 2 -7 -7 6 288.12 -229.35 329.53 <
3582 1 7 7 -6 288.12 -229.35 329.53 <
3583 3 -3 -7 -6 372.25 353.25 173.99 o
3583 2 6 -7 -6 372.25 353.25 173.99 o
3583 1 -6 7 6 372.25 353.25 173.99 o
3584 3 3 -7 6 391.74 300.53 271.53 <
3584 2 -6 -7 6 391.74 300.53 271.53 <
3584 1 6 7 -6 391.74 300.53 271.53 <
3585 3 -2 -7 -6 1465.80 814.59 171.35 o
3585 2 5 -7 -6 1465.80 814.59 171.35 o
3585 1 -5 7 6 1465.80 814.59 171.35 o
3586 3 2 -7 6 1461.75 1444.64 485.06 o
3586 2 -5 -7 6 1461.75 1444.64 485.06 o
3586 1 5 7 -6 1461.75 1444.64 485.06 o
3587 3 -1 -7 -6 23.91 65.91 123.90 <
3587 2 4 -7 -6 23.91 65.91 123.90 <
3587 1 -4 7 6 23.91 65.91 123.90 <
3588 3 1 -7 6 26.25 171.35 479.79 <
3588 2 -4 -7 6 26.25 171.35 479.79 <
3588 1 4 7 -6 26.25 171.35 479.79 <
3589 3 0 -7 -6 107.45 179.26 118.63 <
3589 2 3 -7 -6 107.45 179.26 118.63 <
3589 1 -3 7 6 107.45 179.26 118.63 <
3590 3 0 -7 6 104.26 234.62 503.52 <
3590 2 -3 -7 6 104.26 234.62 503.52 <
3590 1 3 7 -6 104.26 234.62 503.52 <
3591 3 1 -7 -6 65.76 -105.45 115.99 <
3591 2 2 -7 -6 65.76 -105.45 115.99 <
3591 1 -2 7 6 65.76 -105.45 115.99 <
3592 3 -1 -7 6 66.89 150.26 477.15 <
3592 2 -2 -7 6 66.89 150.26 477.15 <
3592 1 2 7 -6 66.89 150.26 477.15 <
3593 3 2 -7 -6 121.24 13.18 118.63 <
3593 2 1 -7 -6 121.24 13.18 118.63 <
3593 1 -1 7 6 121.24 13.18 118.63 <
3594 3 3 -7 -6 66.34 18.45 110.72 <
3594 2 0 -7 -6 66.34 18.45 110.72 <
3594 1 0 7 6 66.34 18.45 110.72 <
3595 3 4 -7 -6 33.47 144.99 121.27 <
3595 2 -1 -7 -6 33.47 144.99 121.27 <
3595 1 1 7 6 33.47 144.99 121.27 <
3596 3 5 -7 -6 1114.31 991.22 123.90 o
3596 2 -2 -7 -6 1114.31 991.22 123.90 o
3596 1 2 7 6 1114.31 991.22 123.90 o
3597 3 6 -7 -6 510.91 859.40 123.90 o
3597 2 -3 -7 -6 510.91 859.40 123.90 o
3597 1 3 7 6 510.91 859.40 123.90 o
3598 3 7 -7 -6 259.24 144.99 123.90 <
3598 2 -4 -7 -6 259.24 144.99 123.90 <
3598 1 4 7 6 259.24 144.99 123.90 <
3599 3 8 -7 -6 466.98 630.05 131.81 o
3599 2 -5 -7 -6 466.98 630.05 131.81 o
3599 1 5 7 6 466.98 630.05 131.81 o
3600 3 9 -7 -6 144.37 292.62 134.45 o
3600 2 -6 -7 -6 144.37 292.62 134.45 o
3600 1 6 7 6 144.37 292.62 134.45 o
3601 3 10 -7 -6 1006.83 732.87 137.08 o
3601 2 -7 -7 -6 1006.83 732.87 137.08 o
3601 1 7 7 6 1006.83 732.87 137.08 o
3602 3 -10 -7 6 1018.42 651.14 442.88 <
3602 2 7 -7 6 1018.42 651.14 442.88 <
3602 1 -7 7 -6 1018.42 651.14 442.88 <
3603 3 11 -7 -6 573.89 474.52 147.63 o
3603 2 -8 -7 -6 573.89 474.52 147.63 o
3603 1 8 7 6 573.89 474.52 147.63 o
3604 3 -11 -7 6 560.80 593.15 442.88 <
3604 2 8 -7 6 560.80 593.15 442.88 <
3604 1 -8 7 -6 560.80 593.15 442.88 <
3605 3 -5 -8 -6 38.55 -13.18 200.35 <
3605 2 8 -8 -6 38.55 -13.18 200.35 <
3605 1 -8 8 6 38.55 -13.18 200.35 <
3606 3 5 -8 6 34.52 371.71 305.80 <
3606 2 -8 -8 6 34.52 371.71 305.80 <
3606 1 8 8 -6 34.52 371.71 305.80 <
3607 3 -4 -8 -6 1099.38 698.59 181.90 o
3607 2 7 -8 -6 1099.38 698.59 181.90 o
3607 1 -7 8 6 1099.38 698.59 181.90 o
3608 3 4 -8 6 1147.12 980.67 239.90 o
3608 2 -7 -8 6 1147.12 980.67 239.90 o
3608 1 7 8 -6 1147.12 980.67 239.90 o
3609 3 -3 -8 -6 1116.73 1196.84 179.26 o
3609 2 6 -8 -6 1116.73 1196.84 179.26 o
3609 1 -6 8 6 1116.73 1196.84 179.26 o
3610 3 3 -8 6 1088.46 1062.39 403.34 o
3610 2 -6 -8 6 1088.46 1062.39 403.34 o
3610 1 6 8 -6 1088.46 1062.39 403.34 o
3611 3 -2 -8 -6 235.15 -31.63 115.99 <
3611 2 5 -8 -6 235.15 -31.63 115.99 <
3611 1 -5 8 6 235.15 -31.63 115.99 <
3612 3 2 -8 6 197.21 121.27 445.52 <
3612 2 -5 -8 6 197.21 121.27 445.52 <
3612 1 5 8 -6 197.21 121.27 445.52 <
3613 3 -1 -8 -6 1541.52 637.96 113.36 o
3613 2 4 -8 -6 1541.52 637.96 113.36 o
3613 1 -4 8 6 1541.52 637.96 113.36 o
3614 3 1 -8 6 1586.90 1257.47 543.06 o
3614 2 -4 -8 6 1586.90 1257.47 543.06 o
3614 1 4 8 -6 1586.90 1257.47 543.06 o
3615 3 0 -8 -6 66.70 382.25 115.99 o
3615 2 3 -8 -6 66.70 382.25 115.99 o
3615 1 -3 8 6 66.70 382.25 115.99 o
3616 3 0 -8 6 74.13 287.35 764.50 <
3616 2 -3 -8 6 74.13 287.35 764.50 <
3616 1 3 8 -6 74.13 287.35 764.50 <
3617 3 1 -8 -6 598.79 674.87 115.99 o
3617 2 2 -8 -6 598.79 674.87 115.99 o
3617 1 -2 8 6 598.79 674.87 115.99 o
3618 3 -1 -8 6 605.84 661.69 1033.39 <
3618 2 -2 -8 6 605.84 661.69 1033.39 <
3618 1 2 8 -6 605.84 661.69 1033.39 <
3619 3 2 -8 -6 845.57 487.70 118.63 o
3619 2 1 -8 -6 845.57 487.70 118.63 o
3619 1 -1 8 6 845.57 487.70 118.63 o
3620 3 -2 -8 6 723.02 785.59 1133.57 <
3620 2 -1 -8 6 723.02 785.59 1133.57 <
3620 1 1 8 -6 723.02 785.59 1133.57 <
3621 3 3 -8 -6 49.86 73.81 121.27 <
3621 2 0 -8 -6 49.86 73.81 121.27 <
3621 1 0 8 6 49.86 73.81 121.27 <
3622 3 4 -8 -6 1584.81 1083.48 123.90 o
3622 2 -1 -8 -6 1584.81 1083.48 123.90 o
3622 1 1 8 6 1584.81 1083.48 123.90 o
3623 3 5 -8 -6 283.31 208.26 123.90 <
3623 2 -2 -8 -6 283.31 208.26 123.90 <
3623 1 2 8 6 283.31 208.26 123.90 <
3624 3 6 -8 -6 761.09 363.80 123.90 o
3624 2 -3 -8 -6 761.09 363.80 123.90 o
3624 1 3 8 6 761.09 363.80 123.90 o
3625 3 7 -8 -6 1458.14 1481.55 123.90 o
3625 2 -4 -8 -6 1458.14 1481.55 123.90 o
3625 1 4 8 6 1458.14 1481.55 123.90 o
3626 3 8 -8 -6 17.27 58.00 131.81 <
3626 2 -5 -8 -6 17.27 58.00 131.81 <
3626 1 5 8 6 17.27 58.00 131.81 <
3627 2 16 -1 -7 624.64 521.97 274.17 <
3627 1 -16 1 7 624.64 521.97 274.17 <
3628 2 -16 -1 7 628.46 543.06 253.08 o
3628 1 16 1 -7 628.46 543.06 253.08 o
3629 2 15 -1 -7 809.67 790.86 284.71 o
3629 1 -15 1 7 809.67 790.86 284.71 o
3630 2 -15 -1 7 830.64 988.58 210.90 o
3630 1 15 1 -7 830.64 988.58 210.90 o
3631 2 14 -1 -7 2326.88 1845.35 255.71 o
3631 1 -14 1 7 2326.88 1845.35 255.71 o
3632 2 -14 -1 7 2335.49 1576.45 210.90 o
3632 1 14 1 -7 2335.49 1576.45 210.90 o
3633 2 13 -1 -7 3.75 558.88 253.08 o
3633 1 -13 1 7 3.75 558.88 253.08 o
3634 2 -13 -1 7 3.34 282.07 187.17 <
3634 1 13 1 -7 3.34 282.07 187.17 <
3635 2 12 -1 -7 7000.05 5459.59 255.71 o
3635 1 -12 1 7 7000.05 5459.59 255.71 o
3636 2 -12 -1 7 6936.33 6250.45 187.17 o
3636 1 12 1 -7 6936.33 6250.45 187.17 o
3637 2 11 -1 -7 2512.72 2148.51 250.44 o
3637 1 -11 1 7 2512.72 2148.51 250.44 o
3638 2 -11 -1 7 2530.19 2480.67 184.54 o
3638 1 11 1 -7 2530.19 2480.67 184.54 o
3639 2 10 -1 -7 2176.76 1304.92 282.07 o
3639 1 -10 1 7 2176.76 1304.92 282.07 o
3640 2 -10 -1 7 2229.96 1834.80 155.54 o
3640 1 10 1 -7 2229.96 1834.80 155.54 o
3641 2 9 -1 -7 6402.25 5628.31 345.34 o
3641 1 -9 1 7 6402.25 5628.31 345.34 o
3642 2 -9 -1 7 6479.27 6326.90 171.35 o
3642 1 9 1 -7 6479.27 6326.90 171.35 o
3643 2 8 -1 -7 59.57 229.35 350.62 <
3643 1 -8 1 7 59.57 229.35 350.62 <
3644 2 -8 -1 7 57.36 622.15 131.81 o
3644 1 8 1 -7 57.36 622.15 131.81 o
3645 2 7 -1 -7 15862.30 14807.60 369.07 o
3645 1 -7 1 7 15862.30 14807.60 369.07 o
3646 2 -7 -1 7 15698.60 16652.90 179.26 o
3646 1 7 1 -7 15698.60 16652.90 179.26 o
3647 2 6 -1 -7 6353.21 5886.66 303.16 o
3647 1 -6 1 7 6353.21 5886.66 303.16 o
3648 2 -6 -1 7 6384.88 6332.17 158.17 o
3648 1 6 1 -7 6384.88 6332.17 158.17 o
3649 2 5 -1 -7 3886.57 3276.81 279.44 o
3649 1 -5 1 7 3886.57 3276.81 279.44 o
3650 2 -5 -1 7 3945.56 3427.07 137.08 o
3650 1 5 1 -7 3945.56 3427.07 137.08 o
3651 2 4 -1 -7 11326.80 14341.00 295.26 o
3651 1 -4 1 7 11326.80 14341.00 295.26 o
3652 2 -4 -1 7 11563.50 10692.50 158.17 o
3652 1 4 1 -7 11563.50 10692.50 158.17 o
3653 2 3 -1 -7 501.71 1067.66 250.44 o
3653 1 -3 1 7 501.71 1067.66 250.44 o
3654 2 2 -1 -7 20599.20 21113.40 184.54 o
3654 1 -2 1 7 20599.20 21113.40 184.54 o
3655 2 1 -1 -7 10094.30 8554.50 158.17 o
3655 1 -1 1 7 10094.30 8554.50 158.17 o
3656 2 0 -1 -7 3985.00 3392.80 150.26 o
3656 1 0 1 7 3985.00 3392.80 150.26 o
3657 2 -1 -1 -7 9630.02 10958.70 176.63 o
3657 1 1 1 7 9630.02 10958.70 176.63 o
3658 2 -2 -1 -7 1177.02 1705.63 152.90 o
3658 1 2 1 7 1177.02 1705.63 152.90 o
3659 2 -3 -1 -7 13291.80 14177.50 202.99 o
3659 1 3 1 7 13291.80 14177.50 202.99 o
3660 2 -4 -1 -7 8072.50 8467.50 202.99 o
3660 1 4 1 7 8072.50 8467.50 202.99 o
3661 2 -5 -1 -7 2105.51 1647.63 210.90 o
3661 1 5 1 7 2105.51 1647.63 210.90 o
3662 2 -6 -1 -7 4537.24 6036.92 311.07 o
3662 1 6 1 7 4537.24 6036.92 311.07 o
3663 2 -7 -1 -7 793.24 978.03 274.17 o
3663 1 7 1 7 793.24 978.03 274.17 o
3664 2 7 -1 7 761.57 811.95 142.35 o
3664 1 -7 1 -7 761.57 811.95 142.35 o
3665 2 -8 -1 -7 4523.78 4956.07 255.71 o
3665 1 8 1 7 4523.78 4956.07 255.71 o
3666 2 8 -1 7 4446.45 4381.38 179.26 o
3666 1 -8 1 -7 4446.45 4381.38 179.26 o
3667 2 -9 -1 -7 3930.07 4584.37 271.53 o
3667 1 9 1 7 3930.07 4584.37 271.53 o
3668 2 9 -1 7 3841.92 4307.57 181.90 o
3668 1 -9 1 -7 3841.92 4307.57 181.90 o
3669 2 -10 -1 -7 776.70 569.42 245.17 o
3669 1 10 1 7 776.70 569.42 245.17 o
3670 2 10 -1 7 750.88 456.06 166.08 o
3670 1 -10 1 -7 750.88 456.06 166.08 o
3671 2 -11 -1 -7 1375.76 1473.64 271.53 o
3671 1 11 1 7 1375.76 1473.64 271.53 o
3672 2 11 -1 7 1503.48 1507.91 179.26 o
3672 1 -11 1 -7 1503.48 1507.91 179.26 o
3673 2 -12 -1 -7 302.50 487.70 295.26 <
3673 1 12 1 7 302.50 487.70 295.26 <
3674 2 12 -1 7 293.36 242.53 213.53 <
3674 1 -12 1 -7 293.36 242.53 213.53 <
3675 2 15 -2 -7 12.53 -152.90 231.99 <
3675 1 -15 2 7 12.53 -152.90 231.99 <
3676 2 -15 -2 7 12.55 144.99 226.71 <
3676 1 15 2 -7 12.55 144.99 226.71 <
3677 2 14 -2 -7 18.90 218.80 218.80 <
3677 1 -14 2 7 18.90 218.80 218.80 <
3678 2 -14 -2 7 19.19 221.44 200.35 <
3678 1 14 2 -7 19.19 221.44 200.35 <
3679 2 13 -2 -7 27.45 421.79 226.71 <
3679 1 -13 2 7 27.45 421.79 226.71 <
3680 2 -13 -2 7 27.46 192.44 176.63 <
3680 1 13 2 -7 27.46 192.44 176.63 <
3681 2 12 -2 -7 12.51 47.45 224.08 <
3681 1 -12 2 7 12.51 47.45 224.08 <
3682 2 -12 -2 7 12.15 105.45 160.81 <
3682 1 12 2 -7 12.15 105.45 160.81 <
3683 2 11 -2 -7 473.33 651.14 229.35 o
3683 1 -11 2 7 473.33 651.14 229.35 o
3684 2 -11 -2 7 472.05 561.51 166.08 o
3684 1 11 2 -7 472.05 561.51 166.08 o
3685 2 10 -2 -7 59.75 118.63 239.90 <
3685 1 -10 2 7 59.75 118.63 239.90 <
3686 2 -10 -2 7 59.89 123.90 163.45 <
3686 1 10 2 -7 59.89 123.90 163.45 <
3687 2 9 -2 -7 88.48 195.08 237.26 <
3687 1 -9 2 7 88.48 195.08 237.26 <
3688 2 -9 -2 7 89.18 -126.54 147.63 <
3688 1 9 2 -7 89.18 -126.54 147.63 <
3689 2 8 -2 -7 38.44 -79.09 300.53 <
3689 1 -8 2 7 38.44 -79.09 300.53 <
3690 2 -8 -2 7 38.48 152.90 152.90 <
3690 1 8 2 -7 38.48 152.90 152.90 <
3691 2 7 -2 -7 101.12 -52.72 376.98 <
3691 1 -7 2 7 101.12 -52.72 376.98 <
3692 2 -7 -2 7 101.25 2.64 137.08 <
3692 1 7 2 -7 101.25 2.64 137.08 <
3693 2 6 -2 -7 877.28 717.05 463.97 <
3693 1 -6 2 7 877.28 717.05 463.97 <
3694 2 -6 -2 7 875.14 711.78 144.99 o
3694 1 6 2 -7 875.14 711.78 144.99 o
3695 2 5 -2 -7 96.69 110.72 411.25 <
3695 1 -5 2 7 96.69 110.72 411.25 <
3696 2 -5 -2 7 96.40 52.72 142.35 <
3696 1 5 2 -7 96.40 52.72 142.35 <
3697 2 4 -2 -7 86.95 234.62 387.52 <
3697 1 -4 2 7 86.95 234.62 387.52 <
3698 2 -4 -2 7 86.86 31.63 160.81 <
3698 1 4 2 -7 86.86 31.63 160.81 <
3699 2 3 -2 -7 43.24 -21.09 237.26 <
3699 1 -3 2 7 43.24 -21.09 237.26 <
3700 2 2 -2 -7 223.69 129.17 121.27 <
3700 1 -2 2 7 223.69 129.17 121.27 <
3701 2 1 -2 -7 334.88 100.18 121.27 <
3701 1 -1 2 7 334.88 100.18 121.27 <
3702 2 0 -2 -7 98.07 -10.54 121.27 <
3702 1 0 2 7 98.07 -10.54 121.27 <
3703 2 -1 -2 -7 48.91 -134.45 123.90 <
3703 1 1 2 7 48.91 -134.45 123.90 <
3704 2 -2 -2 -7 612.09 706.50 134.45 o
3704 1 2 2 7 612.09 706.50 134.45 o
3705 2 -3 -2 -7 96.68 152.90 126.54 <
3705 1 3 2 7 96.68 152.90 126.54 <
3706 2 -4 -2 -7 52.77 44.82 200.35 <
3706 1 4 2 7 52.77 44.82 200.35 <
3707 2 -5 -2 -7 116.67 108.08 176.63 <
3707 1 5 2 7 116.67 108.08 176.63 <
3708 2 -6 -2 -7 72.72 -129.17 208.26 <
3708 1 6 2 7 72.72 -129.17 208.26 <
3709 2 -7 -2 -7 460.70 347.98 350.62 <
3709 1 7 2 7 460.70 347.98 350.62 <
3710 2 7 -2 7 459.46 516.70 253.08 o
3710 1 -7 2 -7 459.46 516.70 253.08 o
3711 2 -8 -2 -7 34.83 0.00 321.62 <
3711 1 8 2 7 34.83 0.00 321.62 <
3712 2 8 -2 7 33.65 -73.81 163.45 <
3712 1 -8 2 -7 33.65 -73.81 163.45 <
3713 2 -9 -2 -7 11.98 271.53 300.53 <
3713 1 9 2 7 11.98 271.53 300.53 <
3714 2 9 -2 7 13.11 210.90 173.99 <
3714 1 -9 2 -7 13.11 210.90 173.99 <
3715 2 -10 -2 -7 75.36 -131.81 282.07 <
3715 1 10 2 7 75.36 -131.81 282.07 <
3716 2 10 -2 7 78.45 13.18 168.72 <
3716 1 -10 2 -7 78.45 13.18 168.72 <
3717 2 -11 -2 -7 38.99 416.52 263.62 <
3717 1 11 2 7 38.99 416.52 263.62 <
3718 2 11 -2 7 37.87 84.36 184.54 <
3718 1 -11 2 -7 37.87 84.36 184.54 <
3719 2 -12 -2 -7 111.75 97.54 260.98 <
3719 1 12 2 7 111.75 97.54 260.98 <
3720 2 12 -2 7 110.57 -110.72 208.26 <
3720 1 -12 2 -7 110.57 -110.72 208.26 <
3721 2 15 -3 -7 1282.69 1014.94 245.17 o
3721 1 -15 3 7 1282.69 1014.94 245.17 o
3722 2 -15 -3 7 1294.72 1623.90 287.35 o
3722 1 15 3 -7 1294.72 1623.90 287.35 o
3723 2 14 -3 -7 1534.91 287.35 231.99 <
3723 1 -14 3 7 1534.91 287.35 231.99 <
3724 2 -14 -3 7 1550.36 1041.30 224.08 o
3724 1 14 3 -7 1550.36 1041.30 224.08 o
3725 2 13 -3 -7 30.06 606.33 260.98 o
3725 1 -13 3 7 30.06 606.33 260.98 o
3726 2 -13 -3 7 32.36 477.15 224.08 o
3726 1 13 3 -7 32.36 477.15 224.08 o
3727 2 12 -3 -7 5004.47 3553.61 268.89 o
3727 1 -12 3 7 5004.47 3553.61 268.89 o
3728 2 -12 -3 7 4934.81 4847.99 189.81 o
3728 1 12 3 -7 4934.81 4847.99 189.81 o
3729 2 11 -3 -7 1371.87 891.04 297.89 o
3729 1 -11 3 7 1371.87 891.04 297.89 o
3730 2 -11 -3 7 1390.51 1497.37 184.54 o
3730 1 11 3 -7 1390.51 1497.37 184.54 o
3731 2 10 -3 -7 2518.69 2957.83 284.71 o
3731 1 -10 3 7 2518.69 2957.83 284.71 o
3732 2 -10 -3 7 2512.34 2765.38 168.72 o
3732 1 10 3 -7 2512.34 2765.38 168.72 o
3733 2 9 -3 -7 2800.34 2652.03 247.80 o
3733 1 -9 3 7 2800.34 2652.03 247.80 o
3734 2 -9 -3 7 2848.85 2351.50 158.17 o
3734 1 9 3 -7 2848.85 2351.50 158.17 o
3735 2 8 -3 -7 36.49 150.26 218.80 <
3735 1 -8 3 7 36.49 150.26 218.80 <
3736 2 -8 -3 7 34.94 395.43 150.26 o
3736 1 8 3 -7 34.94 395.43 150.26 o
3737 2 7 -3 -7 6488.75 6748.70 229.35 o
3737 1 -7 3 7 6488.75 6748.70 229.35 o
3738 2 -7 -3 7 6325.31 6543.07 171.35 o
3738 1 7 3 -7 6325.31 6543.07 171.35 o
3739 2 6 -3 -7 2661.31 2947.28 202.99 o
3739 1 -6 3 7 2661.31 2947.28 202.99 o
3740 2 -6 -3 7 2667.77 2907.74 155.54 o
3740 1 6 3 -7 2667.77 2907.74 155.54 o
3741 2 5 -3 -7 2097.55 2045.70 202.99 o
3741 1 -5 3 7 2097.55 2045.70 202.99 o
3742 2 -5 -3 7 2040.32 1821.62 163.45 o
3742 1 5 3 -7 2040.32 1821.62 163.45 o
3743 2 4 -3 -7 2553.92 2855.01 229.35 o
3743 1 -4 3 7 2553.92 2855.01 229.35 o
3744 2 -4 -3 7 2686.84 1921.80 189.81 o
3744 1 4 3 -7 2686.84 1921.80 189.81 o
3745 2 3 -3 -7 160.13 627.42 173.99 o
3745 1 -3 3 7 160.13 627.42 173.99 o
3746 2 2 -3 -7 4811.67 5441.14 137.08 o
3746 1 -2 3 7 4811.67 5441.14 137.08 o
3747 2 1 -3 -7 3152.52 3081.73 121.27 o
3747 1 -1 3 7 3152.52 3081.73 121.27 o
3748 2 0 -3 -7 1708.68 1299.65 115.99 o
3748 1 0 3 7 1708.68 1299.65 115.99 o
3749 2 -1 -3 -7 2469.02 2330.41 118.63 o
3749 1 1 3 7 2469.02 2330.41 118.63 o
3750 2 -2 -3 -7 266.22 727.59 126.54 o
3750 1 2 3 7 266.22 727.59 126.54 o
3751 2 -3 -3 -7 3976.13 4558.01 142.35 o
3751 1 3 3 7 3976.13 4558.01 142.35 o
3752 2 -4 -3 -7 3736.24 3303.17 131.81 o
3752 1 4 3 7 3736.24 3303.17 131.81 o
3753 2 -5 -3 -7 1007.77 938.49 139.72 o
3753 1 5 3 7 1007.77 938.49 139.72 o
3754 2 -6 -3 -7 2670.27 3896.32 147.63 o
3754 1 6 3 7 2670.27 3896.32 147.63 o
3755 2 -7 -3 -7 439.26 611.60 224.08 o
3755 1 7 3 7 439.26 611.60 224.08 o
3756 2 7 -3 7 452.42 582.60 311.07 <
3756 1 -7 3 -7 452.42 582.60 311.07 <
3757 2 -8 -3 -7 2215.79 2301.41 229.35 o
3757 1 8 3 7 2215.79 2301.41 229.35 o
3758 2 8 -3 7 2196.38 2066.79 292.62 o
3758 1 -8 3 -7 2196.38 2066.79 292.62 o
3759 2 -9 -3 -7 2730.79 1702.99 239.90 o
3759 1 9 3 7 2730.79 1702.99 239.90 o
3760 2 9 -3 7 2709.94 2499.13 187.17 o
3760 1 -9 3 -7 2709.94 2499.13 187.17 o
3761 2 -10 -3 -7 277.35 300.53 263.62 <
3761 1 10 3 7 277.35 300.53 263.62 <
3762 2 10 -3 7 258.23 316.35 195.08 <
3762 1 -10 3 -7 258.23 316.35 195.08 <
3763 2 -11 -3 -7 1307.68 1478.91 292.62 o
3763 1 11 3 7 1307.68 1478.91 292.62 o
3764 2 11 -3 7 1371.91 1484.19 197.72 o
3764 1 -11 3 -7 1371.91 1484.19 197.72 o
3765 2 14 -4 -7 52.60 685.41 342.71 <
3765 1 -14 4 7 52.60 685.41 342.71 <
3766 2 -14 -4 7 51.84 395.43 266.26 <
3766 1 14 4 -7 51.84 395.43 266.26 <
3767 2 13 -4 -7 235.57 -347.98 305.80 <
3767 1 -13 4 7 235.57 -347.98 305.80 <
3768 2 -13 -4 7 236.17 419.16 226.71 <
3768 1 13 4 -7 236.17 419.16 226.71 <
3769 2 12 -4 -7 41.89 334.80 221.44 <
3769 1 -12 4 7 41.89 334.80 221.44 <
3770 2 -12 -4 7 40.99 44.82 239.90 <
3770 1 12 4 -7 40.99 44.82 239.90 <
3771 2 11 -4 -7 101.87 487.70 210.90 o
3771 1 -11 4 7 101.87 487.70 210.90 o
3772 2 -11 -4 7 97.35 200.35 200.35 <
3772 1 11 4 -7 97.35 200.35 200.35 <
3773 2 10 -4 -7 147.56 -26.36 168.72 <
3773 1 -10 4 7 147.56 -26.36 168.72 <
3774 2 -10 -4 7 151.88 58.00 189.81 <
3774 1 10 4 -7 151.88 58.00 189.81 <
3775 2 9 -4 -7 135.31 89.63 195.08 <
3775 1 -9 4 7 135.31 89.63 195.08 <
3776 2 -9 -4 7 133.92 340.07 171.35 <
3776 1 9 4 -7 133.92 340.07 171.35 <
3777 2 8 -4 -7 1103.54 814.59 173.99 o
3777 1 -8 4 7 1103.54 814.59 173.99 o
3778 2 -8 -4 7 1107.99 579.97 171.35 o
3778 1 8 4 -7 1107.99 579.97 171.35 o
3779 2 7 -4 -7 47.35 -150.26 168.72 <
3779 1 -7 4 7 47.35 -150.26 168.72 <
3780 2 -7 -4 7 47.92 158.17 163.45 <
3780 1 7 4 -7 47.92 158.17 163.45 <
3781 2 6 -4 -7 121.95 195.08 163.45 <
3781 1 -6 4 7 121.95 195.08 163.45 <
3782 2 -6 -4 7 120.42 52.72 160.81 <
3782 1 6 4 -7 120.42 52.72 160.81 <
3783 2 5 -4 -7 195.78 192.44 192.44 <
3783 1 -5 4 7 195.78 192.44 192.44 <
3784 2 -5 -4 7 197.77 15.82 179.26 <
3784 1 5 4 -7 197.77 15.82 179.26 <
3785 2 4 -4 -7 12.83 479.79 171.35 o
3785 1 -4 4 7 12.83 479.79 171.35 o
3786 2 -4 -4 7 13.42 -52.72 166.08 <
3786 1 4 4 -7 13.42 -52.72 166.08 <
3787 2 3 -4 -7 1213.57 659.05 129.17 o
3787 1 -3 4 7 1213.57 659.05 129.17 o
3788 2 2 -4 -7 65.28 176.63 123.90 <
3788 1 -2 4 7 65.28 176.63 123.90 <
3789 2 1 -4 -7 138.27 163.45 118.63 <
3789 1 -1 4 7 138.27 163.45 118.63 <
3790 2 0 -4 -7 139.99 245.17 115.99 o
3790 1 0 4 7 139.99 245.17 115.99 o
3791 2 -1 -4 -7 35.43 -105.45 115.99 <
3791 1 1 4 7 35.43 -105.45 115.99 <
3792 2 -2 -4 -7 416.44 226.71 126.54 <
3792 1 2 4 7 416.44 226.71 126.54 <
3793 2 -3 -4 -7 219.55 68.54 118.63 <
3793 1 3 4 7 219.55 68.54 118.63 <
3794 2 -4 -4 -7 76.30 15.82 123.90 <
3794 1 4 4 7 76.30 15.82 123.90 <
3795 2 -5 -4 -7 503.11 500.88 134.45 o
3795 1 5 4 7 503.11 500.88 134.45 o
3796 2 -6 -4 -7 2.69 34.27 126.54 <
3796 1 6 4 7 2.69 34.27 126.54 <
3797 2 -7 -4 -7 205.90 50.09 134.45 <
3797 1 7 4 7 205.90 50.09 134.45 <
3798 2 -8 -4 -7 76.35 179.26 218.80 <
3798 1 8 4 7 76.35 179.26 218.80 <
3799 2 8 -4 7 81.13 171.35 363.80 <
3799 1 -8 4 -7 81.13 171.35 363.80 <
3800 2 -9 -4 -7 20.51 126.54 205.62 <
3800 1 9 4 7 20.51 126.54 205.62 <
3801 2 9 -4 7 18.16 -110.72 355.89 <
3801 1 -9 4 -7 18.16 -110.72 355.89 <
3802 2 -10 -4 -7 213.95 137.08 221.44 <
3802 1 10 4 7 213.95 137.08 221.44 <
3803 2 10 -4 7 221.49 131.81 202.99 <
3803 1 -10 4 -7 221.49 131.81 202.99 <
3804 2 13 -5 -7 95.31 477.15 221.44 o
3804 1 -13 5 7 95.31 477.15 221.44 o
3805 2 -13 -5 7 98.69 880.49 263.62 o
3805 1 13 5 -7 98.69 880.49 263.62 o
3806 2 12 -5 -7 3579.83 4009.67 202.99 o
3806 1 -12 5 7 3579.83 4009.67 202.99 o
3807 2 -12 -5 7 3541.09 3717.06 282.07 o
3807 1 12 5 -7 3541.09 3717.06 282.07 o
3808 2 11 -5 -7 2683.08 2609.85 195.08 o
3808 1 -11 5 7 2683.08 2609.85 195.08 o
3809 2 -11 -5 7 2689.97 2641.48 266.26 o
3809 1 11 5 -7 2689.97 2641.48 266.26 o
3810 2 10 -5 -7 2907.31 2778.56 173.99 o
3810 1 -10 5 7 2907.31 2778.56 173.99 o
3811 2 -10 -5 7 2875.71 3213.54 237.26 o
3811 1 10 5 -7 2875.71 3213.54 237.26 o
3812 2 9 -5 -7 5963.41 6376.99 187.17 o
3812 1 -9 5 7 5963.41 6376.99 187.17 o
3813 2 -9 -5 7 6045.40 4776.81 216.17 o
3813 1 9 5 -7 6045.40 4776.81 216.17 o
3814 2 8 -5 -7 119.85 664.33 166.08 o
3814 1 -8 5 7 119.85 664.33 166.08 o
3815 2 -8 -5 7 118.14 561.51 192.44 o
3815 1 8 5 -7 118.14 561.51 192.44 o
3816 2 7 -5 -7 10032.50 11470.10 187.17 o
3816 1 -7 5 7 10032.50 11470.10 187.17 o
3817 2 -7 -5 7 10041.70 10420.90 218.80 o
3817 1 7 5 -7 10041.70 10420.90 218.80 o
3818 2 6 -5 -7 7444.70 8219.70 197.72 o
3818 1 -6 5 7 7444.70 8219.70 197.72 o
3819 2 -6 -5 7 7426.21 7196.85 202.99 o
3819 1 6 5 -7 7426.21 7196.85 202.99 o
3820 2 5 -5 -7 6380.68 6851.51 195.08 o
3820 1 -5 5 7 6380.68 6851.51 195.08 o
3821 2 -5 -5 7 6325.81 6450.80 221.44 o
3821 1 5 5 -7 6325.81 6450.80 221.44 o
3822 2 4 -5 -7 14810.70 15835.70 213.53 o
3822 1 -4 5 7 14810.70 15835.70 213.53 o
3823 2 3 -5 -7 274.21 1434.10 121.27 o
3823 1 -3 5 7 274.21 1434.10 121.27 o
3824 2 2 -5 -7 15448.00 16921.80 147.63 o
3824 1 -2 5 7 15448.00 16921.80 147.63 o
3825 2 1 -5 -7 11287.40 13616.00 147.63 o
3825 1 -1 5 7 11287.40 13616.00 147.63 o
3826 2 0 -5 -7 5088.98 4312.84 123.90 o
3826 1 0 5 7 5088.98 4312.84 123.90 o
3827 2 -1 -5 -7 14653.70 16207.40 147.63 o
3827 1 1 5 7 14653.70 16207.40 147.63 o
3828 2 -2 -5 -7 518.71 1326.01 121.27 o
3828 1 2 5 7 518.71 1326.01 121.27 o
3829 2 -3 -5 -7 8777.42 9503.53 137.08 o
3829 1 3 5 7 8777.42 9503.53 137.08 o
3830 2 -4 -5 -7 6618.39 9042.20 144.99 o
3830 1 4 5 7 6618.39 9042.20 144.99 o
3831 2 -5 -5 -7 1885.51 1331.29 126.54 o
3831 1 5 5 7 1885.51 1331.29 126.54 o
3832 2 -6 -5 -7 5750.92 6651.16 142.35 o
3832 1 6 5 7 5750.92 6651.16 142.35 o
3833 2 -7 -5 -7 218.23 577.33 147.63 o
3833 1 7 5 7 218.23 577.33 147.63 o
3834 2 -8 -5 -7 2794.56 2615.12 152.90 o
3834 1 8 5 7 2794.56 2615.12 152.90 o
3835 2 -9 -5 -7 1878.04 2135.33 187.17 o
3835 1 9 5 7 1878.04 2135.33 187.17 o
3836 2 9 -5 7 1839.76 1581.73 461.34 o
3836 1 -9 5 -7 1839.76 1581.73 461.34 o
3837 2 11 -6 -7 718.34 282.07 171.35 <
3837 1 -11 6 7 718.34 282.07 171.35 <
3838 2 -11 -6 7 716.81 -84.36 297.89 <
3838 1 11 6 -7 716.81 -84.36 297.89 <
3839 2 10 -6 -7 327.86 292.62 158.17 <
3839 1 -10 6 7 327.86 292.62 158.17 <
3840 2 -10 -6 7 327.04 295.26 255.71 <
3840 1 10 6 -7 327.04 295.26 255.71 <
3841 2 9 -6 -7 250.24 -234.62 173.99 <
3841 1 -9 6 7 250.24 -234.62 173.99 <
3842 2 -9 -6 7 252.42 197.72 234.62 <
3842 1 9 6 -7 252.42 197.72 234.62 <
3843 2 8 -6 -7 161.50 347.98 160.81 o
3843 1 -8 6 7 161.50 347.98 160.81 o
3844 2 -8 -6 7 163.73 144.99 226.71 <
3844 1 8 6 -7 163.73 144.99 226.71 <
3845 2 7 -6 -7 223.97 -13.18 163.45 <
3845 1 -7 6 7 223.97 -13.18 163.45 <
3846 2 -7 -6 7 221.73 150.26 200.35 <
3846 1 7 6 -7 221.73 150.26 200.35 <
3847 2 6 -6 -7 593.17 798.77 184.54 o
3847 1 -6 6 7 593.17 798.77 184.54 o
3848 2 -6 -6 7 590.19 403.34 166.08 o
3848 1 6 6 -7 590.19 403.34 166.08 o
3849 2 5 -6 -7 464.00 695.96 179.26 o
3849 1 -5 6 7 464.00 695.96 179.26 o
3850 2 -5 -6 7 462.32 340.07 326.89 <
3850 1 5 6 -7 462.32 340.07 326.89 <
3851 2 4 -6 -7 93.91 250.44 115.99 o
3851 1 -4 6 7 93.91 250.44 115.99 o
3852 2 3 -6 -7 32.16 21.09 126.54 <
3852 1 -3 6 7 32.16 21.09 126.54 <
3853 2 2 -6 -7 276.91 300.53 121.27 o
3853 1 -2 6 7 276.91 300.53 121.27 o
3854 2 1 -6 -7 1.35 73.81 121.27 <
3854 1 -1 6 7 1.35 73.81 121.27 <
3855 2 0 -6 -7 177.98 147.63 123.90 <
3855 1 0 6 7 177.98 147.63 123.90 <
3856 2 -1 -6 -7 44.12 160.81 121.27 <
3856 1 1 6 7 44.12 160.81 121.27 <
3857 2 -2 -6 -7 768.54 698.59 131.81 o
3857 1 2 6 7 768.54 698.59 131.81 o
3858 2 -3 -6 -7 189.39 189.81 131.81 <
3858 1 3 6 7 189.39 189.81 131.81 <
3859 2 -4 -6 -7 137.48 86.99 134.45 <
3859 1 4 6 7 137.48 86.99 134.45 <
3860 2 -5 -6 -7 296.48 -39.54 129.17 <
3860 1 5 6 7 296.48 -39.54 129.17 <
3861 2 -6 -6 -7 25.64 250.44 131.81 <
3861 1 6 6 7 25.64 250.44 131.81 <
3862 2 -7 -6 -7 555.30 656.42 139.72 o
3862 1 7 6 7 555.30 656.42 139.72 o
3863 2 -8 -6 -7 143.79 73.81 152.90 <
3863 1 8 6 7 143.79 73.81 152.90 <
3864 2 9 -7 -7 1173.94 875.22 173.99 o
3864 1 -9 7 7 1173.94 875.22 173.99 o
3865 2 -9 -7 7 1218.75 688.05 308.44 o
3865 1 9 7 -7 1218.75 688.05 308.44 o
3866 2 8 -7 -7 36.63 255.71 200.35 <
3866 1 -8 7 7 36.63 255.71 200.35 <
3867 2 -8 -7 7 35.32 -139.72 284.71 <
3867 1 8 7 -7 35.32 -139.72 284.71 <
3868 2 7 -7 -7 808.65 1123.03 192.44 o
3868 1 -7 7 7 808.65 1123.03 192.44 o
3869 2 -7 -7 7 855.33 1009.67 189.81 o
3869 1 7 7 -7 855.33 1009.67 189.81 o
3870 2 6 -7 -7 892.20 1138.84 171.35 o
3870 1 -6 7 7 892.20 1138.84 171.35 o
3871 2 -6 -7 7 863.67 885.77 282.07 o
3871 1 6 7 -7 863.67 885.77 282.07 o
3872 2 5 -7 -7 487.16 867.31 134.45 o
3872 1 -5 7 7 487.16 867.31 134.45 o
3873 2 -5 -7 7 466.36 582.60 326.89 <
3873 1 5 7 -7 466.36 582.60 326.89 <
3874 2 4 -7 -7 782.58 822.50 131.81 o
3874 1 -4 7 7 782.58 822.50 131.81 o
3875 2 3 -7 -7 8.36 453.43 131.81 o
3875 1 -3 7 7 8.36 453.43 131.81 o
3876 2 2 -7 -7 401.43 677.51 126.54 o
3876 1 -2 7 7 401.43 677.51 126.54 o
3877 2 1 -7 -7 648.78 1020.21 126.54 o
3877 1 -1 7 7 648.78 1020.21 126.54 o
3878 2 0 -7 -7 281.47 582.60 131.81 o
3878 1 0 7 7 281.47 582.60 131.81 o
3879 2 -1 -7 -7 1002.40 1059.76 126.54 o
3879 1 1 7 7 1002.40 1059.76 126.54 o
3880 2 -2 -7 -7 91.80 548.33 131.81 o
3880 1 2 7 7 91.80 548.33 131.81 o
3881 2 -3 -7 -7 675.82 727.59 126.54 o
3881 1 3 7 7 675.82 727.59 126.54 o
3882 2 -4 -7 -7 1104.49 941.13 137.08 o
3882 1 4 7 7 1104.49 941.13 137.08 o
3883 2 -5 -7 -7 198.40 287.35 134.45 o
3883 1 5 7 7 198.40 287.35 134.45 o
3884 2 4 -8 -7 66.52 -92.27 134.45 <
3884 1 -4 8 7 66.52 -92.27 134.45 <
3885 2 3 -8 -7 77.92 226.71 134.45 <
3885 1 -3 8 7 77.92 226.71 134.45 <
3886 2 2 -8 -7 19.50 358.52 137.08 o
3886 1 -2 8 7 19.50 358.52 137.08 o
3887 2 1 -8 -7 15.42 424.43 137.08 o
3887 1 -1 8 7 15.42 424.43 137.08 o
3888 2 0 -8 -7 73.81 187.17 137.08 <
3888 1 0 8 7 73.81 187.17 137.08 <
3889 3 -10 0 -8 2339.92 1589.63 469.24 o
3889 2 14 0 -8 2339.92 1589.63 469.24 o
3889 1 -14 0 8 2339.92 1589.63 469.24 o
3890 3 10 0 8 2361.35 1225.84 292.62 o
3890 2 -14 0 8 2361.35 1225.84 292.62 o
3890 1 14 0 -8 2361.35 1225.84 292.62 o
3891 3 -9 0 -8 678.52 1067.66 540.42 <
3891 2 13 0 -8 678.52 1067.66 540.42 <
3891 1 -13 0 8 678.52 1067.66 540.42 <
3892 3 9 0 8 684.02 521.97 229.35 o
3892 2 -13 0 8 684.02 521.97 229.35 o
3892 1 13 0 -8 684.02 521.97 229.35 o
3893 3 -8 0 -8 7761.70 8016.71 582.60 o
3893 2 12 0 -8 7761.70 8016.71 582.60 o
3893 1 -12 0 8 7761.70 8016.71 582.60 o
3894 3 8 0 8 7910.61 7289.12 239.90 o
3894 2 -12 0 8 7910.61 7289.12 239.90 o
3894 1 12 0 -8 7910.61 7289.12 239.90 o
3895 3 -7 0 -8 1175.07 1621.27 511.42 o
3895 2 11 0 -8 1175.07 1621.27 511.42 o
3895 1 -11 0 8 1175.07 1621.27 511.42 o
3896 3 7 0 8 1161.37 1542.18 213.53 o
3896 2 -11 0 8 1161.37 1542.18 213.53 o
3896 1 11 0 -8 1161.37 1542.18 213.53 o
3897 3 -6 0 -8 5544.28 5319.87 403.34 o
3897 2 10 0 -8 5544.28 5319.87 403.34 o
3897 1 -10 0 8 5544.28 5319.87 403.34 o
3898 3 6 0 8 5389.53 6018.47 239.90 o
3898 2 -10 0 8 5389.53 6018.47 239.90 o
3898 1 10 0 -8 5389.53 6018.47 239.90 o
3899 3 -5 0 -8 8480.86 7821.63 434.98 o
3899 2 9 0 -8 8480.86 7821.63 434.98 o
3899 1 -9 0 8 8480.86 7821.63 434.98 o
3900 3 5 0 8 8464.24 7571.19 213.53 o
3900 2 -9 0 8 8464.24 7571.19 213.53 o
3900 1 9 0 -8 8464.24 7571.19 213.53 o
3901 3 -4 0 -8 1942.18 1249.56 374.34 o
3901 2 8 0 -8 1942.18 1249.56 374.34 o
3901 1 -8 0 8 1942.18 1249.56 374.34 o
3902 3 4 0 8 1875.56 1022.85 216.17 o
3902 2 -8 0 8 1875.56 1022.85 216.17 o
3902 1 8 0 -8 1875.56 1022.85 216.17 o
3903 3 -3 0 -8 23957.40 24688.10 421.79 o
3903 2 7 0 -8 23957.40 24688.10 421.79 o
3903 1 -7 0 8 23957.40 24688.10 421.79 o
3904 3 3 0 8 24222.60 27247.90 297.89 o
3904 2 -7 0 8 24222.60 27247.90 297.89 o
3904 1 7 0 -8 24222.60 27247.90 297.89 o
3905 3 -2 0 -8 3011.67 4223.21 347.98 o
3905 2 6 0 -8 3011.67 4223.21 347.98 o
3905 1 -6 0 8 3011.67 4223.21 347.98 o
3906 3 2 0 8 2998.48 3827.78 226.71 o
3906 2 -6 0 8 2998.48 3827.78 226.71 o
3906 1 6 0 -8 2998.48 3827.78 226.71 o
3907 3 -1 0 -8 15705.60 14768.00 345.34 o
3907 2 5 0 -8 15705.60 14768.00 345.34 o
3907 1 -5 0 8 15705.60 14768.00 345.34 o
3908 3 1 0 8 15527.30 16265.40 258.35 o
3908 2 -5 0 8 15527.30 16265.40 258.35 o
3908 1 5 0 -8 15527.30 16265.40 258.35 o
3909 3 0 0 -8 19300.60 19305.00 353.25 o
3909 2 4 0 -8 19300.60 19305.00 353.25 o
3909 1 -4 0 8 19300.60 19305.00 353.25 o
3910 3 1 0 -8 2692.48 2393.68 187.17 o
3910 2 3 0 -8 2692.48 2393.68 187.17 o
3910 1 -3 0 8 2692.48 2393.68 187.17 o
3911 3 2 0 -8 39894.90 44607.30 287.35 o
3911 2 2 0 -8 39894.90 44607.30 287.35 o
3911 1 -2 0 8 39894.90 44607.30 287.35 o
3912 3 3 0 -8 5105.14 5014.07 197.72 o
3912 2 1 0 -8 5105.14 5014.07 197.72 o
3912 1 -1 0 8 5105.14 5014.07 197.72 o
3913 3 4 0 -8 17143.70 13102.00 208.26 o
3913 2 0 0 -8 17143.70 13102.00 208.26 o
3913 1 0 0 8 17143.70 13102.00 208.26 o
3914 3 5 0 -8 19705.80 20285.60 239.90 o
3914 2 -1 0 -8 19705.80 20285.60 239.90 o
3914 1 1 0 8 19705.80 20285.60 239.90 o
3915 3 6 0 -8 1489.64 2074.70 192.44 o
3915 2 -2 0 -8 1489.64 2074.70 192.44 o
3915 1 2 0 8 1489.64 2074.70 192.44 o
3916 3 7 0 -8 26437.10 27690.70 266.26 o
3916 2 -3 0 -8 26437.10 27690.70 266.26 o
3916 1 3 0 8 26437.10 27690.70 266.26 o
3917 3 8 0 -8 3743.61 2955.19 189.81 o
3917 2 -4 0 -8 3743.61 2955.19 189.81 o
3917 1 4 0 8 3743.61 2955.19 189.81 o
3918 3 9 0 -8 7684.85 6511.44 216.17 o
3918 2 -5 0 -8 7684.85 6511.44 216.17 o
3918 1 5 0 8 7684.85 6511.44 216.17 o
3919 3 10 0 -8 7165.29 7410.38 258.35 o
3919 2 -6 0 -8 7165.29 7410.38 258.35 o
3919 1 6 0 8 7165.29 7410.38 258.35 o
3920 3 11 0 -8 665.44 1146.75 284.71 o
3920 2 -7 0 -8 665.44 1146.75 284.71 o
3920 1 7 0 8 665.44 1146.75 284.71 o
3921 3 12 0 -8 8476.17 8124.80 608.96 o
3921 2 -8 0 -8 8476.17 8124.80 608.96 o
3921 1 8 0 8 8476.17 8124.80 608.96 o
3922 3 13 0 -8 1219.00 1115.12 545.70 o
3922 2 -9 0 -8 1219.00 1115.12 545.70 o
3922 1 9 0 8 1219.00 1115.12 545.70 o
3923 3 -13 0 8 1228.20 461.34 253.08 <
3923 2 9 0 8 1228.20 461.34 253.08 <
3923 1 -9 0 -8 1228.20 461.34 253.08 <
3924 3 14 0 -8 2125.42 1434.10 471.88 o
3924 2 -10 0 -8 2125.42 1434.10 471.88 o
3924 1 10 0 8 2125.42 1434.10 471.88 o
3925 3 -14 0 8 2115.83 1768.90 266.26 o
3925 2 10 0 8 2115.83 1768.90 266.26 o
3925 1 -10 0 -8 2115.83 1768.90 266.26 o
3926 3 -10 -1 -8 58.12 -471.88 295.26 <
3926 2 14 -1 -8 58.12 -471.88 295.26 <
3926 1 -14 1 8 58.12 -471.88 295.26 <
3927 3 10 -1 8 58.93 442.88 195.08 o
3927 2 -14 -1 8 58.93 442.88 195.08 o
3927 1 14 1 -8 58.93 442.88 195.08 o
3928 3 -9 -1 -8 310.17 126.54 255.71 <
3928 2 13 -1 -8 310.17 126.54 255.71 <
3928 1 -13 1 8 310.17 126.54 255.71 <
3929 3 9 -1 8 307.98 213.53 163.45 <
3929 2 -13 -1 8 307.98 213.53 163.45 <
3929 1 13 1 -8 307.98 213.53 163.45 <
3930 3 -8 -1 -8 33.40 690.69 287.35 o
3930 2 12 -1 -8 33.40 690.69 287.35 o
3930 1 -12 1 8 33.40 690.69 287.35 o
3931 3 8 -1 8 34.13 405.98 171.35 o
3931 2 -12 -1 8 34.13 405.98 171.35 o
3931 1 12 1 -8 34.13 405.98 171.35 o
3932 3 -7 -1 -8 767.01 543.06 263.62 o
3932 2 11 -1 -8 767.01 543.06 263.62 o
3932 1 -11 1 8 767.01 543.06 263.62 o
3933 3 7 -1 8 768.39 490.33 155.54 o
3933 2 -11 -1 8 768.39 490.33 155.54 o
3933 1 11 1 -8 768.39 490.33 155.54 o
3934 3 -6 -1 -8 237.71 500.88 253.08 <
3934 2 10 -1 -8 237.71 500.88 253.08 <
3934 1 -10 1 8 237.71 500.88 253.08 <
3935 3 6 -1 8 237.59 574.69 163.45 o
3935 2 -10 -1 8 237.59 574.69 163.45 o
3935 1 10 1 -8 237.59 574.69 163.45 o
3936 3 -5 -1 -8 392.29 155.54 308.44 <
3936 2 9 -1 -8 392.29 155.54 308.44 <
3936 1 -9 1 8 392.29 155.54 308.44 <
3937 3 5 -1 8 392.73 292.62 150.26 <
3937 2 -9 -1 8 392.73 292.62 150.26 <
3937 1 9 1 -8 392.73 292.62 150.26 <
3938 3 -4 -1 -8 1188.87 988.58 366.43 o
3938 2 8 -1 -8 1188.87 988.58 366.43 o
3938 1 -8 1 8 1188.87 988.58 366.43 o
3939 3 4 -1 8 1186.84 1175.75 142.35 o
3939 2 -8 -1 8 1186.84 1175.75 142.35 o
3939 1 8 1 -8 1186.84 1175.75 142.35 o
3940 3 -3 -1 -8 31.74 427.07 337.43 <
3940 2 7 -1 -8 31.74 427.07 337.43 <
3940 1 -7 1 8 31.74 427.07 337.43 <
3941 3 3 -1 8 31.83 287.35 139.72 o
3941 2 -7 -1 8 31.83 287.35 139.72 o
3941 1 7 1 -8 31.83 287.35 139.72 o
3942 3 -2 -1 -8 1718.31 1629.18 326.89 o
3942 2 6 -1 -8 1718.31 1629.18 326.89 o
3942 1 -6 1 8 1718.31 1629.18 326.89 o
3943 3 2 -1 8 1715.78 1397.19 144.99 o
3943 2 -6 -1 8 1715.78 1397.19 144.99 o
3943 1 6 1 -8 1715.78 1397.19 144.99 o
3944 3 -1 -1 -8 452.24 854.13 300.53 o
3944 2 5 -1 -8 452.24 854.13 300.53 o
3944 1 -5 1 8 452.24 854.13 300.53 o
3945 3 1 -1 8 453.68 788.23 155.54 o
3945 2 -5 -1 8 453.68 788.23 155.54 o
3945 1 5 1 -8 453.68 788.23 155.54 o
3946 3 0 -1 -8 394.07 727.59 308.44 o
3946 2 4 -1 -8 394.07 727.59 308.44 o
3946 1 -4 1 8 394.07 727.59 308.44 o
3947 3 1 -1 -8 1247.10 1442.01 163.45 o
3947 2 3 -1 -8 1247.10 1442.01 163.45 o
3947 1 -3 1 8 1247.10 1442.01 163.45 o
3948 3 2 -1 -8 40.58 176.63 160.81 <
3948 2 2 -1 -8 40.58 176.63 160.81 <
3948 1 -2 1 8 40.58 176.63 160.81 <
3949 3 3 -1 -8 1163.03 1107.21 160.81 o
3949 2 1 -1 -8 1163.03 1107.21 160.81 o
3949 1 -1 1 8 1163.03 1107.21 160.81 o
3950 3 4 -1 -8 243.45 295.26 155.54 <
3950 2 0 -1 -8 243.45 295.26 155.54 <
3950 1 0 1 8 243.45 295.26 155.54 <
3951 3 5 -1 -8 232.87 355.89 171.35 o
3951 2 -1 -1 -8 232.87 355.89 171.35 o
3951 1 1 1 8 232.87 355.89 171.35 o
3952 3 6 -1 -8 861.39 956.94 187.17 o
3952 2 -2 -1 -8 861.39 956.94 187.17 o
3952 1 2 1 8 861.39 956.94 187.17 o
3953 3 7 -1 -8 50.50 187.17 210.90 <
3953 2 -3 -1 -8 50.50 187.17 210.90 <
3953 1 3 1 8 50.50 187.17 210.90 <
3954 3 8 -1 -8 658.45 558.88 239.90 o
3954 2 -4 -1 -8 658.45 558.88 239.90 o
3954 1 4 1 8 658.45 558.88 239.90 o
3955 3 9 -1 -8 322.45 266.26 184.54 <
3955 2 -5 -1 -8 322.45 266.26 184.54 <
3955 1 5 1 8 322.45 266.26 184.54 <
3956 3 10 -1 -8 116.76 263.62 166.08 <
3956 2 -6 -1 -8 116.76 263.62 166.08 <
3956 1 6 1 8 116.76 263.62 166.08 <
3957 3 11 -1 -8 541.84 442.88 166.08 o
3957 2 -7 -1 -8 541.84 442.88 166.08 o
3957 1 7 1 8 541.84 442.88 166.08 o
3958 3 12 -1 -8 63.68 316.35 266.26 <
3958 2 -8 -1 -8 63.68 316.35 266.26 <
3958 1 8 1 8 63.68 316.35 266.26 <
3959 3 13 -1 -8 172.08 79.09 287.35 <
3959 2 -9 -1 -8 172.08 79.09 287.35 <
3959 1 9 1 8 172.08 79.09 287.35 <
3960 3 -13 -1 8 173.93 -18.45 247.80 <
3960 2 9 -1 8 173.93 -18.45 247.80 <
3960 1 -9 1 -8 173.93 -18.45 247.80 <
3961 3 14 -1 -8 90.22 -110.72 282.07 <
3961 2 -10 -1 -8 90.22 -110.72 282.07 <
3961 1 10 1 8 90.22 -110.72 282.07 <
3962 3 -14 -1 8 89.25 253.08 171.35 <
3962 2 10 -1 8 89.25 253.08 171.35 <
3962 1 -10 1 -8 89.25 253.08 171.35 <
3963 3 -10 -2 -8 1312.81 503.52 255.71 <
3963 2 14 -2 -8 1312.81 503.52 255.71 <
3963 1 -14 2 8 1312.81 503.52 255.71 <
3964 3 10 -2 8 1339.35 951.67 221.44 o
3964 2 -14 -2 8 1339.35 951.67 221.44 o
3964 1 14 2 -8 1339.35 951.67 221.44 o
3965 3 -9 -2 -8 1202.10 1038.67 258.35 o
3965 2 13 -2 -8 1202.10 1038.67 258.35 o
3965 1 -13 2 8 1202.10 1038.67 258.35 o
3966 3 9 -2 8 1204.57 714.41 189.81 o
3966 2 -13 -2 8 1204.57 714.41 189.81 o
3966 1 13 2 -8 1204.57 714.41 189.81 o
3967 3 -8 -2 -8 5590.25 4215.30 263.62 o
3967 2 12 -2 -8 5590.25 4215.30 263.62 o
3967 1 -12 2 8 5590.25 4215.30 263.62 o
3968 3 8 -2 8 5671.41 5781.21 181.90 o
3968 2 -12 -2 8 5671.41 5781.21 181.90 o
3968 1 12 2 -8 5671.41 5781.21 181.90 o
3969 3 -7 -2 -8 103.35 100.18 258.35 <
3969 2 11 -2 -8 103.35 100.18 258.35 <
3969 1 -11 2 8 103.35 100.18 258.35 <
3970 3 7 -2 8 103.09 10.54 166.08 <
3970 2 -11 -2 8 103.09 10.54 166.08 <
3970 1 11 2 -8 103.09 10.54 166.08 <
3971 3 -6 -2 -8 3957.57 3424.44 271.53 o
3971 2 10 -2 -8 3957.57 3424.44 271.53 o
3971 1 -10 2 8 3957.57 3424.44 271.53 o
3972 3 6 -2 8 3792.60 4465.74 171.35 o
3972 2 -10 -2 8 3792.60 4465.74 171.35 o
3972 1 10 2 -8 3792.60 4465.74 171.35 o
3973 3 -5 -2 -8 2156.15 1500.00 300.53 o
3973 2 9 -2 -8 2156.15 1500.00 300.53 o
3973 1 -9 2 8 2156.15 1500.00 300.53 o
3974 3 5 -2 8 2187.70 1782.08 171.35 o
3974 2 -9 -2 8 2187.70 1782.08 171.35 o
3974 1 9 2 -8 2187.70 1782.08 171.35 o
3975 3 -4 -2 -8 971.93 954.31 332.16 o
3975 2 8 -2 -8 971.93 954.31 332.16 o
3975 1 -8 2 8 971.93 954.31 332.16 o
3976 3 4 -2 8 967.06 1138.84 142.35 o
3976 2 -8 -2 8 967.06 1138.84 142.35 o
3976 1 8 2 -8 967.06 1138.84 142.35 o
3977 3 -3 -2 -8 6640.48 6796.15 411.25 o
3977 2 7 -2 -8 6640.48 6796.15 411.25 o
3977 1 -7 2 8 6640.48 6796.15 411.25 o
3978 3 3 -2 8 6772.94 7270.67 173.99 o
3978 2 -7 -2 8 6772.94 7270.67 173.99 o
3978 1 7 2 -8 6772.94 7270.67 173.99 o
3979 3 -2 -2 -8 185.57 179.26 390.16 <
3979 2 6 -2 -8 185.57 179.26 390.16 <
3979 1 -6 2 8 185.57 179.26 390.16 <
3980 3 2 -2 8 186.65 29.00 139.72 <
3980 2 -6 -2 8 186.65 29.00 139.72 <
3980 1 6 2 -8 186.65 29.00 139.72 <
3981 3 -1 -2 -8 2555.27 2949.92 350.62 o
3981 2 5 -2 -8 2555.27 2949.92 350.62 o
3981 1 -5 2 8 2555.27 2949.92 350.62 o
3982 3 1 -2 8 2439.15 2844.47 166.08 o
3982 2 -5 -2 8 2439.15 2844.47 166.08 o
3982 1 5 2 -8 2439.15 2844.47 166.08 o
3983 3 0 -2 -8 1410.06 1444.64 231.99 o
3983 2 4 -2 -8 1410.06 1444.64 231.99 o
3983 1 -4 2 8 1410.06 1444.64 231.99 o
3984 3 1 -2 -8 167.11 561.51 144.99 o
3984 2 3 -2 -8 167.11 561.51 144.99 o
3984 1 -3 2 8 167.11 561.51 144.99 o
3985 3 2 -2 -8 4716.47 4268.02 142.35 o
3985 2 2 -2 -8 4716.47 4268.02 142.35 o
3985 1 -2 2 8 4716.47 4268.02 142.35 o
3986 3 3 -2 -8 212.54 160.81 118.63 <
3986 2 1 -2 -8 212.54 160.81 118.63 <
3986 1 -1 2 8 212.54 160.81 118.63 <
3987 3 4 -2 -8 1356.77 1246.93 121.27 o
3987 2 0 -2 -8 1356.77 1246.93 121.27 o
3987 1 0 2 8 1356.77 1246.93 121.27 o
3988 3 5 -2 -8 1568.45 1892.80 123.90 o
3988 2 -1 -2 -8 1568.45 1892.80 123.90 o
3988 1 1 2 8 1568.45 1892.80 123.90 o
3989 3 6 -2 -8 141.32 76.45 118.63 <
3989 2 -2 -2 -8 141.32 76.45 118.63 <
3989 1 2 2 8 141.32 76.45 118.63 <
3990 3 7 -2 -8 4960.67 5269.78 163.45 o
3990 2 -3 -2 -8 4960.67 5269.78 163.45 o
3990 1 3 2 8 4960.67 5269.78 163.45 o
3991 3 8 -2 -8 793.02 846.22 139.72 o
3991 2 -4 -2 -8 793.02 846.22 139.72 o
3991 1 4 2 8 793.02 846.22 139.72 o
3992 3 9 -2 -8 1684.18 1291.74 144.99 o
3992 2 -5 -2 -8 1684.18 1291.74 144.99 o
3992 1 5 2 8 1684.18 1291.74 144.99 o
3993 3 10 -2 -8 2618.89 3171.36 200.35 o
3993 2 -6 -2 -8 2618.89 3171.36 200.35 o
3993 1 6 2 8 2618.89 3171.36 200.35 o
3994 3 11 -2 -8 137.52 102.81 179.26 <
3994 2 -7 -2 -8 137.52 102.81 179.26 <
3994 1 7 2 8 137.52 102.81 179.26 <
3995 3 12 -2 -8 4244.48 4191.57 216.17 o
3995 2 -8 -2 -8 4244.48 4191.57 216.17 o
3995 1 8 2 8 4244.48 4191.57 216.17 o
3996 3 13 -2 -8 1161.14 469.24 392.80 <
3996 2 -9 -2 -8 1161.14 469.24 392.80 <
3996 1 9 2 8 1161.14 469.24 392.80 <
3997 3 -13 -2 8 1161.49 877.86 295.26 o
3997 2 9 -2 8 1161.49 877.86 295.26 o
3997 1 -9 2 -8 1161.49 877.86 295.26 o
3998 3 14 -2 -8 985.97 303.16 337.43 <
3998 2 -10 -2 -8 985.97 303.16 337.43 <
3998 1 10 2 8 985.97 303.16 337.43 <
3999 3 -14 -2 8 968.48 532.51 184.54 o
3999 2 10 -2 8 968.48 532.51 184.54 o
3999 1 -10 2 -8 968.48 532.51 184.54 o
4000 3 -9 -3 -8 204.81 100.18 282.07 <
4000 2 13 -3 -8 204.81 100.18 282.07 <
4000 1 -13 3 8 204.81 100.18 282.07 <
4001 3 9 -3 8 206.31 187.17 189.81 <
4001 2 -13 -3 8 206.31 187.17 189.81 <
4001 1 13 3 -8 206.31 187.17 189.81 <
4002 3 -8 -3 -8 101.73 247.80 329.53 <
4002 2 12 -3 -8 101.73 247.80 329.53 <
4002 1 -12 3 8 101.73 247.80 329.53 <
4003 3 8 -3 8 93.44 577.33 173.99 o
4003 2 -12 -3 8 93.44 577.33 173.99 o
4003 1 12 3 -8 93.44 577.33 173.99 o
4004 3 -7 -3 -8 246.57 -97.54 316.35 <
4004 2 11 -3 -8 246.57 -97.54 316.35 <
4004 1 -11 3 8 246.57 -97.54 316.35 <
4005 3 7 -3 8 255.23 166.08 163.45 <
4005 2 -11 -3 8 255.23 166.08 163.45 <
4005 1 11 3 -8 255.23 166.08 163.45 <
4006 3 -6 -3 -8 330.38 81.72 274.17 <
4006 2 10 -3 -8 330.38 81.72 274.17 <
4006 1 -10 3 8 330.38 81.72 274.17 <
4007 3 6 -3 8 333.82 289.98 160.81 <
4007 2 -10 -3 8 333.82 289.98 160.81 <
4007 1 10 3 -8 333.82 289.98 160.81 <
4008 3 -5 -3 -8 589.79 569.42 239.90 o
4008 2 9 -3 -8 589.79 569.42 239.90 o
4008 1 -9 3 8 589.79 569.42 239.90 o
4009 3 5 -3 8 587.27 482.43 152.90 o
4009 2 -9 -3 8 587.27 482.43 152.90 o
4009 1 9 3 -8 587.27 482.43 152.90 o
4010 3 -4 -3 -8 1077.99 759.23 229.35 o
4010 2 8 -3 -8 1077.99 759.23 229.35 o
4010 1 -8 3 8 1077.99 759.23 229.35 o
4011 3 4 -3 8 1080.64 827.77 158.17 o
4011 2 -8 -3 8 1080.64 827.77 158.17 o
4011 1 8 3 -8 1080.64 827.77 158.17 o
4012 3 -3 -3 -8 115.33 192.44 213.53 <
4012 2 7 -3 -8 115.33 192.44 213.53 <
4012 1 -7 3 8 115.33 192.44 213.53 <
4013 3 3 -3 8 108.00 305.80 158.17 <
4013 2 -7 -3 8 108.00 305.80 158.17 <
4013 1 7 3 -8 108.00 305.80 158.17 <
4014 3 -2 -3 -8 756.44 922.67 202.99 o
4014 2 6 -3 -8 756.44 922.67 202.99 o
4014 1 -6 3 8 756.44 922.67 202.99 o
4015 3 2 -3 8 768.30 901.58 160.81 o
4015 2 -6 -3 8 768.30 901.58 160.81 o
4015 1 6 3 -8 768.30 901.58 160.81 o
4016 3 -1 -3 -8 663.13 587.88 229.35 o
4016 2 5 -3 -8 663.13 587.88 229.35 o
4016 1 -5 3 8 663.13 587.88 229.35 o
4017 3 1 -3 8 660.90 767.14 197.72 o
4017 2 -5 -3 8 660.90 767.14 197.72 o
4017 1 5 3 -8 660.90 767.14 197.72 o
4018 3 0 -3 -8 615.01 793.50 213.53 o
4018 2 4 -3 -8 615.01 793.50 213.53 o
4018 1 -4 3 8 615.01 793.50 213.53 o
4019 3 1 -3 -8 1197.02 727.59 137.08 o
4019 2 3 -3 -8 1197.02 727.59 137.08 o
4019 1 -3 3 8 1197.02 727.59 137.08 o
4020 3 2 -3 -8 49.02 92.27 126.54 <
4020 2 2 -3 -8 49.02 92.27 126.54 <
4020 1 -2 3 8 49.02 92.27 126.54 <
4021 3 3 -3 -8 609.81 622.15 137.08 o
4021 2 1 -3 -8 609.81 622.15 137.08 o
4021 1 -1 3 8 609.81 622.15 137.08 o
4022 3 4 -3 -8 425.69 474.52 126.54 o
4022 2 0 -3 -8 425.69 474.52 126.54 o
4022 1 0 3 8 425.69 474.52 126.54 o
4023 3 5 -3 -8 388.25 529.88 134.45 o
4023 2 -1 -3 -8 388.25 529.88 134.45 o
4023 1 1 3 8 388.25 529.88 134.45 o
4024 3 6 -3 -8 619.12 598.42 147.63 o
4024 2 -2 -3 -8 619.12 598.42 147.63 o
4024 1 2 3 8 619.12 598.42 147.63 o
4025 3 7 -3 -8 174.42 179.26 144.99 <
4025 2 -3 -3 -8 174.42 179.26 144.99 <
4025 1 3 3 8 174.42 179.26 144.99 <
4026 3 8 -3 -8 593.28 429.70 147.63 o
4026 2 -4 -3 -8 593.28 429.70 147.63 o
4026 1 4 3 8 593.28 429.70 147.63 o
4027 3 9 -3 -8 373.73 456.06 131.81 o
4027 2 -5 -3 -8 373.73 456.06 131.81 o
4027 1 5 3 8 373.73 456.06 131.81 o
4028 3 10 -3 -8 168.43 81.72 150.26 <
4028 2 -6 -3 -8 168.43 81.72 150.26 <
4028 1 6 3 8 168.43 81.72 150.26 <
4029 3 11 -3 -8 235.89 514.06 152.90 o
4029 2 -7 -3 -8 235.89 514.06 152.90 o
4029 1 7 3 8 235.89 514.06 152.90 o
4030 3 12 -3 -8 161.29 168.72 192.44 <
4030 2 -8 -3 -8 161.29 168.72 192.44 <
4030 1 8 3 8 161.29 168.72 192.44 <
4031 3 13 -3 -8 126.47 173.99 195.08 <
4031 2 -9 -3 -8 126.47 173.99 195.08 <
4031 1 9 3 8 126.47 173.99 195.08 <
4032 3 -8 -4 -8 5703.98 5546.58 258.35 o
4032 2 12 -4 -8 5703.98 5546.58 258.35 o
4032 1 -12 4 8 5703.98 5546.58 258.35 o
4033 3 8 -4 8 5674.23 5849.75 202.99 o
4033 2 -12 -4 8 5674.23 5849.75 202.99 o
4033 1 12 4 -8 5674.23 5849.75 202.99 o
4034 3 -7 -4 -8 910.99 835.68 216.17 o
4034 2 11 -4 -8 910.99 835.68 216.17 o
4034 1 -11 4 8 910.99 835.68 216.17 o
4035 3 7 -4 8 916.20 648.51 176.63 o
4035 2 -11 -4 8 916.20 648.51 176.63 o
4035 1 11 4 -8 916.20 648.51 176.63 o
4036 3 -6 -4 -8 5284.17 4452.56 213.53 o
4036 2 10 -4 -8 5284.17 4452.56 213.53 o
4036 1 -10 4 8 5284.17 4452.56 213.53 o
4037 3 6 -4 8 5250.42 5156.43 187.17 o
4037 2 -10 -4 8 5250.42 5156.43 187.17 o
4037 1 10 4 -8 5250.42 5156.43 187.17 o
4038 3 -5 -4 -8 6252.12 5704.76 216.17 o
4038 2 9 -4 -8 6252.12 5704.76 216.17 o
4038 1 -9 4 8 6252.12 5704.76 216.17 o
4039 3 5 -4 8 6323.95 5873.47 195.08 o
4039 2 -9 -4 8 6323.95 5873.47 195.08 o
4039 1 9 4 -8 6323.95 5873.47 195.08 o
4040 3 -4 -4 -8 1590.87 996.49 181.90 o
4040 2 8 -4 -8 1590.87 996.49 181.90 o
4040 1 -8 4 8 1590.87 996.49 181.90 o
4041 3 4 -4 8 1670.70 1007.03 181.90 o
4041 2 -8 -4 8 1670.70 1007.03 181.90 o
4041 1 8 4 -8 1670.70 1007.03 181.90 o
4042 3 -3 -4 -8 17401.60 20367.40 245.17 o
4042 2 7 -4 -8 17401.60 20367.40 245.17 o
4042 1 -7 4 8 17401.60 20367.40 245.17 o
4043 3 3 -4 8 17417.10 20148.50 226.71 o
4043 2 -7 -4 8 17417.10 20148.50 226.71 o
4043 1 7 4 -8 17417.10 20148.50 226.71 o
4044 3 -2 -4 -8 2714.76 2965.74 239.90 o
4044 2 6 -4 -8 2714.76 2965.74 239.90 o
4044 1 -6 4 8 2714.76 2965.74 239.90 o
4045 3 2 -4 8 2693.76 2675.75 208.26 o
4045 2 -6 -4 8 2693.76 2675.75 208.26 o
4045 1 6 4 -8 2693.76 2675.75 208.26 o
4046 3 -1 -4 -8 14170.30 14298.80 218.80 o
4046 2 5 -4 -8 14170.30 14298.80 218.80 o
4046 1 -5 4 8 14170.30 14298.80 218.80 o
4047 3 0 -4 -8 15483.60 16102.00 166.08 o
4047 2 4 -4 -8 15483.60 16102.00 166.08 o
4047 1 -4 4 8 15483.60 16102.00 166.08 o
4048 3 1 -4 -8 2565.74 2543.94 139.72 o
4048 2 3 -4 -8 2565.74 2543.94 139.72 o
4048 1 -3 4 8 2565.74 2543.94 139.72 o
4049 3 2 -4 -8 28476.50 33066.00 192.44 o
4049 2 2 -4 -8 28476.50 33066.00 192.44 o
4049 1 -2 4 8 28476.50 33066.00 192.44 o
4050 3 3 -4 -8 4808.19 4956.07 144.99 o
4050 2 1 -4 -8 4808.19 4956.07 144.99 o
4050 1 -1 4 8 4808.19 4956.07 144.99 o
4051 3 4 -4 -8 14744.30 13471.00 158.17 o
4051 2 0 -4 -8 14744.30 13471.00 158.17 o
4051 1 0 4 8 14744.30 13471.00 158.17 o
4052 3 5 -4 -8 15944.40 16167.90 160.81 o
4052 2 -1 -4 -8 15944.40 16167.90 160.81 o
4052 1 1 4 8 15944.40 16167.90 160.81 o
4053 3 6 -4 -8 1439.71 1808.44 142.35 o
4053 2 -2 -4 -8 1439.71 1808.44 142.35 o
4053 1 2 4 8 1439.71 1808.44 142.35 o
4054 3 7 -4 -8 17824.70 20530.80 179.26 o
4054 2 -3 -4 -8 17824.70 20530.80 179.26 o
4054 1 3 4 8 17824.70 20530.80 179.26 o
4055 3 8 -4 -8 3194.81 2673.12 150.26 o
4055 2 -4 -4 -8 3194.81 2673.12 150.26 o
4055 1 4 4 8 3194.81 2673.12 150.26 o
4056 3 9 -4 -8 6078.64 5388.41 144.99 o
4056 2 -5 -4 -8 6078.64 5388.41 144.99 o
4056 1 5 4 8 6078.64 5388.41 144.99 o
4057 3 10 -4 -8 6116.23 5717.94 152.90 o
4057 2 -6 -4 -8 6116.23 5717.94 152.90 o
4057 1 6 4 8 6116.23 5717.94 152.90 o
4058 3 11 -4 -8 506.61 558.88 158.17 o
4058 2 -7 -4 -8 506.61 558.88 158.17 o
4058 1 7 4 8 506.61 558.88 158.17 o
4059 3 12 -4 -8 5497.04 5994.74 163.45 o
4059 2 -8 -4 -8 5497.04 5994.74 163.45 o
4059 1 8 4 8 5497.04 5994.74 163.45 o
4060 3 -6 -5 -8 131.43 287.35 181.90 <
4060 2 10 -5 -8 131.43 287.35 181.90 <
4060 1 -10 5 8 131.43 287.35 181.90 <
4061 3 6 -5 8 131.20 260.98 195.08 <
4061 2 -10 -5 8 131.20 260.98 195.08 <
4061 1 10 5 -8 131.20 260.98 195.08 <
4062 3 -5 -5 -8 415.89 171.35 176.63 <
4062 2 9 -5 -8 415.89 171.35 176.63 <
4062 1 -9 5 8 415.89 171.35 176.63 <
4063 3 5 -5 8 421.44 321.62 168.72 <
4063 2 -9 -5 8 421.44 321.62 168.72 <
4063 1 9 5 -8 421.44 321.62 168.72 <
4064 3 -4 -5 -8 508.51 949.03 173.99 o
4064 2 8 -5 -8 508.51 949.03 173.99 o
4064 1 -8 5 8 508.51 949.03 173.99 o
4065 3 4 -5 8 495.87 695.96 176.63 o
4065 2 -8 -5 8 495.87 695.96 176.63 o
4065 1 8 5 -8 495.87 695.96 176.63 o
4066 3 -3 -5 -8 107.91 187.17 197.72 <
4066 2 7 -5 -8 107.91 187.17 197.72 <
4066 1 -7 5 8 107.91 187.17 197.72 <
4067 3 3 -5 8 109.15 202.99 197.72 <
4067 2 -7 -5 8 109.15 202.99 197.72 <
4067 1 7 5 -8 109.15 202.99 197.72 <
4068 3 -2 -5 -8 1647.55 1051.85 195.08 o
4068 2 6 -5 -8 1647.55 1051.85 195.08 o
4068 1 -6 5 8 1647.55 1051.85 195.08 o
4069 3 2 -5 8 1645.33 951.67 173.99 o
4069 2 -6 -5 8 1645.33 951.67 173.99 o
4069 1 6 5 -8 1645.33 951.67 173.99 o
4070 3 -1 -5 -8 231.81 524.61 181.90 o
4070 2 5 -5 -8 231.81 524.61 181.90 o
4070 1 -5 5 8 231.81 524.61 181.90 o
4071 3 0 -5 -8 219.25 303.16 129.17 o
4071 2 4 -5 -8 219.25 303.16 129.17 o
4071 1 -4 5 8 219.25 303.16 129.17 o
4072 3 1 -5 -8 252.38 189.81 129.17 <
4072 2 3 -5 -8 252.38 189.81 129.17 <
4072 1 -3 5 8 252.38 189.81 129.17 <
4073 3 2 -5 -8 234.48 -18.45 123.90 <
4073 2 2 -5 -8 234.48 -18.45 123.90 <
4073 1 -2 5 8 234.48 -18.45 123.90 <
4074 3 3 -5 -8 371.17 184.54 129.17 <
4074 2 1 -5 -8 371.17 184.54 129.17 <
4074 1 -1 5 8 371.17 184.54 129.17 <
4075 3 4 -5 -8 140.07 271.53 131.81 o
4075 2 0 -5 -8 140.07 271.53 131.81 o
4075 1 0 5 8 140.07 271.53 131.81 o
4076 3 5 -5 -8 116.51 184.54 131.81 <
4076 2 -1 -5 -8 116.51 184.54 131.81 <
4076 1 1 5 8 116.51 184.54 131.81 <
4077 3 6 -5 -8 1034.11 930.58 142.35 o
4077 2 -2 -5 -8 1034.11 930.58 142.35 o
4077 1 2 5 8 1034.11 930.58 142.35 o
4078 3 7 -5 -8 122.39 -31.63 126.54 <
4078 2 -3 -5 -8 122.39 -31.63 126.54 <
4078 1 3 5 8 122.39 -31.63 126.54 <
4079 3 8 -5 -8 311.83 535.15 129.17 o
4079 2 -4 -5 -8 311.83 535.15 129.17 o
4079 1 4 5 8 311.83 535.15 129.17 o
4080 3 9 -5 -8 383.34 123.90 147.63 <
4080 2 -5 -5 -8 383.34 123.90 147.63 <
4080 1 5 5 8 383.34 123.90 147.63 <
4081 3 10 -5 -8 63.73 -65.91 150.26 <
4081 2 -6 -5 -8 63.73 -65.91 150.26 <
4081 1 6 5 8 63.73 -65.91 150.26 <
4082 3 -4 -6 -8 365.48 292.62 173.99 <
4082 2 8 -6 -8 365.48 292.62 173.99 <
4082 1 -8 6 8 365.48 292.62 173.99 <
4083 3 4 -6 8 354.08 -13.18 192.44 <
4083 2 -8 -6 8 354.08 -13.18 192.44 <
4083 1 8 6 -8 354.08 -13.18 192.44 <
4084 3 -3 -6 -8 1754.02 2085.24 197.72 o
4084 2 7 -6 -8 1754.02 2085.24 197.72 o
4084 1 -7 6 8 1754.02 2085.24 197.72 o
4085 3 3 -6 8 1661.63 1811.08 229.35 o
4085 2 -7 -6 8 1661.63 1811.08 229.35 o
4085 1 7 6 -8 1661.63 1811.08 229.35 o
4086 3 -2 -6 -8 184.52 506.15 192.44 o
4086 2 6 -6 -8 184.52 506.15 192.44 o
4086 1 -6 6 8 184.52 506.15 192.44 o
4087 3 -1 -6 -8 1234.34 1268.02 131.81 o
4087 2 5 -6 -8 1234.34 1268.02 131.81 o
4087 1 -5 6 8 1234.34 1268.02 131.81 o
4088 3 0 -6 -8 501.27 485.06 129.17 o
4088 2 4 -6 -8 501.27 485.06 129.17 o
4088 1 -4 6 8 501.27 485.06 129.17 o
4089 3 1 -6 -8 114.06 276.80 126.54 o
4089 2 3 -6 -8 114.06 276.80 126.54 o
4089 1 -3 6 8 114.06 276.80 126.54 o
4090 3 2 -6 -8 700.40 956.94 126.54 o
4090 2 2 -6 -8 700.40 956.94 126.54 o
4090 1 -2 6 8 700.40 956.94 126.54 o
4091 3 3 -6 -8 201.08 566.78 129.17 o
4091 2 1 -6 -8 201.08 566.78 129.17 o
4091 1 -1 6 8 201.08 566.78 129.17 o
4092 3 4 -6 -8 711.33 632.69 126.54 o
4092 2 0 -6 -8 711.33 632.69 126.54 o
4092 1 0 6 8 711.33 632.69 126.54 o
4093 3 5 -6 -8 776.37 817.22 123.90 o
4093 2 -1 -6 -8 776.37 817.22 123.90 o
4093 1 1 6 8 776.37 817.22 123.90 o
4094 3 6 -6 -8 97.34 -5.27 139.72 <
4094 2 -2 -6 -8 97.34 -5.27 139.72 <
4094 1 2 6 8 97.34 -5.27 139.72 <
4095 3 7 -6 -8 1273.88 1542.18 131.81 o
4095 2 -3 -6 -8 1273.88 1542.18 131.81 o
4095 1 3 6 8 1273.88 1542.18 131.81 o
4096 3 8 -6 -8 499.81 369.07 134.45 o
4096 2 -4 -6 -8 499.81 369.07 134.45 o
4096 1 4 6 8 499.81 369.07 134.45 o
4097 3 1 -7 -8 348.32 -129.17 131.81 <
4097 2 3 -7 -8 348.32 -129.17 131.81 <
4097 1 -3 7 8 348.32 -129.17 131.81 <
4098 3 2 -7 -8 5.75 121.27 123.90 <
4098 2 2 -7 -8 5.75 121.27 123.90 <
4098 1 -2 7 8 5.75 121.27 123.90 <
4099 3 3 -7 -8 165.78 92.27 131.81 <
4099 2 1 -7 -8 165.78 92.27 131.81 <
4099 1 -1 7 8 165.78 92.27 131.81 <
4100 3 4 -7 -8 26.77 52.72 134.45 <
4100 2 0 -7 -8 26.77 52.72 134.45 <
4100 1 0 7 8 26.77 52.72 134.45 <
4101 2 12 -1 -9 2976.33 1884.89 274.17 o
4101 1 -12 1 9 2976.33 1884.89 274.17 o
4102 2 -12 -1 9 2961.12 2077.33 184.54 o
4102 1 12 1 -9 2961.12 2077.33 184.54 o
4103 2 11 -1 -9 6.37 -311.07 305.80 <
4103 1 -11 1 9 6.37 -311.07 305.80 <
4104 2 -11 -1 9 6.87 -5.27 155.54 <
4104 1 11 1 -9 6.87 -5.27 155.54 <
4105 2 10 -1 -9 3042.86 2752.20 311.07 o
4105 1 -10 1 9 3042.86 2752.20 311.07 o
4106 2 -10 -1 9 3069.57 3753.96 179.26 o
4106 1 10 1 -9 3069.57 3753.96 179.26 o
4107 2 9 -1 -9 1438.65 1268.02 313.71 o
4107 1 -9 1 9 1438.65 1268.02 313.71 o
4108 2 -9 -1 9 1427.60 1138.84 155.54 o
4108 1 9 1 -9 1427.60 1138.84 155.54 o
4109 2 8 -1 -9 1586.74 1115.12 340.07 o
4109 1 -8 1 9 1586.74 1115.12 340.07 o
4110 2 -8 -1 9 1563.60 1199.48 152.90 o
4110 1 8 1 -9 1563.60 1199.48 152.90 o
4111 2 7 -1 -9 5488.10 4753.09 416.52 o
4111 1 -7 1 9 5488.10 4753.09 416.52 o
4112 2 -7 -1 9 5424.47 4840.08 160.81 o
4112 1 7 1 -9 5424.47 4840.08 160.81 o
4113 2 6 -1 -9 26.99 577.33 405.98 <
4113 1 -6 1 9 26.99 577.33 405.98 <
4114 2 -6 -1 9 31.19 424.43 150.26 o
4114 1 6 1 -9 31.19 424.43 150.26 o
4115 2 5 -1 -9 3729.08 4774.18 334.80 o
4115 1 -5 1 9 3729.08 4774.18 334.80 o
4116 2 4 -1 -9 2177.79 1987.70 234.62 o
4116 1 -4 1 9 2177.79 1987.70 234.62 o
4117 2 3 -1 -9 1209.33 1096.66 247.80 o
4117 1 -3 1 9 1209.33 1096.66 247.80 o
4118 2 2 -1 -9 6207.38 6026.37 263.62 o
4118 1 -2 1 9 6207.38 6026.37 263.62 o
4119 2 1 -1 -9 100.62 318.98 258.35 <
4119 1 -1 1 9 100.62 318.98 258.35 <
4120 2 0 -1 -9 3152.45 3706.51 303.16 o
4120 1 0 1 9 3152.45 3706.51 303.16 o
4121 2 -1 -1 -9 2010.73 1853.26 337.43 o
4121 1 1 1 9 2010.73 1853.26 337.43 o
4122 2 -2 -1 -9 552.53 506.15 408.61 <
4122 1 2 1 9 552.53 506.15 408.61 <
4123 2 -3 -1 -9 4913.03 5683.67 311.07 o
4123 1 3 1 9 4913.03 5683.67 311.07 o
4124 2 -4 -1 -9 166.06 266.26 247.80 <
4124 1 4 1 9 166.06 266.26 247.80 <
4125 2 -5 -1 -9 1904.47 2064.15 231.99 o
4125 1 5 1 9 1904.47 2064.15 231.99 o
4126 2 -6 -1 -9 1371.81 1724.08 202.99 o
4126 1 6 1 9 1371.81 1724.08 202.99 o
4127 2 -7 -1 -9 160.37 50.09 187.17 <
4127 1 7 1 9 160.37 50.09 187.17 <
4128 2 11 -2 -9 19.51 511.42 284.71 <
4128 1 -11 2 9 19.51 511.42 284.71 <
4129 2 -11 -2 9 19.47 121.27 158.17 <
4129 1 11 2 -9 19.47 121.27 158.17 <
4130 2 10 -2 -9 16.14 113.36 318.98 <
4130 1 -10 2 9 16.14 113.36 318.98 <
4131 2 -10 -2 9 16.44 68.54 155.54 <
4131 1 10 2 -9 16.44 68.54 155.54 <
4132 2 9 -2 -9 143.04 150.26 379.61 <
4132 1 -9 2 9 143.04 150.26 379.61 <
4133 2 -9 -2 9 143.14 179.26 155.54 <
4133 1 9 2 -9 143.14 179.26 155.54 <
4134 2 8 -2 -9 46.12 -247.80 376.98 <
4134 1 -8 2 9 46.12 -247.80 376.98 <
4135 2 -8 -2 9 46.31 163.45 147.63 <
4135 1 8 2 -9 46.31 163.45 147.63 <
4136 2 7 -2 -9 42.79 -179.26 358.52 <
4136 1 -7 2 9 42.79 -179.26 358.52 <
4137 2 -7 -2 9 43.08 29.00 152.90 <
4137 1 7 2 -9 43.08 29.00 152.90 <
4138 2 6 -2 -9 44.76 392.80 329.53 <
4138 1 -6 2 9 44.76 392.80 329.53 <
4139 2 -6 -2 9 44.77 224.08 158.17 <
4139 1 6 2 -9 44.77 224.08 158.17 <
4140 2 5 -2 -9 58.37 155.54 234.62 <
4140 1 -5 2 9 58.37 155.54 234.62 <
4141 2 4 -2 -9 191.11 242.53 158.17 <
4141 1 -4 2 9 191.11 242.53 158.17 <
4142 2 3 -2 -9 57.38 166.08 158.17 <
4142 1 -3 2 9 57.38 166.08 158.17 <
4143 2 2 -2 -9 15.08 163.45 139.72 <
4143 1 -2 2 9 15.08 163.45 139.72 <
4144 2 1 -2 -9 2.68 105.45 150.26 <
4144 1 -1 2 9 2.68 105.45 150.26 <
4145 2 0 -2 -9 54.05 355.89 139.72 o
4145 1 0 2 9 54.05 355.89 139.72 o
4146 2 -1 -2 -9 79.46 47.45 150.26 <
4146 1 1 2 9 79.46 47.45 150.26 <
4147 2 -2 -2 -9 27.59 -31.63 152.90 <
4147 1 2 2 9 27.59 -31.63 152.90 <
4148 2 -3 -2 -9 24.35 -2.64 158.17 <
4148 1 3 2 9 24.35 -2.64 158.17 <
4149 2 -4 -2 -9 39.24 5.27 163.45 <
4149 1 4 2 9 39.24 5.27 163.45 <
4150 2 -5 -2 -9 15.48 -34.27 155.54 <
4150 1 5 2 9 15.48 -34.27 155.54 <
4151 2 -6 -2 -9 27.69 -47.45 179.26 <
4151 1 6 2 9 27.69 -47.45 179.26 <
4152 2 -7 -2 -9 14.98 -13.18 176.63 <
4152 1 7 2 9 14.98 -13.18 176.63 <
4153 2 10 -3 -9 3278.52 2997.37 284.71 o
4153 1 -10 3 9 3278.52 2997.37 284.71 o
4154 2 -10 -3 9 3339.32 3891.05 176.63 o
4154 1 10 3 -9 3339.32 3891.05 176.63 o
4155 2 9 -3 -9 2048.85 1631.81 253.08 o
4155 1 -9 3 9 2048.85 1631.81 253.08 o
4156 2 -9 -3 9 2050.26 1326.01 171.35 o
4156 1 9 3 -9 2050.26 1326.01 171.35 o
4157 2 8 -3 -9 1260.30 819.86 229.35 o
4157 1 -8 3 9 1260.30 819.86 229.35 o
4158 2 -8 -3 9 1285.21 991.22 168.72 o
4158 1 8 3 -9 1285.21 991.22 168.72 o
4159 2 7 -3 -9 7687.23 9121.28 263.62 o
4159 1 -7 3 9 7687.23 9121.28 263.62 o
4160 2 -7 -3 9 7681.40 7260.12 192.44 o
4160 1 7 3 -9 7681.40 7260.12 192.44 o
4161 2 6 -3 -9 92.66 593.15 253.08 o
4161 1 -6 3 9 92.66 593.15 253.08 o
4162 2 -6 -3 9 94.35 358.52 184.54 <
4162 1 6 3 -9 94.35 358.52 184.54 <
4163 2 5 -3 -9 6892.18 8449.05 173.99 o
4163 1 -5 3 9 6892.18 8449.05 173.99 o
4164 2 4 -3 -9 4166.26 4634.46 163.45 o
4164 1 -4 3 9 4166.26 4634.46 163.45 o
4165 2 3 -3 -9 1798.86 1210.02 131.81 o
4165 1 -3 3 9 1798.86 1210.02 131.81 o
4166 2 2 -3 -9 11215.90 12079.10 155.54 o
4166 1 -2 3 9 11215.90 12079.10 155.54 o
4167 2 1 -3 -9 309.67 672.23 144.99 o
4167 1 -1 3 9 309.67 672.23 144.99 o
4168 2 0 -3 -9 6981.64 7539.56 150.26 o
4168 1 0 3 9 6981.64 7539.56 150.26 o
4169 2 -1 -3 -9 4159.40 4223.21 150.26 o
4169 1 1 3 9 4159.40 4223.21 150.26 o
4170 2 -2 -3 -9 992.95 659.05 139.72 o
4170 1 2 3 9 992.95 659.05 139.72 o
4171 2 -3 -3 -9 7362.47 9060.65 166.08 o
4171 1 3 3 9 7362.47 9060.65 166.08 o
4172 2 -4 -3 -9 336.95 450.79 166.08 o
4172 1 4 3 9 336.95 450.79 166.08 o
4173 2 -5 -3 -9 3159.68 3231.99 173.99 o
4173 1 5 3 9 3159.68 3231.99 173.99 o
4174 2 -6 -3 -9 1808.59 2045.70 168.72 o
4174 1 6 3 9 1808.59 2045.70 168.72 o
4175 2 9 -4 -9 173.58 197.72 200.35 <
4175 1 -9 4 9 173.58 197.72 200.35 <
4176 2 -9 -4 9 175.14 147.63 181.90 <
4176 1 9 4 -9 175.14 147.63 181.90 <
4177 2 8 -4 -9 231.38 413.89 208.26 <
4177 1 -8 4 9 231.38 413.89 208.26 <
4178 2 -8 -4 9 229.78 300.53 187.17 <
4178 1 8 4 -9 229.78 300.53 187.17 <
4179 2 7 -4 -9 39.23 -31.63 205.62 <
4179 1 -7 4 9 39.23 -31.63 205.62 <
4180 2 -7 -4 9 38.71 363.80 213.53 <
4180 1 7 4 -9 38.71 363.80 213.53 <
4181 2 6 -4 -9 630.08 722.32 234.62 o
4181 1 -6 4 9 630.08 722.32 234.62 o
4182 2 5 -4 -9 16.32 163.45 137.08 <
4182 1 -5 4 9 16.32 163.45 137.08 <
4183 2 4 -4 -9 79.91 -100.18 142.35 <
4183 1 -4 4 9 79.91 -100.18 142.35 <
4184 2 3 -4 -9 139.36 113.36 139.72 <
4184 1 -3 4 9 139.36 113.36 139.72 <
4185 2 2 -4 -9 38.79 -44.82 129.17 <
4185 1 -2 4 9 38.79 -44.82 129.17 <
4186 2 1 -4 -9 252.77 239.90 139.72 <
4186 1 -1 4 9 252.77 239.90 139.72 <
4187 2 0 -4 -9 64.77 126.54 139.72 <
4187 1 0 4 9 64.77 126.54 139.72 <
4188 2 -1 -4 -9 24.98 342.71 150.26 o
4188 1 1 4 9 24.98 342.71 150.26 o
4189 2 -2 -4 -9 167.32 10.54 131.81 <
4189 1 2 4 9 167.32 10.54 131.81 <
4190 2 -3 -4 -9 43.70 234.62 152.90 <
4190 1 3 4 9 43.70 234.62 152.90 <
4191 2 -4 -4 -9 122.77 355.89 158.17 o
4191 1 4 4 9 122.77 355.89 158.17 o
4192 2 -5 -4 -9 127.86 234.62 163.45 <
4192 1 5 4 9 127.86 234.62 163.45 <
4193 2 7 -5 -9 1826.72 2789.11 213.53 o
4193 1 -7 5 9 1826.72 2789.11 213.53 o
4194 2 6 -5 -9 25.15 -229.35 137.08 <
4194 1 -6 5 9 25.15 -229.35 137.08 <
4195 2 5 -5 -9 1324.78 1500.00 152.90 o
4195 1 -5 5 9 1324.78 1500.00 152.90 o
4196 2 4 -5 -9 287.09 102.81 134.45 <
4196 1 -4 5 9 287.09 102.81 134.45 <
4197 2 3 -5 -9 147.63 163.45 142.35 <
4197 1 -3 5 9 147.63 163.45 142.35 <
4198 2 2 -5 -9 1099.16 1768.90 150.26 o
4198 1 -2 5 9 1099.16 1768.90 150.26 o
4199 2 1 -5 -9 48.13 108.08 137.08 <
4199 1 -1 5 9 48.13 108.08 137.08 <
4200 2 0 -5 -9 880.75 1318.10 139.72 o
4200 1 0 5 9 880.75 1318.10 139.72 o
4201 2 -1 -5 -9 381.03 569.42 137.08 o
4201 1 1 5 9 381.03 569.42 137.08 o
4202 2 -2 -5 -9 105.53 266.26 147.63 <
4202 1 2 5 9 105.53 266.26 147.63 <
4203 3 -3 0 -10 2920.80 2019.34 561.51 o
4203 2 8 0 -10 2920.80 2019.34 561.51 o
4203 1 -8 0 10 2920.80 2019.34 561.51 o
4204 3 3 0 10 2979.53 2944.65 231.99 o
4204 2 -8 0 10 2979.53 2944.65 231.99 o
4204 1 8 0 -10 2979.53 2944.65 231.99 o
4205 3 -2 0 -10 2284.97 1310.20 514.06 o
4205 2 7 0 -10 2284.97 1310.20 514.06 o
4205 1 -7 0 10 2284.97 1310.20 514.06 o
4206 3 2 0 10 2282.63 1613.36 239.90 o
4206 2 -7 0 10 2282.63 1613.36 239.90 o
4206 1 7 0 -10 2282.63 1613.36 239.90 o
4207 3 -1 0 -10 512.79 353.25 279.44 <
4207 2 6 0 -10 512.79 353.25 279.44 <
4207 1 -6 0 10 512.79 353.25 279.44 <
4208 3 0 0 -10 3048.99 3179.27 271.53 o
4208 2 5 0 -10 3048.99 3179.27 271.53 o
4208 1 -5 0 10 3048.99 3179.27 271.53 o
4209 3 1 0 -10 379.83 250.44 247.80 <
4209 2 4 0 -10 379.83 250.44 247.80 <
4209 1 -4 0 10 379.83 250.44 247.80 <
4210 3 2 0 -10 2141.81 1813.71 253.08 o
4210 2 3 0 -10 2141.81 1813.71 253.08 o
4210 1 -3 0 10 2141.81 1813.71 253.08 o
4211 3 3 0 -10 2323.63 1792.62 237.26 o
4211 2 2 0 -10 2323.63 1792.62 237.26 o
4211 1 -2 0 10 2323.63 1792.62 237.26 o
4212 3 4 0 -10 254.95 86.99 245.17 <
4212 2 1 0 -10 254.95 86.99 245.17 <
4212 1 -1 0 10 254.95 86.99 245.17 <
4213 3 5 0 -10 2447.07 2720.57 253.08 o
4213 2 0 0 -10 2447.07 2720.57 253.08 o
4213 1 0 0 10 2447.07 2720.57 253.08 o
4214 3 6 0 -10 543.75 500.88 255.71 <
4214 2 -1 0 -10 543.75 500.88 255.71 <
4214 1 1 0 10 543.75 500.88 255.71 <
4215 3 7 0 -10 1556.93 1086.12 263.62 o
4215 2 -2 0 -10 1556.93 1086.12 263.62 o
4215 1 2 0 10 1556.93 1086.12 263.62 o
4216 3 8 0 -10 2435.54 2195.96 297.89 o
4216 2 -3 0 -10 2435.54 2195.96 297.89 o
4216 1 3 0 10 2435.54 2195.96 297.89 o
4217 3 -3 -1 -10 115.90 26.36 395.43 <
4217 2 8 -1 -10 115.90 26.36 395.43 <
4217 1 -8 1 10 115.90 26.36 395.43 <
4218 3 3 -1 10 115.37 266.26 155.54 <
4218 2 -8 -1 10 115.37 266.26 155.54 <
4218 1 8 1 -10 115.37 266.26 155.54 <
4219 3 -2 -1 -10 123.14 -73.81 405.98 <
4219 2 7 -1 -10 123.14 -73.81 405.98 <
4219 1 -7 1 10 123.14 -73.81 405.98 <
4220 3 2 -1 10 124.05 44.82 231.99 <
4220 2 -7 -1 10 124.05 44.82 231.99 <
4220 1 7 1 -10 124.05 44.82 231.99 <
4221 3 -1 -1 -10 415.44 585.24 237.26 o
4221 2 6 -1 -10 415.44 585.24 237.26 o
4221 1 -6 1 10 415.44 585.24 237.26 o
4222 3 0 -1 -10 8.70 379.61 284.71 <
4222 2 5 -1 -10 8.70 379.61 284.71 <
4222 1 -5 1 10 8.70 379.61 284.71 <
4223 3 1 -1 -10 440.25 503.52 403.34 <
4223 2 4 -1 -10 440.25 503.52 403.34 <
4223 1 -4 1 10 440.25 503.52 403.34 <
4224 3 2 -1 -10 148.61 326.89 434.98 <
4224 2 3 -1 -10 148.61 326.89 434.98 <
4224 1 -3 1 10 148.61 326.89 434.98 <
4225 3 3 -1 -10 114.26 247.80 582.60 <
4225 2 2 -1 -10 114.26 247.80 582.60 <
4225 1 -2 1 10 114.26 247.80 582.60 <
4226 3 4 -1 -10 330.97 224.08 192.44 <
4226 2 1 -1 -10 330.97 224.08 192.44 <
4226 1 -1 1 10 330.97 224.08 192.44 <
4227 3 5 -1 -10 9.37 13.18 184.54 <
4227 2 0 -1 -10 9.37 13.18 184.54 <
4227 1 0 1 10 9.37 13.18 184.54 <
4228 3 6 -1 -10 290.20 187.17 200.35 <
4228 2 -1 -1 -10 290.20 187.17 200.35 <
4228 1 1 1 10 290.20 187.17 200.35 <
4229 3 7 -1 -10 74.00 89.63 208.26 <
4229 2 -2 -1 -10 74.00 89.63 208.26 <
4229 1 2 1 10 74.00 89.63 208.26 <
4230 3 8 -1 -10 62.15 81.72 200.35 <
4230 2 -3 -1 -10 62.15 81.72 200.35 <
4230 1 3 1 10 62.15 81.72 200.35 <
4231 3 -2 -2 -10 5636.72 5140.61 332.16 o
4231 2 7 -2 -10 5636.72 5140.61 332.16 o
4231 1 -7 2 10 5636.72 5140.61 332.16 o
4232 3 -1 -2 -10 1052.99 653.78 195.08 o
4232 2 6 -2 -10 1052.99 653.78 195.08 o
4232 1 -6 2 10 1052.99 653.78 195.08 o
4233 3 0 -2 -10 9393.17 9854.15 171.35 o
4233 2 5 -2 -10 9393.17 9854.15 171.35 o
4233 1 -5 2 10 9393.17 9854.15 171.35 o
4234 3 1 -2 -10 1791.15 2356.77 176.63 o
4234 2 4 -2 -10 1791.15 2356.77 176.63 o
4234 1 -4 2 10 1791.15 2356.77 176.63 o
4235 3 2 -2 -10 6801.16 6065.92 181.90 o
4235 2 3 -2 -10 6801.16 6065.92 181.90 o
4235 1 -3 2 10 6801.16 6065.92 181.90 o
4236 3 3 -2 -10 8773.75 8744.31 181.90 o
4236 2 2 -2 -10 8773.75 8744.31 181.90 o
4236 1 -2 2 10 8773.75 8744.31 181.90 o
4237 3 4 -2 -10 931.13 1001.76 163.45 o
4237 2 1 -2 -10 931.13 1001.76 163.45 o
4237 1 -1 2 10 931.13 1001.76 163.45 o
4238 3 5 -2 -10 9807.90 10573.80 189.81 o
4238 2 0 -2 -10 9807.90 10573.80 189.81 o
4238 1 0 2 10 9807.90 10573.80 189.81 o
4239 3 6 -2 -10 2023.95 1842.71 171.35 o
4239 2 -1 -2 -10 2023.95 1842.71 171.35 o
4239 1 1 2 10 2023.95 1842.71 171.35 o
4240 3 7 -2 -10 4532.61 3975.40 181.90 o
4240 2 -2 -2 -10 4532.61 3975.40 181.90 o
4240 1 2 2 10 4532.61 3975.40 181.90 o
4241 3 0 -3 -10 14.84 137.08 158.17 <
4241 2 5 -3 -10 14.84 137.08 158.17 <
4241 1 -5 3 10 14.84 137.08 158.17 <
4242 3 1 -3 -10 297.21 450.79 166.08 o
4242 2 4 -3 -10 297.21 450.79 166.08 o
4242 1 -4 3 10 297.21 450.79 166.08 o
4243 3 2 -3 -10 207.00 276.80 163.45 <
4243 2 3 -3 -10 207.00 276.80 163.45 <
4243 1 -3 3 10 207.00 276.80 163.45 <
4244 3 3 -3 -10 141.77 295.26 137.08 o
4244 2 2 -3 -10 141.77 295.26 137.08 o
4244 1 -2 3 10 141.77 295.26 137.08 o
4245 3 4 -3 -10 296.28 337.43 163.45 o
4245 2 1 -3 -10 296.28 337.43 163.45 o
4245 1 -1 3 10 296.28 337.43 163.45 o
4246 3 5 -3 -10 16.42 371.71 158.17 o
4246 2 0 -3 -10 16.42 371.71 158.17 o
4246 1 0 3 10 16.42 371.71 158.17 o
