#------------------------------------------------------------------------------
#$Date: 2019-11-02 05:53:52 +0200 (Sat, 02 Nov 2019) $
#$Revision: 220758 $
#$URL: file:///home/coder/svn-repositories/cod/cif/4/12/74/4127489.cif $
#------------------------------------------------------------------------------
#
# This file is available in the Crystallography Open Database (COD),
# http://www.crystallography.net/
#
# All data on this site have been placed in the public domain by the
# contributors.
#
data_4127489
loop_
_publ_author_name
'Ai, Yong'
'Chen, Xiao-Gang'
'Shi, Ping-Ping'
'Tang, Yuan-Yuan'
'Li, Peng-Fei'
'Liao, Wei-Qiang'
'Xiong, Ren-Gen'
_publ_section_title
;
 Fluorine Substitution Induced High T<sub>c</sub> of Enantiomeric
 Perovskite Ferroelectrics: ( R) - and ( S)
 -3-(Fluoropyrrolidinium)MnCl<sub>3</sub>.
;
_journal_issue                   10
_journal_name_full               'Journal of the American Chemical Society'
_journal_page_first              4474
_journal_page_last               4479
_journal_paper_doi               10.1021/jacs.9b00886
_journal_volume                  141
_journal_year                    2019
_chemical_absolute_configuration rm
_chemical_formula_moiety         'Cl3 Mn, C4 H9 F N'
_chemical_formula_sum            'C4 H9 Cl3 F Mn N'
_chemical_formula_weight         251.41
_space_group_crystal_system      monoclinic
_space_group_IT_number           4
_space_group_name_Hall           'P 2yb'
_space_group_name_H-M_alt        'P 1 21 1'
_symmetry_space_group_name_Hall  'P 2yb'
_symmetry_space_group_name_H-M   'P 1 21 1'
_atom_sites_solution_hydrogens   geom
_audit_creation_method           SHELXL-2014/7
_cell_angle_alpha                90
_cell_angle_beta                 112.397(8)
_cell_angle_gamma                90
_cell_formula_units_Z            2
_cell_length_a                   7.6244(5)
_cell_length_b                   6.4930(3)
_cell_length_c                   9.5910(7)
_cell_measurement_reflns_used    2588
_cell_measurement_temperature    298(2)
_cell_measurement_theta_max      31.2350
_cell_measurement_theta_min      2.8830
_cell_volume                     438.99(5)
_computing_structure_refinement  'SHELXL-2014/7 (Sheldrick, 2014)'
_diffrn_ambient_temperature      298(2)
_diffrn_measured_fraction_theta_full 0.997
_diffrn_measured_fraction_theta_max 0.817
_diffrn_measurement_device_type  'XtaLAB Synergy R, DW system, HyPix'
_diffrn_radiation_type           MoK\a
_diffrn_radiation_wavelength     0.71073
_diffrn_reflns_av_R_equivalents  0.0139
_diffrn_reflns_av_unetI/netI     0.0239
_diffrn_reflns_Laue_measured_fraction_full 0.997
_diffrn_reflns_Laue_measured_fraction_max 0.817
_diffrn_reflns_limit_h_max       11
_diffrn_reflns_limit_h_min       -9
_diffrn_reflns_limit_k_max       9
_diffrn_reflns_limit_k_min       -6
_diffrn_reflns_limit_l_max       8
_diffrn_reflns_limit_l_min       -14
_diffrn_reflns_number            3936
_diffrn_reflns_point_group_measured_fraction_full 0.998
_diffrn_reflns_point_group_measured_fraction_max 0.820
_diffrn_reflns_theta_full        25.242
_diffrn_reflns_theta_max         31.348
_diffrn_reflns_theta_min         2.927
_exptl_absorpt_coefficient_mu    2.358
_exptl_absorpt_correction_T_max  0.555
_exptl_absorpt_correction_T_min  0.498
_exptl_absorpt_correction_type   multi-scan
_exptl_absorpt_process_details
;
CrysAlisPro 1.171.40.14e (Rigaku Oxford Diffraction, 2018)
Empirical absorption correction using spherical harmonics,
 implemented in SCALE3 ABSPACK scaling algorithm.
;
_exptl_crystal_colour            red
_exptl_crystal_density_diffrn    1.902
_exptl_crystal_description       needle
_exptl_crystal_F_000             250
_exptl_crystal_size_max          0.3
_exptl_crystal_size_mid          0.28
_exptl_crystal_size_min          0.25
_refine_diff_density_max         1.151
_refine_diff_density_min         -0.570
_refine_diff_density_rms         0.108
_refine_ls_abs_structure_details
;
 Refined as an inversion twin.
;
_refine_ls_abs_structure_Flack   0.18(6)
_refine_ls_extinction_method     none
_refine_ls_goodness_of_fit_ref   0.990
_refine_ls_hydrogen_treatment    constr
_refine_ls_matrix_type           full
_refine_ls_number_parameters     92
_refine_ls_number_reflns         2116
_refine_ls_number_restraints     1
_refine_ls_restrained_S_all      0.990
_refine_ls_R_factor_all          0.0463
_refine_ls_R_factor_gt           0.0388
_refine_ls_shift/su_max          0.001
_refine_ls_shift/su_mean         0.000
_refine_ls_structure_factor_coef Fsqd
_refine_ls_weighting_details
'w=1/[\s^2^(Fo^2^)+(0.0764P)^2^+0.2370P] where P=(Fo^2^+2Fc^2^)/3'
_refine_ls_weighting_scheme      calc
_refine_ls_wR_factor_gt          0.1103
_refine_ls_wR_factor_ref         0.1166
_reflns_Friedel_coverage         0.859
_reflns_Friedel_fraction_full    1.000
_reflns_Friedel_fraction_max     0.822
_reflns_number_gt                1786
_reflns_number_total             2881
_reflns_threshold_expression     'I > 2\s(I)'
_cod_data_source_file            ja9b00886_si_002.cif
_cod_data_source_block           P21
_cod_depositor_comments
;
The following automatic conversions were performed:

'_exptl_absorpt_correction_type' value 'Multi-scan' changed to
'multi-scan' according to
/home/data/users/saulius/crontab/automatic-downloads/current/ACS/lib/dictionaries/cif_core.dic
dictionary named 'cif_core.dic' version 2.4.2 from 2011-04-26.

Automatic conversion script
Id: cif_fix_values 4973 2017-02-22 13:04:09Z antanas 
;
_cod_database_code               4127489
_shelx_shelxl_version_number     2014/7
_shelx_space_group_comment
;
The symmetry employed for this shelxl refinement is uniquely defined
by the following loop, which should always be used as a source of
symmetry information in preference to the above space-group names.
They are only intended as comments.
;
_shelx_res_file
;

    P21.res created by SHELXL-2014/7

TITL P21 in P2(1)
CELL 0.71073   7.6244   6.4930   9.5910  90.000 112.397  90.000
ZERR    2.00   0.0005   0.0003   0.0007   0.000   0.008   0.000
LATT -1
SYMM -X, 0.5+Y, -Z
SFAC C  H  N  F  Cl Mn
UNIT 8 18 2 2 6 2
OMIT -1 0 3
OMIT 1 0 0
L.S. 100
ACTA
BOND
FMAP 2
PLAN 5
CONF
TWIN
TEMP 25
WGHT    0.076400    0.237000
BASF   0.17827
FVAR       0.37282
MOLE 1
MN1   6    1.001535    1.000034    1.002831    11.00000    0.03655    0.01868 =
         0.04500   -0.00072    0.01681    0.00004
CL1   5    1.163911    0.752807    0.886062    11.00000    0.06610    0.02745 =
         0.06986    0.00002    0.04719    0.00141
CL2   5    1.122653    0.745734    1.224291    11.00000    0.06562    0.03012 =
         0.03892    0.00044    0.01171   -0.00070
CL3   5    0.719963    0.751595    0.909816    11.00000    0.03397    0.02840 =
         0.07082   -0.00461    0.00892   -0.00080
N1    3    0.401132    0.147965    0.774426    11.00000    0.06587    0.08566 =
         0.04443    0.00043    0.00835    0.01092
AFIX  23
H1A   2    0.523937    0.120581    0.822596    11.00000   -1.20000
H1B   2    0.341575    0.115742    0.835248    11.00000   -1.20000
AFIX   0
C1    1    0.326849    0.027176    0.640189    11.00000    0.13231    0.04280 =
         0.06973   -0.00116    0.04070   -0.00189
AFIX  23
H1C   2    0.212143   -0.043487    0.634295    11.00000   -1.20000
H1D   2    0.418987   -0.074505    0.638031    11.00000   -1.20000
AFIX   0
C2    1    0.285114    0.175540    0.512597    11.00000    0.10567    0.09292 =
         0.04530    0.00680    0.02304   -0.01943
AFIX  13
H2    2    0.172988    0.132589    0.425686    11.00000   -1.20000
AFIX   0
C3    1    0.252283    0.373078    0.572203    11.00000    0.11225    0.06010 =
         0.12557    0.04932    0.04449    0.02985
AFIX  23
H3A   2    0.119854    0.387874    0.557672    11.00000   -1.20000
H3B   2    0.287637    0.486713    0.522618    11.00000   -1.20000
AFIX   0
F1    4    0.425457    0.195374    0.477018    11.00000    0.14984    0.21550 =
         0.11674    0.00197    0.07873    0.00137
C4    1    0.375810    0.367761    0.737192    11.00000    0.08468    0.07247 =
         0.11192   -0.05529    0.04378   -0.01731
AFIX  23
H4A   2    0.496918    0.433573    0.755978    11.00000   -1.20000
H4B   2    0.314548    0.436823    0.796194    11.00000   -1.20000
AFIX   0
HKLF 4

REM  P21 in P2(1)
REM R1 =  0.0388 for    1786 Fo > 4sig(Fo)  and  0.0463 for all    2116 data
REM     92 parameters refined using      1 restraints

END

WGHT      0.0702      0.1339

REM Highest difference peak  1.151,  deepest hole -0.570,  1-sigma level  0.108
Q1    1   0.0529  0.2649  0.5028  11.00000  0.05    1.15
Q2    1   0.7842  0.7486  0.8592  11.00000  0.05    0.44
Q3    1   0.6919  0.7517  0.8226  11.00000  0.05    0.38
Q4    1   1.0180  0.7473  1.2104  11.00000  0.05    0.34
Q5    1   0.6010  0.2462  0.8796  11.00000  0.05    0.30
;
_shelx_res_checksum              84053
_shelx_hkl_file
;
   0   0  -2  190.61    2.83
   0   0   2  192.09    2.80
   0   0   3    6.95    0.40
   0   0  -3    6.94    0.40
   0   0   4  152.26    2.71
   0   0  -4  155.78    2.77
   0   0  -5   20.12    0.87
   0   0   5   19.64    0.82
   0   0  -6    0.38    0.30
   0   0   6   -0.04    0.27
   0   0   7    0.74    0.37
   0   0  -7    0.69    0.38
   0   0   7    0.82    0.34
   0   0  -8   60.19    2.01
   0   0   8   60.96    1.84
   0   0   8   63.33    1.74
   0   0  -9   60.04    2.10
   0   0 -10   13.67    1.08
   0   0 -11   -0.32    0.54
   0   1   0   -0.01    0.04
   0  -1   0   -0.01    0.06
   0   1   1   43.78    0.75
   0   1  -1   43.95    0.75
   0   1  -1   44.13    0.70
   0   1   2  252.88    3.60
   0   1  -2  254.55    3.50
   0   1  -2  258.71    3.62
   0   1  -3  605.58    8.20
   0   1   3  607.07    8.15
   0  -1   3  604.81    7.97
   0   1  -4  157.06    2.82
   0  -1   4  159.57    2.58
   0   1   4  159.03    2.76
   0   1  -5   49.00    1.42
   0  -1   5   50.58    1.24
   0   1   5   48.96    1.36
   0  -1   6   78.54    1.74
   0   1  -6   76.37    2.02
   0  -1   6   76.47    1.90
   0   1   6   76.29    1.90
   0   1  -7    5.16    0.62
   0  -1   7    6.42    0.62
   0   1   7    5.07    0.55
   0  -1   7    6.83    0.55
   0  -1   8    2.31    0.41
   0   1  -8    3.10    0.57
   0   1   8    3.49    0.50
   0  -1   8    2.12    0.46
   0   1  -9    1.48    0.52
   0  -1 -10    4.19    0.70
   0   1 -10    3.87    0.70
   0   1 -11    0.24    0.53
   0  -1 -11    0.08    0.57
   0   2   0  256.50    3.67
   0  -2   0  260.68    3.64
   0  -2   1    1.35    0.10
   0  -2  -1    1.34    0.12
   0  -2  -1    1.21    0.19
   0  -2  -1    1.26    0.16
   0   2   2  198.24    2.88
   0  -2  -2  205.82    2.94
   0   2  -2  201.81    2.80
   0  -2  -2  195.46    2.92
   0   2  -2  195.31    2.91
   0  -2   2  197.57    2.88
   0  -2   3  644.31    8.63
   0   2   3  643.02    8.62
   0  -2  -3  648.74    8.69
   0   2  -3  647.37    8.70
   0   2  -3  643.79    8.49
   0   2   4   99.46    1.95
   0   2  -4   97.67    2.01
   0  -2  -4   97.25    2.01
   0  -2   4   96.11    1.93
   0  -2   4   98.15    1.75
   0  -2   5  201.80    3.44
   0  -2   5  196.37    3.14
   0   2  -5  195.81    3.53
   0   2   5  200.13    3.43
   0  -2  -5  197.69    3.55
   0  -2   6  176.66    2.98
   0  -2   6  174.81    3.29
   0   2  -6  176.83    3.46
   0  -2  -6  171.96    3.41
   0   2   6  176.33    3.27
   0  -2  -7  101.68    2.55
   0   2  -7   99.58    2.54
   0   2   7   99.13    2.34
   0  -2   7  104.29    2.39
   0  -2   7  100.36    2.10
   0   2  -8    4.63    0.63
   0  -2  -8    3.30    0.57
   0  -2   8    3.15    0.40
   0  -2   8    2.73    0.49
   0   2   8    3.40    0.52
   0  -2  -9    0.82    0.48
   0   2  -9    1.92    0.52
   0  -2 -10    0.14    0.48
   0   2 -10    0.07    0.51
   0   2 -11    7.82    0.95
   0  -2 -11    9.47    1.04
   0  -3   0   -0.07    0.18
   0  -3  -1   31.31    0.49
   0   3  -1   30.89    0.51
   0  -3  -1   31.51    0.79
   0  -3  -1   30.56    0.86
   0   3  -2   89.17    1.52
   0  -3  -2   88.88    1.76
   0   3  -2   90.47    1.48
   0  -3  -2   84.25    1.51
   0  -3   2   89.66    1.45
   0  -3  -2   89.66    1.64
   0   3   2   90.82    1.46
   0   3  -3  252.57    3.85
   0  -3   3  257.31    3.77
   0   3   3  255.67    3.77
   0  -3  -3  258.84    3.86
   0   3  -3  258.70    3.71
   0  -3  -3  257.53    3.87
   0   3   4   51.51    1.27
   0   3  -4   53.47    1.37
   0  -3  -4   54.59    1.38
   0  -3  -4   53.38    1.29
   0  -3   4   53.07    1.28
   0   3  -4   53.91    1.23
   0  -3  -5    9.51    0.64
   0   3  -5   10.33    0.66
   0  -3   5    9.79    0.59
   0   3   5    9.32    0.58
   0   3   6   45.97    1.39
   0  -3  -6   49.79    1.55
   0   3  -6   45.59    1.50
   0  -3   6   46.39    1.39
   0  -3   7    6.64    0.59
   0  -3  -7    6.35    0.65
   0   3  -7    6.47    0.63
   0   3   7    5.93    0.58
   0  -3  -8    0.06    0.40
   0   3   8    0.18    0.36
   0   3  -8    0.06    0.40
   0  -3   8    0.18    0.35
   0  -3  -9    0.38    0.43
   0   3  -9    0.44    0.44
   0  -3 -10    4.16    0.71
   0   3 -10    3.49    0.71
   0  -3 -11    0.08    0.54
   0   3 -11    1.15    0.59
   0   4   0  666.78    9.02
   0  -4  -1  421.17    6.18
   0   4   1  431.83    6.13
   0   4  -1  434.55    6.08
   0   4  -2   81.48    1.27
   0  -4  -2   80.64    1.78
   0  -4  -2   81.05    1.63
   0   4  -3   20.55    0.64
   0  -4   3   17.56    0.56
   0   4   3   18.92    0.58
   0  -4  -3   18.65    0.71
   0   4  -3   18.90    0.64
   0  -4  -3   18.16    0.63
   0  -4  -4   14.72    0.67
   0  -4  -4   15.75    0.69
   0   4  -4   12.73    0.64
   0   4   4   12.25    0.56
   0  -4   4   15.96    0.61
   0   4  -4   12.81    0.57
   0  -4   5    8.69    0.54
   0  -4  -5    9.09    0.62
   0  -4  -5    8.42    0.58
   0   4   5    9.49    0.56
   0   4  -5    8.95    0.63
   0   4   6    1.03    0.31
   0  -4   6    0.98    0.31
   0   4  -6    1.13    0.38
   0  -4  -6    1.61    0.36
   0  -4  -6    1.40    0.40
   0   4   7    0.98    0.33
   0  -4   7    0.52    0.30
   0  -4  -7    0.38    0.35
   0  -4  -8   24.48    1.23
   0   4  -8   22.03    1.18
   0   4  -9   31.58    1.47
   0  -4  -9   28.14    1.40
   0  -4 -10    7.93    0.89
   0   4 -10    6.91    0.84
   0   4 -11    1.96    0.64
   0   5   0   -0.03    0.26
   0   5  -1    6.59    0.47
   0   5   1    6.92    0.51
   0  -5  -1    6.42    0.52
   0   5  -2   47.75    1.40
   0  -5  -2   46.92    1.38
   0  -5  -3   88.82    1.43
   0   5  -3   90.54    1.69
   0  -5  -3   87.75    1.88
   0   5  -3   92.26    1.49
   0   5  -3   88.44    2.09
   0   5  -4   20.61    0.74
   0  -5  -4   19.34    0.71
   0  -5  -4   18.96    0.80
   0   5  -4   20.11    0.73
   0   5  -5    1.38    0.32
   0   5   5    1.75    0.27
   0  -5   5    1.97    0.28
   0  -5  -5    1.82    0.36
   0  -5  -5    2.04    0.35
   0  -5   6   25.14    0.89
   0   5  -6   23.47    1.01
   0  -5  -6   24.95    1.03
   0   5   6   24.72    0.89
   0   5   7    5.43    0.50
   0  -5   7    4.96    0.47
   0   5  -7    4.98    0.58
   0  -5  -7    5.40    0.58
   0   5  -8    0.45    0.44
   0  -5  -8    1.01    0.46
   0  -5  -9    0.17    0.43
   0   5  -9    0.68    0.47
   0   5 -10    1.00    0.53
   0  -5 -10    0.95    0.57
   0   6   0   10.05    0.63
   0   6  -1    1.33    0.32
   0   6   1    2.00    0.38
   0   6  -2   59.36    1.75
   0   6  -2   60.11    1.61
   0   6  -3   72.38    1.95
   0   6  -3   72.09    1.49
   0  -6  -4   59.04    1.07
   0   6  -4   57.38    1.74
   0  -6  -4   58.09    1.06
   0   6  -4   58.21    1.11
   0   6  -4   57.35    1.36
   0   6  -5   42.88    1.53
   0  -6  -5   42.68    1.00
   0   6  -5   42.78    1.05
   0  -6  -6   52.49    1.27
   0   6  -6   55.18    1.79
   0   6  -6   53.68    1.31
   0  -6  -8    2.78    0.48
   0  -6  -9   -0.15    0.43
   0   7   0    0.04    0.33
   0   7  -1    1.98    0.52
   0   7  -1    1.62    0.39
   0   7   1    2.47    0.46
   0   7  -2   18.01    0.64
   0   7  -2   17.99    0.92
   0   7  -2   18.36    1.03
   0   7  -3   44.02    1.61
   0   7  -3   44.31    1.46
   0   7  -3   42.78    1.09
   0   7  -4   13.23    0.80
   0   7  -4   12.71    0.59
   0   7  -4   12.09    0.88
   0   7  -5    3.41    0.57
   0   7  -6    6.93    0.74
   0   7  -7    1.11    0.57
   0   8   0  119.87    2.78
   0   8   1   62.47    1.91
   0   8  -1   61.54    1.85
   0   8  -2    8.49    0.73
   0   8  -2    8.31    0.84
   0   8  -3    3.36    0.66
   0   8  -3    1.96    0.48
   0   8  -4    4.51    0.71
   0   8  -4    4.06    0.58
   1   0 -11    0.08    0.49
   1   0 -10   13.14    1.04
   1   0  -9   17.28    1.09
  -1   0   8   11.84    0.78
   1   0  -8   12.59    0.93
   1   0  -7   33.19    1.36
  -1   0   7   35.51    1.23
   1   0  -6  108.49    2.46
  -1   0   6  111.72    2.28
   1   0  -5  267.60    4.28
  -1   0   5  260.35    4.09
  -1   0   5  258.10    4.00
  -1   0   4  159.73    2.68
  -1   0   4  163.87    2.62
   1   0  -4  162.96    2.78
  -1   0   3   36.29    0.84
  -1   0   3   35.07    0.81
   1   0  -3   35.72    0.88
  -1   0   2  490.30    6.33
   1   0  -2  484.32    6.40
   1   0  -2  488.47    6.35
  -1   0   1  422.28    5.42
   1   0  -1  421.47    5.41
  -1   0   0  318.00    4.14
   1   0   0  318.87    4.14
  -1   0  -1  625.73    8.10
   1   0   1  631.76    8.19
  -1   0  -2   14.80    0.57
   1   0   2   17.13    0.61
  -1   0  -3  155.32    2.69
   1   0   3  152.82    2.69
  -1   0  -4   57.42    1.52
   1   0   4   58.14    1.53
  -1   0  -5   34.57    1.25
   1   0   5   33.99    1.22
  -1   0  -6    3.68    0.54
   1   0   6    4.34    0.54
  -1   0  -7   27.69    1.30
   1   0   7   25.62    1.18
  -1   0  -8   41.64    1.68
  -1   0  -9   39.41    1.73
  -1   0 -10    3.43    0.69
  -1   0 -11    0.97    0.59
   1   1 -11    1.53    0.59
   1  -1 -11    1.13    0.56
   1   1 -10    1.04    0.53
   1   1  -9   10.62    0.92
  -1  -1   8   16.45    0.89
  -1   1   8   17.75    0.91
   1   1  -8   18.70    1.09
  -1  -1   8   15.31    0.78
  -1   1   8   17.11    0.89
  -1   1   7    4.34    0.49
  -1  -1   7    5.63    0.47
   1   1  -7    4.42    0.57
  -1   1   7    3.68    0.45
  -1  -1   7    5.04    0.51
  -1  -1   6   11.38    0.64
  -1   1   6   11.10    0.63
   1   1  -6    9.69    0.68
  -1   1   6   10.77    0.62
  -1  -1   6   12.22    0.60
  -1   1   5    0.91    0.24
   1   1  -5    0.44    0.28
   1   1  -4    4.03    0.31
  -1   1   4    3.88    0.33
   1   1  -4    3.10    0.31
   1   1  -3   14.95    0.49
  -1   1   3   13.16    0.49
   1   1  -2   83.65    1.38
   1   1  -1   51.20    0.83
  -1   1   1   51.62    0.79
  -1   1   1   51.05    0.83
   1  -1  -1   51.68    0.77
  -1   1   0   47.63    0.78
   1  -1   0   45.94    0.77
   1   1   0   47.97    0.77
   1   1   0   46.38    0.82
   1   1   0   47.93    0.82
  -1   1  -1   42.80    0.81
   1   1   1   43.29    0.90
   1   1   2  164.05    2.62
  -1   1  -2  160.82    2.59
   1   1   3   16.93    0.69
  -1   1  -3   18.62    0.71
  -1   1  -4    7.58    0.54
   1   1   4    8.54    0.55
  -1   1  -5   49.87    1.52
   1   1   5   51.06    1.50
   1  -1   5   52.12    1.52
   1  -1   6   13.00    0.80
   1   1   6   13.85    0.83
  -1   1  -6   13.14    0.85
   1  -1   6   13.58    0.70
   1  -1   7    2.87    0.43
   1   1   7    1.82    0.49
   1  -1   7    2.41    0.51
  -1   1  -7    1.63    0.48
  -1   1  -8    1.15    0.46
   1  -1   8    1.48    0.41
  -1   1  -9    3.40    0.66
  -1   1 -10    0.74    0.50
  -1  -1 -10    0.30    0.49
   1   2 -11   10.43    1.00
   1  -2 -11   14.23    1.10
   1  -2 -10    4.64    0.72
   1   2 -10    6.59    0.80
   1  -2  -9    6.82    0.77
   1   2  -9    6.39    0.75
  -1  -2   8   32.71    1.10
   1   2  -8   28.53    1.33
  -1  -2   8   33.04    1.25
   1  -2  -8   30.46    1.36
  -1   2   8   32.06    1.23
  -1   2   8   33.95    1.26
  -1  -2   7   63.25    1.71
   1  -2  -7   64.40    1.90
  -1   2   7   60.85    1.68
  -1  -2   7   65.41    1.57
   1   2  -7   61.52    1.88
   1   2  -6   16.35    0.88
   1  -2  -6   16.65    0.88
  -1  -2   6   20.39    0.85
  -1   2   6   17.72    0.81
  -1  -2   6   21.70    0.78
   1   2  -5   14.87    0.66
  -1  -2   5   14.39    0.66
  -1   2   5   16.11    0.69
   1   2  -5   14.80    0.75
  -1   2   4  122.25    2.15
  -1  -2   4  128.38    2.17
   1   2  -4  120.91    2.26
   1  -2  -4  124.45    2.28
   1   2  -4  120.42    2.13
   1   2  -3  273.31    3.95
   1  -2  -3  266.57    3.93
   1   2  -3  270.63    3.87
   1  -2  -2  481.45    6.25
   1   2  -2  468.56    6.26
   1  -2  -2  473.73    6.24
   1  -2  -1   20.60    0.59
   1  -2  -1   19.78    0.49
   1  -2  -1   19.53    0.43
  -1  -2   0   49.64    0.95
   1  -2   0   49.87    0.79
   1  -2   0   51.35    0.96
   1   2   0   45.28    0.95
  -1   2   0   45.53    0.77
   1   2   0   43.89    0.97
  -1  -2   0   50.07    0.77
   1   2   0   44.98    0.76
  -1   2  -1  326.89    4.40
  -1  -2  -1  327.79    4.56
   1  -2   1  322.41    4.50
  -1  -2  -1  332.96    4.38
   1   2   1  331.00    4.50
   1  -2   2  330.71    4.37
   1  -2   2  329.89    4.72
   1   2   2  323.41    4.70
  -1   2  -2  331.82    4.70
  -1  -2  -2  327.89    4.71
  -1  -2  -2  331.57    4.66
   1  -2   3  150.39    2.30
  -1  -2  -3  148.74    2.63
   1   2   3  149.50    2.63
  -1   2  -3  149.98    2.63
   1  -2   3  144.56    2.63
  -1   2  -4   96.98    2.11
  -1  -2  -4  100.92    2.15
   1  -2   4  102.39    2.14
   1   2   4   97.46    2.10
   1  -2   4   97.50    1.79
  -1   2  -5   80.21    2.03
   1  -2   5   89.56    2.07
   1  -2   5   84.58    1.72
  -1  -2  -5   84.00    2.07
   1   2   5   86.82    2.03
   1  -2   6  121.04    2.32
   1  -2   6  123.24    2.71
   1   2   6  119.21    2.67
  -1  -2  -6  117.57    2.74
  -1   2  -6  119.74    2.76
   1  -2   7   21.72    0.90
   1  -2   7   23.78    1.12
  -1   2  -7   24.67    1.22
   1   2   7   22.85    1.10
  -1  -2  -7   22.33    1.17
   1  -2   8    1.07    0.36
  -1   2  -8    0.79    0.48
  -1  -2  -8    0.78    0.46
  -1   2  -9    0.13    0.47
  -1  -2  -9    1.20    0.54
  -1  -2 -10    5.78    0.80
  -1   2 -10    3.98    0.72
   1   3 -11    1.55    0.67
   1  -3 -11    1.74    0.59
   1  -3 -10    0.26    0.48
   1   3 -10    0.53    0.47
   1  -3  -9    6.36    0.72
   1   3  -9    6.74    0.74
  -1  -3   8   18.06    0.91
  -1   3   8   18.97    0.93
   1  -3  -8   19.01    1.07
   1   3  -8   18.27    1.06
  -1   3   7    0.58    0.30
   1   3  -7    0.55    0.40
  -1  -3   7    0.68    0.31
   1  -3  -7    0.14    0.34
  -1   3   6   18.78    0.80
   1   3  -6   18.92    0.92
  -1  -3   6   19.04    0.81
   1  -3  -6   18.16    0.91
   1   3  -5    0.28    0.28
   1   3  -5    0.25    0.24
  -1   3   5    0.47    0.22
  -1  -3   5    0.16    0.19
   1  -3  -5    0.60    0.30
   1   3  -4   21.71    0.79
   1  -3  -4   21.29    0.73
   1   3  -4   21.59    0.72
   1  -3  -4   20.88    0.78
   1   3  -3   13.09    0.53
   1  -3  -3   11.73    0.50
   1   3  -2   38.75    0.74
   1  -3  -2   38.79    0.81
   1  -3  -2   42.08    1.06
   1  -3  -2   40.82    0.91
   1  -3  -2   39.22    0.74
   1   3  -2   40.49    0.82
   1   3  -1   44.56    0.74
   1   3  -1   46.12    0.72
   1  -3  -1   44.94    0.74
   1  -3  -1   43.81    1.07
  -1   3   1   45.62    0.98
   1   3  -1   43.58    1.02
   1   3  -1   46.74    1.11
   1  -3  -1   43.10    0.72
  -1   3   0   48.35    0.77
  -1  -3   0   48.03    0.74
   1   3   0   51.19    1.20
   1   3   0   47.49    0.82
  -1   3   0   47.74    1.14
   1   3   0   44.76    1.07
  -1   3   0   46.85    0.99
   1  -3   0   47.86    0.81
   1   3   1   13.16    0.43
  -1   3  -1   12.10    0.32
  -1   3  -1   13.30    0.38
  -1   3  -1   13.37    0.55
  -1  -3  -1   12.07    0.35
   1  -3   1   13.09    0.43
  -1   3  -2   66.71    1.23
  -1  -3  -2   65.94    1.46
  -1  -3  -2   65.19    1.39
  -1  -3  -2   67.42    1.21
   1   3   2   63.03    1.33
   1  -3   2   67.32    1.36
  -1  -3  -3   59.24    1.38
  -1   3  -3   64.77    1.45
  -1  -3  -3   63.15    1.47
   1  -3   3   61.78    1.44
   1   3   3   62.37    1.44
  -1  -3  -3   60.61    1.42
  -1   3  -4    0.28    0.27
  -1  -3  -4    0.47    0.28
   1  -3   4    0.12    0.24
   1   3   4    0.76    0.28
  -1  -3  -4    0.28    0.27
   1   3   5   46.09    1.41
  -1  -3  -5   45.64    1.44
   1  -3   5   47.65    1.43
  -1   3  -5   46.78    1.47
   1  -3   5   46.46    1.13
  -1  -3  -6    7.56    0.66
   1  -3   6    8.78    0.69
   1   3   6    7.18    0.62
   1  -3   6    6.75    0.47
  -1   3  -6    8.22    0.68
   1   3   7    1.31    0.42
  -1  -3  -7    1.35    0.48
   1  -3   7    1.41    0.41
   1  -3   7    1.31    0.32
  -1   3  -7    2.41    0.51
   1  -3   8    0.32    0.28
  -1  -3  -8    0.24    0.42
  -1   3  -8    0.71    0.40
  -1  -3  -9    2.69    0.61
  -1   3  -9    3.36    0.65
  -1  -3 -10    0.72    0.55
  -1   3 -10    0.43    0.54
   1  -4 -11    0.21    0.54
   1   4 -11   -0.57    0.53
   1   4 -10    7.26    0.81
   1  -4 -10    8.20    0.88
   1   4  -9   12.37    0.93
   1  -4  -9   13.23    0.97
   1   4  -8    8.62    0.75
   1  -4  -8    6.73    0.69
  -1   4   8    8.77    0.62
  -1  -4   8    8.18    0.61
   1   4  -7    7.92    0.68
   1  -4  -7    7.08    0.56
  -1  -4   7    8.36    0.56
  -1   4   7    7.54    0.54
   1  -4  -7    7.27    0.65
   1   4  -6   45.98    1.44
   1  -4  -6   44.44    1.42
   1  -4  -6   44.18    1.27
   1   4  -6   42.67    1.30
   1   4  -5  176.27    3.06
   1  -4  -5  175.98    3.14
   1  -4  -5  175.21    3.02
   1   4  -5  175.45    3.14
   1  -4  -4   80.79    1.68
   1   4  -4   81.79    1.70
   1   4  -4   78.58    1.65
   1  -4  -4   79.33    1.87
   1  -4  -4   80.72    1.69
   1  -4  -3   10.99    0.38
   1  -4  -3   11.01    0.52
   1   4  -3    9.19    0.36
   1  -4  -3   10.21    0.61
   1  -4  -3   10.89    0.47
   1   4  -3    9.74    0.45
  -1   4   2   39.01    1.04
   1   4  -2   37.90    1.14
   1   4  -2   38.23    0.75
   1  -4  -2   34.70    0.72
   1  -4  -2   36.49    1.08
   1  -4  -2   33.73    0.65
   1   4  -2   35.53    0.65
   1  -4  -1  314.91    4.69
   1   4  -1  313.14    4.77
  -1   4   1  303.14    4.53
  -1   4   0  310.88    4.59
  -1   4   0  321.69    4.86
   1   4   0  317.06    4.89
  -1  -4  -1   53.25    1.24
  -1   4  -1   49.54    0.88
   1   4   1   48.14    0.91
  -1   4  -1   51.49    0.86
  -1  -4  -1   51.08    0.82
   1  -4   1   49.88    0.91
  -1   4  -1   49.63    1.30
  -1   4  -2    8.42    0.52
  -1  -4  -2    7.51    0.52
  -1   4  -2    7.87    0.34
   1  -4   2    6.37    0.36
  -1   4  -2    7.77    0.32
  -1  -4  -2    8.01    0.48
   1   4   2    7.35    0.38
  -1  -4  -2    7.30    0.31
  -1  -4  -3   50.94    1.31
  -1  -4  -3   52.87    1.42
  -1  -4  -3   51.04    1.10
  -1   4  -3   50.48    1.12
   1   4   3   50.13    1.22
   1  -4   3   50.32    1.21
   1  -4   4   86.15    1.88
  -1   4  -4   91.25    1.97
  -1  -4  -4   94.56    2.07
  -1  -4  -4   88.02    1.94
   1   4   4   86.78    1.89
  -1  -4  -4   90.05    1.93
  -1   4  -5    7.42    0.61
  -1  -4  -5    7.58    0.62
  -1  -4  -5    7.67    0.57
   1  -4   5    6.99    0.56
   1   4   5    6.12    0.54
  -1   4  -6    1.01    0.34
   1   4   6    1.03    0.36
   1  -4   6    0.68    0.33
  -1  -4  -6    1.30    0.41
  -1  -4  -7   11.47    0.83
   1  -4   7   10.99    0.77
   1   4   7   10.51    0.75
  -1   4  -7   10.45    0.82
  -1  -4  -8   35.24    1.52
  -1   4  -8   35.58    1.51
  -1   4  -9   20.83    1.27
  -1  -4  -9   21.35    1.25
  -1  -4 -10    1.31    0.59
  -1   4 -10    2.83    0.68
   1  -5 -11    1.41    0.57
   1   5 -11    1.14    0.55
   1  -5 -10    0.12    0.49
   1   5 -10    0.18    0.50
   1  -5  -9    3.82    0.61
   1   5  -9    3.46    0.63
   1   5  -8   11.19    0.82
   1  -5  -8    9.81    0.78
   1   5  -7    0.75    0.36
   1  -5  -7    0.29    0.35
   1   5  -6   11.03    0.67
   1   5  -6   10.67    0.68
   1  -5  -6   10.58    0.63
   1  -5  -6   10.71    0.69
   1   5  -5    2.07    0.33
   1   5  -5    2.54    0.35
   1  -5  -5    2.44    0.34
   1  -5  -5    2.37    0.36
   1   5  -4   20.77    0.61
   1   5  -4   21.44    0.74
   1  -5  -4   23.16    1.00
   1  -5  -4   20.23    0.82
   1  -5  -4   20.79    0.60
   1   5  -4   21.63    0.79
   1  -5  -4   19.84    0.71
   1  -5  -3    1.10    0.32
   1  -5  -3    0.46    0.13
   1   5  -3    0.71    0.20
   1  -5  -3    0.53    0.18
   1   5  -3    0.80    0.14
   1  -5  -2   15.38    0.75
   1   5  -2   13.57    0.75
  -1   5   2   14.52    0.71
  -1   5   1   12.05    0.63
   1  -5  -1   12.17    0.69
   1   5  -1   12.65    0.74
  -1   5   0   12.37    0.63
  -1   5   0   13.19    0.76
   1   5   0   13.61    0.77
  -1   5  -1    5.82    0.55
  -1   5  -1    5.78    0.45
  -1   5  -1    4.88    0.26
  -1   5  -2   13.89    0.45
  -1  -5  -2   13.12    0.73
  -1  -5  -2   13.65    0.68
  -1   5  -2   13.52    0.74
   1  -5   2   13.54    0.41
   1   5   2   14.12    0.42
  -1  -5  -2   12.81    0.36
  -1   5  -2   13.82    0.40
   1   5   3   48.76    1.09
  -1  -5  -3   50.66    1.46
  -1   5  -3   48.33    1.05
  -1   5  -3   47.96    1.43
  -1  -5  -3   52.06    1.37
  -1  -5  -3   49.74    1.02
   1  -5   3   49.96    1.09
   1   5   4    1.05    0.26
  -1  -5  -4    0.94    0.32
  -1   5  -4    1.92    0.27
  -1  -5  -4    1.34    0.39
  -1   5  -4    0.95    0.33
   1  -5   4    1.27    0.26
  -1  -5  -4    0.94    0.22
   1   5   5   21.85    0.85
  -1  -5  -5   21.24    0.77
  -1   5  -5   21.76    0.80
   1  -5   5   23.49    0.87
   1   5   6    5.33    0.50
  -1  -5  -6    6.33    0.48
   1  -5   6    6.40    0.52
  -1   5  -6    6.13    0.49
  -1  -5  -7    0.93    0.33
   1  -5   7    0.73    0.36
   1   5   7    0.35    0.34
  -1   5  -7    0.54    0.33
  -1   5  -8    0.98    0.38
  -1   5  -9    1.49    0.45
  -1  -5  -9    1.59    0.47
  -1  -5 -10    0.43    0.41
  -1   5 -10    0.69    0.47
   1  -6 -10    2.61    0.59
   1  -6  -9    0.65    0.44
   1  -6  -8   10.76    0.79
   1   6  -8   10.57    0.77
   1  -6  -7   22.25    0.96
   1   6  -7   19.49    0.92
   1   6  -6    6.60    0.52
   1   6  -6    6.99    0.57
   1  -6  -6    6.04    0.40
   1  -6  -6    5.82    0.50
   1   6  -5    2.02    0.48
   1  -6  -5    1.23    0.27
   1   6  -5    1.51    0.22
   1   6  -5    1.60    0.29
   1  -6  -5    1.18    0.21
   1   6  -4   20.97    0.81
   1   6  -4   21.11    0.52
   1  -6  -4   21.10    0.50
   1   6  -4   21.40    0.54
   1   6  -3   85.59    2.08
   1   6  -2   64.35    1.72
   1   6  -1    8.00    0.60
   1   6  -1    8.33    0.71
  -1   6   1    8.40    0.58
  -1   6   0    6.09    0.50
   1   6   0    5.98    0.54
  -1   6  -1   60.25    1.56
  -1   6  -1   59.27    1.10
   1   6   1   59.78    1.68
  -1   6  -1   62.25    1.79
  -1   6  -2   83.18    1.92
  -1   6  -2   81.89    1.42
  -1   6  -2   83.33    2.12
  -1   6  -3   36.06    1.32
  -1   6  -3   38.00    0.76
  -1  -6  -3   36.11    0.69
  -1  -6  -4   12.51    0.47
  -1   6  -4   13.11    0.51
   1   6   4   13.95    0.51
   1  -6   4   12.48    0.49
  -1   6  -4   13.47    0.82
   1  -6   5   30.88    0.93
  -1   6  -5   31.78    0.94
  -1  -6  -5   31.08    0.90
  -1   6  -5   32.56    1.30
   1  -6   6   35.63    1.10
  -1   6  -6   34.68    1.39
  -1  -6  -6   36.18    1.08
  -1   6  -6   38.05    1.12
  -1  -6  -7   11.01    0.65
  -1   6  -7   11.13    0.68
  -1  -6  -8    0.39    0.34
  -1  -6  -9    0.16    0.37
   1   7  -7    0.84    0.49
   1   7  -6    2.52    0.44
   1   7  -6    2.10    0.52
   1   7  -5    0.06    0.28
   1   7  -5   -0.22    0.41
   1   7  -4    2.98    0.57
   1   7  -4    3.68    0.51
   1   7  -4    2.35    0.36
   1   7  -3    0.26    0.34
   1   7  -3    0.44    0.23
   1   7  -2    3.66    0.49
   1   7  -1    2.93    0.46
   1   7  -1    2.94    0.55
  -1   7   1    3.01    0.46
  -1   7   0    3.08    0.45
   1   7   0    3.04    0.48
   1   7   1    1.09    0.40
  -1   7  -1    1.02    0.17
  -1   7  -1    1.40    0.36
  -1   7  -1    2.07    0.50
  -1   7  -2    5.03    0.52
  -1   7  -2    6.07    0.66
  -1   7  -3   12.49    0.88
  -1   7  -3   11.66    0.74
  -1   7  -4    0.05    0.39
  -1   7  -5    3.73    0.60
  -1   7  -6    4.35    0.65
   1   8  -4   14.77    1.06
   1   8  -4   13.10    0.89
   1   8  -3    3.30    0.56
   1   8  -2   11.21    0.84
  -1   8   1   32.67    1.30
   1   8  -1   33.82    1.38
   1   8   0   35.79    1.43
  -1   8   0   36.83    1.39
  -1   8  -1   13.04    0.83
  -1   8  -2    4.69    0.69
  -1   8  -2    2.85    0.51
  -1   8  -3    7.64    0.68
  -1   8  -3    8.05    0.83
  -1   8  -4    8.94    0.89
  -1   8  -4    7.91    0.71
   2   0 -12   -0.16    0.61
   2   0 -11    1.56    0.60
   2   0 -10   11.99    1.01
   2   0  -9   15.40    1.04
   2   0  -8    8.83    0.79
  -2   0   8    8.57    0.61
  -2   0   8    6.92    0.59
  -2   0   7   65.04    1.63
   2   0  -7   61.82    1.85
  -2   0   7   64.79    1.58
   2   0  -6  524.67    7.72
  -2   0   6  521.04    7.39
   2   0  -5  519.34    7.40
  -2   0   5  515.20    7.13
   2   0  -4  214.52    3.42
  -2   0   4  218.82    3.26
   2   0  -3   45.53    0.96
  -2   0   2    4.72    0.26
   2   0  -2    4.14    0.24
  -2   0   1  351.75    4.71
   2   0  -1  346.41    4.69
   2   0  -1  350.05    4.44
  -2   0   0    2.92    0.22
   2   0   0    2.95    0.21
   2   0   1    2.85    0.24
  -2   0  -1    2.92    0.24
  -2   0  -2  164.60    2.60
   2   0   2  157.82    2.79
   2   0   3  645.56    9.10
  -2   0  -3  655.19    9.10
  -2   0  -4  376.56    5.98
   2   0   4  389.27    5.99
  -2   0  -5   50.83    1.64
   2   0   5   54.24    1.66
   2   0   6    4.94    0.63
  -2   0  -6    3.93    0.55
  -2   0  -7   26.73    1.32
  -2   0  -8   21.76    1.25
  -2   0  -9    1.98    0.60
  -2   0 -10    0.46    0.52
   2   1 -12    3.14    0.74
   2  -1 -12    1.77    0.67
   2  -1 -11    2.79    0.63
   2   1 -11    2.84    0.66
   2   1 -10    0.14    0.47
   2   1  -9   44.54    1.76
  -2  -1   8   37.74    1.19
  -2   1   8   35.35    1.22
  -2  -1   8   33.98    1.20
   2   1  -8   33.87    1.42
  -2   1   8   35.38    1.23
  -2  -1   7    0.25    0.26
   2   1  -7    0.44    0.36
  -2   1   7    0.09    0.26
  -2   1   7    0.28    0.25
   2   1  -6   22.93    0.90
  -2   1   6   23.30    0.86
   2   1  -6   24.57    1.01
  -2   1   5    4.32    0.36
   2   1  -5    4.52    0.38
   2   1  -5    4.13    0.39
   2   1  -4   29.38    0.88
  -2   1   4   27.95    0.78
   2   1  -4   27.58    0.80
   2   1  -3  313.73    4.38
   2  -1  -3  314.98    4.39
  -2   1   3  315.26    4.32
  -2   1   2  525.53    6.94
   2  -1  -2  527.32    6.83
   2   1  -2  527.33    6.92
   2   1  -1   10.54    0.34
  -2   1   1   10.51    0.36
   2   1  -1   11.31    0.38
   2   1   0  742.19    9.44
  -2   1   0  737.97    9.58
  -2  -1   0  743.19    9.49
   2   1   0  740.86    9.56
   2   1   1  231.92    3.54
  -2  -1  -1  236.66    3.23
  -2   1  -1  232.40    3.41
   2   1   2   14.59    0.65
  -2   1  -2   16.66    0.60
   2   1   3    6.57    0.50
  -2   1  -3    6.05    0.41
   2   1   4   39.59    1.28
  -2   1  -4   35.67    1.22
   2  -1   4   35.74    1.23
   2  -1   5    0.17    0.36
  -2   1  -5    0.04    0.31
   2   1   5    0.63    0.41
  -2   1  -6   22.53    1.15
   2   1   6   24.01    1.16
   2  -1   6   23.58    1.15
  -2   1  -7   37.44    1.55
  -2   1  -8   -0.19    0.43
  -2  -1  -9    3.30    0.68
  -2   1  -9    2.61    0.61
  -2  -1 -10    0.61    0.57
  -2   1 -10    0.46    0.52
   2   2 -12   12.13    1.12
   2  -2 -12   13.99    1.15
   2  -2 -11    9.08    0.93
   2   2 -11    9.76    0.97
   2  -2 -10    6.01    0.75
   2   2 -10    6.00    0.77
   2   2  -9   21.42    1.21
   2  -2  -9   21.92    1.20
  -2   2   8   39.25    1.32
   2   2  -8   36.42    1.50
   2  -2  -8   37.09    1.48
  -2   2   7   17.53    0.84
   2  -2  -7   15.15    0.88
   2   2  -7   17.48    0.95
   2   2  -6   15.69    0.74
   2   2  -6   17.52    0.86
   2  -2  -6   15.99    0.82
  -2   2   6   17.29    0.76
   2   2  -5   13.46    0.67
   2   2  -5   14.20    0.63
   2  -2  -5   12.43    0.63
   2   2  -4  142.73    2.48
   2  -2  -4  144.27    2.47
  -2   2   4  140.91    2.38
   2   2  -4  140.81    2.42
   2   2  -3  593.09    7.75
   2  -2  -3  579.30    7.80
  -2   2   3  588.36    7.75
   2   2  -3  598.09    7.83
   2  -2  -3  582.16    7.64
   2  -2  -3  585.85    7.75
  -2   2   2  462.44    6.03
   2  -2  -2  468.66    6.17
   2   2  -2  462.87    6.16
   2  -2  -2  468.14    6.02
   2   2  -1  550.24    7.28
   2   2  -1  543.26    7.30
   2  -2  -1  552.27    7.15
   2   2  -1  550.25    7.14
  -2   2   1  549.79    7.17
  -2   2   1  546.64    7.01
   2  -2  -1  544.12    7.22
  -2  -2   1  549.25    7.15
  -2   2   0  465.35    6.24
  -2  -2   0  476.64    6.24
   2   2   0  470.07    6.36
   2   2   0  468.03    6.38
   2  -2   0  467.64    6.25
   2   2   0  472.04    6.24
  -2   2   0  478.10    6.27
  -2   2  -1  497.18    6.56
   2   2   1  497.54    6.81
  -2  -2  -1  495.38    6.66
   2  -2   1  487.01    6.78
  -2   2  -1  493.60    6.64
  -2  -2  -1  499.09    6.62
  -2  -2  -2  109.55    1.93
  -2  -2  -2  112.78    1.96
  -2   2  -2  111.55    1.96
   2  -2   2  107.06    2.10
   2   2   2  106.69    2.11
  -2   2  -3   15.92    0.64
  -2  -2  -3   16.03    0.64
   2   2   3   14.59    0.73
   2  -2   3   16.38    0.77
   2  -2   4    1.72    0.39
   2   2   4    2.80    0.42
   2  -2   4    2.00    0.29
  -2   2  -4    1.81    0.38
  -2  -2  -4    1.76    0.37
  -2  -2  -5   30.17    1.24
  -2   2  -5   29.58    1.22
   2   2   5   27.10    1.16
   2  -2   5   29.49    1.20
   2  -2   5   29.47    0.94
  -2   2  -6   49.91    1.70
   2  -2   6   47.94    1.35
  -2  -2  -6   51.58    1.73
   2  -2   6   50.29    1.68
   2   2   6   48.14    1.65
  -2  -2  -7   11.73    0.90
   2  -2   7   10.32    0.66
  -2   2  -7   11.74    0.91
  -2  -2  -8    2.47    0.59
  -2   2  -8    2.92    0.59
  -2   2  -9    8.96    0.89
  -2  -2  -9    7.33    0.84
  -2  -2 -10   12.69    1.14
  -2   2 -10   12.36    1.11
   2   3 -11    2.46    0.67
   2  -3 -11    1.90    0.62
   2  -3 -10    0.57    0.45
   2   3 -10    0.20    0.45
   2  -3  -9   27.47    1.34
   2   3  -9   28.10    1.37
   2  -3  -8   19.13    1.07
  -2   3   8   20.04    0.96
   2   3  -8   17.57    1.05
   2   3  -7    1.91    0.40
   2   3  -7    2.42    0.46
   2  -3  -7    1.64    0.42
  -2   3   7    1.50    0.39
   2  -3  -6    7.32    0.57
   2   3  -6    8.22    0.57
  -2   3   6    7.82    0.57
   2   3  -6    8.14    0.62
   2   3  -5    3.33    0.35
   2   3  -5    3.45    0.39
   2  -3  -5    2.99    0.37
   2  -3  -4   31.26    0.85
   2   3  -4   35.09    0.87
   2  -3  -4   31.94    0.85
   2  -3  -4   32.43    0.94
   2   3  -4   33.33    0.95
   2   3  -3  216.69    3.26
   2  -3  -3  212.73    3.24
   2  -3  -3  220.12    3.19
   2  -3  -3  215.83    3.16
   2   3  -3  217.30    3.16
   2  -3  -2   87.20    1.45
  -2   3   2   88.13    1.40
   2  -3  -2   87.50    1.71
   2   3  -2   87.11    1.44
   2  -3  -1    4.75    0.24
  -2  -3   1    4.45    0.23
   2  -3  -1    4.35    0.33
   2   3  -1    4.94    0.36
   2   3  -1    4.37    0.33
  -2   3   1    4.81    0.25
   2   3  -1    4.56    0.24
  -2   3   1    5.10    0.28
  -2   3   0  155.53    2.32
   2   3   0  158.55    2.65
  -2  -3   0  151.68    2.28
  -2   3   0  155.39    2.56
   2   3   0  158.71    2.62
   2   3   0  155.97    2.30
   2  -3   0  155.53    2.31
  -2  -3  -1  134.46    2.35
   2   3   1  130.92    2.30
   2  -3   1  130.42    2.28
  -2   3  -1  137.92    2.28
  -2  -3  -1  135.79    2.13
  -2   3  -1  136.20    2.15
   2   3   2   15.28    0.67
   2  -3   2   15.82    0.68
  -2   3  -2   17.80    0.64
  -2  -3  -2   17.55    0.70
  -2   3  -2   16.28    0.59
  -2  -3  -2   16.31    0.58
  -2  -3  -3    3.53    0.34
   2   3   3    3.64    0.43
   2  -3   3    3.37    0.24
   2  -3   3    3.61    0.43
  -2   3  -3    3.93    0.35
  -2  -3  -3    3.59    0.41
   2  -3   4   10.76    0.47
   2  -3   4   12.67    0.76
  -2  -3  -4   11.19    0.59
  -2   3  -4   11.24    0.60
   2   3   4   11.53    0.72
  -2   3  -5    0.93    0.33
  -2  -3  -5    0.35    0.27
   2   3   5    0.29    0.37
   2  -3   5    0.50    0.24
   2  -3   5    0.62    0.40
   2  -3   6   17.92    0.73
  -2  -3  -6   16.27    0.97
  -2   3  -6   17.61    0.99
   2  -3   6   17.67    0.97
   2   3   6   16.98    0.95
  -2  -3  -7   19.79    1.13
  -2   3  -7   18.67    1.10
   2  -3   7   21.20    0.85
  -2   3  -8    0.31    0.48
   2  -3   8    0.55    0.30
  -2  -3  -8    0.31    0.45
  -2  -3  -9    1.93    0.59
  -2   3  -9    2.08    0.64
  -2  -3 -10    0.44    0.43
   2  -4 -11    0.07    0.54
   2   4 -11    0.14    0.53
   2   4 -10    6.25    0.77
   2  -4 -10    4.75    0.70
   2   4  -9    4.93    0.65
   2  -4  -9    4.11    0.60
   2   4  -8    5.33    0.62
   2  -4  -8    4.66    0.60
   2   4  -7   60.26    1.69
   2  -4  -7   55.28    1.47
   2  -4  -7   57.94    1.74
   2   4  -7   56.74    1.72
   2  -4  -6  199.00    3.30
   2  -4  -6  196.81    3.56
   2   4  -6  196.03    3.57
   2   4  -6  193.50    3.48
   2  -4  -5  185.41    3.01
   2  -4  -5  180.08    2.90
   2   4  -5  182.20    3.15
   2   4  -5  178.18    2.91
   2  -4  -5  183.72    3.18
   2   4  -5  174.76    3.16
   2  -4  -4   65.44    1.31
   2  -4  -4   66.98    1.66
   2  -4  -4   65.92    1.46
   2   4  -4   63.48    1.45
   2   4  -4   65.61    1.32
   2  -4  -4   68.53    1.43
   2   4  -3    4.55    0.27
   2  -4  -3    4.04    0.26
   2  -4  -3    4.25    0.45
   2   4  -3    4.46    0.31
   2  -4  -3    3.65    0.31
   2  -4  -3    4.20    0.30
   2   4  -2    6.77    0.50
   2   4  -2    7.13    0.30
   2   4  -2    7.09    0.31
  -2   4   2    7.40    0.41
   2  -4  -2    7.91    0.50
   2  -4  -2    8.39    0.32
   2  -4  -2    7.84    0.33
   2   4  -2    8.29    0.51
  -2   4   1    5.19    0.34
   2   4  -1    4.94    0.41
   2  -4  -1    6.79    0.45
   2   4  -1    5.29    0.46
   2  -4  -1    6.89    0.28
   2   4  -1    5.17    0.24
   2   4   0    8.17    0.51
  -2   4   0    7.63    0.52
   2  -4   0    9.22    0.40
  -2   4   0    7.78    0.32
   2   4   0    7.71    0.37
  -2   4   0    7.39    0.40
  -2  -4   0    8.88    0.31
   2   4   0    7.41    0.53
   2   4   1    8.91    0.46
   2  -4   1    9.00    0.45
  -2  -4  -1    8.84    0.54
  -2   4  -1    9.39    0.39
  -2  -4  -1    8.56    0.36
   2   4   1    9.81    0.59
  -2  -4  -1    8.84    0.50
  -2   4  -2  105.09    2.08
  -2  -4  -2  106.93    2.13
  -2  -4  -2  103.61    2.08
  -2   4  -2  104.25    1.85
  -2  -4  -2  103.29    1.81
   2   4   2  109.10    2.05
   2  -4   2  100.49    1.99
  -2   4  -3  200.84    3.35
  -2  -4  -3  199.06    3.44
  -2   4  -3  196.60    3.18
  -2  -4  -3  193.28    3.13
   2   4   3  194.82    3.38
   2  -4   3  195.32    3.36
  -2  -4  -3  194.76    3.36
  -2  -4  -4  154.70    2.90
  -2  -4  -4  154.97    2.96
  -2  -4  -4  160.28    2.80
  -2   4  -4  160.03    2.85
   2   4   4  155.29    3.02
   2  -4   4  156.45    3.00
   2   4   5   40.58    1.40
  -2  -4  -5   44.80    1.39
  -2  -4  -5   40.91    1.25
  -2   4  -5   42.52    1.28
   2  -4   5   41.24    1.38
   2   4   6    5.22    0.59
   2  -4   6    4.77    0.61
  -2  -4  -6    5.55    0.52
  -2   4  -6    4.92    0.51
  -2  -4  -7   12.33    0.76
  -2   4  -7   12.28    0.78
  -2  -4  -8    8.90    0.71
  -2   4  -8    8.75    0.71
  -2  -4  -9    1.67    0.49
  -2   4  -9    0.60    0.42
   2  -5 -11    1.05    0.56
   2   5 -11    1.31    0.56
   2   5 -10    0.42    0.44
   2  -5 -10    0.06    0.46
   2  -5  -9   12.88    0.93
   2   5  -9   13.15    0.92
   2  -5  -8    9.82    0.76
   2   5  -8    9.71    0.75
   2   5  -7    0.08    0.31
   2   5  -7    0.60    0.34
   2  -5  -7   -0.24    0.32
   2  -5  -7   -0.05    0.23
   2  -5  -6    0.45    0.22
   2  -5  -6    0.74    0.28
   2   5  -6    0.53    0.23
   2  -5  -6    0.20    0.29
   2   5  -6    0.54    0.31
   2   5  -6    0.49    0.28
   2   5  -5    4.89    0.45
   2  -5  -5    4.75    0.55
   2  -5  -5    5.27    0.44
   2  -5  -5    4.60    0.33
   2   5  -5    4.19    0.32
   2  -5  -5    4.79    0.43
   2   5  -5    4.41    0.41
   2  -5  -4   25.02    1.03
   2  -5  -4   24.81    0.79
   2   5  -4   23.28    1.04
   2  -5  -4   25.35    0.68
   2  -5  -4   23.00    0.82
   2   5  -4   23.25    0.66
   2   5  -4   23.22    0.78
   2  -5  -3   70.06    1.20
   2  -5  -3   71.04    1.74
   2   5  -3   71.23    1.84
   2  -5  -3   68.90    1.32
   2   5  -3   69.13    1.71
   2   5  -3   68.75    1.31
   2   5  -3   68.63    1.19
  -2   5   2   51.70    1.30
   2  -5  -2   51.66    1.40
   2   5  -2   51.80    1.50
   2  -5  -2   48.94    0.92
   2  -5  -2   51.62    0.87
   2   5  -2   49.82    0.83
   2   5  -2   49.02    0.91
   2   5  -2   51.56    1.42
   2  -5  -1    2.01    0.16
   2   5  -1    1.65    0.35
  -2   5   1    1.83    0.30
   2  -5  -1    1.82    0.14
   2   5  -1    1.68    0.41
   2   5  -1    1.67    0.13
   2   5  -1    1.94    0.17
  -2   5   0   64.14    1.06
   2   5   0   64.26    1.76
   2   5   0   65.05    1.68
  -2   5   0   64.45    1.47
   2  -5   0   64.99    1.11
   2   5   0   66.18    1.13
  -2   5  -1   50.39    1.27
  -2   5  -1   51.66    0.99
  -2  -5  -1   51.47    0.93
   2   5   1   50.69    1.49
   2   5   1   51.49    1.08
   2  -5   1   50.93    1.07
   2   5   2    8.20    0.46
  -2   5  -2    8.34    0.40
  -2  -5  -2    9.67    0.65
  -2  -5  -2    8.55    0.39
  -2  -5  -2   10.19    0.61
  -2   5  -2    9.56    0.64
   2  -5   2    8.72    0.45
  -2   5  -3    5.16    0.50
  -2  -5  -3    5.72    0.54
   2   5   3    4.76    0.42
  -2  -5  -3    4.17    0.46
   2  -5   3    4.61    0.41
  -2   5  -3    5.05    0.36
  -2  -5  -3    4.44    0.33
  -2  -5  -4    0.49    0.24
  -2   5  -4    0.27    0.23
   2  -5   4    0.79    0.31
  -2   5  -4    0.22    0.30
   2   5   4    0.60    0.28
   2   5   5    0.22    0.32
  -2   5  -5    0.12    0.27
  -2   5  -5    0.08    0.31
  -2  -5  -5    0.20    0.25
   2  -5   5   -0.07    0.30
   2   5   6    9.33    0.71
  -2   5  -6   11.18    0.69
  -2  -5  -6   10.32    0.65
   2  -5   6   10.49    0.72
  -2  -5  -7    6.42    0.59
  -2   5  -7    8.02    0.65
  -2  -5  -8   -0.04    0.34
  -2   5  -8    0.22    0.36
  -2   5  -9    0.48    0.43
  -2  -5  -9    0.52    0.42
   2  -6 -10    2.96    0.58
   2  -6  -9    9.50    0.79
   2   6  -8    9.86    0.74
   2  -6  -8    8.73    0.70
   2  -6  -7    1.84    0.37
   2   6  -7    2.01    0.39
   2   6  -7    2.82    0.46
   2  -6  -7    2.33    0.32
   2   6  -6    2.29    0.37
   2   6  -6    2.91    0.44
   2  -6  -6    3.05    0.30
   2  -6  -6    3.50    0.40
   2  -6  -5    1.05    0.30
   2  -6  -5    1.48    0.28
   2   6  -5    0.62    0.23
   2   6  -5    0.78    0.29
   2  -6  -5    1.40    0.21
   2   6  -5    0.73    0.19
   2  -6  -4   21.86    0.64
   2   6  -4   23.26    0.66
   2   6  -4   25.11    1.14
   2  -6  -4   23.67    0.56
   2   6  -4   23.82    0.56
   2   6  -3  103.38    2.48
  -2   6   2  106.93    2.25
   2   6  -2  103.11    2.50
  -2   6   1  107.93    2.23
   2   6  -1  108.78    2.57
  -2   6   0  103.32    2.14
  -2   6  -1   95.03    2.03
  -2   6  -1   95.36    2.31
  -2  -6  -2   13.13    0.37
   2  -6   2   14.13    0.45
   2   6   2   14.08    0.45
  -2   6  -2   14.00    0.44
  -2   6  -3    0.38    0.18
  -2   6  -3    0.62    0.37
  -2  -6  -3    0.50    0.16
   2  -6   3    0.78    0.22
   2   6   3    0.36    0.19
  -2   6  -4    0.17    0.34
   2  -6   4    0.79    0.27
  -2   6  -4    0.19    0.21
  -2  -6  -4    0.74    0.23
  -2   6  -5    8.90    0.71
   2  -6   5    9.14    0.57
  -2   6  -5    8.35    0.52
  -2  -6  -5    9.08    0.52
  -2   6  -6   10.91    0.65
  -2   6  -6   11.32    0.82
  -2  -6  -6   10.73    0.62
  -2   6  -7    4.82    0.64
  -2  -6  -7    4.35    0.49
  -2  -6  -8    1.64    0.43
  -2   6  -8    1.76    0.50
   2   7  -7   -0.06    0.45
   2   7  -7    0.63    0.37
   2   7  -6    1.71    0.39
   2   7  -5    0.58    0.29
   2   7  -4    5.75    0.51
   2   7  -4    5.87    0.68
   2   7  -3   28.84    1.33
   2   7  -2   23.46    1.18
   2   7  -1    1.16    0.49
  -2   7   1    0.18    0.32
  -2   7   0   29.60    1.11
  -2   7  -1   24.52    1.00
  -2   7  -2    1.82    0.37
  -2   7  -2    2.47    0.54
  -2   7  -3    0.69    0.35
  -2   7  -3    0.49    0.40
  -2   7  -4    3.30    0.58
  -2   7  -5    0.05    0.48
  -2   7  -6    5.14    0.69
   2   8  -4    9.60    0.81
   2   8  -3    0.16    0.40
   2   8  -3    0.80    0.49
   2   8  -2    0.72    0.44
   2   8  -2    1.82    0.58
  -2   8   1    5.48    0.58
   2   8  -1    5.18    0.64
   2   8   0    1.50    0.49
  -2   8   0    0.95    0.42
  -2   8  -1    0.58    0.35
  -2   8  -2   16.55    0.90
  -2   8  -3   43.59    1.72
  -2   8  -3   43.88    1.50
  -2   8  -4   31.79    1.46
  -2   8  -4   33.85    1.32
  -2   9   0   10.46    0.79
   3   0 -12    3.50    0.74
   3   0 -11   24.08    1.43
   3   0 -10   10.26    0.94
   3   0  -9    2.82    0.56
  -3   0   8    3.56    0.42
   3   0  -8    3.19    0.53
  -3   0   7   65.83    1.59
   3   0  -7   60.90    1.80
   3   0  -6  140.59    2.79
   3   0  -5  132.41    2.49
   3   0  -5  131.77    2.37
   3   0  -4   26.03    0.78
  -3   0   3  195.03    2.98
   3   0  -3  187.59    2.94
   3   0  -2   77.91    1.15
   3   0  -2   81.00    1.48
  -3   0   2   80.92    1.50
   3   0  -1   54.54    1.13
  -3   0   1   53.66    1.14
  -3   0   1   54.06    0.84
  -3   0   0   79.90    1.52
   3   0   0   79.19    1.51
  -3   0  -1   88.00    1.21
   3   0   1   84.83    1.66
  -3   0  -1   87.74    1.69
   3   0   2  327.33    5.12
  -3   0  -2  333.72    4.94
  -3   0  -3  260.65    4.16
   3   0   3  257.56    4.39
   3   0   4  120.32    2.66
  -3   0  -4  120.03    2.44
  -3   0  -5   10.86    0.69
   3   0   5   10.42    0.80
  -3   0  -6   10.63    0.71
   3   0   6   11.04    0.85
  -3   0  -7    4.34    0.55
  -3   0  -8    3.59    0.54
  -3   0  -9    0.33    0.40
   3   1 -12    1.47    0.67
   3  -1 -12    0.96    0.59
   3  -1 -11    3.93    0.71
   3   1 -11    3.88    0.73
   3   1 -10    0.67    0.48
   3   1  -9    0.52    0.42
  -3   1   8    3.03    0.41
   3   1  -8    3.27    0.55
  -3   1   7    1.93    0.32
   3   1  -7    1.64    0.36
   3   1  -7    1.57    0.39
  -3   1   6    4.77    0.39
   3   1  -6    4.01    0.40
   3   1  -6    4.78    0.47
   3   1  -5   15.83    0.64
   3   1  -5   15.48    0.66
  -3   1   5   15.64    0.60
   3   1  -5   15.31    0.69
   3   1  -4   23.66    0.76
   3  -1  -4   22.70    0.72
   3   1  -4   22.03    0.72
  -3   1   3   49.93    1.13
   3  -1  -3   52.44    1.05
   3   1  -3   50.07    1.11
   3   1  -2    8.84    0.33
   3   1  -2    8.44    0.40
  -3   1   2    8.45    0.40
   3   1  -1   54.37    1.12
   3   1  -1   53.46    1.01
  -3   1   1   53.12    1.14
  -3   1   0   73.88    1.47
  -3  -1   0   74.31    1.32
   3   1   0   76.05    1.46
  -3  -1  -1   28.43    0.61
  -3   1  -1   27.50    0.49
  -3  -1  -1   26.98    0.73
  -3   1  -1   27.11    0.82
   3   1   1   28.88    0.82
  -3   1  -2    2.46    0.29
   3   1   2    3.14    0.39
  -3   1  -3    2.44    0.34
   3   1   3    1.78    0.37
   3  -1   3    2.11    0.41
  -3   1  -4    1.22    0.31
   3   1   4    1.72    0.44
   3  -1   4    1.07    0.38
  -3   1  -5   14.13    0.77
   3   1   5   14.10    0.91
   3  -1   5   13.57    0.89
   3   1   6   28.56    1.30
  -3  -1  -6   26.20    1.10
  -3   1  -6   26.15    1.11
   3  -1   6   25.96    1.24
  -3  -1  -7    3.46    0.51
  -3   1  -7    2.97    0.48
  -3   1  -8    2.84    0.52
  -3  -1  -8    2.11    0.48
  -3  -1  -9    2.43    0.53
  -3   1  -9    2.72    0.56
   3  -2 -12    1.31    0.62
   3   2 -12    2.00    0.69
   3  -2 -11    0.50    0.50
   3   2 -11    0.74    0.55
   3   2 -10    5.77    0.74
   3  -2 -10    4.74    0.68
   3  -2  -9   33.40    1.46
   3   2  -9   31.88    1.46
  -3   2   8   81.71    1.95
   3   2  -8   78.99    2.07
   3  -2  -8   80.46    2.21
   3   2  -8   81.33    2.25
   3   2  -7   14.44    0.85
   3  -2  -7   15.63    0.86
  -3   2   7   15.61    0.76
   3   2  -7   15.55    0.81
   3   2  -6   17.04    0.83
  -3   2   6   18.28    0.74
   3   2  -6   17.43    0.79
   3  -2  -6   18.68    0.84
   3  -2  -5   40.94    1.09
   3   2  -5   42.84    1.16
  -3   2   5   40.22    1.04
   3   2  -5   41.17    1.20
   3  -2  -5   40.77    1.19
   3   2  -5   41.46    1.09
  -3   2   4  176.96    2.76
   3  -2  -4  178.62    2.88
   3   2  -4  182.50    2.88
   3  -2  -3  222.82    3.00
   3  -2  -3  219.67    3.33
   3   2  -3  219.57    3.32
   3  -2  -2  123.51    2.07
   3   2  -2  125.93    2.08
   3  -2  -2  123.32    1.88
  -3   2   2  127.06    2.12
  -3  -2   2  126.88    2.10
   3   2  -2  129.33    2.08
  -3   2   1  168.82    2.26
  -3   2   1  167.05    2.65
   3  -2  -1  167.68    2.47
   3  -2  -1  167.71    2.27
   3   2  -1  170.36    2.65
  -3  -2   1  170.67    2.64
   3  -2  -1  169.24    2.63
   3   2  -1  166.75    2.62
   3   2  -1  167.80    2.60
  -3  -2   0  322.55    4.58
  -3   2   0  327.19    4.66
  -3  -2   0  324.03    4.63
   3   2   0  313.10    4.54
   3   2   0  331.34    4.62
   3  -2   0  322.50    4.63
   3  -2   1  133.76    2.50
  -3  -2  -1  135.45    2.19
   3   2   1  135.95    2.52
  -3  -2  -1  138.08    2.32
  -3   2  -1  135.49    2.35
  -3  -2  -1  138.89    2.35
  -3   2  -1  137.47    2.06
  -3  -2  -2    1.99    0.30
   3   2   2    3.12    0.41
   3  -2   2    2.06    0.37
  -3  -2  -2    2.16    0.27
  -3   2  -2    2.86    0.31
  -3  -2  -2    3.17    0.33
  -3   2  -3    0.12    0.24
  -3  -2  -3    0.80    0.28
  -3  -2  -3    1.02    0.28
   3   2   3    0.22    0.33
   3  -2   3    0.61    0.35
   3   2   4    3.47    0.53
   3  -2   4    4.60    0.57
  -3  -2  -4    4.67    0.49
  -3   2  -4    4.96    0.49
  -3  -2  -5   61.26    1.67
  -3   2  -5   58.96    1.66
   3   2   5   59.62    1.86
   3  -2   5   61.65    1.88
   3  -2   6   28.65    1.04
  -3  -2  -6   27.92    1.15
  -3   2  -6   29.90    1.19
   3  -2   7   10.90    0.69
  -3  -2  -7   12.04    0.81
  -3   2  -7   11.31    0.78
  -3  -2  -8    8.57    0.71
  -3   2  -8    9.47    0.77
  -3  -2  -9   12.54    0.91
  -3   2  -9   14.06    0.97
   3  -3 -12    0.75    0.59
   3   3 -12    2.02    0.70
   3  -3 -11    2.77    0.65
   3   3 -11    2.07    0.62
   3  -3 -10   -0.06    0.46
   3   3 -10   -0.06    0.43
   3  -3  -9    1.78    0.51
   3   3  -9    1.77    0.49
   3  -3  -8    0.10    0.35
   3   3  -8    0.59    0.43
  -3   3   8    0.50    0.34
   3   3  -8    0.61    0.36
  -3   3   7    5.55    0.49
   3   3  -7    5.42    0.53
   3  -3  -7    4.88    0.53
   3   3  -7    4.76    0.54
   3   3  -6    2.26    0.32
   3  -3  -6    2.28    0.38
   3   3  -6    1.74    0.37
   3   3  -6    1.69    0.35
  -3   3   6    1.66    0.33
   3  -3  -6    2.47    0.34
   3  -3  -5   11.46    0.50
  -3   3   5   11.06    0.54
   3   3  -5   11.64    0.61
   3   3  -5   10.58    0.60
   3  -3  -5   12.36    0.63
   3  -3  -5   12.22    0.56
   3   3  -5   11.78    0.56
   3  -3  -4    0.82    0.22
   3  -3  -4    0.59    0.16
  -3   3   4    0.52    0.17
   3   3  -4    0.64    0.21
   3  -3  -4    0.48    0.20
   3   3  -4    0.65    0.21
   3  -3  -3   49.10    0.94
   3  -3  -3   49.48    1.10
   3   3  -3   48.88    1.08
  -3   3   3   46.65    0.93
  -3  -3   2   30.15    0.80
   3   3  -2   30.91    0.90
   3   3  -2   32.63    0.82
   3  -3  -2   30.95    0.88
   3  -3  -2   32.15    0.82
   3   3  -2   31.58    0.94
  -3   3   2   30.98    0.82
  -3   3   1   71.03    1.23
   3   3  -1   74.17    1.54
  -3   3   1   72.31    1.40
   3   3  -1   73.86    1.56
  -3  -3   1   72.68    1.38
   3  -3  -1   72.21    1.41
   3  -3  -1   72.37    1.38
   3   3  -1   71.58    1.36
  -3  -3   0   70.15    1.46
   3   3   0   68.13    1.53
   3   3   0   70.70    1.52
  -3  -3   0   65.88    1.35
  -3   3   0   71.97    1.40
   3   3   0   69.21    1.36
   3  -3   0   68.47    1.38
  -3   3  -1    6.95    0.41
  -3  -3  -1    6.55    0.40
   3   3   1    5.58    0.45
  -3  -3  -1    5.95    0.42
   3  -3   1    6.20    0.46
  -3  -3  -1    6.66    0.42
  -3   3  -1    6.50    0.39
  -3   3  -2    2.08    0.30
  -3   3  -2    2.06    0.27
  -3  -3  -2    2.32    0.34
  -3  -3  -2    1.92    0.31
   3  -3   2    2.24    0.17
   3   3   2    2.70    0.41
   3  -3   2    2.24    0.37
  -3  -3  -2    2.23    0.29
  -3  -3  -3    1.34    0.33
   3   3   3    1.43    0.40
   3  -3   3    1.76    0.42
  -3   3  -3    2.57    0.35
  -3  -3  -3    2.31    0.32
   3  -3   3    1.43    0.21
  -3  -3  -3    1.61    0.34
   3   3   4    1.34    0.43
  -3  -3  -4    1.26    0.36
  -3  -3  -4    1.14    0.31
   3  -3   4    0.74    0.39
   3  -3   4    1.02    0.23
  -3   3  -4    1.29    0.32
  -3  -3  -4    1.28    0.35
  -3  -3  -5   11.64    0.68
   3  -3   5   11.27    0.57
  -3  -3  -5   12.60    0.73
  -3   3  -5   12.12    0.73
   3   3   5   12.47    0.83
   3  -3   5   10.16    0.77
   3  -3   6   24.47    0.87
  -3  -3  -6   23.61    1.06
  -3   3  -6   23.97    1.07
  -3   3  -7    3.74    0.51
  -3  -3  -7    3.75    0.52
   3  -3   7    3.62    0.43
  -3   3  -8    3.24    0.54
  -3  -3  -8    1.92    0.50
  -3   3  -9    2.63    0.57
  -3  -3  -9    2.37    0.57
   3  -4 -11   10.79    1.02
   3   4 -11   11.46    1.01
   3  -4 -10    9.36    0.87
   3   4 -10   10.00    0.89
   3   4  -9    2.33    0.51
   3  -4  -9    2.79    0.51
   3  -4  -8    0.38    0.38
   3   4  -8    0.29    0.37
   3  -4  -8    0.38    0.24
   3  -4  -8    0.67    0.31
  -3   4   8    0.54    0.33
   3   4  -8    0.67    0.34
   3  -4  -7   22.13    0.83
   3   4  -7   18.89    0.81
   3  -4  -7   19.99    0.82
   3   4  -7   21.60    0.98
  -3   4   7   21.41    0.90
   3  -4  -7   21.23    0.99
   3   4  -7   20.76    1.00
   3  -4  -6   93.88    1.84
   3   4  -6   92.07    2.10
  -3   4   6   91.43    1.93
   3  -4  -6   92.43    2.10
   3   4  -6   92.74    2.11
   3  -4  -6   93.49    1.89
   3   4  -6   91.02    1.88
  -3   4   5   73.07    1.54
   3  -4  -5   73.84    1.50
   3  -4  -5   71.42    1.51
   3   4  -5   69.94    1.66
   3  -4  -5   68.92    1.64
   3   4  -5   72.99    1.54
   3  -4  -4   11.72    0.49
   3  -4  -4   10.78    0.49
   3  -4  -4   10.87    0.65
   3   4  -4   10.28    0.48
  -3   4   4   10.75    0.47
   3   4  -4   11.00    0.55
   3  -4  -4   10.69    0.54
   3   4  -3   18.52    0.78
   3  -4  -3   19.57    0.63
   3   4  -3   20.42    0.85
   3   4  -3   18.82    0.61
   3  -4  -3   18.06    0.78
  -3   4   3   18.49    0.50
   3   4  -2   84.80    1.84
   3   4  -2   83.39    1.88
   3  -4  -2   86.82    1.78
  -3   4   2   86.55    1.58
   3  -4  -2   84.95    1.53
   3   4  -2   85.75    1.53
   3   4  -1   65.53    1.59
  -3   4   1   68.75    1.33
   3   4  -1   68.53    1.66
   3  -4  -1   66.40    1.48
   3  -4  -1   68.75    1.32
   3   4  -1   68.23    1.29
  -3   4   1   65.89    1.32
  -3  -4   1   66.03    1.29
   3   4   0    9.65    0.59
   3   4   0    9.64    0.50
   3   4   0   11.29    0.65
   3  -4   0    9.07    0.51
  -3  -4   0    8.89    0.41
  -3   4   0    9.53    0.43
  -3   4   0    9.53    0.44
  -3  -4  -1   22.04    0.71
   3   4   1   22.05    0.83
  -3   4  -1   22.32    0.73
   3  -4   1   22.42    0.84
  -3   4  -1   22.74    0.84
  -3   4  -2  135.44    2.42
  -3  -4  -2  135.68    2.39
   3   4   2  134.21    2.63
   3  -4   2  134.47    2.61
  -3   4  -2  138.07    2.49
  -3  -4  -2  141.57    2.60
  -3   4  -3  194.08    3.29
  -3  -4  -3  195.50    3.41
  -3   4  -3  195.76    3.33
  -3  -4  -3  198.60    3.29
   3   4   3  193.65    3.55
   3  -4   3  194.38    3.53
  -3   4  -4   42.50    1.23
  -3  -4  -4   44.21    1.34
  -3  -4  -4   42.05    1.26
   3   4   4   41.66    1.44
   3  -4   4   46.49    1.48
  -3   4  -4   44.82    1.31
   3   4   5    5.08    0.62
   3  -4   5    4.11    0.56
  -3  -4  -5    3.99    0.50
  -3   4  -5    5.06    0.51
  -3  -4  -5    4.83    0.49
   3  -4   6    3.56    0.34
  -3  -4  -6    2.63    0.43
  -3   4  -6    3.86    0.49
   3  -4   7    6.47    0.48
  -3  -4  -7    6.47    0.65
  -3   4  -7    6.68    0.65
  -3  -4  -8    1.53    0.51
  -3   4  -8    2.23    0.54
  -3  -4  -9   -0.37    0.46
   3   5 -11    1.04    0.55
   3  -5 -11    1.75    0.61
   3   5 -10    0.29    0.46
   3  -5 -10    1.05    0.54
   3   5  -9    1.50    0.48
   3   5  -9    1.06    0.46
   3  -5  -9    1.47    0.47
   3  -5  -8    0.05    0.35
   3   5  -8    0.52    0.36
   3  -5  -8    0.33    0.25
   3   5  -8    0.37    0.35
   3   5  -8    0.44    0.28
   3   5  -7    2.87    0.36
   3  -5  -7    3.34    0.40
   3  -5  -7    3.24    0.46
   3   5  -7    3.10    0.48
  -3   5   7    3.39    0.43
   3  -5  -7    3.36    0.37
   3   5  -7    3.37    0.48
   3  -5  -6   -0.08    0.25
   3  -5  -6    0.17    0.29
   3  -5  -6    0.09    0.21
   3   5  -6    0.10    0.28
   3   5  -6    0.31    0.23
   3   5  -6    0.04    0.29
  -3   5   6    0.43    0.29
   3  -5  -5   12.60    0.77
   3  -5  -5   12.61    0.54
  -3   5   5   12.33    0.57
   3   5  -5   13.02    0.55
   3  -5  -5   12.25    0.58
   3  -5  -5   12.10    0.64
   3   5  -5   13.13    0.65
   3   5  -4    1.33    0.25
   3  -5  -4    0.89    0.23
   3  -5  -4    0.96    0.21
  -3   5   4    1.06    0.22
   3   5  -4    1.00    0.40
   3  -5  -4    0.75    0.37
   3   5  -4    0.81    0.19
   3  -5  -3   27.01    0.72
   3   5  -3   27.07    1.04
  -3   5   3   28.64    0.64
   3  -5  -3   26.85    1.00
   3   5  -3   25.93    1.08
   3   5  -3   27.81    0.72
   3   5  -3   27.84    0.78
   3  -5  -3   27.13    0.77
   3   5  -2    8.69    0.62
  -3   5   2   10.41    0.54
   3  -5  -2    8.96    0.59
   3   5  -2    8.89    0.65
   3  -5  -2    9.31    0.39
   3   5  -2    8.74    0.37
  -3   5   1   21.13    0.74
   3  -5  -1   21.01    0.66
   3   5  -1   21.49    0.97
   3   5  -1   21.93    0.94
  -3   5   1   21.59    0.62
   3   5  -1   19.87    0.66
  -3   5   0   37.04    1.00
   3   5   0   39.82    1.29
  -3   5   0   36.51    0.89
  -3  -5   0   36.27    0.84
   3  -5   0   37.37    0.97
   3   5   0   35.78    0.97
   3   5   1    5.27    0.42
   3  -5   1    5.90    0.43
  -3   5  -1    5.81    0.36
  -3   5  -1    6.18    0.52
  -3  -5  -1    5.58    0.34
  -3  -5  -2    4.44    0.36
  -3   5  -2    4.08    0.47
  -3  -5  -2    5.34    0.52
  -3   5  -2    5.04    0.38
   3   5   2    5.00    0.45
   3  -5   2    3.97    0.42
   3   5   3    1.46    0.36
   3  -5   3    1.68    0.37
  -3  -5  -3    0.98    0.38
  -3   5  -3    1.02    0.34
  -3   5  -3    1.09    0.27
  -3  -5  -3    1.00    0.26
   3  -5   4    1.35    0.39
   3   5   4    0.35    0.34
  -3   5  -4    0.61    0.32
  -3   5  -4    0.57    0.25
  -3  -5  -4    0.59    0.25
  -3   5  -5    5.50    0.54
   3   5   5    5.08    0.59
   3  -5   5    5.77    0.60
  -3   5  -5    6.57    0.54
  -3  -5  -5    5.56    0.49
  -3   5  -6   13.87    0.79
  -3   5  -6   13.93    0.80
  -3  -5  -6   13.49    0.77
  -3   5  -7    2.26    0.47
  -3  -5  -7    2.62    0.47
  -3   5  -8    1.75    0.47
  -3  -5  -8    1.78    0.47
   3  -6 -10    1.25    0.50
   3   6  -9   13.74    0.95
   3  -6  -9   11.51    0.87
   3   6  -8   27.07    1.22
   3  -6  -8   25.35    1.13
   3   6  -8   24.43    1.11
   3   6  -7    8.75    0.68
   3  -6  -7    9.01    0.52
   3  -6  -7    9.02    0.66
   3   6  -7    7.73    0.61
  -3   6   6    1.36    0.32
   3  -6  -6    1.20    0.36
   3   6  -6    1.03    0.44
   3   6  -6    0.89    0.32
   3   6  -6    1.31    0.37
   3  -6  -6    0.91    0.23
   3  -6  -6    1.15    0.32
   3  -6  -5   12.01    0.49
   3   6  -5   11.47    0.48
   3   6  -5   12.48    0.86
  -3   6   5   10.51    0.53
   3   6  -5   11.87    0.75
   3  -6  -5   11.39    0.59
   3   6  -5   11.17    0.57
   3  -6  -4   50.27    1.01
   3   6  -4   50.33    1.00
   3   6  -4   48.62    1.64
  -3   6   4   48.44    1.07
   3   6  -4   50.53    1.57
   3  -6  -4   49.14    1.14
   3   6  -4   46.56    1.11
   3   6  -3   55.65    1.65
  -3   6   3   52.89    0.94
   3  -6  -3   54.52    1.00
   3   6  -3   53.52    0.96
   3  -6  -3   51.22    1.06
   3   6  -3   51.95    1.06
   3   6  -3   53.64    1.70
   3  -6  -2   26.30    0.62
  -3   6   2   27.33    0.96
   3  -6  -2   28.27    1.06
   3   6  -2   25.03    0.62
   3   6  -2   27.90    1.14
   3   6  -2   25.53    0.61
   3  -6  -2   25.51    0.60
   3   6  -2   27.51    1.20
  -3   6   1   34.34    1.05
   3   6  -1   36.34    1.31
   3   6  -1   33.67    0.69
   3   6  -1   36.47    1.38
   3  -6  -1   33.77    0.68
   3   6  -1   34.13    0.74
   3  -6  -1   33.63    0.73
   3   6   0   67.09    1.88
  -3   6   0   66.23    1.18
  -3   6   0   68.40    1.58
   3   6   0   66.80    1.25
   3  -6   0   65.39    1.23
  -3   6  -1   39.50    1.15
  -3   6  -1   39.39    0.90
  -3  -6  -1   40.05    0.84
   3   6   1   38.93    0.98
   3  -6   1   39.22    0.97
  -3   6  -2    1.38    0.41
   3   6   2    1.18    0.28
  -3  -6  -2    1.07    0.19
  -3   6  -2    0.95    0.22
   3  -6   2    1.26    0.27
  -3   6  -3    1.55    0.28
  -3  -6  -3    1.41    0.25
  -3   6  -3    0.99    0.40
   3  -6   3    1.23    0.31
   3  -6   4    2.38    0.40
  -3   6  -4    3.46    0.51
  -3   6  -4    2.08    0.34
  -3  -6  -4    2.38    0.32
  -3   6  -5   15.80    0.88
  -3   6  -5   14.26    0.73
  -3  -6  -5   16.04    0.74
  -3   6  -6   14.88    0.89
  -3  -6  -6   13.86    0.74
  -3   6  -7    1.90    0.50
  -3  -6  -7    1.60    0.41
  -3   6  -8    3.74    0.63
   3   7  -8    1.81    0.51
   3   7  -7    0.67    0.40
   3   7  -6    0.12    0.46
   3   7  -6    0.05    0.34
   3   7  -6   -0.12    0.34
   3   7  -5    2.04    0.53
   3   7  -5    2.11    0.47
   3   7  -5    2.51    0.43
   3   7  -4    0.85    0.37
   3   7  -4    0.33    0.41
   3   7  -3    9.53    0.76
   3   7  -3    8.58    0.80
   3   7  -2    2.71    0.50
   3   7  -2    3.27    0.60
  -3   7   1    6.43    0.55
   3   7  -1    7.26    0.70
   3   7   0   14.27    0.93
  -3   7   0   13.21    0.71
  -3   7  -1    1.62    0.35
  -3   7  -2   -0.17    0.28
  -3   7  -2    1.17    0.45
  -3   7  -3   -0.22    0.35
  -3   7  -3    0.14    0.43
  -3   7  -4   -0.05    0.43
  -3   7  -5    2.17    0.56
  -3   7  -6    6.38    0.72
   3   8  -3    6.86    0.81
   3   8  -2   11.95    0.98
  -3   8   1    7.71    0.65
  -3   8   0    3.86    0.50
  -3   8  -1    6.09    0.60
  -3   8  -2   22.61    1.02
  -3   8  -3   31.89    1.24
  -3   8  -4   12.86    0.85
  -3   9   0    4.19    0.57
   4   0 -12   16.45    1.26
   4   0 -11   27.70    1.50
   4   0 -10   27.82    1.42
   4   0  -9    1.30    0.44
   4   0  -8    0.24    0.36
   4   0  -8   -0.04    0.29
   4   0  -7    4.20    0.46
   4   0  -7    2.28    0.43
   4   0  -6   37.31    1.17
   4   0  -6   40.13    1.27
   4   0  -6   41.62    1.19
   4   0  -5   18.31    0.72
   4   0  -5   18.50    0.73
   4   0  -4   89.43    1.76
   4   0  -4   91.90    1.81
   4   0  -3  366.38    5.25
  -4   0   3  360.26    5.31
   4   0  -2 1012.48   13.14
  -4   0   2  984.44   13.12
  -4   0   1  240.98    3.21
  -4   0   1  246.48    3.72
   4   0  -1  236.46    3.06
   4   0  -1  242.36    3.69
  -4   0   0   26.02    0.63
  -4   0   0   25.25    0.86
  -4   0  -1   19.90    0.79
   4   0   1   19.92    0.76
   4   0   2   63.43    1.74
  -4   0  -2   62.47    1.57
   4   0   3   23.91    1.09
  -4   0  -3   26.36    1.01
  -4   0  -4   -0.12    0.29
   4   0   4    0.14    0.42
  -4   0  -5    0.04    0.29
  -4   0  -6   18.00    0.99
  -4   0  -7   26.53    1.25
  -4   0  -8    4.67    0.65
   4   1 -12    1.72    0.69
   4  -1 -12    2.32    0.69
   4  -1 -11    2.15    0.61
   4   1 -11    1.10    0.56
   4   1 -10    1.51    0.52
   4   1  -9    8.58    0.78
   4  -1  -8   25.04    1.01
   4   1  -8   25.54    1.05
   4   1  -8   23.12    1.06
   4   1  -8   24.31    1.17
   4  -1  -7    3.68    0.43
   4   1  -7    3.50    0.48
   4   1  -7    3.61    0.44
   4  -1  -6   72.96    1.75
   4   1  -6   75.64    1.86
   4  -1  -6   78.05    1.75
   4   1  -6   78.82    1.75
   4  -1  -5  142.87    2.55
   4   1  -5  143.06    2.57
   4  -1  -4   56.30    1.24
   4   1  -4   57.52    1.33
   4   1  -3   12.06    0.42
   4   1  -3   12.35    0.54
  -4   1   3   10.81    0.53
  -4   1   2   -0.11    0.17
   4   1  -2    0.11    0.17
   4   1  -2   -0.07    0.11
  -4   1   1    0.66    0.06
  -4  -1   1    0.50    0.15
   4  -1  -1    0.27    0.07
  -4   1   1    0.36    0.19
   4   1  -1    0.31    0.21
   4   1  -1    0.32    0.11
  -4   1   0   51.10    1.28
  -4  -1   0   48.55    1.04
   4   1   0   49.63    1.23
  -4   1  -1  127.49    2.39
  -4  -1  -1  123.64    2.15
   4   1   1  129.80    2.36
   4   1   2   32.25    1.20
   4  -1   2   30.14    1.15
  -4  -1  -2   30.53    0.71
  -4   1  -2   30.34    1.04
   4   1   3   13.78    0.88
   4  -1   3   15.47    0.89
  -4   1  -3   14.18    0.75
   4   1   4   11.95    0.86
   4  -1   4   11.05    0.82
  -4   1  -4   10.55    0.70
  -4   1  -5    0.90    0.35
  -4  -1  -5    0.74    0.34
  -4  -1  -6    1.28    0.41
  -4   1  -6    1.89    0.43
  -4  -1  -7    3.75    0.56
  -4   1  -7    3.81    0.56
  -4  -1  -8    3.70    0.58
  -4   1  -8    3.99    0.60
   4   2 -12    0.24    0.57
   4  -2 -12   -0.08    0.60
   4  -2 -11   -0.07    0.51
   4   2 -11    0.15    0.45
   4   2 -10    3.11    0.60
   4  -2 -10    3.84    0.66
   4   2  -9   56.98    1.83
   4  -2  -9   61.09    1.97
   4   2  -9   57.42    1.95
   4  -2  -8   93.23    2.11
   4   2  -8   95.00    2.19
  -4   2   8   93.33    2.06
   4   2  -8   88.06    2.26
   4  -2  -8   94.15    2.40
   4   2  -8   94.69    2.43
   4  -2  -7   95.08    2.08
   4   2  -7   94.41    2.08
  -4   2   7   94.98    1.99
   4   2  -7   94.48    2.19
   4   2  -7   90.98    2.26
   4  -2  -7   95.85    2.30
   4   2  -6   62.52    1.61
   4   2  -6   65.99    1.69
   4  -2  -6   61.83    1.63
   4  -2  -6   59.12    1.50
   4   2  -6   61.79    1.52
   4  -2  -5  158.46    2.73
   4   2  -5  152.69    2.72
   4  -2  -4   58.52    0.97
   4  -2  -4   59.73    1.37
   4   2  -4   59.48    1.36
   4  -2  -4   60.23    1.30
   4   2  -3    0.55    0.19
  -4   2   3    0.49    0.18
   4  -2  -3    1.92    0.21
   4   2  -3    0.52    0.21
  -4  -2   3    1.50    0.24
   4  -2  -3    1.92    0.27
   4  -2  -2   15.99    0.63
   4   2  -2   16.70    0.60
   4   2  -2   16.13    0.63
   4  -2  -2   16.20    0.52
   4  -2  -2   16.87    0.47
  -4   2   2   18.10    0.68
  -4  -2   2   16.78    0.65
  -4   2   1   13.43    0.27
   4   2  -1   13.34    0.55
   4  -2  -1   12.90    0.40
   4   2  -1   13.00    0.50
  -4   2   1   14.21    0.60
  -4  -2   1   14.29    0.60
   4  -2  -1   13.74    0.58
   4   2  -1   13.58    0.58
  -4  -2   0  135.62    2.30
  -4   2   0  135.84    2.48
  -4  -2   0  138.58    2.46
   4  -2   0  135.91    2.42
   4   2   0  133.40    2.41
  -4   2  -1  153.91    2.76
  -4  -2  -1  149.64    2.72
  -4  -2  -1  150.05    2.59
   4   2   1  156.26    2.71
   4  -2   1  154.81    2.70
  -4   2  -2   45.64    0.89
   4   2   2   47.33    1.48
   4  -2   2   46.27    1.45
  -4  -2  -2   46.73    1.22
  -4  -2  -2   45.63    1.05
  -4   2  -2   45.86    1.30
  -4  -2  -2   46.89    1.31
   4   2   3   58.16    1.78
  -4  -2  -3   58.83    1.49
  -4  -2  -3   60.46    1.34
   4  -2   3   57.94    1.76
  -4   2  -3   63.72    1.64
  -4  -2  -3   60.27    1.60
   4   2   4   88.88    2.37
   4  -2   4   90.57    2.35
  -4  -2  -4   95.19    1.86
  -4   2  -4   90.31    2.18
  -4  -2  -4   92.81    2.19
  -4   2  -5   50.02    1.60
  -4  -2  -5   50.76    1.62
  -4   2  -6    4.36    0.54
  -4  -2  -6    5.12    0.57
  -4  -2  -7    0.21    0.38
  -4   2  -7    0.05    0.36
  -4  -2  -8    2.92    0.54
  -4   2  -8    2.21    0.51
   4  -3 -12    0.84    0.58
   4   3 -12    0.78    0.59
   4  -3 -11    0.97    0.54
   4   3 -11    0.71    0.52
   4  -3 -10    1.05    0.49
   4   3 -10    0.25    0.45
   4   3  -9    7.77    0.71
   4  -3  -9    7.70    0.74
   4   3  -9    8.87    0.79
   4  -3  -8   14.44    0.74
   4   3  -8   15.03    0.76
  -4   3   8   15.07    0.75
   4   3  -8   14.53    0.86
   4  -3  -8   14.05    0.87
   4   3  -8   14.63    0.91
   4  -3  -7    1.65    0.32
   4  -3  -7    1.30    0.37
   4   3  -7    1.30    0.31
  -4   3   7    1.42    0.30
   4   3  -7    1.22    0.35
   4   3  -7    1.19    0.36
   4  -3  -6   52.93    1.16
  -4   3   6   52.93    1.29
   4   3  -6   54.74    1.52
   4   3  -6   52.92    1.53
   4  -3  -6   55.58    1.55
   4  -3  -6   57.84    1.42
   4   3  -6   53.97    1.40
   4  -3  -5   78.33    1.42
   4  -3  -5   83.35    1.72
   4   3  -5   78.74    1.70
   4   3  -5   76.68    1.77
   4  -3  -5   78.04    1.77
   4  -3  -4   21.71    0.54
   4   3  -4   20.50    0.75
   4  -3  -3    0.99    0.25
   4   3  -3    0.44    0.22
   4   3  -3    0.92    0.22
   4  -3  -3    0.93    0.25
  -4  -3   3    0.72    0.21
  -4   3   3    0.87    0.23
   4   3  -2    0.17    0.22
   4   3  -2    0.02    0.21
   4  -3  -2    0.05    0.19
  -4   3   2    0.16    0.16
  -4  -3   2   -0.09    0.16
   4  -3  -2    0.16    0.20
   4   3  -2   -0.04    0.18
  -4   3   1    6.50    0.26
   4   3  -1    6.38    0.46
   4   3  -1    6.57    0.45
  -4   3   1    6.55    0.42
  -4  -3   1    6.49    0.41
   4  -3  -1    5.98    0.41
   4   3  -1    6.65    0.41
  -4  -3   0   31.18    0.93
  -4   3   0   30.99    0.95
  -4  -3   0   30.14    0.93
   4   3   0   31.12    0.92
   4  -3   0   30.77    0.92
  -4  -3  -1   69.33    1.57
  -4   3  -1   67.14    1.59
  -4  -3  -1   69.85    1.59
   4   3   1   68.18    1.74
   4  -3   1   72.71    1.78
  -4   3  -1   70.36    1.37
  -4  -3  -2   11.76    0.64
  -4  -3  -2   13.68    0.68
  -4  -3  -2   12.64    0.61
  -4   3  -2   10.68    0.49
   4  -3   2   12.88    0.78
   4   3   2   12.59    0.77
  -4   3  -2   11.06    0.63
  -4   3  -3    3.78    0.33
  -4  -3  -3    3.31    0.42
  -4  -3  -3    3.80    0.38
   4   3   3    3.54    0.52
   4  -3   3    3.26    0.49
   4  -3   3    3.99    0.32
  -4   3  -3    4.42    0.45
  -4  -3  -3    4.51    0.45
  -4  -3  -4    7.57    0.59
  -4  -3  -4    8.91    0.56
   4  -3   4    8.41    0.47
  -4   3  -4    8.12    0.61
  -4  -3  -4    8.07    0.61
   4   3   4    7.16    0.69
   4  -3   4    6.60    0.69
  -4  -3  -5    0.21    0.31
  -4   3  -5    0.43    0.32
  -4  -3  -5    0.13    0.31
   4  -3   5    0.40    0.27
  -4  -3  -6    0.36    0.36
  -4   3  -6    0.10    0.33
  -4  -3  -6    0.05    0.34
   4  -3   6   -0.03    0.25
  -4   3  -7    2.40    0.53
  -4  -3  -7    2.37    0.53
   4  -3   7    2.53    0.40
  -4   3  -8    1.71    0.52
  -4  -3  -8    2.40    0.57
   4  -4 -11   17.30    1.19
   4   4 -11   16.45    1.16
   4  -4 -10    6.61    0.77
   4   4 -10    9.41    0.83
   4   4 -10    8.59    0.82
   4  -4  -9    0.09    0.27
   4  -4  -9    0.05    0.40
   4   4  -9    0.33    0.42
   4   4  -9    0.36    0.36
   4   4  -8    0.17    0.26
   4  -4  -8    0.57    0.37
   4   4  -8    0.38    0.35
   4  -4  -8    1.02    0.30
  -4   4   8    0.28    0.28
   4   4  -8    0.46    0.33
   4  -4  -8    0.55    0.29
   4  -4  -7    3.38    0.34
   4  -4  -7    3.68    0.48
   4   4  -7    2.95    0.43
   4  -4  -7    3.20    0.39
   4   4  -7    3.35    0.40
  -4   4   7    2.79    0.35
   4   4  -7    2.30    0.41
   4  -4  -6    7.60    0.43
   4   4  -6    6.70    0.55
  -4   4   6    6.52    0.42
   4  -4  -6    6.81    0.48
   4   4  -6    6.39    0.47
   4   4  -6    5.82    0.52
   4  -4  -6    6.92    0.55
  -4   4   5   10.61    0.48
   4  -4  -5   10.99    0.56
   4   4  -5   10.86    0.56
   4   4  -5   11.25    0.63
   4  -4  -5   10.10    0.61
   4  -4  -5   11.08    0.47
   4   4  -4   62.74    1.57
   4   4  -4   62.14    1.39
   4  -4  -4   62.41    1.56
   4  -4  -4   64.03    1.42
   4   4  -3  205.08    3.56
   4  -4  -3  214.19    3.32
   4   4  -3  212.33    3.31
   4   4  -3  210.20    3.67
   4  -4  -3  210.63    3.47
   4   4  -2  246.04    4.02
   4  -4  -2  244.78    3.80
   4   4  -2  240.94    4.01
   4  -4  -2  247.10    3.71
   4   4  -2  238.14    3.68
  -4   4   2  245.04    3.77
  -4  -4   2  243.04    3.72
  -4   4   1  125.57    2.01
   4   4  -1  128.58    2.53
   4   4  -1  125.47    2.49
  -4   4   1  123.96    2.25
  -4  -4   1  124.07    2.22
   4  -4  -1  124.69    2.23
   4   4  -1  126.20    2.21
   4   4   0   23.83    0.92
   4  -4   0   23.35    0.91
  -4   4   0   22.28    0.80
  -4  -4   0   23.83    0.80
   4  -4   1   20.28    0.89
  -4  -4  -1   19.33    0.76
   4   4   1   19.28    0.86
  -4   4  -1   18.66    0.76
  -4  -4  -1   20.65    0.83
   4  -4   2   16.39    0.84
  -4  -4  -2   16.33    0.75
  -4   4  -2   15.36    0.68
  -4  -4  -2   15.33    0.75
   4   4   2   15.34    0.83
  -4   4  -2   15.36    0.72
  -4  -4  -2   16.20    0.72
  -4  -4  -3    8.69    0.59
  -4   4  -3    7.39    0.49
  -4   4  -3    8.37    0.59
  -4  -4  -3    8.71    0.58
   4   4   3    8.87    0.70
   4  -4   3    8.86    0.67
  -4   4  -4    0.60    0.27
  -4  -4  -4    0.72    0.32
   4   4   4    0.52    0.39
   4  -4   4    0.42    0.38
   4  -4   4    0.58    0.17
  -4   4  -4    0.41    0.28
  -4  -4  -4    0.61    0.30
  -4   4  -5    0.26    0.27
  -4  -4  -5    0.48    0.34
   4  -4   5    0.17    0.19
  -4   4  -5    0.50    0.32
  -4  -4  -5    0.44    0.32
  -4   4  -6   10.58    0.78
  -4  -4  -6   10.36    0.74
  -4   4  -7    9.72    0.79
  -4  -4  -7    8.99    0.78
  -4  -4  -8    2.24    0.54
   4  -5 -11    0.90    0.56
   4   5 -11    0.52    0.50
   4  -5 -10    1.07    0.51
   4   5 -10    0.30    0.46
   4   5 -10    0.64    0.48
   4  -5  -9    6.13    0.70
   4   5  -9    6.35    0.71
   4   5  -9    6.48    0.72
   4  -5  -8    8.54    0.54
  -4   5   8    8.92    0.60
   4   5  -8    8.64    0.72
   4  -5  -8   10.07    0.61
   4   5  -8    9.84    0.63
   4  -5  -8    8.51    0.73
   4   5  -8    8.41    0.73
   4   5  -7    0.46    0.27
   4  -5  -7    0.53    0.26
   4  -5  -7    0.24    0.32
   4   5  -7    0.16    0.32
   4   5  -7    0.54    0.34
  -4   5   7    0.26    0.25
   4  -5  -7    0.17    0.23
   4  -5  -6   20.80    0.73
   4   5  -6   23.47    1.01
   4  -5  -6   23.26    0.83
  -4   5   6   24.04    0.78
   4   5  -6   22.53    0.80
   4  -5  -6   21.68    0.93
   4   5  -6   19.55    0.89
   4  -5  -5   36.16    1.01
   4  -5  -5   34.61    1.23
  -4   5   5   34.94    0.88
   4   5  -5   34.92    1.10
   4  -5  -5   35.80    1.11
   4   5  -5   37.01    1.01
   4   5  -4   13.54    0.75
   4  -5  -4   13.26    0.57
   4   5  -4   13.41    0.58
   4   5  -4   13.64    0.82
   4  -5  -4   13.41    0.74
   4   5  -4   11.09    0.57
   4  -5  -4   12.92    0.62
   4   5  -3    1.01    0.33
   4   5  -3    1.11    0.36
   4  -5  -3    0.94    0.31
   4  -5  -3    1.59    0.24
   4   5  -3    1.01    0.21
   4   5  -2    0.15    0.27
   4  -5  -2    0.40    0.27
   4   5  -2    0.23    0.32
   4  -5  -2    0.23    0.20
   4   5  -2    0.47    0.20
  -4   5   1    2.55    0.29
  -4  -5   1    2.20    0.26
   4   5  -1    1.59    0.25
   4   5  -1    2.46    0.42
   4   5  -1    1.87    0.42
   4  -5  -1    2.46    0.28
  -4   5   1    2.26    0.27
  -4   5   0   21.41    0.72
   4  -5   0   21.12    0.83
   4   5   0   22.81    0.85
  -4   5   0   21.48    0.75
  -4  -5   0   21.02    0.72
   4   5   1   30.25    1.06
   4  -5   1   29.42    1.04
  -4   5  -1   30.23    0.92
  -4  -5  -1   28.01    0.88
  -4   5  -2    4.07    0.40
  -4  -5  -2    3.53    0.37
  -4   5  -2    4.22    0.48
   4   5   2    3.41    0.46
   4  -5   2    4.29    0.49
  -4  -5  -3    0.71    0.26
  -4   5  -3    0.42    0.33
   4   5   3    0.57    0.35
   4  -5   3    1.19    0.40
  -4   5  -3    0.87    0.29
  -4   5  -4    5.22    0.51
  -4  -5  -4    4.46    0.47
  -4   5  -4    4.62    0.49
   4   5   4    5.17    0.61
   4  -5   4    4.63    0.59
  -4   5  -5    0.70    0.35
  -4   5  -5    0.12    0.34
  -4  -5  -5    0.63    0.33
  -4   5  -6    0.10    0.33
  -4   5  -6    0.35    0.38
  -4  -5  -6    0.37    0.35
  -4   5  -7    1.10    0.40
  -4   5  -7    0.38    0.38
  -4  -5  -7    1.05    0.43
   4  -6 -10    3.46    0.60
   4   6  -9   17.37    1.07
   4  -6  -9   16.08    1.00
   4   6  -8   28.88    1.27
   4  -6  -8   31.20    1.25
   4   6  -8   30.95    1.28
   4  -6  -7   26.55    0.90
   4   6  -7   25.78    1.13
   4  -6  -7   25.06    1.05
   4   6  -7   26.96    1.09
   4   6  -6   28.33    1.19
   4   6  -6   30.28    1.32
   4  -6  -6   30.40    0.91
   4   6  -6   28.82    1.17
   4  -6  -6   28.26    1.04
   4   6  -6   30.44    1.08
   4   6  -5   31.79    1.24
   4  -6  -5   30.49    0.88
   4   6  -5   33.00    1.37
   4  -6  -5   30.41    1.01
   4   6  -5   32.18    1.03
   4   6  -4   16.06    0.90
   4   6  -4   14.61    0.90
   4   6  -4   14.86    0.64
   4  -6  -4   14.62    0.63
   4  -6  -4   14.58    0.55
   4   6  -4   14.79    0.55
   4   6  -3    0.56    0.20
   4   6  -3    0.47    0.35
   4  -6  -3    1.07    0.23
   4  -6  -3    1.05    0.21
   4   6  -3    0.61    0.19
   4   6  -3    0.28    0.38
   4   6  -2    0.94    0.38
   4   6  -2    1.53    0.43
   4   6  -2    1.29    0.25
   4   6  -1    5.56    0.41
   4  -6  -1    5.17    0.40
  -4   6   1    4.96    0.42
   4   6  -1    5.06    0.57
   4   6  -1    4.51    0.56
   4   6   0   31.97    0.98
   4  -6   0   31.52    0.96
  -4   6   0   32.67    0.99
  -4   6   0   33.18    0.90
  -4  -6   0   31.52    0.83
  -4   6  -1   28.33    0.93
  -4   6  -1   29.60    0.88
  -4  -6  -1   29.45    0.83
   4  -6   1   29.66    0.99
  -4   6  -2   18.32    0.72
  -4  -6  -2   18.03    0.68
   4  -6   2   18.29    0.82
  -4   6  -3   19.85    0.80
  -4  -6  -3   18.73    0.75
  -4   6  -3   19.44    0.95
   4  -6   3   18.48    0.89
  -4   6  -4   29.40    1.06
  -4  -6  -4   29.89    1.04
  -4   6  -4   29.68    1.18
  -4  -6  -5   12.89    0.73
  -4   6  -5   11.81    0.79
  -4   6  -6    2.95    0.52
  -4  -6  -6    2.94    0.47
   4   7  -8    2.83    0.54
   4   7  -7   -0.14    0.41
   4   7  -6   10.76    0.90
   4   7  -6   11.05    0.79
   4   7  -6    9.88    0.78
   4   7  -5   18.35    1.10
   4   7  -5   19.78    1.06
   4   7  -4    5.18    0.62
   4   7  -4    4.28    0.62
   4   7  -3    0.40    0.39
   4   7  -3    1.16    0.51
   4   7  -2    0.35    0.39
   4   7  -2    0.16    0.42
   4   7  -1    0.51    0.44
  -4   7   1    0.42    0.29
  -4   7   0    7.11    0.54
  -4   7  -1   14.34    0.73
  -4   7  -2    2.97    0.41
  -4   7  -3    1.79    0.39
  -4   7  -4    1.40    0.52
  -4   7  -5    0.09    0.45
   4   8  -6    1.34    0.43
  -4   8   0    4.04    0.50
  -4   8  -1    2.58    0.44
  -4   8  -2    5.76    0.57
   5   0 -12    7.03    0.92
   5   0 -11   17.47    1.23
   5   0 -10    6.59    0.76
   5   0  -9   14.06    0.94
   5   0  -8   18.18    0.94
   5   0  -8   18.01    1.00
   5   0  -8   20.58    0.95
   5   0  -7   32.85    1.17
   5   0  -7   30.73    1.20
   5   0  -7   31.65    1.13
   5   0  -6    7.85    0.55
   5   0  -6    7.53    0.54
   5   0  -5   16.41    0.71
   5   0  -5   15.32    0.70
  -5   0   4  157.83    2.87
   5   0  -4  157.21    2.25
   5   0  -4  159.55    2.82
   5   0  -3  260.84    4.13
   5   0  -3  258.46    3.48
  -5   0   3  262.83    4.17
   5   0  -2  201.31    3.34
  -5   0   2  199.50    3.39
  -5   0   1   65.88    1.13
  -5   0   1   67.15    1.61
   5   0  -1   68.51    1.58
  -5   0   0   11.91    0.44
  -5   0   0   11.39    0.64
   5   0   0   12.63    0.66
  -5   0  -1   11.12    0.66
   5   0   1   11.45    0.65
   5   0   2    4.69    0.57
  -5   0  -2    4.40    0.50
  -5   0  -3    1.62    0.16
   5   0   3    1.74    0.50
  -5   0  -3    1.47    0.37
  -5   0  -4    2.39    0.45
  -5   0  -5   23.08    1.11
  -5   0  -6   30.12    1.34
  -5   0  -7   15.57    1.02
   5  -1 -12    0.55    0.59
   5   1 -12   -0.16    0.58
   5  -1 -11    3.24    0.68
   5   1 -11    3.94    0.71
   5   1 -10    0.13    0.39
   5   1  -9    6.20    0.68
   5   1  -8   15.06    0.92
   5  -1  -8   15.99    0.84
   5   1  -8   15.28    0.81
   5   1  -7    2.72    0.45
   5  -1  -7    3.85    0.47
   5  -1  -7    3.15    0.44
   5   1  -7    3.97    0.47
   5  -1  -6   10.78    0.62
   5  -1  -6   10.25    0.61
   5   1  -6    9.91    0.62
   5  -1  -5   19.12    0.79
   5   1  -5   20.26    0.81
   5  -1  -5   19.27    0.76
  -5   1   4    1.33    0.28
   5   1  -4    0.96    0.17
   5   1  -4    1.39    0.29
   5  -1  -4    1.38    0.25
   5   1  -3    6.76    0.34
   5   1  -3    6.51    0.47
  -5   1   3    7.59    0.50
   5   1  -2    8.46    0.52
  -5   1   2    7.44    0.50
  -5  -1   1    9.41    0.40
  -5   1   1    9.72    0.25
  -5   1   1    9.58    0.58
   5   1  -1    9.24    0.34
   5   1  -1    8.60    0.53
  -5  -1   0   79.31    1.52
  -5   1   0   84.31    1.89
   5   1   0   82.32    1.83
  -5   1  -1   13.66    0.72
  -5  -1  -1   11.84    0.55
   5   1   1   11.60    0.65
   5  -1   1   12.00    0.66
  -5  -1  -2    1.26    0.31
   5   1   2    0.95    0.44
   5  -1   2    1.38    0.45
  -5   1  -2    0.95    0.33
  -5  -1  -3   29.17    0.69
   5   1   3   28.72    1.29
   5  -1   3   29.15    1.28
  -5   1  -3   28.24    1.14
  -5  -1  -3   27.71    1.13
  -5  -1  -4    9.31    0.45
  -5   1  -4    8.89    0.70
  -5  -1  -4    7.51    0.64
  -5  -1  -5    2.03    0.30
  -5   1  -5    1.19    0.37
  -5  -1  -5    1.48    0.42
  -5   1  -6    1.19    0.44
  -5  -1  -6    0.63    0.39
  -5   1  -7    0.79    0.44
  -5  -1  -7    1.25    0.47
   5  -2 -12    0.70    0.51
   5   2 -12    1.98    0.67
   5  -2 -11   -0.35    0.51
   5   2 -11   -0.22    0.47
   5   2 -10    8.47    0.77
   5  -2 -10    8.65    0.84
   5   2 -10    7.96    0.83
   5   2  -9   15.61    0.95
   5  -2  -9   15.65    1.00
   5   2  -9   15.63    1.00
   5   2  -8   16.50    0.92
   5   2  -8   16.75    0.98
   5  -2  -8   18.15    1.01
   5  -2  -8   18.44    0.88
   5   2  -8   17.00    0.85
   5   2  -7   28.11    1.11
   5   2  -7   28.30    1.18
   5  -2  -7   27.15    1.13
   5  -2  -7   28.14    1.05
   5   2  -7   27.79    1.03
   5   2  -6   74.97    1.85
   5  -2  -6   76.83    1.78
   5   2  -6   75.70    1.79
   5  -2  -5   83.08    1.25
   5  -2  -5   81.63    1.82
   5   2  -5   81.07    1.82
   5  -2  -5   82.44    1.74
   5   2  -4   26.12    0.79
  -5   2   4   26.19    0.95
  -5  -2   4   25.96    0.94
   5  -2  -4   27.01    0.92
   5   2  -4   25.15    0.90
   5  -2  -4   26.99    0.81
   5  -2  -3    0.43    0.25
   5   2  -3    0.77    0.27
   5  -2  -3    0.40    0.16
  -5   2   3    0.74    0.25
  -5  -2   3    0.48    0.22
   5   2  -3    0.53    0.21
   5   2  -2    1.94    0.28
   5  -2  -2    2.36    0.21
   5   2  -2    1.57    0.23
  -5  -2   2    3.06    0.35
   5  -2  -2    2.66    0.35
   5   2  -2    1.36    0.28
  -5   2   2    1.83    0.31
   5   2  -1   77.04    1.48
  -5   2   1   79.36    1.79
  -5  -2   1   75.85    1.74
   5  -2  -1   78.10    1.72
   5   2  -1   80.76    1.75
  -5  -2   0  108.89    2.03
  -5  -2   0  109.82    2.26
  -5   2   0  111.66    2.29
   5   2   0  113.49    2.25
   5  -2   0  115.47    2.26
  -5   2  -1   90.79    2.02
  -5  -2  -1   86.55    1.98
  -5  -2  -1   85.98    1.77
   5   2   1   83.41    2.12
   5  -2   1   78.97    2.07
  -5   2  -2   65.29    1.74
  -5  -2  -2   64.28    1.71
   5   2   2   64.88    1.89
   5  -2   2   64.44    1.87
  -5  -2  -2   60.00    1.49
   5   2   3   62.88    1.93
   5  -2   3   63.05    1.91
  -5  -2  -3   60.33    1.56
  -5  -2  -3   63.33    1.30
  -5   2  -3   60.48    1.05
  -5   2  -3   61.26    1.73
  -5  -2  -3   66.48    1.79
  -5  -2  -4   37.81    1.23
  -5  -2  -4   39.34    1.02
  -5   2  -4   37.09    1.38
  -5  -2  -4   35.90    1.35
  -5  -2  -5    2.91    0.37
  -5   2  -5    2.08    0.47
  -5  -2  -5    2.47    0.46
  -5  -2  -6    0.65    0.35
  -5   2  -6    0.67    0.38
  -5  -2  -6    0.67    0.43
  -5   2  -7    0.17    0.41
  -5  -2  -7    0.17    0.42
   5  -3 -12   -0.54    0.59
   5   3 -12   -0.08    0.57
   5  -3 -11    1.04    0.56
   5   3 -11    1.40    0.57
   5  -3 -10    1.18    0.51
   5   3 -10    0.75    0.42
   5   3 -10    0.23    0.41
   5  -3  -9    3.15    0.55
   5   3  -9    3.60    0.57
   5   3  -9    4.37    0.57
   5   3  -8   10.43    0.76
   5   3  -8   10.44    0.79
   5  -3  -8   11.20    0.80
   5  -3  -7    0.72    0.29
   5   3  -7    1.01    0.32
   5   3  -7    0.81    0.33
   5  -3  -7    0.94    0.33
   5  -3  -7    0.95    0.22
   5   3  -7    0.96    0.34
   5  -3  -6   14.48    0.48
   5  -3  -6   15.42    0.72
   5   3  -6   15.00    0.73
   5  -3  -6   13.73    0.76
   5  -3  -5   19.27    0.79
   5   3  -5   18.67    0.79
   5   3  -4    0.83    0.27
   5  -3  -4    1.48    0.31
   5   3  -4    1.25    0.30
   5   3  -3    0.89    0.28
  -5   3   3    0.91    0.28
   5   3  -3    0.52    0.26
  -5  -3   3    0.60    0.26
   5  -3  -3    1.50    0.29
   5  -3  -3    0.91    0.29
   5   3  -3    0.64    0.27
   5   3  -2    0.32    0.28
  -5  -3   2    0.19    0.20
  -5   3   2    0.31    0.22
   5  -3  -2    0.24    0.19
   5   3  -2    0.26    0.24
   5  -3  -2    0.24    0.14
   5  -3  -2    0.28    0.25
   5   3  -2    0.20    0.25
  -5   3   1    7.61    0.23
   5   3  -1    7.90    0.50
  -5   3   1    7.78    0.53
  -5  -3   1    7.86    0.52
   5  -3  -1    7.77    0.26
   5  -3  -1    7.47    0.52
   5   3  -1    8.61    0.55
  -5  -3   0   48.95    1.27
  -5   3   0   48.59    1.37
  -5  -3   0   49.35    1.36
   5   3   0   49.78    1.32
   5  -3   0   52.28    1.35
  -5  -3  -1   21.97    0.85
   5  -3   1   22.00    1.02
  -5   3  -1   21.29    0.92
  -5  -3  -1   20.98    0.90
   5   3   1   20.19    0.99
  -5  -3  -2    2.51    0.39
   5   3   2    3.12    0.49
   5  -3   2    2.96    0.47
  -5   3  -2    3.47    0.44
  -5  -3  -2    2.97    0.41
  -5   3  -3   25.44    1.08
  -5  -3  -3   25.03    1.05
   5   3   3   24.31    1.17
   5  -3   3   23.94    1.16
  -5  -3  -3   25.76    0.85
  -5   3  -3   25.29    0.71
  -5  -3  -4    6.82    0.49
  -5   3  -4    6.94    0.39
  -5   3  -4    6.52    0.63
  -5  -3  -4    5.78    0.58
  -5   3  -5    0.70    0.25
  -5  -3  -5    0.84    0.31
  -5   3  -5    0.53    0.38
  -5  -3  -5    0.85    0.38
   5  -3   5    0.64    0.29
  -5   3  -6    0.56    0.41
  -5  -3  -6    0.71    0.42
  -5   3  -7    1.06    0.47
  -5  -3  -7    1.31    0.49
   5   4 -11    7.70    0.90
   5  -4 -11    8.95    0.96
   5  -4 -10    6.41    0.76
   5   4 -10    7.98    0.78
   5  -4  -9    4.36    0.62
   5   4  -9    3.35    0.58
   5   4  -9    4.37    0.61
   5  -4  -8    8.28    0.48
   5   4  -8    8.94    0.70
   5  -4  -8    8.00    0.69
   5   4  -8    8.43    0.70
   5  -4  -7   19.80    0.66
   5   4  -7   18.15    0.93
   5  -4  -7   18.01    0.82
   5   4  -7   19.58    0.84
   5   4  -7   17.29    0.92
   5  -4  -7   20.39    0.98
   5  -4  -6    9.72    0.40
   5  -4  -6    9.95    0.58
   5   4  -6    8.99    0.57
   5   4  -6   10.09    0.66
   5  -4  -6   10.30    0.66
   5   4  -5    5.78    0.49
   5  -4  -5    5.76    0.46
   5   4  -5    5.75    0.46
   5  -4  -5    5.47    0.51
   5   4  -4   46.09    1.35
   5  -4  -4   46.89    1.26
   5   4  -4   49.94    1.29
   5   4  -4   47.03    1.42
   5  -4  -4   44.42    1.27
  -5   4   3  155.81    2.80
   5   4  -3  150.71    2.89
  -5  -4   3  155.91    2.76
   5   4  -3  155.16    2.92
   5  -4  -3  151.97    2.68
   5  -4  -3  155.29    2.73
   5   4  -3  153.68    2.72
   5  -4  -2  123.66    2.23
   5   4  -2  123.09    2.49
   5   4  -2  125.52    2.54
  -5   4   2  124.32    2.40
   5  -4  -2  124.61    2.34
   5   4  -2  127.23    2.33
  -5  -4   2  123.33    2.35
  -5   4   1   23.62    0.58
   5   4  -1   23.88    0.99
   5   4  -1   24.08    0.95
  -5   4   1   23.45    0.89
  -5  -4   1   24.43    0.89
   5   4  -1   25.44    0.89
   5  -4  -1   23.26    0.86
  -5   4   0    2.33    0.21
  -5   4   0    2.06    0.32
   5   4   0    1.70    0.37
   5  -4   0    1.78    0.38
  -5  -4   0    2.01    0.32
  -5  -4  -1    5.12    0.47
   5  -4   1    5.31    0.55
  -5   4  -1    5.32    0.46
  -5  -4  -1    6.25    0.50
   5   4   1    4.77    0.53
   5   4   2    9.71    0.75
   5  -4   2   10.67    0.77
  -5   4  -2   11.16    0.70
  -5  -4  -3    0.12    0.30
  -5   4  -3   -0.02    0.24
   5  -4   3    0.19    0.41
   5  -4   3   -0.01    0.12
  -5   4  -3    0.08    0.30
  -5  -4  -3    0.23    0.30
  -5  -4  -4    1.03    0.35
  -5   4  -4    1.11    0.29
   5  -4   4    1.11    0.21
  -5   4  -4    1.04    0.37
  -5  -4  -4    0.54    0.34
  -5   4  -5    8.61    0.52
  -5   4  -5    9.11    0.74
  -5  -4  -5    9.31    0.72
  -5   4  -6   21.69    1.15
  -5  -4  -6   21.96    1.13
   5  -5 -11    1.39    0.60
   5   5 -11    1.05    0.61
   5  -5 -10    0.18    0.46
   5   5 -10    0.83    0.51
   5   5 -10    0.47    0.45
   5  -5  -9    2.27    0.55
   5   5  -9    2.85    0.56
   5   5  -9    1.93    0.49
   5  -5  -8    5.63    0.60
   5   5  -8    5.20    0.60
   5   5  -8    6.38    0.63
   5   5  -7    0.41    0.35
   5  -5  -7    0.38    0.32
   5   5  -7    0.66    0.32
   5  -5  -7    0.25    0.26
   5   5  -7    0.74    0.30
   5   5  -6   12.18    0.76
   5  -5  -6   12.06    0.63
   5   5  -6   12.63    0.64
   5   5  -6   10.83    0.69
   5  -5  -6   11.55    0.70
   5   5  -5    7.44    0.60
   5  -5  -5    7.45    0.51
   5   5  -5    7.57    0.51
   5   5  -5    7.58    0.65
   5  -5  -5    6.77    0.59
   5   5  -5    8.09    0.55
   5  -5  -5    7.69    0.55
   5   5  -4    0.38    0.31
   5   5  -4    0.86    0.35
   5  -5  -4    0.94    0.36
   5  -5  -4    1.02    0.27
   5   5  -4    0.78    0.27
   5   5  -3    0.46    0.32
   5  -5  -3    0.60    0.29
   5   5  -3    1.02    0.36
   5  -5  -3    0.64    0.23
   5   5  -3    0.67    0.24
   5   5  -2    0.31    0.31
  -5  -5   2   -0.07    0.21
   5  -5  -2    0.24    0.22
   5   5  -2   -0.12    0.21
   5   5  -2   -0.16    0.33
  -5   5   2    0.03    0.21
  -5   5   1    4.35    0.30
   5   5  -1    5.18    0.55
   5   5  -1    4.63    0.55
   5   5  -1    4.16    0.37
   5  -5  -1    5.50    0.43
  -5   5   1    5.48    0.43
  -5  -5   1    4.93    0.39
  -5   5   0   19.79    0.65
   5   5   0   20.50    0.92
   5  -5   0   20.60    0.92
  -5   5   0   21.46    0.82
  -5  -5   0   20.88    0.79
   5  -5   1   17.92    0.90
  -5   5  -1   17.23    0.77
  -5  -5  -1   18.53    0.78
   5   5   1   17.98    0.90
  -5   5  -2    2.10    0.36
  -5  -5  -2    1.91    0.35
   5   5   2    1.77    0.43
   5  -5   2    1.73    0.44
  -5   5  -3   12.75    0.76
  -5  -5  -3   13.12    0.73
  -5   5  -3   12.69    0.67
  -5   5  -4    5.39    0.57
  -5  -5  -4    5.81    0.54
  -5   5  -4    4.87    0.48
  -5   5  -5    0.43    0.34
  -5   5  -5    0.54    0.37
  -5  -5  -5    0.43    0.37
  -5   5  -6    0.20    0.43
  -5  -5  -6    0.19    0.39
   5  -6 -10    2.04    0.54
   5   6  -9    7.70    0.78
   5  -6  -9    8.32    0.78
   5  -6  -8    5.09    0.58
   5   6  -8    4.91    0.62
   5   6  -7    9.86    0.74
   5   6  -7    8.59    0.76
   5   6  -7    7.72    0.69
   5  -6  -7    8.10    0.66
   5   6  -7    8.71    0.70
   5   6  -6   20.74    1.02
   5  -6  -6   21.49    0.82
   5   6  -6   20.99    1.10
   5   6  -6   20.24    0.92
   5  -6  -6   20.88    0.91
   5   6  -5   28.12    1.21
   5   6  -5   28.38    1.27
   5   6  -5   30.31    1.06
   5  -6  -5   29.41    1.03
   5  -6  -5   30.11    0.92
   5   6  -4    7.54    0.66
   5   6  -4    9.30    0.75
   5   6  -4    7.56    0.51
   5  -6  -4    8.13    0.51
   5  -6  -4    7.18    0.45
   5   6  -3   -0.13    0.32
   5  -6  -3    0.04    0.20
   5   6  -3    0.38    0.41
   5   6  -2    0.41    0.37
   5   6  -2    0.33    0.42
  -5   6   1   18.19    0.68
   5  -6  -1   18.52    0.80
  -5  -6   1   18.39    0.69
  -5   6   1   18.75    0.72
  -5   6   0   38.43    1.04
   5  -6   0   39.07    1.23
  -5   6   0   39.14    1.12
  -5  -6   0   36.99    1.05
   5  -6   1   26.44    1.04
  -5   6  -1   24.86    0.84
  -5   6  -1   26.82    0.92
  -5  -6  -1   26.48    0.88
  -5   6  -2   17.39    0.79
  -5  -6  -2   19.55    0.80
  -5   6  -3   21.75    0.92
  -5  -6  -3   19.25    0.85
  -5  -6  -4   14.00    0.77
  -5   6  -4   13.51    0.80
  -5  -6  -5    2.54    0.46
   5   7  -7    0.05    0.38
   5   7  -5    2.82    0.54
   5   7  -5    2.98    0.63
   5   7  -4    0.41    0.41
   5   7  -4    0.74    0.51
   5   7  -3    0.21    0.40
   5   7  -3    0.39    0.49
   5   7  -2    0.47    0.44
   5   7  -2    0.72    0.53
  -5   7   1    2.94    0.38
  -5   7   0   10.23    0.58
  -5   7  -1    3.81    0.42
  -5   7  -2    0.24    0.29
   6   0 -12    2.87    0.69
   6   0 -11    5.86    0.78
   6   0 -10   10.07    0.87
   6   0  -9   36.71    1.41
   6   0  -9   35.35    1.49
   6   0  -8   88.09    2.19
   6   0  -8   86.10    2.28
   6   0  -7   79.04    1.96
   6   0  -7   78.51    1.94
   6   0  -6   14.15    0.75
   6   0  -6   12.26    0.69
   6   0  -5    0.41    0.13
   6   0  -5    0.09    0.26
  -6   0   5    0.54    0.28
   6   0  -4    2.48    0.19
   6   0  -4    2.90    0.41
  -6   0   4    2.54    0.39
   6   0  -3   44.07    1.29
  -6   0   3   40.39    1.30
  -6   0   2    4.05    0.43
   6   0  -2    5.03    0.48
  -6   0   1    6.42    0.54
   6   0  -1    8.33    0.59
  -6   0   0   24.75    0.69
  -6   0   0   23.99    1.01
   6   0   0   25.43    1.02
  -6   0  -1   98.81    2.36
  -6   0  -1  101.47    1.86
   6   0   1  105.44    2.30
  -6   0  -2   48.93    1.58
  -6   0  -3   17.53    0.97
  -6   0  -4    6.81    0.66
  -6   0  -5   14.81    0.96
  -6   0  -6    8.93    0.81
   6  -1 -12    1.59    0.64
   6   1 -12    2.41    0.68
   6  -1 -11    9.14    0.92
   6   1 -11    7.52    0.87
   6  -1 -10    9.16    0.84
   6   1 -10    7.79    0.80
   6   1  -9    1.47    0.45
   6   1  -9    0.84    0.38
   6  -1  -8    4.93    0.54
   6   1  -8    3.85    0.51
   6   1  -8    5.00    0.57
   6   1  -7    7.98    0.62
   6  -1  -7    8.90    0.62
   6  -1  -7    9.33    0.63
   6   1  -7   10.39    0.66
   6  -1  -6    7.01    0.55
   6   1  -6    5.65    0.51
   6   1  -6    5.85    0.54
   6  -1  -6    6.35    0.50
   6   1  -5   30.26    0.78
  -6   1   5   31.11    1.13
   6  -1  -5   30.59    1.06
   6   1  -5   28.44    1.05
   6  -1  -5   31.68    0.99
   6   1  -4   18.12    0.59
   6  -1  -4   18.76    0.84
   6   1  -4   19.67    0.86
  -6   1   4   19.10    0.88
  -6   1   3    3.53    0.43
   6  -1  -3    2.75    0.41
   6   1  -3    3.50    0.43
   6   1  -2   36.83    0.77
  -6   1   2   38.28    1.25
   6  -1  -2   38.67    1.21
   6   1  -2   38.81    1.22
  -6   1   1   13.10    0.74
   6  -1  -1   14.79    0.76
   6   1  -1   14.54    0.77
  -6  -1   0    0.07    0.20
  -6   1   0    0.31    0.16
  -6   1   0    0.19    0.28
   6   1   0    0.03    0.29
   6  -1   0    0.03    0.30
  -6   1  -1    1.18    0.34
  -6  -1  -1    1.16    0.36
  -6  -1  -1    1.46    0.29
   6   1   1    1.29    0.44
   6  -1   1    1.47    0.44
  -6   1  -2    9.84    0.71
  -6  -1  -2   10.47    0.73
  -6  -1  -2    8.33    0.53
  -6  -1  -3    1.76    0.36
  -6   1  -3    0.65    0.35
  -6  -1  -3    0.98    0.38
  -6  -1  -4    2.22    0.21
  -6   1  -4    2.43    0.49
  -6  -1  -4    2.25    0.46
  -6  -1  -5    5.25    0.64
  -6   1  -5    5.75    0.66
  -6   1  -6    0.17    0.42
  -6  -1  -6    0.17    0.41
   6  -2 -11    3.04    0.65
   6   2 -11    3.64    0.71
   6   2 -11    4.43    0.68
   6  -2 -10    4.51    0.69
   6   2 -10    4.38    0.68
   6   2 -10    4.15    0.60
   6   2  -9    0.06    0.37
   6  -2  -9    0.50    0.40
   6   2  -8    1.08    0.38
   6  -2  -8    0.44    0.34
   6  -2  -7    0.35    0.30
   6   2  -7    0.49    0.31
   6  -2  -6   45.81    0.74
   6  -2  -6   49.46    1.40
   6   2  -6   50.60    1.43
   6  -2  -6   51.09    1.37
   6   2  -5  100.00    1.90
   6  -2  -5  104.63    2.20
   6   2  -5   99.51    2.16
   6  -2  -5  101.53    2.02
   6   2  -4   83.25    1.68
   6  -2  -4   86.85    1.97
   6   2  -4   88.54    1.99
   6  -2  -4   82.11    1.66
  -6   2   4   84.21    2.00
  -6  -2   4   83.05    1.97
   6  -2  -3   67.19    1.64
   6   2  -3   62.52    1.61
   6   2  -3   63.55    1.41
   6   2  -3   64.76    1.37
   6  -2  -3   64.07    1.21
   6  -2  -3   63.36    1.32
  -6   2   3   61.89    1.67
  -6  -2   3   61.38    1.64
   6   2  -2   88.77    1.62
  -6   2   2   88.32    2.06
  -6  -2   2   86.56    2.03
   6  -2  -2   87.83    1.97
   6   2  -2   82.98    1.94
  -6   2   1   74.16    1.86
  -6  -2   1   71.68    1.82
   6  -2  -1   75.93    1.82
   6   2  -1   75.02    1.81
  -6  -2   0   28.43    0.89
  -6   2   0   30.27    1.14
  -6  -2   0   29.16    1.11
   6   2   0   30.83    1.10
   6  -2   0   27.94    1.05
  -6   2  -1    0.16    0.28
  -6  -2  -1    0.96    0.33
  -6  -2  -1    0.59    0.26
   6   2   1    0.91    0.44
   6  -2   1    1.14    0.40
  -6   2  -2    2.77    0.46
  -6  -2  -2    3.04    0.47
  -6  -2  -2    2.56    0.38
  -6   2  -3    8.68    0.73
  -6  -2  -3    7.78    0.67
  -6  -2  -3    7.81    0.59
  -6  -2  -4    7.39    0.41
  -6  -2  -4    7.61    0.68
  -6   2  -5    0.42    0.40
  -6  -2  -5    0.37    0.36
  -6   2  -6    0.85    0.45
  -6  -2  -6    0.34    0.42
   6   3 -11    7.07    0.81
   6  -3 -11    7.81    0.88
   6   3 -11    7.11    0.86
   6  -3 -10    4.61    0.69
   6   3 -10    3.78    0.68
   6   3 -10    4.38    0.64
   6   3  -9    0.78    0.39
   6  -3  -9    0.95    0.40
   6   3  -9    1.09    0.41
   6  -3  -8    2.69    0.27
   6   3  -8    3.35    0.52
   6  -3  -8    3.04    0.53
   6   3  -8    2.67    0.45
   6  -3  -7    3.42    0.23
   6   3  -7    3.30    0.47
   6  -3  -7    4.00    0.50
   6   3  -7    3.33    0.47
   6  -3  -6    8.97    0.59
   6   3  -6    9.31    0.61
   6   3  -5   26.12    0.91
   6  -3  -5   27.52    1.01
   6   3  -5   25.91    0.98
  -6   3   4    6.53    0.54
   6  -3  -4    5.97    0.51
  -6  -3   4    7.32    0.56
   6   3  -4    7.18    0.53
   6   3  -4    6.30    0.47
   6  -3  -4    7.12    0.46
   6   3  -3    3.48    0.40
   6  -3  -3    2.76    0.29
   6   3  -3    3.24    0.37
   6  -3  -3    3.82    0.29
   6  -3  -3    3.62    0.43
  -6  -3   3    3.45    0.40
  -6   3   3    3.80    0.43
   6   3  -3    3.81    0.43
   6   3  -2   18.64    0.74
   6  -3  -2   18.13    0.53
  -6   3   2   18.31    0.86
  -6  -3   2   19.78    0.86
   6  -3  -2   18.78    0.81
   6   3  -2   17.19    0.80
  -6   3   1    9.59    0.63
  -6  -3   1    8.58    0.60
   6  -3  -1    9.46    0.61
   6   3  -1    9.69    0.63
  -6  -3   0    0.53    0.26
   6   3   0    0.92    0.32
   6  -3   0    1.25    0.35
  -6   3   0    0.78    0.30
  -6  -3   0    1.19    0.34
  -6  -3  -1    2.21    0.37
  -6   3  -1    3.17    0.44
  -6  -3  -1    2.04    0.39
   6   3   1    2.68    0.51
   6  -3   1    2.99    0.53
  -6   3  -2    4.33    0.52
  -6  -3  -2    4.43    0.52
  -6   3  -3    0.51    0.36
  -6  -3  -3    0.55    0.33
  -6   3  -4    2.80    0.51
  -6  -3  -4    2.47    0.50
  -6   3  -5    2.57    0.53
  -6  -3  -5    2.43    0.54
   6  -4 -11    2.77    0.68
   6   4 -11    2.25    0.65
   6  -4 -10    6.23    0.73
   6   4 -10    7.10    0.74
   6   4 -10    6.63    0.77
   6   4  -9   23.42    1.19
   6  -4  -9   26.92    1.30
   6   4  -9   25.70    1.25
   6   4  -8   47.64    1.62
   6   4  -8   48.01    1.67
   6  -4  -8   51.91    1.72
   6   4  -7   30.71    1.24
   6   4  -7   28.48    1.18
   6  -4  -7   31.52    1.23
   6   4  -6    5.98    0.51
   6  -4  -6    5.79    0.51
   6   4  -6    6.99    0.54
   6  -4  -5    2.01    0.37
   6   4  -5    1.66    0.34
   6   4  -5    2.07    0.36
   6  -4  -5    2.20    0.39
   6   4  -4    4.26    0.43
   6   4  -4    3.80    0.45
   6  -4  -4    4.28    0.41
   6   4  -4    3.78    0.47
   6  -4  -4    3.74    0.43
   6   4  -3    6.57    0.56
   6  -4  -3    7.65    0.46
   6   4  -3    7.00    0.56
   6  -4  -3    8.64    0.56
   6   4  -3    6.89    0.52
  -6   4   3    7.55    0.55
  -6  -4   3    8.47    0.56
   6   4  -2    3.27    0.46
   6   4  -2    3.94    0.45
  -6   4   2    2.92    0.38
   6  -4  -2    3.80    0.44
   6   4  -2    3.49    0.42
  -6  -4   2    3.82    0.42
  -6   4   1    5.30    0.47
  -6  -4   1    5.31    0.47
   6   4  -1    4.98    0.48
   6  -4  -1    5.14    0.48
  -6   4   0   24.85    0.59
   6   4   0   24.89    1.12
   6  -4   0   23.98    1.10
  -6   4   0   24.83    1.02
  -6  -4   0   27.21    1.04
  -6   4  -1   33.29    1.22
  -6  -4  -1   34.31    1.22
  -6   4  -2   28.50    1.17
  -6  -4  -2   27.20    1.13
  -6   4  -3    9.51    0.74
  -6  -4  -3   10.85    0.76
  -6   4  -4    8.15    0.72
  -6  -4  -4    7.06    0.68
  -6   4  -5    8.84    0.80
  -6  -4  -5    9.61    0.82
   6  -5 -11    4.26    0.74
   6   5 -11    4.09    0.73
   6  -5 -10    1.72    0.56
   6   5 -10    1.58    0.52
   6  -5  -9   -0.17    0.43
   6   5  -9    0.33    0.42
   6   5  -9   -0.16    0.42
   6   5  -8    1.84    0.48
   6  -5  -8    1.81    0.45
   6   5  -8    1.53    0.44
   6   5  -7    2.01    0.41
   6   5  -7    1.88    0.42
   6  -5  -7    3.16    0.48
   6   5  -7    1.63    0.41
   6   5  -6    7.50    0.62
   6  -5  -6    8.46    0.60
   6   5  -6    8.61    0.59
   6   5  -6    8.36    0.68
   6   5  -6    7.21    0.61
   6  -5  -6    8.34    0.62
   6  -5  -5   10.95    0.64
   6   5  -5   11.61    0.65
   6   5  -5   10.49    0.71
   6   5  -5   11.11    0.78
   6  -5  -5   11.57    0.70
   6   5  -4    4.21    0.51
   6   5  -4    5.26    0.57
   6  -5  -4    3.61    0.44
   6  -5  -4    3.96    0.42
   6   5  -4    4.14    0.42
  -6   5   3    2.42    0.36
   6   5  -3    1.87    0.42
   6   5  -3    2.70    0.47
   6  -5  -3    2.24    0.37
   6   5  -3    2.48    0.37
   6   5  -2   10.72    0.74
   6   5  -2    9.67    0.71
   6   5  -2   10.12    0.60
   6  -5  -2    9.88    0.60
  -6   5   2    9.03    0.59
  -6  -5   2   10.15    0.60
  -6   5   1    3.06    0.40
  -6  -5   1    3.38    0.40
   6   5  -1    2.96    0.48
  -6   5   0    0.73    0.19
   6   5   0    0.76    0.38
   6  -5   0    0.89    0.37
  -6   5   0    0.75    0.31
  -6  -5   0    1.64    0.35
  -6   5  -1    1.60    0.24
  -6   5  -1    1.79    0.36
  -6  -5  -1    2.07    0.37
  -6   5  -2    1.94    0.40
  -6  -5  -2    1.89    0.39
  -6   5  -3    0.30    0.33
  -6  -5  -3    0.49    0.34
  -6   5  -4    0.92    0.45
  -6  -5  -4    0.86    0.40
  -6   5  -5    0.30    0.43
  -6  -5  -5    0.82    0.41
   6  -6  -9    0.11    0.46
   6  -6  -8    0.14    0.36
   6   6  -7    0.72    0.42
   6  -6  -7    1.10    0.38
   6   6  -7    1.08    0.45
   6   6  -7    0.85    0.42
   6   6  -6   15.54    0.92
   6   6  -6   14.25    0.93
   6   6  -6   14.60    0.84
   6  -6  -6   15.09    0.82
   6   6  -5   30.71    1.29
   6   6  -5   30.08    1.31
   6   6  -5   31.32    1.13
   6  -6  -5   31.55    1.11
   6   6  -4   25.40    1.17
   6   6  -4   26.11    1.20
   6  -6  -4   25.08    0.90
   6   6  -3   25.05    1.16
   6   6  -3   25.09    1.18
  -6   6   2   27.51    0.97
   6  -6  -2   25.75    1.03
   6   6  -2   25.69    1.20
   6   6  -2   27.34    1.23
  -6   6   1   23.28    0.91
  -6  -6   1   21.95    0.84
  -6   6   0    7.42    0.41
  -6   6   0    7.07    0.54
  -6  -6   0    6.13    0.48
  -6  -6  -1    0.67    0.31
  -6   6  -1    0.55    0.29
  -6  -6  -2    1.52    0.36
  -6  -6  -3    4.75    0.52
   6   7  -4    2.26    0.61
   6   7  -3    1.06    0.56
   7   0 -11    0.21    0.45
   7   0 -10    3.87    0.64
   7   0 -10    3.92    0.61
   7   0  -9   22.33    1.13
   7   0  -9   22.86    1.19
   7   0  -8   50.44    1.63
   7   0  -7   22.75    1.01
   7   0  -6    8.16    0.33
   7   0  -6    9.32    0.64
  -7   0   5    5.26    0.53
   7   0  -4    4.51    0.49
  -7   0   4    4.85    0.52
  -7   0   3    1.43    0.35
   7   0  -3    1.39    0.14
   7   0  -3    1.14    0.35
  -7   0   2    6.84    0.59
   7   0  -2    6.78    0.58
  -7   0   1   33.20    1.27
  -7   0   0   78.36    1.47
  -7   0   0   80.71    2.12
  -7   0  -1   63.06    1.36
  -7   0  -1   61.59    1.87
  -7   0  -2   23.59    1.16
  -7   0  -2   23.35    0.82
  -7   0  -3    4.57    0.46
  -7   0  -3    4.24    0.59
  -7   0  -4    3.96    0.61
   7  -1 -11    1.82    0.58
   7   1 -11    2.90    0.65
   7   1 -11    1.50    0.54
   7   1 -10    0.32    0.45
   7  -1 -10    0.32    0.43
   7   1 -10    0.63    0.42
   7   1  -9    0.17    0.37
   7  -1  -9    0.61    0.38
   7   1  -9    0.57    0.39
   7  -1  -9    0.61    0.36
   7   1  -8   -0.23    0.33
   7  -1  -8    0.13    0.33
   7   1  -7    0.78    0.35
   7  -1  -7    1.08    0.33
   7   1  -6   18.37    0.61
   7  -1  -6   20.28    0.86
  -7   1   5   13.39    0.79
   7   1  -5   13.11    0.49
   7  -1  -5   12.36    0.66
  -7   1   4    0.37    0.32
   7  -1  -4    0.62    0.33
   7   1  -4    0.79    0.34
   7   1  -3   20.70    0.56
   7  -1  -3   18.30    0.37
  -7   1   3   19.46    0.95
  -7  -1   3   18.54    0.91
   7  -1  -3   21.98    0.95
   7   1  -3   20.29    0.92
  -7   1   2   20.76    0.98
  -7  -1   2   20.79    0.98
  -7   1   1    7.23    0.63
  -7  -1   1    7.16    0.62
  -7   1   0    1.95    0.20
  -7  -1   0    2.20    0.28
  -7   1   0    1.86    0.41
  -7  -1   0    1.53    0.37
  -7  -1  -1   -0.12    0.23
  -7   1  -1   -0.05    0.32
  -7   1  -1    0.12    0.21
  -7  -1  -1    0.14    0.32
  -7   1  -2    1.61    0.43
  -7  -1  -2    1.46    0.42
  -7  -1  -2    1.66    0.33
  -7   1  -2    1.85    0.32
  -7   1  -3   10.49    0.83
  -7  -1  -3    9.79    0.80
  -7   1  -4    6.87    0.73
  -7  -1  -4    6.70    0.73
   7  -2 -11   11.42    1.00
   7   2 -11   11.37    1.01
   7   2 -10    6.71    0.78
   7  -2 -10    7.05    0.79
   7   2  -9    0.76    0.41
   7  -2  -9    0.52    0.39
   7   2  -8   -0.25    0.35
   7  -2  -8   -0.05    0.31
   7   2  -7    7.35    0.48
   7   2  -7    7.92    0.67
   7  -2  -7    6.77    0.57
   7   2  -6   27.18    0.87
   7  -2  -6   29.13    1.03
   7   2  -5   53.48    1.28
  -7   2   5   53.13    1.63
  -7  -2   5   55.30    1.64
   7  -2  -5   54.29    1.39
   7   2  -4   47.20    1.18
   7  -2  -4   45.61    1.03
   7  -2  -4   45.25    1.19
  -7   2   4   46.87    1.51
  -7  -2   4   46.65    1.49
   7  -2  -3   55.91    0.95
   7   2  -3   52.82    1.19
  -7   2   3   57.65    1.69
  -7  -2   3   55.66    1.65
   7   2  -3   59.58    1.63
  -7   2   2   48.91    1.55
  -7  -2   2   47.05    1.53
  -7   2   1   11.71    0.79
  -7  -2   1   12.73    0.78
  -7  -2   0    0.81    0.25
  -7   2   0    1.10    0.14
  -7   2   0    0.98    0.38
  -7  -2   0    0.69    0.32
  -7  -2  -1    1.19    0.31
  -7   2  -1    1.68    0.43
  -7  -2  -1    1.20    0.37
  -7   2  -2    1.84    0.44
  -7  -2  -2    2.21    0.46
  -7  -2  -2    1.76    0.36
  -7   2  -3    8.85    0.77
  -7  -2  -3    8.86    0.76
  -7   2  -4    6.89    0.73
  -7  -2  -4    7.83    0.77
   7  -3 -11    2.05    0.58
   7   3 -11    1.49    0.58
   7   3 -10    0.38    0.44
   7  -3 -10    0.45    0.45
   7   3 -10    1.60    0.51
   7   3  -9    0.18    0.42
   7  -3  -9    0.70    0.43
   7   3  -9    0.32    0.36
   7   3  -8    0.47    0.39
   7  -3  -8    0.20    0.35
   7   3  -8   -0.10    0.38
   7   3  -7    0.33    0.25
   7   3  -6    7.36    0.52
   7   3  -5   12.62    0.65
   7  -3  -5   13.51    0.65
   7   3  -4    0.72    0.30
   7   3  -4    0.80    0.30
   7  -3  -4    0.94    0.26
  -7   3   4    0.28    0.31
   7  -3  -4    0.72    0.26
  -7  -3   4    0.63    0.30
   7   3  -3   16.55    0.70
   7  -3  -3   16.65    0.60
  -7   3   3   15.63    0.85
  -7  -3   3   15.08    0.83
   7   3  -2   21.56    0.79
   7  -3  -2   20.89    0.63
  -7   3   2   21.78    1.00
  -7  -3   2   21.43    0.99
  -7   3   1    6.00    0.56
  -7  -3   1    6.27    0.56
  -7   3   0    0.09    0.05
  -7   3   0    0.13    0.06
  -7   3   0    0.40    0.33
  -7  -3   0    0.13    0.33
  -7   3  -1    0.84    0.37
  -7  -3  -1    0.50    0.31
  -7   3  -2    0.75    0.39
  -7  -3  -2    0.78    0.38
  -7   3  -3    7.12    0.72
  -7  -3  -3    6.62    0.71
  -7  -3  -4    5.87    0.73
  -7   3  -4    7.15    0.76
   7  -4 -10    1.84    0.55
   7   4 -10    2.53    0.62
   7   4  -9   12.60    0.90
   7  -4  -9   13.25    0.98
   7   4  -8   28.27    1.11
   7   4  -8   26.26    1.22
   7   4  -8   30.05    1.33
   7  -4  -8   28.77    1.30
   7   4  -7   21.42    0.94
   7   4  -7   18.97    1.01
   7  -4  -7   17.95    0.98
   7   4  -6    2.53    0.42
   7  -4  -6    2.94    0.45
   7   4  -5    1.39    0.34
   7   4  -5    1.54    0.39
   7  -4  -5    1.57    0.35
   7   4  -4    4.20    0.48
   7  -4  -4    3.32    0.36
   7   4  -4    3.77    0.45
  -7  -4   4    4.15    0.46
  -7   4   4    3.51    0.45
  -7   4   3    2.76    0.43
   7   4  -3    2.92    0.45
  -7  -4   3    1.83    0.37
   7   4  -3    2.47    0.40
  -7   4   2    3.10    0.44
  -7  -4   2    3.71    0.45
  -7   4   1   15.32    0.83
  -7  -4   1   12.77    0.76
  -7   4   0   44.71    1.49
  -7  -4   0   45.33    1.50
  -7   4  -1   44.98    1.52
  -7  -4  -1   43.31    1.49
  -7   4  -2   14.21    0.90
  -7  -4  -2   13.90    0.87
  -7   4  -3    2.97    0.55
  -7  -4  -3    2.05    0.51
  -7  -4  -4    1.30    0.48
   7  -5 -10    0.25    0.50
   7   5 -10    0.44    0.46
   7   5  -9   -0.18    0.39
   7   5  -9    0.11    0.45
   7  -5  -9    0.45    0.45
   7   5  -8    0.35    0.36
   7   5  -8    0.31    0.39
   7  -5  -8   -0.10    0.42
   7   5  -8    0.16    0.35
   7   5  -7    0.38    0.38
   7   5  -7    0.94    0.40
   7  -5  -7    0.37    0.35
   7   5  -6    3.77    0.51
   7   5  -6    3.86    0.56
   7   5  -5    7.35    0.65
   7   5  -5    8.76    0.70
   7   5  -4    0.88    0.40
   7   5  -4    0.53    0.41
  -7   5   3    7.20    0.58
  -7  -5   3    7.48    0.58
   7   5  -3    7.49    0.64
   7   5  -3    7.08    0.63
  -7   5   2   14.09    0.79
  -7  -5   2   13.80    0.77
  -7   5   1    4.37    0.50
  -7  -5   1    3.87    0.48
  -7  -5   0    0.16    0.31
  -7   5   0    0.33    0.34
  -7   5  -1    0.09    0.34
  -7  -5  -1    0.33    0.32
  -7   5  -2    0.05    0.36
  -7  -5  -2    0.26    0.38
  -7   5  -3    2.88    0.53
  -7  -5  -3    2.56    0.49
   7  -6  -8    0.34    0.38
   7  -6  -7    1.91    0.46
   7   6  -7    1.13    0.48
   7   6  -6   10.07    0.80
   7   6  -6   11.60    0.88
   7  -6  -6   11.26    0.73
   7   6  -5   19.14    1.05
   7   6  -5   18.16    1.05
   7   6  -4   18.06    1.01
   7   6  -4   19.62    1.06
   7   6  -3   18.61    1.04
  -7  -6   2   14.96    0.75
  -7  -6   1    4.38    0.49
  -7  -6   0    0.14    0.29
  -7  -6  -1    0.08    0.31
   8   0 -10   -0.06    0.42
   8   0 -10   -0.23    0.44
   8   0  -9    1.17    0.43
   8   0  -9    2.40    0.50
   8   0  -8    6.71    0.66
   8   0  -7   11.07    0.38
   8   0  -7   13.49    0.82
   8   0  -6   16.62    0.90
  -8   0   5   42.75    1.53
  -8   0   4   40.69    1.48
  -8   0   3   27.24    1.21
  -8   0   2    7.39    0.67
  -8   0   1   13.03    0.87
  -8   0   0   14.36    0.52
  -8   0   0   15.50    0.95
  -8   0  -1    4.54    0.36
  -8   0  -1    3.78    0.57
  -8   0  -2    0.11    0.40
   8   1 -10    0.07    0.44
   8  -1 -10   -0.26    0.45
   8   1 -10    0.36    0.43
   8   1  -9    1.02    0.41
   8  -1  -9   -0.06    0.38
   8   1  -9    0.77    0.41
   8  -1  -9    0.83    0.40
   8   1  -8    8.58    0.45
   8   1  -8    8.88    0.74
   8  -1  -8    8.70    0.71
   8   1  -7    8.43    0.42
   8   1  -7    9.08    0.72
   8  -1  -7    7.77    0.62
   8   1  -6    0.56    0.19
   8  -1  -6    0.58    0.32
  -8  -1   5    0.56    0.31
   8  -1  -5    0.28    0.30
  -8   1   5    0.43    0.30
   8   1  -4   -0.08    0.18
   8  -1  -4    0.22    0.13
  -8   1   4   -0.05    0.30
  -8  -1   4   -0.19    0.30
  -8   1   3    0.43    0.32
  -8  -1   3   -0.09    0.30
  -8   1   2    2.42    0.45
  -8  -1   2    2.20    0.45
  -8   1   1    6.48    0.64
  -8  -1   1    4.78    0.57
  -8   1   0    2.14    0.44
  -8  -1   0    2.22    0.45
  -8  -1  -1    0.07    0.24
  -8   1  -1    0.21    0.38
  -8  -1  -1    0.21    0.36
  -8   1  -2    0.06    0.39
  -8  -1  -2   -0.23    0.38
   8   2 -10   17.11    1.13
   8   2 -10   15.04    1.09
   8  -2 -10   17.01    1.13
   8   2  -9   10.35    0.85
   8   2  -9   10.71    0.88
   8  -2  -9    9.97    0.85
   8   2  -8    8.39    0.51
   8   2  -8    6.95    0.69
   8  -2  -8    8.69    0.69
   8   2  -7    8.29    0.49
   8  -2  -7    8.49    0.65
   8   2  -6    5.86    0.42
   8  -2  -6    5.49    0.52
   8   2  -5    0.54    0.25
  -8   2   5    0.28    0.33
   8  -2  -5    0.97    0.30
  -8  -2   5    1.02    0.35
  -8  -2   4    1.49    0.40
   8   2  -4    1.44    0.27
   8  -2  -4    1.44    0.30
  -8   2   4    0.81    0.36
   8   2  -3    6.26    0.36
  -8   2   3    6.13    0.61
  -8   2   2   14.43    0.88
  -8  -2   2   14.91    0.89
  -8   2   1    7.44    0.68
  -8  -2   1    7.26    0.66
  -8   2   0    4.62    0.57
  -8  -2   0    4.32    0.55
  -8   2  -1    8.89    0.77
  -8  -2  -1    7.59    0.71
  -8   2  -2   13.06    0.95
  -8  -2  -2   15.40    0.99
   8   3 -10   -0.34    0.52
   8  -3 -10   -0.07    0.48
   8   3  -9    1.02    0.34
   8   3  -9    1.10    0.48
   8  -3  -9    0.89    0.46
   8   3  -8    8.05    0.57
   8   3  -7    5.08    0.47
   8   3  -6    0.53    0.27
  -8  -3   5    0.05    0.29
   8   3  -5    0.26    0.29
   8   3  -5   -0.12    0.28
  -8   3   5    0.14    0.32
   8  -3  -5    0.42    0.29
   8   3  -4   -0.08    0.26
  -8   3   4   -0.28    0.32
  -8  -3   4   -0.14    0.31
   8  -3  -4    0.12    0.23
   8   3  -3    0.14    0.27
  -8   3   3    0.05    0.30
   8  -3  -3    0.02    0.20
  -8  -3   3    0.23    0.33
  -8   3   2    2.35    0.48
  -8  -3   2    2.77    0.44
   8  -3  -2    2.60    0.29
  -8   3   1    2.53    0.46
  -8  -3   1    3.15    0.50
  -8   3   0    0.56    0.38
  -8  -3   0    0.60    0.35
  -8   3  -1   -0.32    0.43
  -8  -3  -1    0.05    0.41
  -8   3  -2   -0.28    0.44
  -8  -3  -2    0.38    0.42
   8   4 -10   -0.08    0.36
   8   4  -9    1.57    0.40
   8   4  -9    1.50    0.53
   8  -4  -9    2.13    0.55
   8   4  -8    2.96    0.56
   8  -4  -8    2.66    0.54
   8   4  -8    3.25    0.47
   8   4  -7    5.13    0.54
   8   4  -6   13.95    0.77
   8   4  -6   16.57    0.87
   8   4  -5   22.14    0.98
   8   4  -5   24.10    0.98
  -8   4   4   23.02    1.08
  -8  -4   4   24.55    1.10
   8   4  -4   24.43    0.97
   8   4  -3   10.39    0.66
  -8   4   3   11.40    0.77
  -8  -4   3    9.83    0.72
  -8   4   2    7.89    0.69
  -8  -4   2    6.95    0.64
  -8   4   1    9.84    0.74
  -8  -4   1    8.53    0.72
  -8   4   0    6.72    0.67
  -8  -4   0    6.75    0.66
  -8   4  -1    2.86    0.53
  -8  -4  -1    2.68    0.52
  -8  -4  -2   -0.42    0.42
   8   5  -9    0.79    0.48
   8  -5  -9    0.23    0.46
   8   5  -8    3.39    0.53
   8   5  -8    4.09    0.66
   8  -5  -8    3.15    0.57
   8   5  -8    3.31    0.57
   8   5  -7    2.15    0.47
   8  -5  -7    2.14    0.44
   8   5  -7    2.60    0.51
   8   5  -7    1.58    0.48
   8   5  -6    0.29    0.39
   8   5  -6    0.09    0.42
   8   5  -5    0.13    0.37
   8   5  -5   -0.08    0.41
   8   5  -4    0.28    0.39
  -8  -5   3   -0.04    0.32
  -8   5   3    0.09    0.32
  -8   5   2    1.06    0.37
  -8  -5   2    1.08    0.39
  -8   5   1    1.95    0.46
  -8  -5   1    1.94    0.44
  -8   5   0    0.66    0.38
  -8  -5   0    0.87    0.38
  -8   5  -1   -0.39    0.40
  -8  -5  -1   -0.09    0.38
   8  -6  -6    1.83    0.47
   8   6  -6    1.00    0.47
   8   6  -5   -0.05    0.47
  -8  -6   2    4.26    0.51
   9   0 -10    1.57    0.55
   9   0  -9    0.73    0.48
   9   0  -8    1.19    0.46
   9   0  -7    6.26    0.65
  -9   0   6   27.06    1.28
   9   0  -6   27.62    1.19
  -9   0   5   38.33    1.52
  -9   0   4   24.09    1.21
  -9   0   3    6.84    0.71
  -9   0   2    1.48    0.44
  -9   0   1    0.61    0.39
  -9   0   0    0.35    0.39
   9  -1 -10    1.34    0.52
   9   1  -9    0.89    0.48
   9  -1  -9    1.09    0.46
   9   1  -8    5.17    0.65
   9  -1  -8    3.84    0.57
   9   1  -7    4.94    0.62
   9  -1  -7    4.33    0.57
  -9   1   6    0.22    0.36
   9  -1  -6    0.33    0.35
  -9  -1   6    0.48    0.37
   9  -1  -5   -0.12    0.31
  -9   1   5    0.16    0.34
  -9  -1   5   -0.26    0.40
  -9   1   4    1.46    0.44
  -9  -1   4    0.80    0.39
  -9   1   3    7.21    0.70
  -9  -1   3    6.46    0.68
  -9   1   2    8.40    0.78
  -9  -1   2    8.87    0.77
  -9   1   1    1.44    0.45
  -9  -1   1    1.59    0.46
  -9   1   0    0.41    0.42
  -9  -1   0    0.41    0.42
   9   2  -8   11.22    0.86
   9  -2  -8   10.16    0.76
   9  -2  -7    5.38    0.58
   9  -2  -6   -0.11    0.30
  -9   2   5    0.27    0.36
  -9  -2   5    0.26    0.32
   9  -2  -5    0.24    0.30
  -9  -2   4    0.42    0.36
   9  -2  -4    0.20    0.28
  -9   2   4    0.11    0.36
  -9   2   3    7.59    0.74
  -9  -2   3    8.96    0.76
  -9   2   2   16.96    1.03
  -9  -2   2   15.19    0.96
  -9   2   1   13.13    0.94
  -9  -2   1   13.00    0.92
  -9   2   0   12.86    0.97
  -9  -2   0   14.66    0.99
   9  -3  -6    0.62    0.36
  -9   3   5   -0.05    0.43
  -9  -3   5    0.05    0.38
   9  -3  -5    0.34    0.30
  -9   3   4    1.47    0.48
  -9  -3   4    1.45    0.44
   9  -3  -4    1.67    0.38
  -9   3   3    3.47    0.54
  -9  -3   3    4.45    0.60
  -9   3   2    7.13    0.74
  -9  -3   2    7.32    0.74
  -9  -3   1    2.23    0.52
  -9   3   1    1.80    0.50
  -9   4   4   14.88    0.94
  -9  -4   4   16.39    0.97
  -9  -4   3    3.95    0.57
  -9   4   3    4.65    0.62
  -9   4   2    0.21    0.39
  -9  -4   2    0.62    0.42
  -9  -4   1    0.05    0.39
  -9   5   4    0.82    0.42
  -9  -5   3    2.38    0.50
  -9   5   3    2.19    0.49
  -9  -5   2    3.61    0.56
  10   0  -8    0.33    0.44
  10   0  -7    1.28    0.43
  10   0  -6    1.12    0.42
  10  -1  -9    0.33    0.45
  10  -1  -8    0.84    0.47
  10   1  -7    0.10    0.35
  10  -1  -7    0.68    0.41
  10  -1  -6   -0.04    0.36
  10  -1  -5   -0.04    0.32
  10  -2  -8    7.40    0.75
  10  -2  -7    6.56    0.69
  10  -2  -6    4.57    0.56
  10  -2  -5    4.00    0.54
  10  -2  -4    8.22    0.63
  11  -1  -7    0.10    0.43
  11  -1  -6    0.17    0.39
   0   0   0    0.00    0.00
;
_shelx_hkl_checksum              72512
loop_
_space_group_symop_operation_xyz
'x, y, z'
'-x, y+1/2, -z'
loop_
_atom_site_label
_atom_site_type_symbol
_atom_site_fract_x
_atom_site_fract_y
_atom_site_fract_z
_atom_site_U_iso_or_equiv
_atom_site_adp_type
_atom_site_occupancy
_atom_site_site_symmetry_order
_atom_site_calc_flag
_atom_site_refinement_flags_posn
_atom_site_refinement_flags_adp
Mn1 Mn 1.00153(14) 1.00003(14) 1.00283(11) 0.03303(11) Uani 1 1 d . .
Cl1 Cl 1.16391(12) 0.7528(3) 0.88606(10) 0.04815(18) Uani 1 1 d . .
Cl2 Cl 1.12265(13) 0.7457(3) 1.22429(10) 0.0473(2) Uani 1 1 d . .
Cl3 Cl 0.71996(11) 0.7516(3) 0.90982(11) 0.0477(2) Uani 1 1 d . .
N1 N 0.4011(8) 0.1480(10) 0.7744(6) 0.0691(16) Uani 1 1 d . .
H1A H 0.5239 0.1206 0.8226 0.083 Uiso 1 1 calc R U
H1B H 0.3416 0.1157 0.8352 0.083 Uiso 1 1 calc R U
C1 C 0.3268(12) 0.0272(10) 0.6402(8) 0.081(2) Uani 1 1 d . .
H1C H 0.2121 -0.0435 0.6343 0.097 Uiso 1 1 calc R U
H1D H 0.4190 -0.0745 0.6380 0.097 Uiso 1 1 calc R U
C2 C 0.2851(12) 0.1755(11) 0.5126(8) 0.083(2) Uani 1 1 d . .
H2 H 0.1730 0.1326 0.4257 0.100 Uiso 1 1 calc R U
C3 C 0.2523(12) 0.3731(12) 0.5722(10) 0.100(3) Uani 1 1 d . .
H3A H 0.1199 0.3879 0.5577 0.119 Uiso 1 1 calc R U
H3B H 0.2876 0.4867 0.5226 0.119 Uiso 1 1 calc R U
F1 F 0.4255(8) 0.1954(14) 0.4770(6) 0.152(3) Uani 1 1 d . .
C4 C 0.3758(10) 0.3678(12) 0.7372(9) 0.088(2) Uani 1 1 d . .
H4A H 0.4969 0.4336 0.7560 0.105 Uiso 1 1 calc R U
H4B H 0.3145 0.4368 0.7962 0.105 Uiso 1 1 calc R U
loop_
_atom_site_aniso_label
_atom_site_aniso_U_11
_atom_site_aniso_U_22
_atom_site_aniso_U_33
_atom_site_aniso_U_23
_atom_site_aniso_U_13
_atom_site_aniso_U_12
Mn1 0.03655(19) 0.01868(19) 0.0450(2) -0.00072(16) 0.01681(15) 0.00004(14)
Cl1 0.0661(4) 0.0275(3) 0.0699(4) 0.0000(7) 0.0472(3) 0.0014(8)
Cl2 0.0656(5) 0.0301(4) 0.0389(4) 0.0004(7) 0.0117(3) -0.0007(8)
Cl3 0.0340(3) 0.0284(3) 0.0708(5) -0.0046(8) 0.0089(3) -0.0008(7)
N1 0.066(3) 0.086(3) 0.044(2) 0.000(2) 0.008(2) 0.011(3)
C1 0.132(6) 0.043(3) 0.070(3) -0.001(3) 0.041(3) -0.002(3)
C2 0.106(5) 0.093(5) 0.045(3) 0.007(3) 0.023(3) -0.019(3)
C3 0.112(5) 0.060(3) 0.126(6) 0.049(3) 0.044(4) 0.030(3)
F1 0.150(3) 0.215(10) 0.117(3) 0.002(4) 0.079(2) 0.001(5)
C4 0.085(4) 0.072(4) 0.112(4) -0.055(3) 0.044(3) -0.017(3)
loop_
_atom_type_symbol
_atom_type_description
_atom_type_scat_dispersion_real
_atom_type_scat_dispersion_imag
_atom_type_scat_source
C C 0.0033 0.0016 'International Tables Vol C Tables 4.2.6.8 and 6.1.1.4'
H H 0.0000 0.0000 'International Tables Vol C Tables 4.2.6.8 and 6.1.1.4'
N N 0.0061 0.0033 'International Tables Vol C Tables 4.2.6.8 and 6.1.1.4'
F F 0.0171 0.0103 'International Tables Vol C Tables 4.2.6.8 and 6.1.1.4'
Cl Cl 0.1484 0.1585 'International Tables Vol C Tables 4.2.6.8 and 6.1.1.4'
Mn Mn 0.3368 0.7283 'International Tables Vol C Tables 4.2.6.8 and 6.1.1.4'
loop_
_geom_angle_atom_site_label_1
_geom_angle_atom_site_label_2
_geom_angle_atom_site_label_3
_geom_angle
_geom_angle_site_symmetry_1
_geom_angle_site_symmetry_3
Cl1 Mn1 Cl1 178.61(6) . 2_757
Cl1 Mn1 Cl3 93.73(6) . 2_757
Cl1 Mn1 Cl3 86.15(5) 2_757 2_757
Cl1 Mn1 Cl3 86.15(5) . .
Cl1 Mn1 Cl3 93.95(6) 2_757 .
Cl3 Mn1 Cl3 178.79(6) 2_757 .
Cl1 Mn1 Cl2 82.88(5) . .
Cl1 Mn1 Cl2 98.52(6) 2_757 .
Cl3 Mn1 Cl2 98.50(5) 2_757 .
Cl3 Mn1 Cl2 82.68(5) . .
Cl1 Mn1 Cl2 95.90(5) . 2_757
Cl1 Mn1 Cl2 82.71(5) 2_757 2_757
Cl3 Mn1 Cl2 82.70(5) 2_757 2_757
Cl3 Mn1 Cl2 96.12(5) . 2_757
Cl2 Mn1 Cl2 178.33(8) . 2_757
Mn1 Cl1 Mn1 79.60(3) . 2_747
Mn1 Cl2 Mn1 78.35(2) . 2_747
Mn1 Cl3 Mn1 78.85(2) 2_747 .
C1 N1 C4 110.2(6) . .
N1 C1 C2 105.8(5) . .
F1 C2 C3 108.0(7) . .
F1 C2 C1 110.7(7) . .
C3 C2 C1 105.1(6) . .
C2 C3 C4 105.0(6) . .
N1 C4 C3 104.5(6) . .
loop_
_geom_bond_atom_site_label_1
_geom_bond_atom_site_label_2
_geom_bond_distance
_geom_bond_site_symmetry_2
Mn1 Cl1 2.5338(17) .
Mn1 Cl1 2.5387(18) 2_757
Mn1 Cl3 2.5540(18) 2_757
Mn1 Cl3 2.5588(18) .
Mn1 Cl2 2.5683(17) .
Mn1 Cl2 2.5720(17) 2_757
Cl1 Mn1 2.5387(18) 2_747
Cl2 Mn1 2.5720(17) 2_747
Cl3 Mn1 2.5540(18) 2_747
N1 C1 1.428(9) .
N1 C4 1.466(9) .
C1 C2 1.493(10) .
C2 F1 1.247(11) .
C2 C3 1.464(12) .
C3 C4 1.502(11) .
loop_
_geom_torsion_atom_site_label_1
_geom_torsion_atom_site_label_2
_geom_torsion_atom_site_label_3
_geom_torsion_atom_site_label_4
_geom_torsion
C4 N1 C1 C2 10.3(9)
N1 C1 C2 F1 90.4(8)
N1 C1 C2 C3 -25.9(9)
F1 C2 C3 C4 -87.0(8)
C1 C2 C3 C4 31.2(9)
C1 N1 C4 C3 8.8(10)
C2 C3 C4 N1 -24.8(10)
