#------------------------------------------------------------------------------
#$Date: 2019-11-02 07:21:59 +0200 (Sat, 02 Nov 2019) $
#$Revision: 220929 $
#$URL: file:///home/coder/svn-repositories/cod/cif/4/12/77/4127758.cif $
#------------------------------------------------------------------------------
#
# This file is available in the Crystallography Open Database (COD),
# http://www.crystallography.net/
#
# All data on this site have been placed in the public domain by the
# contributors.
#
data_4127758
loop_
_publ_author_name
'Tan, Yun-Xuan'
'Zhang, Fang'
'Xie, Pei-Pei'
'Zhang, Shuo-Qing'
'Wang, Yi-Fan'
'Li, Qing-Hua'
'Tian, Ping'
'Hong, Xin'
'Lin, Guo-Qiang'
_publ_section_title
;
 Rhodium(III)-Catalyzed Asymmetric Borylative Cyclization of
 Cyclohexadienone-Containing 1,6-Dienes: An Experimental and DFT Study.
;
_journal_issue                   32
_journal_name_full               'Journal of the American Chemical Society'
_journal_page_first              12770
_journal_page_last               12779
_journal_paper_doi               10.1021/jacs.9b05583
_journal_volume                  141
_journal_year                    2019
_chemical_absolute_configuration ad
_chemical_formula_sum            'C10 H14 O3'
_chemical_formula_weight         182.21
_space_group_crystal_system      monoclinic
_space_group_IT_number           4
_space_group_name_Hall           'P 2yb'
_space_group_name_H-M_alt        'P 1 21 1'
_symmetry_space_group_name_Hall  'P 2yb'
_symmetry_space_group_name_H-M   'P 1 21 1'
_atom_sites_solution_hydrogens   geom
_audit_creation_method           SHELXL-2013
_cell_angle_alpha                90
_cell_angle_beta                 95.124(2)
_cell_angle_gamma                90
_cell_formula_units_Z            2
_cell_length_a                   6.9327(4)
_cell_length_b                   7.3133(4)
_cell_length_c                   8.9299(5)
_cell_measurement_reflns_used    4526
_cell_measurement_temperature    296(2)
_cell_measurement_theta_max      140.041
_cell_measurement_theta_min      9.945
_cell_volume                     450.94(4)
_computing_cell_refinement       'Bruker SAINT'
_computing_data_collection       'Bruker APEX2'
_computing_data_reduction        'Bruker SAINT'
_computing_molecular_graphics    'Bruker SHELXTL'
_computing_publication_material  'Bruker SHELXTL'
_computing_structure_refinement  'SHELXL-2013 (Sheldrick, 2013)'
_computing_structure_solution    'SHELXS-97 (Sheldrick 2008)'
_diffrn_ambient_temperature      296(2)
_diffrn_measured_fraction_theta_full 0.941
_diffrn_measured_fraction_theta_max 0.950
_diffrn_measurement_device_type  'Bruker APEX-II CCD'
_diffrn_measurement_method       '\f and \w scans'
_diffrn_radiation_type           CuK\a
_diffrn_radiation_wavelength     1.54178
_diffrn_reflns_av_R_equivalents  0.0281
_diffrn_reflns_av_unetI/netI     0.0276
_diffrn_reflns_Laue_measured_fraction_full 0.941
_diffrn_reflns_Laue_measured_fraction_max 0.950
_diffrn_reflns_limit_h_max       7
_diffrn_reflns_limit_h_min       -8
_diffrn_reflns_limit_k_max       8
_diffrn_reflns_limit_k_min       -8
_diffrn_reflns_limit_l_max       10
_diffrn_reflns_limit_l_min       -10
_diffrn_reflns_number            4584
_diffrn_reflns_point_group_measured_fraction_full 0.933
_diffrn_reflns_point_group_measured_fraction_max 0.941
_diffrn_reflns_theta_full        67.679
_diffrn_reflns_theta_max         66.955
_diffrn_reflns_theta_min         4.972
_exptl_absorpt_coefficient_mu    0.807
_exptl_absorpt_correction_T_max  0.7533
_exptl_absorpt_correction_T_min  0.5314
_exptl_absorpt_correction_type   multi-scan
_exptl_absorpt_process_details   sadabs
_exptl_crystal_colour            colorless
_exptl_crystal_density_diffrn    1.342
_exptl_crystal_description       prismatic
_exptl_crystal_F_000             196
_exptl_crystal_size_max          0.190
_exptl_crystal_size_mid          0.150
_exptl_crystal_size_min          0.120
_refine_diff_density_max         0.180
_refine_diff_density_min         -0.116
_refine_diff_density_rms         0.028
_refine_ls_abs_structure_details
; 
 Flack x determined using 674 quotients [(I+)-(I-)]/[(I+)+(I-)] 
 (Parsons and Flack (2004), Acta Cryst. A60, s61). 
;
_refine_ls_abs_structure_Flack   0.01(8)
_refine_ls_extinction_coef       0.20(4)
_refine_ls_extinction_expression Fc^*^=kFc[1+0.001xFc^2^\l^3^/sin(2\q)]^-1/4^
_refine_ls_extinction_method     SHELXL
_refine_ls_goodness_of_fit_ref   1.031
_refine_ls_hydrogen_treatment    constr
_refine_ls_matrix_type           full
_refine_ls_number_parameters     120
_refine_ls_number_reflns         1521
_refine_ls_number_restraints     1
_refine_ls_restrained_S_all      1.031
_refine_ls_R_factor_all          0.0306
_refine_ls_R_factor_gt           0.0305
_refine_ls_shift/su_max          0.000
_refine_ls_shift/su_mean         0.000
_refine_ls_structure_factor_coef Fsqd
_refine_ls_weighting_details
'w=1/[\s^2^(Fo^2^)+(0.0557P)^2^+0.0432P] where P=(Fo^2^+2Fc^2^)/3'
_refine_ls_weighting_scheme      calc
_refine_ls_wR_factor_gt          0.0872
_refine_ls_wR_factor_ref         0.0874
_reflns_Friedel_coverage         0.826
_reflns_Friedel_fraction_full    0.922
_reflns_Friedel_fraction_max     0.931
_reflns_number_gt                1509
_reflns_number_total             1521
_reflns_threshold_expression     'I > 2\s(I)'
_cod_data_source_file            ja9b05583_si_005.cif
_cod_data_source_block           cu_d8v17722_0m
_cod_database_code               4127758
_shelx_space_group_comment
; 
The symmetry employed for this shelxl refinement is uniquely defined 
by the following loop, which should always be used as a source of 
symmetry information in preference to the above space-group names. 
They are only intended as comments. 
;
_shelx_estimated_absorpt_t_min   0.862
_shelx_estimated_absorpt_t_max   0.909
_shelxl_version_number           2013-4
_shelx_res_file
; 
TITL cu_d8v17722_0m_a.res in P2(1) 
CELL 1.54178 6.9327 7.3133 8.9299 90 95.124 90 
ZERR 2 0.0004 0.0004 0.0005 0 0.002 0 
LATT -1 
SYMM -X,0.5+Y,-Z 
SFAC C  H  O 
UNIT 20 28 6 
OMIT  1   1   1 
OMIT  -3.00 134.00 
L.S. 10 
ACTA 
BOND $H 
FMAP 2 
PLAN 20 
LIST 4 
size 0.19 0.15 0.12 
wpdb -1 
mpla 
htab 
conf 
TEMP 23 
WGHT    0.055700    0.043200 
EXTI    0.200670 
FVAR       1.66919 
O1    3    0.636253    0.497513    0.540371    11.00000    0.04404    0.08729 = 
         0.07357    0.00476    0.02233    0.00283 
O2    3    0.018338    0.479192    0.872946    11.00000    0.05401    0.04095 = 
         0.04102   -0.00121    0.01843   -0.00684 
O3    3    0.395691    0.365686    0.907850    11.00000    0.05942    0.04544 = 
         0.04334    0.00622   -0.01689   -0.00028 
C1    1    0.495405    0.533013    0.606407    11.00000    0.03780    0.04512 = 
         0.05197    0.00759    0.00921   -0.00163 
C2    1    0.512158    0.616840    0.760857    11.00000    0.03918    0.05001 = 
         0.05845   -0.00178   -0.00114   -0.00940 
AFIX  23 
H2A   2    0.502258    0.748660    0.750902    11.00000   -1.20000 
H2B   2    0.639248    0.589079    0.809980    11.00000   -1.20000 
AFIX   0 
C3    1    0.358163    0.550299    0.860940    11.00000    0.04955    0.03810 = 
         0.03482   -0.00354   -0.00404   -0.00666 
AFIX  13 
H3    2    0.366547    0.627140    0.951195    11.00000   -1.20000 
AFIX   0 
C4    1    0.152247    0.569437    0.783010    11.00000    0.03992    0.03264 = 
         0.03430    0.00128    0.00810   -0.00215 
C5    1    0.140704    0.455340    0.639459    11.00000    0.03037    0.03895 = 
         0.03165    0.00025    0.00023   -0.00157 
AFIX  13 
H5    2    0.012168    0.471366    0.585903    11.00000   -1.20000 
AFIX   0 
C6    1    0.294153    0.504506    0.533289    11.00000    0.04337    0.05233 = 
         0.03208    0.00332    0.00615    0.00112 
AFIX  23 
H6A   2    0.298247    0.407773    0.459323    11.00000   -1.20000 
H6B   2    0.253651    0.615429    0.479825    11.00000   -1.20000 
AFIX   0 
C7    1    0.150802    0.266277    0.712636    11.00000    0.04420    0.03234 = 
         0.03996   -0.00372    0.00106   -0.00415 
AFIX  13 
H7    2    0.113096    0.169333    0.640092    11.00000   -1.20000 
AFIX   0 
C8    1    0.003017    0.290672    0.826812    11.00000    0.05740    0.03940 = 
         0.04676    0.00068    0.01130   -0.01222 
AFIX  23 
H8A   2   -0.126449    0.264090    0.781733    11.00000   -1.20000 
H8B   2    0.031740    0.210051    0.912149    11.00000   -1.20000 
AFIX   0 
C9    1    0.350254    0.232498    0.793131    11.00000    0.05644    0.03547 = 
         0.05045    0.00328   -0.00457    0.00501 
AFIX  23 
H9A   2    0.354006    0.111444    0.837686    11.00000   -1.20000 
H9B   2    0.446725    0.237071    0.720950    11.00000   -1.20000 
AFIX   0 
C10   1    0.089483    0.766282    0.762402    11.00000    0.06093    0.03570 = 
         0.06283    0.00430    0.01911    0.00582 
AFIX 137 
H10A  2   -0.045015    0.770638    0.726087    11.00000   -1.50000 
H10B  2    0.165212    0.824281    0.691024    11.00000   -1.50000 
H10C  2    0.108359    0.829042    0.856997    11.00000   -1.50000 
AFIX   0 
HKLF 4 
  
REM  cu_d8v17722_0m_a.res in P2(1) 
REM R1 =  0.0305 for    1509 Fo > 4sig(Fo)  and  0.0306 for all    1521 data 
REM    120 parameters refined using      1 restraints 
  
END 
  
WGHT      0.0424      0.0496 
  
REM Instructions for potential hydrogen bonds 
EQIV $1 -x+1, y+1/2, -z+2 
HTAB C3 O3_$1 
EQIV $2 x-1, y, z 
HTAB C5 O1_$2 
EQIV $3 -x, y-1/2, -z+2 
HTAB C8 O2_$3 
  
REM Highest difference peak  0.180,  deepest hole -0.116,  1-sigma level  0.028 
Q1    1   0.2554  0.5662  0.8235  11.00000  0.05    0.18 
Q2    1   0.0747  0.2748  0.7619  11.00000  0.05    0.13 
Q3    1   0.2519  0.4979  0.4195  11.00000  0.05    0.12 
Q4    1   0.3953  0.5145  0.5778  11.00000  0.05    0.12 
Q5    1   0.4329  0.5841  0.8115  11.00000  0.05    0.11 
Q6    1   0.1055  0.4467  0.9430  11.00000  0.05    0.11 
Q7    1   0.1299  0.5236  0.7057  11.00000  0.05    0.10 
Q8    1   0.2523  0.2648  0.7464  11.00000  0.05    0.10 
Q9    1   0.1082  0.6593  0.7739  11.00000  0.05    0.10 
Q10   1   0.2341  0.4605  0.5961  11.00000  0.05    0.10 
Q11   1   0.2300  0.8596  0.7381  11.00000  0.05    0.08 
Q12   1  -0.2471  0.7734  0.6713  11.00000  0.05    0.08 
Q13   1   0.4325  0.1465  0.7886  11.00000  0.05    0.08 
Q14   1   0.2556  0.3507  0.8257  11.00000  0.05    0.08 
Q15   1  -0.2431  0.0485  0.8593  11.00000  0.05    0.07 
Q16   1   0.2473  0.1456  0.8239  11.00000  0.05    0.07 
Q17   1   0.4008  0.1616  0.6242  11.00000  0.05    0.07 
Q18   1  -0.0558  0.2353  0.6434  11.00000  0.05    0.07 
Q19   1   0.4288  0.7372  0.7408  11.00000  0.05    0.07 
Q20   1   0.4401  0.6209  0.6660  11.00000  0.05    0.07 
;
_shelx_res_checksum              36474
_shelx_hkl_file
; 
  -1   0   0   21.15    0.91 
   1   0   0   19.65    0.96 
   3   0   0  339.92   11.59 
   3   0   0  339.41   11.86 
   4   0   0  361.55   12.75 
   4   0   0  361.29   12.19 
   4   0   0  365.49   12.20 
   4   0   0  353.95   12.33 
  -5   0   0    0.68    0.37 
  -5   0   0    1.31    0.29 
  -5   0   0    0.96    0.29 
   5   0   0    0.96    0.13 
   6   0   0  287.15    9.92 
  -7   0   0    0.65    0.18 
  -7   0   0    0.53    0.16 
  -8   0   0  132.52    4.70 
  -8   1   0   64.91    2.40 
  -8   1   0   66.43    2.57 
  -8   1   0   62.65    2.57 
  -7   1   0    7.16    0.59 
  -7   1   0    6.59    0.44 
  -7   1   0    6.05    0.53 
  -7   1   0    6.95    0.53 
   6  -1   0   30.84    1.40 
  -6   1   0   31.82    1.53 
  -6   1   0   32.60    1.64 
  -6   1   0   28.65    1.47 
  -6   1   0   30.47    1.59 
   5  -1   0   30.78    1.36 
  -5   1   0   31.37    1.54 
  -5   1   0   31.63    1.59 
  -5   1   0   32.01    1.44 
  -5   1   0   30.89    1.57 
   4  -1   0   38.01    1.65 
   4  -1   0   37.64    1.51 
   3  -1   0  124.55    4.64 
   3  -1   0  131.83    4.51 
   3  -1   0  123.52    4.56 
   3  -1   0  124.71    4.56 
   3  -1   0  128.45    4.65 
  -3  -1   0  137.83    5.05 
   3   1   0  128.22    4.63 
   4   1   0   33.79    1.82 
  -5  -1   0   29.02    1.54 
   5   1   0   32.99    1.23 
   5   1   0   32.39    1.24 
  -6  -1   0   29.09    1.51 
  -6  -1   0   29.31    1.51 
   6   1   0   29.52    1.13 
  -7  -1   0    6.33    0.54 
  -7  -1   0    6.28    0.52 
  -8   2   0   21.55    0.97 
  -8   2   0   18.14    0.93 
  -7   2   0   38.58    1.63 
  -7   2   0   40.71    1.74 
  -7   2   0   37.25    1.76 
  -7   2   0   39.63    1.83 
   6  -2   0  116.24    4.54 
  -6   2   0  117.32    4.57 
  -6   2   0  121.15    4.69 
  -6   2   0  121.85    4.73 
  -6   2   0  122.57    4.51 
   5  -2   0  144.35    5.18 
  -5   2   0  139.10    5.30 
  -5   2   0  138.74    5.19 
  -5   2   0  138.32    5.14 
  -5   2   0  132.50    5.28 
   4  -2   0   66.16    2.77 
   3  -2   0  301.87   10.21 
   3  -2   0  274.14   10.34 
   3  -2   0  307.57   10.24 
   2  -2   0   22.44    0.98 
   2  -2   0   20.82    0.96 
  -2   2   0   20.32    1.05 
  -2   2   0   22.21    1.03 
  -2  -2   0   21.50    1.14 
   2   2   0   21.29    0.86 
   2   2   0   19.44    0.88 
  -3  -2   0  308.09   10.82 
   3   2   0  299.78   10.22 
   3   2   0  289.84   10.26 
  -4  -2   0   69.80    3.18 
   4   2   0   66.72    2.64 
   4   2   0   65.96    2.47 
  -5  -2   0  138.13    5.51 
  -5  -2   0  131.25    5.04 
   5   2   0  131.64    4.74 
  -6  -2   0  115.73    4.66 
  -6  -2   0  107.14    4.27 
  -6  -2   0  112.78    4.25 
   6   2   0  105.50    3.93 
  -7  -2   0   35.92    1.64 
  -7  -2   0   38.86    1.99 
  -7   3   0   27.12    1.44 
  -7   3   0   31.98    1.39 
  -7   3   0   29.52    1.45 
  -7   3   0   30.59    1.43 
  -6   3   0   44.87    2.06 
  -6   3   0   47.21    2.21 
  -6   3   0   47.02    2.17 
  -6   3   0   48.80    2.07 
   5  -3   0  132.62    5.09 
  -5   3   0  132.97    4.97 
  -5   3   0  132.28    5.13 
  -5   3   0  130.95    5.11 
  -5   3   0  132.00    4.99 
   4  -3   0   65.25    2.70 
  -4   3   0   61.25    2.57 
  -4   3   0   62.82    2.71 
  -4   3   0   64.26    2.60 
  -4   3   0   62.42    2.69 
   3  -3   0   66.69    2.69 
   3  -3   0   68.51    2.76 
   2  -3   0  499.19   17.04 
  -2   3   0  488.56   17.29 
   1  -3   0  235.61    8.37 
   1  -3   0  241.82    8.28 
  -1   3   0  229.86    8.40 
  -1   3   0  232.71    8.57 
   0   3   0    0.08    0.08 
  -1  -3   0  242.48    8.45 
   1   3   0  241.11    8.19 
   1   3   0  212.86    8.58 
  -3  -3   0   64.43    3.05 
   3   3   0   65.54    2.83 
   3   3   0   66.75    2.56 
  -4  -3   0   66.20    3.27 
  -4  -3   0   60.61    3.03 
   4   3   0   62.57    2.73 
   4   3   0   62.79    2.50 
  -5  -3   0  129.47    4.78 
  -5  -3   0  128.54    5.38 
  -5  -3   0  124.59    4.91 
   5   3   0  127.85    4.73 
  -6  -3   0   42.71    1.95 
  -6  -3   0   43.17    2.29 
  -7  -3   0   26.53    1.47 
  -7   4   0    4.33    0.36 
  -7   4   0    4.42    0.35 
  -7   4   0    3.93    0.38 
  -7   4   0    4.04    0.37 
  -6   4   0   76.50    3.03 
  -6   4   0   79.25    3.18 
  -6   4   0   74.24    3.02 
  -6   4   0   75.03    3.13 
   5  -4   0    4.19    0.53 
  -5   4   0    4.06    0.48 
  -5   4   0    4.46    0.44 
  -5   4   0    3.63    0.43 
  -5   4   0    4.06    0.49 
   4  -4   0    6.05    0.60 
  -4   4   0    5.05    0.54 
  -4   4   0    4.61    0.46 
  -4   4   0    4.59    0.52 
  -4   4   0    4.68    0.46 
   3  -4   0  211.22    7.66 
  -3   4   0  209.98    7.49 
  -3   4   0  200.42    7.61 
   2  -4   0   30.95    1.58 
   2  -4   0   29.77    1.52 
   1  -4   0  563.36   20.14 
   1  -4   0  586.87   20.37 
  -1   4   0  617.72   20.79 
  -1   4   0  571.19   20.43 
  -1  -4   0  620.66   21.80 
   1   4   0  616.52   21.46 
   1   4   0  625.30   21.87 
  -2  -4   0   28.63    1.79 
   2   4   0   29.66    1.51 
   2   4   0   32.31    1.82 
  -3  -4   0  215.85    8.82 
  -3  -4   0  252.96    9.75 
   3   4   0  221.56    8.23 
   3   4   0  218.03    8.60 
  -4  -4   0    4.41    0.46 
  -4  -4   0    4.99    0.72 
  -4  -4   0    3.68    0.51 
   4   4   0    4.91    0.52 
  -5  -4   0    4.62    0.44 
  -5  -4   0    4.20    0.65 
  -5  -4   0    3.39    0.47 
   5   4   0    3.61    0.44 
  -6  -4   0   67.71    2.73 
  -6  -4   0   67.48    2.61 
  -6  -4   0   67.28    3.14 
  -7  -4   0    3.85    0.44 
  -6   5   0   17.83    0.93 
  -6   5   0   18.72    1.01 
  -6   5   0   18.46    1.01 
  -6   5   0   18.27    0.95 
  -5   5   0   37.39    1.77 
  -5   5   0   40.28    2.05 
  -4   5   0    2.06    0.38 
  -4   5   0    1.62    0.31 
  -4   5   0    1.27    0.26 
   3  -5   0   53.38    2.53 
  -3   5   0   52.98    2.39 
  -3   5   0   52.65    2.29 
  -3   5   0   53.86    2.46 
  -3   5   0   52.95    2.21 
   2  -5   0  140.96    5.23 
  -2   5   0  116.54    5.01 
  -2   5   0  113.16    4.96 
  -2   5   0  128.72    4.67 
  -2   5   0  116.93    4.72 
   1  -5   0   35.24    1.78 
   1  -5   0   38.58    2.09 
   0  -5   0    0.26    0.21 
   0   5   0    0.11    0.24 
  -1  -5   0   34.03    1.62 
  -1  -5   0   32.82    2.08 
   1   5   0   33.30    2.17 
  -2  -5   0  125.75    5.00 
  -2  -5   0  136.24    5.44 
  -2  -5   0  131.04    4.98 
   2   5   0  126.09    5.22 
  -3  -5   0   53.26    2.40 
  -3  -5   0   53.62    2.79 
  -3  -5   0   53.42    2.35 
  -4  -5   0    3.01    0.50 
  -4  -5   0    2.26    0.33 
  -4  -5   0    2.62    0.52 
   4   5   0    3.57    0.52 
  -5  -5   0   40.27    2.72 
  -5  -5   0   35.49    1.66 
  -5  -5   0   35.39    1.73 
  -6  -5   0   17.13    1.16 
  -6  -5   0   16.99    0.82 
   6  -6   0    5.58    0.41 
  -6   6   0    4.98    0.35 
  -6   6   0    4.94    0.30 
  -6   6   0    5.71    0.42 
   5  -6   0    5.04    0.48 
  -5   6   0    5.27    0.46 
  -5   6   0    5.58    0.46 
  -5   6   0    5.54    0.38 
   4  -6   0   85.47    3.59 
  -4   6   0   83.39    3.41 
  -4   6   0   82.05    3.21 
  -4   6   0   88.88    4.00 
  -4   6   0   87.80    3.40 
   3  -6   0   92.15    3.64 
  -3   6   0   84.75    3.52 
  -3   6   0   90.46    3.70 
  -3   6   0   90.08    3.50 
  -3   6   0   83.75    3.54 
   2  -6   0   61.48    2.61 
  -2   6   0   57.23    2.76 
   1  -6   0  392.64   13.04 
   1  -6   0  394.60   13.21 
  -1   6   0  366.44   13.01 
  -1   6   0  337.50   13.16 
  -1   6   0  378.05   13.19 
   0  -6   0   26.86    1.41 
   0  -6   0   26.30    1.40 
  -1  -6   0  401.77   13.84 
  -1  -6   0  382.98   13.83 
  -2  -6   0   61.16    2.61 
   2   6   0   57.74    3.06 
  -3  -6   0   86.11    3.59 
  -3  -6   0   90.01    3.56 
  -3  -6   0   87.42    3.98 
   3   6   0   86.60    4.05 
  -4  -6   0   85.22    3.43 
  -4  -6   0   83.64    3.37 
  -4  -6   0   84.59    3.84 
  -5  -6   0    5.43    0.48 
  -5  -6   0    5.62    0.51 
  -5  -6   0    5.57    0.65 
  -6  -6   0    4.90    0.48 
   5  -7   0   34.06    1.43 
   5  -7   0   32.12    1.32 
  -5   7   0   34.40    1.40 
   4  -7   0   20.19    1.08 
  -4   7   0   19.63    0.98 
  -4   7   0   21.64    1.07 
   3  -7   0    0.58    0.19 
   3  -7   0    0.48    0.17 
  -3   7   0    0.67    0.20 
  -3   7   0    0.61    0.17 
   2  -7   0  114.80    4.05 
  -2   7   0  102.47    4.05 
  -2   7   0  107.36    4.15 
   1  -7   0   18.52    1.14 
  -1   7   0   19.69    1.14 
   0  -7   0   -0.06    0.11 
   0   7   0   -0.13    0.13 
  -1  -7   0   18.64    1.14 
   1   7   0   18.21    1.17 
  -2  -7   0  109.16    4.25 
  -2  -7   0  106.59    4.40 
  -3  -7   0    1.05    0.28 
  -3  -7   0    0.81    0.20 
  -3  -7   0    0.50    0.23 
  -4  -7   0   18.89    1.02 
  -4  -7   0   19.74    1.19 
   4   7   0   15.24    1.29 
  -5  -7   0   22.88    1.57 
   5   7   0   30.24    1.23 
   3  -8   0   11.20    0.67 
  -3   8   0   10.82    0.54 
   2  -8   0    7.96    0.59 
  -2   8   0    7.17    0.56 
   1  -8   0   12.44    0.81 
  -1   8   0   11.80    0.74 
   0  -8   0   35.41    1.71 
   0   8   0   38.40    1.73 
  -1  -8   0   14.02    1.01 
   1   8   0   13.27    0.85 
  -2  -8   0    7.12    0.54 
   2   8   0    8.83    0.67 
   3   8   0   12.11    0.74 
   3   8  -1    7.89    0.57 
   2   8  -1   26.58    1.32 
   1   8  -1    3.91    0.45 
  -1  -8   1    3.96    0.39 
   0  -8   1    6.53    0.56 
  -1   8  -1    1.79    0.28 
   1  -8   1    1.41    0.28 
  -2   8  -1    2.69    0.29 
   2  -8   1    2.85    0.33 
  -3   8  -1    1.01    0.16 
   3  -8   1    1.30    0.20 
   5   7  -1    9.42    0.70 
  -4  -7   1   18.32    1.12 
  -4  -7   1   20.68    1.25 
  -3  -7   1   76.48    3.40 
  -3  -7   1   78.11    3.13 
  -2  -7   1   50.82    2.35 
  -2  -7   1   46.49    2.32 
  -2  -7   1   47.21    2.12 
  -1  -7   1   36.17    1.76 
  -1  -7   1   35.97    1.75 
   0   7  -1    0.36    0.23 
  -1   7  -1  115.90    4.69 
   1  -7   1  122.99    4.63 
  -2   7  -1   29.92    1.46 
   2  -7   1   31.45    1.54 
  -3   7  -1    0.71    0.18 
   3  -7   1    0.51    0.17 
  -4   7  -1   17.54    1.04 
  -4   7  -1   21.27    1.01 
   4  -7   1   22.11    1.15 
  -5   7  -1   12.23    0.70 
   5  -7   1   14.38    0.98 
  -6  -6   1   13.59    0.88 
  -6  -6   1   13.49    0.63 
  -5  -6   1   16.81    0.93 
  -5  -6   1   17.34    1.24 
  -4  -6   1   81.46    3.69 
  -4  -6   1   73.80    3.22 
   3   6  -1    2.85    0.62 
  -3  -6   1    4.12    0.63 
  -3  -6   1    3.20    0.42 
  -3  -6   1    2.73    0.43 
   2   6  -1  130.84    5.75 
  -2  -6   1  132.71    4.98 
  -2  -6   1  121.87    5.98 
   1   6  -1  252.21   11.11 
  -1  -6   1  241.85    8.76 
  -1  -6   1  232.24    8.72 
   0   6  -1   29.88    1.42 
   0  -6   1   31.17    1.54 
   0  -6   1   30.71    1.53 
  -1   6  -1   12.34    0.83 
  -1   6  -1   11.52    0.79 
   1  -6   1   13.67    0.87 
  -2   6  -1  303.14   10.52 
  -2   6  -1  253.09   11.09 
   2  -6   1  331.01   10.67 
  -3   6  -1   28.85    1.47 
  -3   6  -1   28.22    1.58 
  -3   6  -1   30.09    1.49 
  -4   6  -1  119.56    4.63 
  -4   6  -1  118.57    4.32 
  -4   6  -1  114.29    4.47 
  -4   6  -1  119.13    4.49 
  -5   6  -1   97.83    3.65 
  -5   6  -1   88.56    3.37 
  -5   6  -1   93.57    3.58 
  -5   6  -1   91.30    3.52 
  -6   6  -1    2.21    0.21 
  -6   6  -1    2.08    0.29 
   6  -6   1    2.19    0.29 
  -6  -5   1   58.88    2.77 
  -6  -5   1   61.37    2.37 
  -5  -5   1   64.19    3.83 
   4   5  -1   74.92    3.42 
  -4  -5   1   77.21    3.70 
  -4  -5   1   75.20    3.10 
  -4  -5   1   72.22    3.07 
   3   5  -1   98.10    4.93 
  -3  -5   1  102.62    4.58 
  -3  -5   1   98.91    3.99 
  -3  -5   1  104.96    4.02 
   2   5  -1   16.68    1.24 
   2   5  -1   16.65    1.45 
  -2  -5   1   17.46    1.05 
  -2  -5   1   16.26    1.31 
   1   5  -1   58.29    3.18 
  -1  -5   1   57.10    2.96 
  -1  -5   1   55.76    2.44 
   0   5  -1    1.28    0.47 
   0  -5   1    2.10    0.42 
  -1   5  -1  292.91   12.32 
   1  -5   1  403.50   12.76 
  -2   5  -1   19.21    1.22 
  -2   5  -1   20.87    1.11 
  -2   5  -1   19.27    1.15 
   2  -5   1   21.65    1.30 
  -3   5  -1   42.24    2.00 
  -3   5  -1   42.94    1.92 
  -3   5  -1   41.00    1.82 
  -3   5  -1   41.66    2.06 
   3  -5   1   40.14    2.11 
  -4   5  -1   31.85    1.45 
  -4   5  -1   29.43    1.50 
  -4   5  -1   27.11    1.52 
  -4   5  -1   28.51    1.59 
  -5   5  -1   36.74    1.66 
  -5   5  -1   36.43    1.81 
  -5   5  -1   36.61    1.71 
  -5   5  -1   37.92    1.80 
  -6   5  -1   17.55    0.89 
  -6   5  -1   17.93    1.04 
  -6   5  -1   17.87    1.31 
  -7  -4   1   11.80    0.81 
  -6  -4   1    3.03    0.50 
  -6  -4   1    3.39    0.37 
   5   4  -1   64.50    2.86 
  -5  -4   1   67.77    2.76 
  -5  -4   1   65.24    3.29 
   4   4  -1   52.71    2.50 
  -4  -4   1   54.70    2.87 
  -4  -4   1   52.82    2.32 
   3   4  -1   18.13    1.30 
   3   4  -1   17.52    1.09 
  -3  -4   1   16.49    1.31 
  -3  -4   1   17.65    1.01 
   2   4  -1   57.58    2.55 
   2   4  -1   60.55    2.86 
  -2  -4   1   56.33    2.86 
   1   4  -1  187.05    7.02 
   1   4  -1  176.97    6.65 
  -1  -4   1  169.80    6.81 
   0   4  -1  495.74   16.86 
   0   4  -1  473.56   17.08 
   0  -4   1  459.89   16.75 
  -1   4  -1  897.10   31.92 
   2  -4   1  252.98    8.89 
   2  -4   1  245.37    8.96 
  -3   4  -1   62.61    2.60 
  -3   4  -1   63.46    2.77 
   3  -4   1   63.73    2.75 
  -4   4  -1  245.87    9.15 
  -4   4  -1  255.26    9.01 
  -4   4  -1  260.39    9.16 
  -4   4  -1  241.02    8.94 
  -5   4  -1    5.51    0.58 
  -5   4  -1    5.46    0.51 
  -5   4  -1    4.45    0.54 
  -5   4  -1    4.58    0.49 
   5  -4   1    4.45    0.73 
  -6   4  -1    3.70    0.38 
  -6   4  -1    3.88    0.40 
  -6   4  -1    3.99    0.46 
  -6   4  -1    3.91    0.46 
  -7   4  -1   11.08    0.67 
  -7   4  -1   11.34    0.59 
  -7   4  -1   10.96    0.63 
  -7   4  -1   12.54    0.71 
  -7  -3   1    0.29    0.27 
  -6  -3   1  225.80    8.12 
  -6  -3   1  231.04    8.73 
   5   3  -1   48.26    2.08 
  -5  -3   1   50.85    2.67 
  -5  -3   1   49.49    2.17 
   4   3  -1    2.26    0.28 
  -4  -3   1    2.94    0.52 
   3   3  -1  162.49    5.87 
   3   3  -1  164.43    6.15 
  -3  -3   1  161.58    6.48 
   2   3  -1    9.45    0.60 
   2   3  -1    9.19    0.73 
  -2  -3   1    8.28    0.78 
   1   3  -1  231.63    8.27 
   1   3  -1  225.88    8.00 
  -1  -3   1  219.54    8.18 
  -1   3  -1  453.68   15.82 
  -1   3  -1  455.11   16.21 
  -2   3  -1   26.89    1.22 
   2  -3   1   25.16    1.17 
   2  -3   1   29.98    1.32 
   3  -3   1    9.79    0.68 
  -4   3  -1   56.19    2.42 
  -4   3  -1   59.14    2.57 
  -4   3  -1   56.60    2.52 
  -4   3  -1   59.37    2.44 
   4  -3   1   57.47    2.49 
  -5   3  -1   20.20    1.15 
  -5   3  -1   20.26    1.24 
  -5   3  -1   19.94    1.13 
  -5   3  -1   19.88    1.24 
   5  -3   1   19.92    1.20 
  -6   3  -1  181.26    6.71 
  -6   3  -1  176.69    6.49 
  -6   3  -1  179.99    6.72 
  -6   3  -1  176.02    6.55 
  -7   3  -1    5.03    0.48 
  -7   3  -1    5.01    0.43 
  -7   3  -1    4.57    0.36 
  -7   3  -1    4.54    0.47 
  -7  -2   1    0.53    0.22 
  -6  -2   1    5.46    0.51 
  -6  -2   1    5.80    0.70 
   5   2  -1   32.52    1.35 
  -5  -2   1   34.02    1.97 
  -5  -2   1   35.24    2.10 
   4   2  -1   97.82    4.26 
   4   2  -1   99.02    3.55 
   4   2  -1   93.65    3.39 
   4   2  -1   88.53    3.44 
  -4  -2   1   98.47    4.20 
   3   2  -1   27.87    1.18 
   3   2  -1   27.06    1.10 
   3   2  -1   28.61    1.29 
  -3  -2   1   27.72    1.57 
   2   2  -1  159.69    5.71 
   2   2  -1  162.69    5.51 
   2   2  -1  145.86    5.50 
  -2  -2   1  163.91    5.90 
  -1   2  -1  273.20    9.17 
  -1   2  -1  268.42    9.43 
  -1   2  -1  257.27    9.28 
   1  -2   1  267.50    9.50 
  -2   2  -1  249.40    9.31 
  -2   2  -1  261.07    8.99 
   2  -2   1  276.19    9.18 
   2  -2   1  254.69    9.50 
   2  -2   1  278.42    9.00 
   3  -2   1  213.90    7.44 
   3  -2   1  207.61    7.92 
   4  -2   1    3.19    0.34 
  -5   2  -1  136.98    5.04 
  -5   2  -1  140.73    5.27 
  -5   2  -1  132.69    5.11 
  -5   2  -1  131.79    5.24 
   5  -2   1  133.97    5.07 
  -6   2  -1   27.25    1.32 
  -6   2  -1   27.20    1.49 
  -6   2  -1   27.68    1.42 
  -6   2  -1   26.39    1.50 
   6  -2   1   26.47    1.40 
  -7   2  -1    6.45    0.57 
  -7   2  -1    6.51    0.51 
  -7   2  -1    5.82    0.56 
  -7   2  -1    6.27    0.45 
  -8   2  -1    2.60    0.24 
  -8   2  -1    2.62    0.26 
  -8   2  -1    3.00    0.25 
  -6  -1   1  778.94   25.28 
  -6  -1   1  659.78   25.91 
  -6  -1   1  729.60   24.95 
   5   1  -1  229.53    8.96 
   4   1  -1   52.91    2.61 
   1   1  -1  126.22    4.55 
   1   1  -1  133.53    4.78 
   1   1  -1  138.68    4.59 
  -1   1  -1   49.03    1.92 
   4  -1   1   49.51    2.26 
   4  -1   1   47.57    1.91 
  -5   1  -1  136.70    4.94 
  -5   1  -1  130.63    5.02 
  -5   1  -1  132.84    5.13 
  -5   1  -1  131.43    5.17 
   5  -1   1  136.93    4.92 
  -6   1  -1    2.27    0.37 
  -6   1  -1    2.38    0.38 
  -6   1  -1    2.59    0.35 
  -6   1  -1    2.44    0.42 
   6  -1   1    2.70    0.33 
  -7   1  -1   48.15    2.18 
  -7   1  -1   49.17    2.21 
  -7   1  -1   51.65    2.12 
  -8   1  -1   72.94    2.76 
  -8   1  -1   69.42    2.59 
  -8   1  -1   69.59    2.64 
  -7   0   1    0.43    0.13 
  -7   0   1    0.47    0.16 
  -7   0   1    0.41    0.18 
   6   0  -1    4.03    0.28 
  -6   0   1    5.99    0.45 
  -6   0   1    5.39    0.53 
  -6   0   1    5.31    0.54 
   5   0  -1  938.23   30.58 
   5   0  -1  875.43   31.55 
   5   0  -1  907.20   30.61 
   4   0  -1    0.49    0.19 
   3   0  -1  130.06    4.93 
   2   0  -1   29.05    1.04 
   2   0  -1   28.52    1.28 
   2   0  -1   25.16    1.32 
   0   0  -1   16.84    0.68 
   0   0  -1   17.98    0.64 
   0   0  -1   15.36    0.64 
   0   0   1   14.84    0.60 
   0   0   1   15.46    0.67 
   0   0   1   14.66    0.64 
   4   0   1    0.48    0.15 
   4   0   1    0.19    0.10 
   4   0   1    0.20    0.07 
   4   0   1    0.27    0.10 
  -5   0  -1    2.82    0.45 
  -5   0  -1    2.16    0.35 
  -5   0  -1    2.35    0.59 
   5   0   1    2.05    0.25 
   5   0   1    3.04    0.32 
  -6   0  -1   11.53    0.78 
  -6   0  -1   10.91    0.86 
  -6   0  -1   11.24    0.85 
  -7   0  -1    0.12    0.11 
  -7   0  -1    0.32    0.16 
  -7   0  -1    0.17    0.12 
  -8   0  -1   17.94    0.85 
  -8   0  -1   17.20    0.83 
  -8   1   1   15.58    0.96 
  -8   1   1   19.28    0.82 
  -7   1   1   22.03    1.14 
  -7   1   1   22.63    1.19 
  -7   1   1   22.20    1.05 
  -7   1   1   23.71    1.14 
   6  -1  -1  695.46   24.53 
  -6   1   1  731.36   24.65 
  -6   1   1  725.21   24.84 
  -6   1   1  731.68   24.72 
   5  -1  -1  250.53    8.64 
  -5   1   1  241.43    8.86 
  -5   1   1  248.94    8.78 
  -5   1   1  247.64    8.73 
   4  -1  -1   52.79    2.33 
   4  -1  -1   51.11    2.05 
   4  -1  -1   52.74    2.00 
  -1   1   1  113.44    4.09 
   4   1   1   50.99    1.92 
   4   1   1   47.19    2.04 
   4   1   1   48.86    2.29 
   4   1   1   48.93    1.87 
  -5  -1  -1  139.44    5.22 
  -5  -1  -1  129.51    4.77 
  -5  -1  -1  127.33    5.03 
  -5  -1  -1  128.63    5.10 
   5   1   1  119.70    4.57 
   5   1   1  119.14    4.55 
  -6  -1  -1    2.81    0.41 
  -6  -1  -1    2.18    0.37 
  -6  -1  -1    2.49    0.49 
  -6  -1  -1    2.20    0.35 
   6   1   1    2.22    0.26 
  -7  -1  -1   49.44    1.97 
  -7  -1  -1   48.78    2.15 
  -7  -1  -1   48.83    2.14 
  -8  -1  -1   68.23    2.63 
  -8   2   1   30.07    1.28 
  -8   2   1   33.18    1.35 
  -7   2   1    0.53    0.19 
  -7   2   1    1.47    0.28 
  -7   2   1    1.03    0.22 
   6  -2  -1    6.15    0.54 
  -6   2   1    6.94    0.56 
  -6   2   1    5.92    0.58 
  -6   2   1    6.35    0.60 
  -6   2   1    7.58    0.60 
   5  -2  -1   34.49    1.61 
  -5   2   1   32.91    1.66 
  -5   2   1   32.53    1.63 
  -5   2   1   36.04    1.60 
  -5   2   1   33.57    1.58 
   4  -2  -1  101.53    4.09 
   4  -2  -1  102.32    4.01 
   3  -2  -1   27.80    1.40 
   3  -2  -1   32.01    1.34 
   2  -2  -1  170.64    5.80 
   2  -2  -1  156.20    5.93 
  -2   2   1  164.08    5.91 
   2   2   1  263.44    9.02 
   2   2   1  260.56    9.26 
  -3  -2  -1  216.80    7.94 
   3   2   1  218.52    7.78 
   3   2   1  210.01    7.47 
   4   2   1    2.82    0.28 
   4   2   1    3.30    0.39 
  -5  -2  -1  131.55    5.09 
  -5  -2  -1  121.50    4.99 
  -5  -2  -1  134.50    5.40 
   5   2   1  137.24    4.81 
  -6  -2  -1   24.44    1.34 
  -6  -2  -1   22.98    1.49 
  -6  -2  -1   23.91    1.36 
   6   2   1   25.90    1.20 
  -7  -2  -1    6.37    0.54 
  -7  -2  -1    6.18    0.52 
  -7  -2  -1    5.14    0.61 
  -7   3   1    0.04    0.09 
  -7   3   1    0.20    0.11 
  -7   3   1    0.18    0.15 
  -7   3   1    0.26    0.13 
  -6   3   1  250.24    8.81 
  -6   3   1  241.56    8.87 
  -6   3   1  249.73    8.95 
  -6   3   1  245.51    8.81 
   5  -3  -1   50.69    2.32 
  -5   3   1   50.62    2.17 
  -5   3   1   49.75    2.29 
  -5   3   1   48.58    2.23 
  -5   3   1   51.45    2.19 
  -4   3   1    3.52    0.36 
  -4   3   1    4.29    0.43 
   3  -3  -1  156.29    5.81 
   3  -3  -1  153.84    5.72 
   2  -3  -1   10.39    0.73 
   2  -3  -1   11.91    0.71 
  -2   3   1    9.15    0.78 
   1  -3  -1  213.37    7.76 
   1  -3  -1  216.99    7.92 
  -1   3   1  231.23    8.11 
  -1   3   1  216.60    7.81 
  -2  -3  -1   23.34    1.81 
   2   3   1   27.87    1.23 
   2   3   1   26.30    1.63 
  -3  -3  -1   12.41    1.01 
   3   3   1   10.61    0.69 
  -4  -3  -1   58.04    2.89 
  -4  -3  -1   57.15    2.57 
  -4  -3  -1   60.74    3.14 
   4   3   1   59.48    2.44 
  -5  -3  -1   17.88    1.11 
  -5  -3  -1   20.25    1.43 
  -5  -3  -1   19.08    1.19 
   5   3   1   19.68    1.07 
  -6  -3  -1  160.05    6.35 
  -6  -3  -1  161.74    6.05 
  -7  -3  -1    4.00    0.46 
  -7  -3  -1    4.39    0.40 
  -7   4   1   12.74    0.69 
  -7   4   1   13.33    0.70 
  -7   4   1   13.95    0.77 
  -7   4   1   13.43    0.70 
  -6   4   1    2.83    0.35 
  -6   4   1    3.08    0.41 
  -6   4   1    2.48    0.33 
  -6   4   1    2.34    0.35 
   5  -4  -1   71.36    3.13 
  -5   4   1   68.58    2.94 
  -5   4   1   70.28    2.84 
  -5   4   1   70.78    2.99 
  -5   4   1   68.50    2.86 
   4  -4  -1   54.56    2.51 
  -4   4   1   54.01    2.38 
  -4   4   1   53.35    2.27 
  -4   4   1   50.26    2.20 
  -4   4   1   52.90    2.36 
   3  -4  -1   17.03    1.18 
   3  -4  -1   18.69    1.15 
  -3   4   1   19.19    1.09 
  -3   4   1   17.32    1.21 
  -3   4   1   19.67    1.10 
   2  -4  -1   55.55    2.60 
   2  -4  -1   56.15    2.46 
   1  -4  -1  171.56    6.39 
   1  -4  -1  174.19    6.66 
  -1   4   1  176.59    6.90 
   0  -4  -1  456.22   15.82 
   0   4   1  450.75   15.55 
   0   4   1  424.86   15.91 
  -2  -4  -1  260.38   10.00 
   2   4   1  267.54    9.48 
  -3  -4  -1   61.33    3.05 
  -3  -4  -1   66.57    2.77 
   3   4   1   63.62    3.12 
   3   4   1   64.88    2.76 
  -4  -4  -1  249.64    9.00 
  -4  -4  -1  247.42    9.22 
  -4  -4  -1  253.59    9.66 
   4   4   1  261.12    9.22 
  -5  -4  -1    6.13    0.74 
  -5  -4  -1    4.31    0.53 
  -5  -4  -1    4.78    0.44 
  -6  -4  -1    3.15    0.41 
  -6  -4  -1    3.67    0.54 
  -7  -4  -1    7.88    0.68 
  -7  -4  -1    9.02    0.64 
  -6   5   1   66.46    2.65 
  -6   5   1   67.16    2.72 
  -6   5   1   67.93    2.61 
  -6   5   1   69.40    2.83 
  -5   5   1   64.14    2.98 
  -5   5   1   57.56    2.98 
  -5   5   1   69.26    3.02 
   4  -5  -1   76.79    3.50 
  -4   5   1   80.41    3.12 
  -4   5   1   81.76    3.31 
  -4   5   1   82.95    3.32 
  -4   5   1   74.79    3.65 
  -4   5   1   79.43    3.19 
   3  -5  -1  101.47    4.31 
  -3   5   1  106.21    4.15 
  -3   5   1  104.95    3.99 
  -3   5   1  103.15    4.06 
  -3   5   1  101.66    3.90 
  -3   5   1  104.49    4.12 
   2  -5  -1   15.84    1.10 
   2  -5  -1   15.90    1.26 
   2  -5  -1   17.04    1.01 
  -2   5   1   16.05    0.90 
  -2   5   1   15.39    1.01 
  -2   5   1   16.58    0.99 
  -2   5   1   18.15    1.08 
   1  -5  -1   54.73    2.33 
   1  -5  -1   55.98    2.84 
  -1   5   1   54.54    2.66 
   0   5   1    1.09    0.37 
   0   5   1    0.94    0.36 
  -1  -5  -1  376.06   14.60 
  -1  -5  -1  421.42   14.65 
   1   5   1  421.59   15.62 
   1   5   1  460.44   15.53 
  -2  -5  -1   22.04    1.21 
  -2  -5  -1   21.94    1.25 
   2   5   1   23.23    1.44 
   2   5   1   21.91    1.71 
  -3  -5  -1   42.11    2.03 
  -3  -5  -1   41.09    1.91 
  -3  -5  -1   40.78    2.31 
   3   5   1   43.59    2.20 
  -4  -5  -1   29.11    1.47 
  -4  -5  -1   29.07    1.63 
  -4  -5  -1   33.20    1.97 
   4   5   1   30.68    1.77 
  -5  -5  -1   34.34    1.55 
  -5  -5  -1   35.95    1.74 
  -5  -5  -1   34.32    2.00 
  -6  -5  -1   16.14    0.88 
  -6  -5  -1   17.42    1.20 
  -6   6   1   14.04    0.69 
  -6   6   1   14.32    0.72 
  -6   6   1   13.83    0.62 
   5  -6  -1   17.10    0.96 
  -5   6   1   15.95    0.82 
  -5   6   1   17.74    0.91 
  -5   6   1   15.89    0.91 
   4  -6  -1   80.73    3.28 
  -4   6   1   82.58    3.17 
  -4   6   1   75.04    3.01 
  -4   6   1   81.69    3.25 
   3  -6  -1    3.88    0.45 
  -3   6   1    3.74    0.44 
  -3   6   1    3.61    0.40 
  -3   6   1    3.88    0.48 
   2  -6  -1  128.45    4.71 
  -2   6   1  107.69    4.63 
  -2   6   1  121.68    4.82 
  -2   6   1  124.67    4.75 
   1  -6  -1  243.56    8.40 
   1  -6  -1  231.48    8.49 
  -1   6   1  235.84    8.53 
  -1   6   1  227.32    8.30 
   0  -6  -1   30.12    1.57 
   0  -6  -1   30.78    1.47 
   0   6   1   30.74    1.60 
  -1  -6  -1   12.72    0.91 
  -1  -6  -1   14.18    0.94 
   1   6   1   11.02    1.81 
  -2  -6  -1  320.14   11.55 
  -2  -6  -1  310.95   11.82 
  -2  -6  -1  330.87   11.47 
   2   6   1  326.61   12.12 
  -3  -6  -1   29.50    1.48 
  -3  -6  -1   29.99    1.58 
  -3  -6  -1   28.35    1.77 
   3   6   1   26.95    1.82 
  -4  -6  -1  118.38    4.61 
  -4  -6  -1  118.09    4.45 
  -4  -6  -1  116.16    4.92 
  -5  -6  -1   91.94    3.77 
  -5  -6  -1   89.42    3.42 
   5   6   1   82.71    3.38 
  -6  -6  -1    2.22    0.36 
   5  -7  -1    8.19    0.56 
   5  -7  -1    8.68    0.49 
  -5   7   1    9.70    0.57 
   4  -7  -1   21.08    1.23 
   4  -7  -1   20.44    1.01 
  -4   7   1   20.93    1.04 
  -4   7   1   20.38    0.98 
   3  -7  -1   79.52    3.20 
   3  -7  -1   81.76    3.09 
  -3   7   1   75.09    3.00 
  -3   7   1   78.90    3.09 
   2  -7  -1   49.68    2.50 
   2  -7  -1   49.50    2.06 
  -2   7   1   47.14    1.96 
  -2   7   1   46.82    2.13 
   1  -7  -1   36.31    1.87 
  -1   7   1   40.97    1.89 
   0  -7  -1    0.98    0.25 
   0   7   1    0.35    0.16 
  -1  -7  -1  117.46    4.61 
   1   7   1  115.67    4.58 
  -2  -7  -1   31.60    1.61 
  -2  -7  -1   30.37    1.67 
   2   7   1   29.94    1.59 
  -3  -7  -1    0.50    0.20 
  -3  -7  -1    0.65    0.25 
   3   7   1    0.61    0.20 
  -4  -7  -1   21.41    1.25 
  -4  -7  -1   20.96    1.08 
   4   7   1   22.10    1.13 
  -5  -7  -1   16.11    0.91 
   3  -8  -1    7.72    0.54 
   2  -8  -1   28.60    1.37 
  -2   8   1   26.18    1.24 
   1  -8  -1    4.26    0.45 
   0  -8  -1    5.81    0.54 
   0   8   1    5.96    0.54 
   1   8   1    2.23    0.33 
  -2  -8  -1    3.23    0.36 
   2   8   1    2.97    0.36 
  -3  -8  -1    1.52    0.22 
   3   8   1    1.34    0.23 
   3   8  -2    0.19    0.12 
   2   8  -2    8.97    0.62 
   1   8  -2   17.81    0.96 
   0  -8   2    0.98    0.19 
  -1   8  -2   23.77    1.04 
   1  -8   2   21.99    1.08 
  -2   8  -2   11.04    0.60 
   2  -8   2   10.78    0.62 
  -3   8  -2   16.76    0.76 
   3  -8   2   16.19    0.77 
  -5  -7   2    7.27    0.52 
  -5  -7   2    6.12    0.52 
  -4  -7   2   48.52    2.39 
  -4  -7   2   48.40    2.29 
  -3  -7   2    8.99    0.66 
  -3  -7   2    8.53    0.81 
  -2  -7   2   45.15    2.05 
  -2  -7   2   45.46    2.29 
  -1  -7   2   28.00    1.39 
   0   7  -2    2.69    0.37 
  -1   7  -2   11.34    0.74 
  -1   7  -2   10.67    0.73 
   1  -7   2   10.73    0.75 
  -2   7  -2   43.51    1.93 
   2  -7   2   43.84    1.94 
  -3   7  -2    1.21    0.24 
   3  -7   2    1.23    0.23 
  -4   7  -2   89.79    3.35 
   4  -7   2   88.33    3.35 
  -6  -6   2    7.06    0.59 
  -6  -6   2    6.25    0.40 
  -5  -6   2   39.60    1.72 
  -5  -6   2   37.07    2.05 
  -4  -6   2   52.23    2.30 
  -4  -6   2   51.08    2.73 
   3   6  -2   53.45    3.44 
  -3  -6   2   58.73    3.04 
  -3  -6   2   61.53    2.59 
   2   6  -2  105.47    4.94 
  -2  -6   2  100.50    4.57 
  -2  -6   2  106.14    4.15 
   1   6  -2   50.44    2.13 
   1   6  -2   45.17    3.50 
  -1  -6   2   53.07    2.23 
   0   6  -2  407.39   14.15 
   0  -6   2  399.79   14.18 
   0  -6   2  410.08   14.20 
  -1   6  -2   98.32    3.83 
  -2   6  -2   13.55    0.90 
   2  -6   2   14.06    0.92 
  -3   6  -2    3.27    0.41 
  -3   6  -2    3.98    0.49 
  -4   6  -2   58.60    2.40 
  -4   6  -2   57.31    2.46 
  -4   6  -2   59.87    2.56 
  -5   6  -2   75.16    3.13 
  -5   6  -2   74.71    2.84 
  -6  -5   2    5.39    0.45 
  -6  -5   2    4.95    0.61 
  -5  -5   2   34.29    1.66 
  -5  -5   2   34.12    2.14 
   4   5  -2  364.64   13.63 
  -4  -5   2  368.32   13.81 
  -4  -5   2  375.32   13.06 
   3   5  -2   27.00    1.79 
  -3  -5   2   25.80    1.40 
  -3  -5   2   25.21    1.81 
   2   5  -2  407.84   15.02 
   2   5  -2  422.71   15.38 
  -2  -5   2  394.49   14.99 
  -2  -5   2  413.27   14.36 
   1   5  -2  261.74   10.29 
   1   5  -2  258.97    9.98 
  -1  -5   2  259.04    9.30 
   0   5  -2   78.75    3.16 
   0   5  -2   78.35    3.73 
   0   5  -2   81.23    4.06 
   0  -5   2   75.15    4.42 
  -1   5  -2  165.63    5.61 
  -1   5  -2  133.78    5.60 
  -2   5  -2   12.15    0.92 
  -2   5  -2   14.87    0.88 
  -3   5  -2   95.46    3.62 
  -3   5  -2   96.75    3.90 
  -3   5  -2   91.36    3.75 
  -3   5  -2   89.74    3.76 
   3  -5   2   92.64    3.98 
  -4   5  -2  166.22    6.15 
  -4   5  -2  168.77    6.40 
  -4   5  -2  167.39    6.26 
  -4   5  -2  167.54    6.31 
   4  -5   2  171.79    6.61 
  -5   5  -2   53.24    2.26 
  -5   5  -2   52.02    2.30 
  -5   5  -2   51.34    2.19 
  -5   5  -2   54.58    2.38 
  -6   5  -2    9.54    0.56 
  -6   5  -2    8.74    0.56 
  -6   5  -2    9.22    0.64 
  -6   5  -2   10.14    0.62 
  -7  -4   2   11.85    0.81 
  -7  -4   2   11.67    0.58 
  -6  -4   2    8.81    0.62 
  -6  -4   2    8.59    0.87 
  -5  -4   2   73.45    2.98 
  -5  -4   2   68.10    3.48 
  -4  -4   2   29.69    1.56 
  -4  -4   2   32.76    2.07 
   3   4  -2    1.06    0.52 
   3   4  -2    0.30    0.20 
  -3  -4   2    0.75    0.23 
  -3  -4   2    0.54    0.26 
   2   4  -2    8.90    0.89 
  -2  -4   2    7.91    0.87 
   1   4  -2  532.73   18.19 
   1   4  -2  506.03   18.38 
  -1  -4   2  501.58   18.16 
   0   4  -2  251.43    9.38 
   0   4  -2  243.31    9.12 
   0  -4   2  239.66    8.95 
  -1   4  -2  368.09   13.56 
   1  -4   2  366.21   12.95 
   1  -4   2  371.33   12.96 
   2  -4   2    3.34    0.41 
  -3   4  -2   70.80    2.85 
  -3   4  -2   68.30    3.27 
  -3   4  -2   70.89    2.99 
  -3   4  -2   70.82    2.88 
   3  -4   2   71.13    3.04 
  -4   4  -2  251.24    8.90 
  -4   4  -2  243.57    9.06 
  -4   4  -2  244.85    9.01 
  -4   4  -2  241.37    8.86 
   4  -4   2  252.73    9.11 
  -5   4  -2   71.22    2.91 
  -5   4  -2   71.61    3.07 
  -5   4  -2   67.93    2.90 
  -5   4  -2   70.33    3.04 
  -6   4  -2   53.53    2.22 
  -6   4  -2   51.82    2.25 
  -6   4  -2   56.20    2.40 
  -6   4  -2   55.08    2.38 
  -7   4  -2   15.63    0.82 
  -7   4  -2   15.93    0.78 
  -7   4  -2   15.38    0.82 
  -7   4  -2   17.94    0.74 
  -7  -3   2    4.09    0.51 
  -7  -3   2    5.62    0.39 
  -6  -3   2   38.56    2.16 
  -6  -3   2   37.25    1.73 
   5   3  -2  206.80    7.54 
  -5  -3   2  208.33    7.47 
  -5  -3   2  197.52    8.05 
   4   3  -2   53.46    2.30 
   4   3  -2   49.87    2.67 
  -4  -3   2   53.21    2.79 
  -4  -3   2   54.65    2.31 
   3   3  -2   37.43    1.94 
   3   3  -2   41.09    1.79 
  -3  -3   2   36.90    2.14 
   2   3  -2  147.45    5.48 
   2   3  -2  148.67    5.75 
  -2  -3   2  147.71    5.82 
   1   3  -2  135.98    5.53 
   1   3  -2  145.15    5.41 
  -1  -3   2  146.76    5.46 
   0   3  -2  324.45   11.70 
   0   3  -2  329.77   11.87 
   0  -3   2  324.22   11.42 
   0  -3   2  340.32   11.59 
   3  -3   2  367.36   13.13 
  -4   3  -2  104.24    4.22 
  -4   3  -2  111.11    4.37 
  -4   3  -2  108.96    4.21 
  -4   3  -2  110.59    4.39 
   4  -3   2  113.77    4.34 
  -5   3  -2   90.54    3.76 
  -5   3  -2   87.60    3.62 
  -5   3  -2   89.43    3.75 
  -5   3  -2   95.10    3.59 
   5  -3   2   88.33    3.71 
  -6   3  -2   55.00    2.61 
  -6   3  -2   50.07    2.14 
  -6   3  -2   49.80    2.41 
  -6   3  -2   50.79    2.37 
  -7   3  -2    5.58    0.35 
  -7   3  -2    5.69    0.45 
  -7   3  -2    6.16    0.51 
  -7   3  -2    5.85    0.50 
  -7  -2   2   11.62    1.29 
  -6  -2   2   21.16    1.13 
  -6  -2   2   20.46    1.43 
   5   2  -2   79.19    3.15 
  -5  -2   2   79.97    3.75 
  -5  -2   2   82.09    3.07 
  -5  -2   2   85.27    3.30 
   4   2  -2   83.22    4.08 
   4   2  -2   80.00    3.23 
   4   2  -2   79.97    3.13 
   3   2  -2  305.95   10.63 
   3   2  -2  310.62   10.42 
   3   2  -2  293.23   10.46 
  -3  -2   2  294.45   10.97 
   2   2  -2  309.34   10.77 
   2   2  -2  310.01   10.57 
  -2  -2   2  295.51   10.88 
   1   2  -2  358.68   12.46 
  -1   2  -2  501.87   17.19 
  -2   2  -2   69.04    2.87 
   2  -2   2   66.72    3.11 
   2  -2   2   72.69    2.68 
   3  -2   2  311.71   10.88 
  -4   2  -2   29.96    1.79 
  -4   2  -2   33.41    1.95 
   4  -2   2   34.33    1.56 
  -5   2  -2   54.69    2.44 
  -5   2  -2   56.44    2.58 
  -5   2  -2   55.87    2.55 
  -5   2  -2   55.76    2.34 
   5  -2   2   56.27    2.44 
  -6   2  -2  107.97    4.08 
  -6   2  -2  109.64    4.41 
  -6   2  -2  111.76    4.41 
  -6   2  -2  108.51    4.28 
  -7   2  -2   13.98    0.89 
  -7   2  -2   13.53    0.89 
  -7   2  -2   14.47    0.82 
  -6  -1   2   45.25    2.47 
  -6  -1   2   48.44    1.88 
  -6  -1   2   44.58    2.00 
   5   1  -2  772.69   26.76 
   5   1  -2  790.28   26.73 
  -5  -1   2  834.57   27.90 
  -5  -1   2  823.37   27.13 
  -5  -1   2  738.07   26.89 
   4   1  -2  155.03    6.29 
   4   1  -2  156.43    5.52 
  -1   1  -2  228.42    7.99 
   1  -1   2  233.61    8.28 
  -2   1  -2  426.97   14.11 
   2  -1   2  387.66   14.28 
   4  -1   2   30.95    1.40 
  -5   1  -2   22.16    1.31 
  -5   1  -2   22.96    1.35 
  -5   1  -2   22.81    1.25 
   5  -1   2   22.70    1.18 
  -6   1  -2    5.35    0.58 
  -6   1  -2    5.76    0.61 
  -6   1  -2    5.36    0.54 
  -7   1  -2    5.19    0.52 
  -7   1  -2    4.47    0.48 
  -7   1  -2    4.69    0.44 
  -8   1  -2    0.56    0.12 
  -8   1  -2    0.36    0.09 
  -8   1  -2    0.28    0.11 
  -7   0   2    1.99    0.25 
  -7   0   2    2.02    0.27 
   6   0  -2  482.16   15.93 
  -6   0   2  443.45   16.43 
  -6   0   2  479.62   16.15 
   5   0  -2   42.78    2.41 
   5   0  -2   42.49    1.61 
  -5   0   2   41.75    1.76 
  -5   0   2   39.20    1.82 
   4   0  -2   64.59    2.97 
   4   0  -2   58.92    2.22 
   4   0  -2   61.60    2.24 
   3   0  -2  183.39    6.68 
   3   0  -2  176.17    6.22 
   3   0  -2  170.01    6.04 
   1   0   2  179.27    5.96 
   1   0   2  164.98    6.13 
  -5   0  -2    9.59    0.79 
  -5   0  -2   11.08    0.75 
  -5   0  -2    9.99    0.80 
   5   0   2   10.80    0.70 
  -6   0  -2   38.02    1.92 
  -6   0  -2   39.64    1.97 
  -6   0  -2   38.99    1.83 
  -7   0  -2    5.78    0.47 
  -7   0  -2    5.96    0.54 
  -7   0  -2    4.57    0.50 
  -8   0  -2   20.05    0.92 
  -8   0  -2   19.60    0.91 
  -8   1   2    2.79    0.22 
  -7   1   2   27.96    1.32 
  -7   1   2   26.41    1.22 
  -7   1   2   27.49    1.25 
   6  -1  -2   49.27    2.03 
  -6   1   2   49.85    2.09 
  -6   1   2   47.11    2.14 
  -6   1   2   48.85    2.07 
   5  -1  -2  846.10   28.42 
  -5   1   2  857.86   28.73 
  -5   1   2  806.87   28.55 
  -5   1   2  829.23   29.10 
   4  -1  -2  169.62    5.98 
   4  -1  -2  168.33    6.50 
   1   1   2  249.36    8.55 
   1   1   2  237.28    8.57 
   2   1   2  427.11   14.71 
   4   1   2   29.38    1.31 
  -5  -1  -2   22.42    1.29 
  -5  -1  -2   22.48    1.30 
  -5  -1  -2   22.04    1.41 
  -5  -1  -2   22.47    1.18 
   5   1   2   20.06    1.10 
  -6  -1  -2    5.26    0.57 
  -6  -1  -2    5.95    0.64 
  -6  -1  -2    5.33    0.58 
  -6  -1  -2    6.66    0.55 
  -7  -1  -2    5.17    0.58 
  -7  -1  -2    5.26    0.50 
  -7  -1  -2    5.32    0.51 
  -8  -1  -2    0.50    0.11 
  -8   2   2    3.23    0.23 
  -8   2   2    3.60    0.25 
  -7   2   2   13.71    0.76 
  -7   2   2   13.16    0.75 
  -7   2   2   13.11    0.80 
  -6   2   2   20.83    1.14 
  -6   2   2   22.45    1.16 
  -6   2   2   23.25    1.18 
  -6   2   2   21.59    1.22 
   5  -2  -2   83.15    3.35 
  -5   2   2   83.73    3.26 
  -5   2   2   81.91    3.50 
  -5   2   2   82.02    3.34 
  -5   2   2   84.77    3.27 
   4  -2  -2   75.22    3.00 
   4  -2  -2   76.22    3.27 
   3  -2  -2  293.34   10.92 
   3  -2  -2  320.58   10.73 
   2  -2  -2  308.96   10.61 
  -2   2   2  289.45   10.51 
  -1   2   2  299.21   10.33 
  -2  -2  -2   69.32    3.02 
   2   2   2   72.68    2.76 
   2   2   2   78.18    3.11 
  -3  -2  -2  326.37   11.62 
   3   2   2  327.88   11.65 
   3   2   2  317.30   11.23 
  -4  -2  -2   34.57    1.92 
   4   2   2   33.75    1.55 
  -5  -2  -2   58.31    2.90 
  -5  -2  -2   57.45    2.76 
  -5  -2  -2   54.53    2.49 
  -5  -2  -2   53.78    2.53 
   5   2   2   53.92    2.36 
  -6  -2  -2  106.15    4.19 
  -6  -2  -2  102.25    4.33 
  -6  -2  -2  102.88    4.14 
  -7  -2  -2   12.75    0.83 
  -7  -2  -2   12.64    0.79 
  -7  -2  -2   13.60    0.83 
  -7   3   2    4.02    0.36 
  -7   3   2    4.26    0.37 
  -7   3   2    3.88    0.36 
  -7   3   2    3.68    0.38 
  -6   3   2   40.56    1.82 
  -6   3   2   40.50    1.81 
  -6   3   2   39.54    1.89 
  -6   3   2   41.75    1.82 
   5  -3  -2  202.88    7.67 
  -5   3   2  215.47    7.47 
  -5   3   2  201.61    7.46 
  -5   3   2  206.11    7.54 
  -5   3   2  204.42    7.41 
   4  -3  -2   57.12    2.44 
   4  -3  -2   52.50    2.57 
  -4   3   2   47.48    2.47 
  -4   3   2   55.58    2.25 
  -4   3   2   52.90    2.23 
  -4   3   2   54.89    2.33 
   3  -3  -2   37.91    1.85 
   3  -3  -2   42.89    2.06 
   2  -3  -2  137.96    5.17 
   2  -3  -2  140.52    5.36 
  -2   3   2  138.06    5.43 
   1  -3  -2  138.71    5.27 
   1  -3  -2  140.08    5.09 
  -1   3   2  133.31    5.05 
   0  -3  -2  338.79   11.83 
   0  -3  -2  334.28   11.55 
   0   3   2  320.47   11.54 
  -2  -3  -2  153.95    5.99 
   2   3   2  151.28    5.58 
  -3  -3  -2  384.23   14.22 
   3   3   2  399.45   13.68 
  -4  -3  -2  108.89    4.65 
  -4  -3  -2  111.04    4.36 
  -4  -3  -2  106.01    4.27 
   4   3   2  109.12    4.24 
  -5  -3  -2   86.61    3.59 
  -5  -3  -2   86.64    3.86 
  -5  -3  -2   79.23    3.48 
   5   3   2   86.62    3.49 
  -6  -3  -2   46.15    2.31 
  -6  -3  -2   44.46    2.11 
  -6  -3  -2   44.85    2.04 
  -7  -3  -2    5.22    0.45 
  -7  -3  -2    5.24    0.50 
   7  -4  -2   11.80    0.77 
  -7   4   2   12.82    0.67 
  -7   4   2   12.24    0.70 
  -7   4   2   12.85    0.65 
  -6   4   2    8.25    0.64 
  -6   4   2    7.76    0.58 
  -6   4   2    8.45    0.60 
  -6   4   2    8.48    0.58 
   5  -4  -2   66.40    4.00 
  -5   4   2   70.68    2.95 
  -5   4   2   74.93    3.05 
  -5   4   2   75.08    2.92 
  -5   4   2   71.83    2.93 
  -5   4   2   75.73    2.96 
   4  -4  -2   33.31    2.21 
  -4   4   2   28.79    1.50 
  -4   4   2   28.78    1.42 
  -4   4   2   30.67    1.41 
  -4   4   2   27.66    1.45 
  -4   4   2   29.02    1.51 
   3  -4  -2    1.80    0.47 
  -3   4   2    1.10    0.46 
  -3   4   2    2.15    0.28 
   2  -4  -2    7.70    0.76 
   2  -4  -2    7.70    0.65 
   1  -4  -2  484.67   16.53 
   1  -4  -2  420.23   16.58 
  -1   4   2  482.05   16.76 
   0  -4  -2  249.41    9.25 
   0   4   2  241.74    8.89 
  -1  -4  -2  361.69   13.76 
   1   4   2  394.99   13.38 
  -2  -4  -2    4.15    0.63 
   2   4   2    3.10    0.41 
  -3  -4  -2   68.86    3.32 
  -3  -4  -2   68.51    3.08 
  -3  -4  -2   70.55    2.94 
  -3  -4  -2   70.15    2.80 
   3   4   2   69.58    3.00 
  -4  -4  -2  229.81    8.66 
  -4  -4  -2  232.62    8.48 
  -4  -4  -2  240.20    8.80 
  -4  -4  -2  239.22    9.16 
   4   4   2  252.79    8.85 
  -5  -4  -2   62.33    2.75 
  -5  -4  -2   67.46    3.20 
  -5  -4  -2   67.05    2.92 
   5   4   2   67.27    3.03 
  -6  -4  -2   50.35    2.17 
  -6  -4  -2   45.78    2.32 
  -7  -4  -2   14.35    0.71 
  -7  -4  -2   14.88    0.84 
   6  -5  -2    5.66    0.45 
  -6   5   2    5.37    0.44 
  -6   5   2    5.75    0.48 
  -6   5   2    5.67    0.44 
   5  -5  -2   35.29    1.70 
  -5   5   2   35.67    1.64 
  -5   5   2   35.75    1.72 
  -5   5   2   35.56    1.66 
  -5   5   2   34.99    1.56 
   4  -5  -2  364.43   13.79 
  -4   5   2  381.18   13.15 
  -4   5   2  378.94   13.23 
  -4   5   2  372.23   13.32 
  -4   5   2  383.04   13.36 
  -4   5   2  392.05   13.35 
   3  -5  -2   25.30    1.38 
  -3   5   2   26.28    1.29 
  -3   5   2   27.97    1.27 
  -3   5   2   25.35    1.41 
  -3   5   2   27.93    1.44 
   2  -5  -2  381.61   13.67 
   2  -5  -2  379.57   13.33 
  -2   5   2  381.21   13.41 
  -2   5   2  367.27   13.14 
  -2   5   2  392.44   13.40 
   1  -5  -2  212.30    7.94 
  -1   5   2  245.49    8.01 
  -1   5   2  198.60    7.87 
   0  -5  -2   74.29    3.06 
   0   5   2   79.69    3.13 
   0   5   2   73.62    3.91 
  -1  -5  -2  168.41    6.31 
   1   5   2  171.23    7.26 
   1   5   2  171.33    6.64 
  -2  -5  -2   13.54    0.88 
  -2  -5  -2   12.59    0.92 
   2   5   2   16.52    1.63 
   2   5   2   13.59    1.06 
  -3  -5  -2   90.98    3.75 
  -3  -5  -2   93.84    3.69 
  -3  -5  -2   95.70    3.89 
  -3  -5  -2   95.15    4.20 
   3   5   2   96.07    4.11 
  -4  -5  -2  167.41    6.61 
  -4  -5  -2  166.57    6.27 
  -4  -5  -2  157.05    5.95 
   4   5   2  162.81    6.48 
  -5  -5  -2   45.27    2.40 
  -5  -5  -2   50.07    2.22 
  -6  -5  -2    8.83    0.60 
  -6  -5  -2    8.99    0.73 
   6  -6  -2    7.05    0.42 
  -6   6   2    7.12    0.42 
  -6   6   2    6.97    0.44 
  -6   6   2    6.59    0.37 
   5  -6  -2   41.48    2.01 
  -5   6   2   38.57    1.64 
  -5   6   2   37.15    1.55 
  -5   6   2   38.90    1.71 
   4  -6  -2   52.41    2.23 
  -4   6   2   50.72    2.11 
  -4   6   2   50.47    2.22 
  -4   6   2   48.70    2.01 
  -4   6   2   51.12    2.17 
   3  -6  -2   57.21    2.46 
  -3   6   2   58.04    2.49 
  -3   6   2   57.22    2.48 
  -3   6   2   58.54    2.33 
  -3   6   2   51.23    2.22 
   2  -6  -2  100.52    3.89 
  -2   6   2   92.32    3.89 
  -2   6   2   96.06    3.66 
  -2   6   2  100.54    3.93 
   1  -6  -2   55.29    2.36 
   0  -6  -2  406.35   14.47 
   0  -6  -2  450.49   14.89 
   0   6   2  388.60   14.66 
  -1  -6  -2  101.70    4.11 
  -1  -6  -2   99.87    3.95 
   1   6   2  103.07    4.11 
  -2  -6  -2   13.39    0.97 
  -2  -6  -2   13.44    1.08 
  -2  -6  -2   12.96    0.88 
   2   6   2   14.11    0.95 
   2   6   2   13.63    1.28 
  -3  -6  -2    3.37    0.44 
  -3  -6  -2    3.26    0.53 
   3   6   2    3.33    0.45 
  -4  -6  -2   58.97    2.80 
  -4  -6  -2   59.77    2.58 
   4   6   2   55.06    2.42 
  -5  -6  -2   73.97    2.88 
  -5  -6  -2   69.64    3.19 
   5  -7  -2    6.55    0.43 
   5  -7  -2    6.84    0.42 
  -5   7   2    6.59    0.37 
   4  -7  -2   53.07    2.17 
   4  -7  -2   51.69    2.10 
  -4   7   2   50.41    1.99 
   3  -7  -2    8.27    0.60 
   3  -7  -2    8.52    0.65 
  -3   7   2    8.62    0.63 
   2  -7  -2   45.68    2.09 
   2  -7  -2   45.09    1.96 
  -2   7   2   43.28    2.03 
   1  -7  -2   31.90    1.48 
   1  -7  -2   29.39    1.60 
  -1   7   2   30.27    1.75 
   0  -7  -2    2.93    0.36 
   0  -7  -2    2.75    0.41 
   0   7   2    2.79    0.42 
  -2  -7  -2   44.10    2.08 
  -2  -7  -2   44.70    2.14 
   2   7   2   43.12    2.02 
  -3  -7  -2    1.27    0.27 
  -3  -7  -2    1.09    0.40 
   3   7   2    0.70    0.21 
  -4  -7  -2   81.70    3.26 
  -4  -7  -2   80.58    3.10 
   4   7   2   76.82    3.04 
   3  -8  -2    0.35    0.15 
   3  -8  -2    0.15    0.09 
   2  -8  -2    9.18    0.53 
   2  -8  -2   10.10    0.67 
  -2   8   2    8.88    0.59 
   1  -8  -2   12.76    1.08 
  -1   8   2   18.24    0.97 
   0  -8  -2    0.94    0.23 
   0   8   2    1.59    0.29 
  -1  -8  -2   21.53    1.20 
   1   8   2   21.97    1.40 
  -2  -8  -2   10.37    0.69 
   2   8   2   10.59    0.68 
  -3  -8  -2   15.97    0.81 
   3   8   2   16.18    0.82 
   3   8  -3    5.36    0.40 
   2   8  -3   16.58    0.86 
   1   8  -3    2.93    0.31 
   0   8  -3    1.15    0.17 
  -1   8  -3    9.26    0.63 
  -2   8  -3   14.46    0.75 
  -4  -7   3    8.07    0.55 
  -4  -7   3    7.31    0.68 
  -3  -7   3   10.47    1.21 
  -3  -7   3   10.19    0.69 
  -2  -7   3   44.93    2.00 
  -2  -7   3   46.21    2.26 
   1   7  -3  103.71    3.88 
  -1  -7   3   99.99    3.90 
   0   7  -3   35.51    1.64 
   0   7  -3   36.29    1.65 
  -1   7  -3   16.52    0.95 
   1  -7   3   15.48    0.89 
  -2   7  -3    1.08    0.22 
  -3   7  -3    0.10    0.10 
   3  -7   3    0.17    0.09 
  -4   7  -3   10.53    0.63 
   4  -7   3   12.76    0.88 
  -5  -6   3    3.43    0.49 
  -4  -6   3  120.26    4.67 
  -4  -6   3  124.06    5.24 
  -3  -6   3   37.38    1.83 
  -3  -6   3   38.41    2.29 
   2   6  -3  217.06    8.99 
   2   6  -3  203.49    7.38 
  -2  -6   3  194.27    8.08 
  -2  -6   3  207.89    7.55 
   1   6  -3   89.62    3.54 
  -1  -6   3   89.33    4.07 
  -1  -6   3   92.21    3.62 
   0   6  -3   10.16    0.74 
   0  -6   3   10.50    0.73 
   0  -6   3   10.18    0.73 
  -1   6  -3   58.35    2.54 
   1  -6   3   60.61    2.49 
  -2   6  -3   31.10    1.55 
   2  -6   3   30.54    1.51 
  -3   6  -3   39.56    1.88 
  -4   6  -3   92.89    3.65 
  -4   6  -3   95.61    3.70 
  -5   6  -3    9.99    0.60 
  -5   6  -3   10.59    0.64 
   5  -6   3   10.34    0.63 
  -6  -5   3   58.20    2.36 
  -6  -5   3   59.79    2.75 
  -5  -5   3  130.71    5.61 
  -5  -5   3  134.82    5.04 
   4   5  -3   22.07    1.62 
  -4  -5   3   24.63    1.80 
  -4  -5   3   21.52    1.27 
   3   5  -3   24.64    1.82 
   3   5  -3   27.69    1.33 
  -3  -5   3   30.57    1.82 
   2   5  -3   43.27    2.52 
   2   5  -3   43.65    1.90 
  -2  -5   3   42.06    2.50 
  -2  -5   3   43.31    2.01 
   1   5  -3  720.01   25.96 
   1   5  -3  724.66   26.77 
   1   5  -3  865.56   28.08 
  -1  -5   3  697.49   26.01 
  -1  -5   3  790.54   27.91 
   0   5  -3  259.43    9.15 
   0  -5   3  254.82    9.14 
  -1   5  -3  106.12    4.52 
  -1   5  -3  125.12    4.45 
  -2   5  -3   26.71    1.39 
  -2   5  -3   27.44    1.48 
  -3   5  -3   21.29    1.14 
  -3   5  -3   21.87    1.23 
  -3   5  -3   22.37    1.25 
  -3   5  -3   23.16    1.33 
  -4   5  -3   57.05    2.51 
  -4   5  -3   57.81    2.43 
  -4   5  -3   50.73    2.95 
  -5   5  -3   32.97    1.58 
  -5   5  -3   31.02    1.43 
  -5   5  -3   32.65    1.52 
  -5   5  -3   32.40    1.50 
  -6   5  -3    9.53    0.69 
  -6   5  -3   13.26    0.70 
  -6   5  -3    9.45    0.69 
  -6   5  -3   13.12    0.67 
  -7  -4   3    9.63    0.71 
  -7  -4   3    9.23    0.52 
  -6  -4   3   21.50    1.14 
  -6  -4   3   20.86    1.45 
   5   4  -3   72.94    3.32 
  -5  -4   3   74.13    3.12 
  -5  -4   3   77.17    3.73 
   4   4  -3   44.45    2.37 
  -4  -4   3   42.25    2.03 
  -4  -4   3   45.88    2.63 
  -4  -4   3   41.47    1.80 
   3   4  -3   74.58    3.45 
   3   4  -3   72.96    3.52 
  -3  -4   3   73.03    3.65 
  -3  -4   3   73.87    3.04 
  -3  -4   3   72.69    2.84 
   2   4  -3  493.50   16.89 
   2   4  -3  458.56   16.99 
  -2  -4   3  455.20   16.96 
   1   4  -3   77.18    3.53 
   1   4  -3   76.81    3.73 
  -1  -4   3   79.26    3.52 
   0   4  -3  300.65   10.80 
   0   4  -3  297.13   11.15 
   0  -4   3  285.65   10.65 
  -2   4  -3  255.41    9.06 
   2  -4   3  253.76    9.24 
  -3   4  -3  828.37   28.44 
  -3   4  -3  825.99   28.32 
  -3   4  -3  811.93   28.30 
  -3   4  -3  850.87   28.52 
   3  -4   3  817.81   28.54 
  -4   4  -3   52.72    2.35 
  -4   4  -3   55.71    2.51 
  -4   4  -3   53.53    2.36 
  -4   4  -3   53.26    2.44 
   4  -4   3   53.95    2.54 
  -5   4  -3    2.54    0.42 
  -6   4  -3   12.23    0.69 
  -6   4  -3   12.29    0.74 
  -6   4  -3   12.93    0.83 
  -6   4  -3   11.99    0.79 
  -7  -3   3   39.05    1.86 
  -7  -3   3   36.97    1.58 
   5   3  -3   62.72    2.82 
  -5  -3   3   64.03    2.58 
  -5  -3   3   67.62    2.80 
  -5  -3   3   63.64    3.29 
   4   3  -3   33.30    1.80 
   4   3  -3   33.47    1.86 
  -4  -3   3   33.22    1.43 
  -4  -3   3   33.37    1.65 
  -4  -3   3   33.00    2.09 
   3   3  -3   75.64    3.32 
   3   3  -3   78.20    3.75 
   3   3  -3   77.44    3.41 
   2   3  -3  119.98    4.83 
   2   3  -3  120.22    4.93 
  -2  -3   3  124.90    5.00 
   1   3  -3   60.91    2.72 
   1   3  -3   58.58    2.80 
  -1  -3   3   62.46    2.72 
   0  -3   3  809.74   27.58 
  -1   3  -3  133.64    5.30 
  -1   3  -3  127.52    4.69 
  -1   3  -3  129.87    4.91 
   1  -3   3  129.85    4.83 
   2  -3   3   56.34    2.39 
   3  -3   3   48.50    2.19 
  -4   3  -3  278.66    9.96 
  -4   3  -3  274.84   10.14 
  -4   3  -3  266.90   10.00 
  -4   3  -3  282.60   10.16 
   4  -3   3  298.21   10.86 
  -5   3  -3  131.92    5.10 
  -5   3  -3  129.42    5.10 
  -5   3  -3  131.68    5.00 
  -5   3  -3  127.45    4.86 
   5  -3   3  127.19    5.75 
  -6   3  -3   72.06    2.91 
  -6   3  -3   69.16    2.72 
  -6   3  -3   70.86    2.99 
  -6   3  -3   71.11    3.00 
  -7   3  -3   17.95    0.89 
  -7   3  -3   18.29    0.96 
  -7   3  -3   18.95    0.96 
  -7  -2   3   10.02    0.78 
  -7  -2   3   10.96    0.89 
   6   2  -3    2.32    0.27 
  -6  -2   3    3.42    0.41 
  -6  -2   3    3.23    0.31 
  -6  -2   3    3.33    0.56 
   5   2  -3   34.48    1.81 
  -5  -2   3   35.96    1.73 
  -5  -2   3   34.71    2.10 
  -5  -2   3   34.12    1.48 
   4   2  -3   32.24    1.65 
   4   2  -3   33.71    1.66 
   4   2  -3   35.14    2.45 
  -4  -2   3   36.64    1.82 
   3   2  -3  522.07   18.66 
   3   2  -3  523.86   18.41 
   3   2  -3  547.56   18.98 
   2   2  -3  136.52    5.30 
   2   2  -3  133.53    5.13 
   2   2  -3  131.24    5.03 
   1   2  -3  285.62   10.59 
   1   2  -3  309.43   10.68 
   1   2  -3  298.65   10.53 
   0   2  -3  392.58   13.97 
   0   2  -3  410.60   13.76 
   0   2  -3  395.71   13.72 
   0  -2   3  384.56   13.58 
  -1   2  -3  349.36   12.21 
  -1   2  -3  353.13   11.64 
  -1   2  -3  326.40   11.83 
  -1   2  -3  338.82   11.64 
   1  -2   3  336.77   11.79 
   2  -2   3  421.30   14.56 
   3  -2   3   23.72    1.21 
  -4   2  -3  201.59    7.51 
  -4   2  -3  207.54    7.63 
  -4   2  -3  200.61    7.78 
  -4   2  -3  209.37    7.44 
   4  -2   3  213.30    7.54 
  -5   2  -3   37.86    1.93 
  -5   2  -3   38.01    1.96 
  -5   2  -3   38.91    1.72 
  -5   2  -3   37.49    1.85 
   5  -2   3   38.05    1.87 
  -7   2  -3    5.19    0.55 
  -7   2  -3    6.20    0.61 
  -7   2  -3    5.17    0.46 
  -7  -1   3   28.67    1.19 
  -7  -1   3   28.01    1.30 
   6   1  -3   74.00    2.82 
  -6  -1   3   77.09    3.09 
  -6  -1   3   76.54    2.88 
  -6  -1   3   73.42    3.38 
   5   1  -3   30.68    1.37 
  -5  -1   3   33.27    1.61 
  -5  -1   3   30.87    1.38 
   4   1  -3  106.84    4.23 
   4   1  -3  112.50    4.99 
   4   1  -3  117.25    4.27 
   1   1  -3  317.16   11.00 
  -1   1  -3   86.57    3.37 
  -1   1  -3   83.74    3.13 
  -1   1  -3   80.42    2.99 
  -1   1  -3   83.74    2.96 
   1  -1   3   82.63    3.08 
  -2   1  -3   49.19    2.19 
   2  -1   3   48.43    2.42 
   2  -1   3   48.23    1.94 
   3  -1   3  254.59    8.95 
  -4   1  -3   17.90    1.11 
  -4   1  -3   19.66    1.18 
  -4   1  -3   19.84    1.10 
   4  -1   3   19.62    1.06 
  -5   1  -3   87.25    3.60 
  -5   1  -3   91.15    3.78 
  -5   1  -3   88.65    3.70 
   5  -1   3   91.73    3.61 
  -6   1  -3    4.59    0.54 
  -6   1  -3    4.37    0.48 
  -6   1  -3    3.77    0.51 
  -7   1  -3    0.71    0.18 
  -7   1  -3    0.81    0.24 
  -7   0   3    0.21    0.09 
  -7   0   3    0.62    0.15 
  -7   0   3    0.27    0.18 
   6   0  -3   28.65    1.29 
  -6   0   3   30.03    1.33 
  -6   0   3   28.21    1.46 
  -6   0   3   30.05    1.35 
   5   0  -3  412.73   14.36 
  -5   0   3  427.15   14.62 
  -5   0   3  410.98   14.39 
   4   0  -3    3.08    0.52 
   4   0  -3    2.98    0.35 
   2   0  -3  158.80    5.47 
   2   0  -3  142.53    5.77 
   2   0  -3  159.81    5.67 
   1   0  -3   89.06    3.48 
   1   0  -3   89.04    3.30 
   1   0  -3   91.14    3.50 
  -1   0  -3    0.81    0.16 
  -1   0  -3    1.06    0.15 
   1   0   3    1.25    0.16 
  -2   0  -3  591.99   19.67 
   2   0   3  561.69   19.29 
   2   0   3  551.41   19.83 
  -4   0  -3    6.26    0.59 
  -4   0  -3    5.36    0.60 
   4   0   3    6.63    0.52 
  -5   0  -3    3.64    0.42 
  -5   0  -3    3.78    0.51 
  -5   0  -3    3.62    0.49 
   5   0   3    3.57    0.42 
  -6   0  -3    8.51    0.69 
  -6   0  -3    9.23    0.76 
  -6   0  -3    9.19    0.79 
  -7   0  -3    5.91    0.52 
  -7   0  -3    5.93    0.55 
  -7   0  -3    4.83    0.57 
  -8   1   3    4.86    0.29 
  -7   1   3   27.94    1.27 
  -7   1   3   28.78    1.25 
   6  -1  -3   76.23    3.24 
  -6   1   3   80.26    3.11 
  -6   1   3   79.27    3.19 
  -6   1   3   79.00    3.14 
  -6   1   3   82.59    3.10 
   5  -1  -3   31.45    1.49 
  -5   1   3   30.82    1.46 
  -5   1   3   31.71    1.55 
  -5   1   3   30.77    1.43 
  -5   1   3   33.12    1.60 
   4  -1  -3  112.83    4.19 
   4  -1  -3  111.38    4.75 
  -1  -1  -3   84.12    3.37 
   1   1   3   82.67    3.41 
   1   1   3   85.72    3.11 
  -2  -1  -3   48.91    2.11 
   2   1   3   50.19    1.99 
   2   1   3   51.26    2.35 
  -3  -1  -3  270.51    9.30 
   3   1   3  253.90    9.19 
  -4  -1  -3   18.95    1.16 
  -4  -1  -3   19.43    1.18 
   4   1   3   19.15    1.05 
  -5  -1  -3   88.39    3.65 
  -5  -1  -3   90.85    3.80 
  -5  -1  -3   84.96    3.61 
  -5  -1  -3   86.42    3.46 
   5   1   3   81.51    3.48 
  -6  -1  -3    4.24    0.51 
  -6  -1  -3    3.66    0.49 
  -6  -1  -3    3.83    0.43 
  -7  -1  -3    0.07    0.15 
  -7  -1  -3    0.58    0.16 
  -7  -1  -3    0.20    0.13 
  -8   2   3   11.60    0.53 
  -8   2   3   11.92    0.53 
  -7   2   3   10.53    0.64 
  -7   2   3   10.87    0.68 
  -7   2   3   10.88    0.63 
   6  -2  -3    3.66    0.44 
  -6   2   3    3.05    0.36 
  -6   2   3    3.77    0.39 
  -6   2   3    3.01    0.37 
   5  -2  -3   33.28    1.72 
  -5   2   3   35.86    1.75 
  -5   2   3   34.83    1.65 
  -5   2   3   36.25    1.60 
  -5   2   3   36.18    1.63 
   4  -2  -3   34.92    1.68 
   4  -2  -3   38.59    2.30 
  -4   2   3   34.54    1.59 
  -4   2   3   33.03    1.55 
   3  -2  -3  525.07   17.85 
   3  -2  -3  507.76   18.17 
   2  -2  -3  129.99    5.17 
   2  -2  -3  138.62    4.97 
   1  -2  -3  316.31   10.89 
   1  -2  -3  319.64   10.67 
  -1   2   3  277.97   10.55 
   0  -2  -3  399.21   13.98 
   0   2   3  403.69   13.84 
  -1  -2  -3  361.64   12.74 
   1   2   3  358.57   12.47 
  -2  -2  -3  443.59   15.17 
   2   2   3  414.61   14.81 
  -3  -2  -3   25.47    1.48 
  -4  -2  -3  196.66    7.26 
   4   2   3  193.38    7.16 
  -5  -2  -3   35.30    1.87 
  -5  -2  -3   35.36    1.68 
  -5  -2  -3   40.29    2.58 
  -5  -2  -3   35.62    1.89 
   5   2   3   32.79    1.77 
  -6  -2  -3   36.03    1.79 
  -6  -2  -3   32.73    1.80 
  -6  -2  -3   31.60    1.49 
  -7  -2  -3    5.32    0.46 
  -7  -2  -3    5.14    0.45 
  -7   3   3   45.75    1.81 
  -7   3   3   40.83    1.83 
  -7   3   3   42.99    1.78 
  -6   3   3  135.80    4.96 
  -6   3   3  129.98    4.92 
   5  -3  -3   67.05    3.02 
  -5   3   3   68.66    2.78 
  -5   3   3   68.69    2.91 
  -5   3   3   69.02    2.74 
  -5   3   3   67.71    2.83 
   4  -3  -3   34.19    1.78 
  -4   3   3   33.28    1.56 
  -4   3   3   33.99    1.72 
  -4   3   3   32.66    1.54 
  -4   3   3   33.85    1.60 
  -4   3   3   35.71    1.54 
   3  -3  -3   72.99    3.11 
   3  -3  -3   75.41    3.41 
   2  -3  -3  131.07    4.76 
   2  -3  -3  115.24    4.94 
   1  -3  -3   59.96    2.75 
   1  -3  -3   59.53    2.52 
   0  -3  -3  851.70   29.27 
  -1  -3  -3  136.74    5.42 
   1   3   3  133.17    5.05 
  -2  -3  -3   62.52    2.94 
   2   3   3   58.16    2.53 
  -3  -3  -3   47.41    2.80 
  -3  -3  -3   46.03    2.16 
  -3  -3  -3   47.62    2.40 
   3   3   3   47.34    2.15 
  -4  -3  -3  261.83    9.68 
  -4  -3  -3  274.65   10.03 
  -4  -3  -3  266.43    9.65 
   4   3   3  259.22   10.30 
  -5  -3  -3  128.89    5.10 
  -5  -3  -3  127.88    5.05 
  -5  -3  -3  129.82    5.35 
  -6  -3  -3   66.09    2.99 
  -6  -3  -3   65.70    2.79 
  -6  -3  -3   67.17    2.85 
  -7  -3  -3   15.88    0.90 
  -7  -3  -3   17.32    0.90 
  -7  -3  -3   19.10    0.93 
  -7   4   3    9.65    0.52 
  -7   4   3    9.17    0.54 
  -7   4   3   10.19    0.54 
  -6   4   3   22.36    1.12 
  -6   4   3   22.16    1.08 
  -6   4   3   23.09    1.17 
   5  -4  -3   67.68    3.03 
   5  -4  -3   76.70    3.44 
  -5   4   3   78.53    3.13 
  -5   4   3   79.15    3.07 
  -5   4   3   74.76    3.01 
  -5   4   3   79.80    3.16 
  -5   4   3   79.85    3.02 
   4  -4  -3   46.98    2.30 
  -4   4   3   43.01    2.07 
  -4   4   3   43.08    2.00 
  -4   4   3   42.64    1.93 
  -4   4   3   45.78    1.90 
  -4   4   3   44.13    1.95 
   3  -4  -3   65.08    3.36 
   3  -4  -3   71.11    3.20 
  -3   4   3   71.52    3.05 
  -3   4   3   73.32    3.41 
  -3   4   3   73.87    2.83 
  -3   4   3   81.62    3.03 
   2  -4  -3  436.34   15.84 
   1  -4  -3   75.59    3.59 
   1  -4  -3   71.78    3.12 
   0  -4  -3  303.58   11.43 
   0   4   3  307.80   11.21 
  -1  -4  -3  243.82    9.38 
   1   4   3  241.08    8.86 
  -2  -4  -3  259.67    9.37 
  -2  -4  -3  248.78    9.66 
  -2  -4  -3  263.78    9.37 
   2   4   3  268.51    9.52 
  -3  -4  -3  818.67   27.90 
  -3  -4  -3  780.10   28.13 
  -3  -4  -3  846.86   28.57 
  -3  -4  -3  824.51   28.12 
   3   4   3  823.45   27.98 
   3   4   3  809.39   28.28 
  -4  -4  -3   50.97    2.37 
  -4  -4  -3   51.37    2.43 
  -4  -4  -3   51.68    2.68 
   4   4   3   50.99    2.51 
  -5  -4  -3    1.99    0.35 
  -5  -4  -3    3.07    0.46 
  -5  -4  -3    1.98    0.45 
  -6  -4  -3   12.84    0.82 
  -6  -4  -3   11.23    0.71 
  -6  -4  -3   12.00    0.91 
   6  -5  -3   61.94    2.50 
  -6   5   3   62.37    2.42 
  -6   5   3   60.29    2.34 
  -6   5   3   57.61    2.29 
   5  -5  -3  125.98    4.95 
  -5   5   3  136.12    5.00 
  -5   5   3  137.03    4.95 
  -5   5   3  141.46    5.05 
  -5   5   3  131.51    4.87 
   4  -5  -3   19.28    1.13 
   4  -5  -3   23.64    1.53 
  -4   5   3   21.53    1.19 
  -4   5   3   21.87    1.25 
  -4   5   3   21.32    1.10 
  -4   5   3   20.67    1.05 
   3  -5  -3   23.17    1.56 
  -3   5   3   25.59    1.35 
  -3   5   3   24.63    1.49 
  -3   5   3   23.96    1.36 
   2  -5  -3   38.67    2.43 
   2  -5  -3   39.88    1.88 
  -2   5   3   42.34    1.77 
  -2   5   3   42.10    1.99 
  -2   5   3   47.72    2.01 
  -2   5   3   40.01    1.75 
   1  -5  -3  676.49   23.25 
   1  -5  -3  687.93   23.21 
  -1   5   3  662.96   23.30 
   0  -5  -3  249.81    9.14 
   0  -5  -3  253.22    9.06 
   0   5   3  261.09    9.18 
  -1  -5  -3  118.67    4.63 
  -1  -5  -3  121.51    4.72 
   1   5   3  122.40    4.66 
   1   5   3  123.89    5.07 
  -2  -5  -3   27.39    1.43 
  -2  -5  -3   27.20    1.47 
  -2  -5  -3   26.13    1.66 
   2   5   3   27.40    1.40 
  -3  -5  -3   21.07    1.24 
  -3  -5  -3   20.96    1.48 
  -3  -5  -3   22.08    1.32 
   3   5   3   21.19    1.47 
   3   5   3   21.39    1.18 
  -4  -5  -3   52.45    2.72 
  -4  -5  -3   58.62    3.00 
  -4  -5  -3   53.47    2.50 
  -5  -5  -3   31.04    1.75 
  -5  -5  -3   31.22    1.58 
  -5  -5  -3   30.00    1.41 
  -6  -5  -3   11.29    0.79 
  -6  -5  -3   11.73    0.68 
   5  -6  -3    4.25    0.37 
  -5   6   3    3.91    0.31 
  -5   6   3    4.20    0.34 
   4  -6  -3  114.43    4.32 
  -4   6   3  113.91    4.18 
  -4   6   3  108.18    4.12 
  -4   6   3  114.97    4.34 
  -4   6   3  116.86    4.34 
   3  -6  -3   36.29    1.75 
  -3   6   3   38.11    1.80 
  -3   6   3   36.63    1.80 
   2  -6  -3  209.48    7.38 
   2  -6  -3  199.99    7.41 
  -2   6   3  196.15    7.45 
   1  -6  -3   96.78    3.75 
   1  -6  -3   96.31    3.83 
  -1   6   3   90.72    3.82 
   0  -6  -3   12.36    0.88 
   0  -6  -3   10.51    0.77 
   0   6   3   11.05    0.84 
  -1  -6  -3   57.31    2.56 
  -1  -6  -3   59.65    2.66 
  -1  -6  -3   59.35    3.03 
   1   6   3   62.71    2.63 
  -2  -6  -3   29.34    1.75 
  -2  -6  -3   29.70    1.62 
  -2  -6  -3   29.24    1.53 
   2   6   3   33.42    1.59 
  -3  -6  -3   34.11    1.65 
  -3  -6  -3   36.78    1.97 
   3   6   3   33.24    1.63 
  -4  -6  -3   83.81    3.60 
  -4  -6  -3   84.37    3.40 
   4   6   3   82.34    3.23 
  -5  -6  -3    8.71    0.71 
  -5  -6  -3   10.04    0.64 
   4  -7  -3    7.44    0.53 
   4  -7  -3    7.19    0.52 
  -4   7   3    8.44    0.62 
  -4   7   3    7.95    0.42 
   3  -7  -3   10.46    0.68 
   3  -7  -3    9.90    0.69 
  -3   7   3    9.68    0.69 
   2  -7  -3   45.59    1.98 
  -2   7   3   44.15    2.05 
   1  -7  -3   95.00    3.85 
   1  -7  -3   96.36    3.74 
  -1   7   3   96.16    3.84 
   0  -7  -3   36.52    1.79 
   0  -7  -3   34.55    1.65 
   0   7   3   34.36    1.73 
  -1  -7  -3   14.55    0.99 
  -1  -7  -3   14.79    0.89 
   1   7   3   15.94    0.97 
  -2  -7  -3    1.53    0.36 
  -2  -7  -3    2.01    0.34 
   2   7   3    1.60    0.28 
  -4  -7  -3    8.78    0.83 
  -4  -7  -3    9.71    0.61 
   3  -8  -3    5.91    0.43 
   3  -8  -3    5.49    0.42 
  -3   8   3    6.56    0.51 
   2  -8  -3   15.18    0.76 
   2  -8  -3   15.95    0.87 
  -2   8   3   15.85    0.84 
   1  -8  -3    2.71    0.29 
   1  -8  -3    3.13    0.36 
  -1   8   3    2.46    0.33 
   0  -8  -3    0.98    0.22 
   0   8   3    1.40    0.25 
  -1  -8  -3    8.30    0.61 
   1   8   3    7.86    0.57 
  -2  -8  -3   15.66    0.86 
   2   8   3   15.37    0.81 
   2   8  -4    1.98    0.26 
   0   8  -4   26.27    1.10 
  -1   8  -4   43.42    1.70 
  -4  -7   4   21.73    0.98 
  -4  -7   4   19.21    1.46 
  -3  -7   4    2.42    0.29 
  -3  -7   4    2.42    0.40 
   2   7  -4   22.54    1.07 
  -2  -7   4   21.54    1.09 
  -2  -7   4   21.56    1.30 
   1   7  -4   23.02    1.14 
  -1  -7   4   21.95    1.08 
   0   7  -4    1.89    0.27 
  -1   7  -4    1.25    0.24 
  -2   7  -4   24.73    1.21 
   2  -7   4   23.65    1.15 
  -3   7  -4    3.43    0.35 
   3  -7   4    3.91    0.30 
  -5  -6   4    1.74    0.26 
  -5  -6   4    1.63    0.35 
  -4  -6   4    0.53    0.27 
  -4  -6   4    0.39    0.17 
   3   6  -4    6.63    0.52 
  -3  -6   4    6.81    0.59 
   2   6  -4   15.69    0.93 
  -2  -6   4   14.48    1.28 
  -2  -6   4   16.12    0.97 
   1   6  -4  301.76   10.38 
  -1  -6   4  282.53   10.90 
  -1  -6   4  291.28   10.33 
   0   6  -4  101.57    3.98 
  -1   6  -4   72.38    3.01 
  -2   6  -4   82.70    3.33 
   2  -6   4   79.82    3.15 
  -3   6  -4   46.41    2.03 
   3  -6   4   45.17    1.95 
  -4   6  -4    2.62    0.48 
   4  -6   4    1.99    0.26 
  -5   6  -4   42.03    1.67 
   5  -6   4   44.13    1.67 
  -6  -5   4   32.62    1.47 
  -6  -5   4   35.71    1.80 
  -5  -5   4   24.52    1.27 
  -5  -5   4   23.38    1.63 
   4   5  -4   45.95    1.98 
  -4  -5   4   44.17    2.64 
  -4  -5   4   45.50    2.09 
   3   5  -4  263.05    9.22 
   3   5  -4  258.22    9.92 
  -3  -5   4  255.74    9.33 
  -3  -5   4  258.53   10.21 
   2   5  -4  320.35   11.71 
   2   5  -4  298.02   10.92 
  -2  -5   4  310.24   11.88 
  -2  -5   4  311.08   11.09 
   1   5  -4   35.42    2.17 
   1   5  -4   37.05    1.71 
  -1  -5   4   36.90    2.25 
  -1  -5   4   36.65    1.71 
   0   5  -4   51.20    2.24 
  -1   5  -4   28.80    1.51 
   1  -5   4   33.26    1.77 
  -2   5  -4  119.53    4.65 
  -2   5  -4  123.40    4.68 
  -3   5  -4   87.12    3.55 
  -3   5  -4   89.53    3.58 
  -4   5  -4    4.50    0.49 
  -4   5  -4    5.96    0.49 
  -4   5  -4    4.80    0.48 
  -4   5  -4    5.15    0.45 
  -5   5  -4   19.55    0.96 
  -5   5  -4   17.29    0.89 
  -5   5  -4   19.21    1.01 
  -5   5  -4   19.67    0.94 
  -7  -4   4   33.30    1.35 
  -7  -4   4   33.55    1.53 
  -6  -4   4   39.91    2.14 
  -6  -4   4   37.59    1.74 
  -5  -4   4   13.28    0.90 
  -5  -4   4   12.50    1.22 
  -5  -4   4   13.51    0.72 
   4   4  -4  100.06    4.23 
  -4  -4   4   93.40    3.65 
  -4  -4   4   95.10    3.89 
  -4  -4   4   99.63    4.66 
  -3  -4   4   52.45    2.34 
  -3  -4   4   52.55    2.17 
  -3  -4   4   52.83    2.97 
   2   4  -4  458.59   16.24 
   2   4  -4  469.70   16.64 
  -2  -4   4  424.31   16.80 
   1   4  -4  394.66   14.50 
   1   4  -4  395.86   14.35 
   1   4  -4  403.99   14.82 
  -1  -4   4  396.69   13.79 
   0   4  -4   23.49    1.44 
   0   4  -4   22.84    1.40 
   0   4  -4   17.94    1.96 
   0   4  -4   23.32    1.16 
  -1   4  -4  213.96    7.80 
  -2   4  -4   22.78    1.14 
  -2   4  -4   20.39    1.66 
   2  -4   4   15.51    1.38 
  -3   4  -4   80.72    3.26 
  -3   4  -4   77.71    3.20 
  -3   4  -4   80.65    3.31 
  -3   4  -4   74.29    3.17 
   3  -4   4   81.11    3.46 
  -4   4  -4  223.43    8.02 
  -4   4  -4  218.10    7.90 
  -4   4  -4  217.22    7.88 
  -4   4  -4  214.24    7.94 
   4  -4   4  214.34    8.21 
  -5   4  -4    4.21    0.46 
  -5   4  -4    4.46    0.41 
  -5   4  -4    4.65    0.50 
  -5   4  -4    4.12    0.43 
  -6   4  -4   47.30    1.93 
  -6   4  -4   48.38    1.97 
  -6   4  -4   49.95    2.02 
  -6   4  -4   45.56    1.79 
  -7  -3   4    2.60    0.29 
  -7  -3   4    2.85    0.44 
  -6  -3   4   50.14    1.96 
  -6  -3   4   49.58    2.60 
  -6  -3   4   49.36    2.19 
   5   3  -4   81.31    3.69 
  -5  -3   4   86.03    3.46 
  -5  -3   4   83.84    3.16 
  -5  -3   4   81.03    3.99 
   4   3  -4   51.64    2.48 
  -4  -3   4   51.06    2.31 
  -4  -3   4   50.33    2.07 
  -4  -3   4   50.84    2.87 
   3   3  -4  165.24    6.14 
  -3  -3   4  152.82    6.53 
  -3  -3   4  156.71    5.84 
  -3  -3   4  151.09    5.61 
   2   3  -4   14.18    1.15 
   2   3  -4   13.22    1.15 
   2   3  -4   12.42    0.98 
   1   3  -4  363.76   13.59 
   1   3  -4  381.87   13.49 
   1   3  -4  390.87   13.88 
   0   3  -4  642.45   22.86 
   0   3  -4  663.34   22.91 
   0   3  -4  680.78   23.41 
  -1   3  -4  257.44   10.14 
   1  -3   4  281.00    9.64 
   2  -3   4  178.00    6.60 
  -3   3  -4   61.56    2.45 
  -3   3  -4   55.33    2.46 
  -3   3  -4   58.14    2.55 
   3  -3   4   55.56    2.56 
  -4   3  -4  119.36    5.11 
  -4   3  -4  123.89    5.01 
   4  -3   4  122.37    4.85 
  -5   3  -4   20.75    1.24 
  -5   3  -4   20.39    1.18 
  -5   3  -4   20.39    1.22 
  -6   3  -4    7.63    0.62 
  -6   3  -4    7.64    0.58 
  -6   3  -4    7.59    0.62 
  -7   3  -4    5.52    0.39 
  -7   3  -4    5.19    0.41 
  -7   3  -4    6.30    0.39 
  -7  -2   4   21.04    0.91 
  -7  -2   4   21.11    1.04 
  -6  -2   4  125.09    4.80 
   5   2  -4   24.08    1.28 
  -5  -2   4   24.26    1.18 
   4   2  -4   47.76    2.37 
   4   2  -4   50.19    2.24 
  -4  -2   4   48.76    2.22 
  -4  -2   4   49.97    3.35 
   3   2  -4    9.63    1.04 
   3   2  -4    9.05    0.72 
   3   2  -4    8.16    0.78 
   2   2  -4   50.23    2.31 
   2   2  -4   55.86    2.56 
   2   2  -4   52.83    2.61 
   1   2  -4  281.81   10.20 
   1   2  -4  286.58   10.49 
   1   2  -4  293.45   10.39 
  -1   2  -4  357.85   12.93 
  -1   2  -4  360.87   12.51 
  -1   2  -4  357.62   12.18 
   1  -2   4  351.26   12.42 
   2  -2   4  625.49   21.51 
  -3   2  -4  171.74    6.56 
   3  -2   4  186.81    6.64 
  -4   2  -4   40.12    1.95 
  -4   2  -4   39.72    1.77 
  -4   2  -4   39.18    1.97 
  -4   2  -4   38.19    1.86 
  -5   2  -4   46.33    2.27 
  -5   2  -4   47.04    2.18 
  -5   2  -4   46.80    2.24 
   5  -2   4   48.21    2.26 
  -6   2  -4    0.63    0.21 
  -6   2  -4    1.25    0.28 
  -6   2  -4    0.42    0.17 
  -7   2  -4   14.39    0.81 
  -7   2  -4   14.17    0.75 
  -7   2  -4   14.43    0.80 
  -7  -1   4   15.30    0.86 
  -6  -1   4  162.86    6.57 
  -6  -1   4  174.85    6.29 
  -6  -1   4  166.63    6.01 
   5   1  -4   43.46    1.88 
  -5  -1   4   40.16    1.73 
  -5  -1   4   39.31    2.31 
  -5  -1   4   41.96    1.98 
   4   1  -4  106.88    4.40 
   4   1  -4  113.33    4.18 
  -4  -1   4  106.07    3.99 
  -4  -1   4  109.89    4.26 
   2   1  -4  220.25    7.93 
   2   1  -4  227.11    8.37 
   2   1  -4  221.00    8.22 
   1   1  -4  108.89    4.14 
   1   1  -4  112.06    4.36 
   1   1  -4  110.22    4.40 
   0  -1   4  508.21   17.39 
  -1   1  -4  197.01    7.09 
  -1   1  -4  201.33    7.55 
  -1   1  -4  201.40    7.21 
  -1   1  -4  202.91    7.03 
   1  -1   4  203.26    7.13 
   2  -1   4   90.11    3.45 
   3  -1   4  168.46    6.17 
  -4   1  -4   61.57    2.72 
  -4   1  -4   62.08    2.69 
  -4   1  -4   64.66    2.81 
   4  -1   4   63.17    2.69 
  -5   1  -4    0.35    0.18 
  -5   1  -4    0.42    0.20 
  -5   1  -4    0.34    0.24 
   5  -1   4    0.44    0.21 
  -6   1  -4    1.64    0.30 
  -6   1  -4    1.00    0.28 
  -6   1  -4    1.37    0.28 
  -7   1  -4    1.02    0.22 
  -7   1  -4    0.83    0.18 
  -7   1  -4    1.05    0.21 
  -7   0   4    0.31    0.11 
  -7   0   4    0.45    0.19 
   6   0  -4   55.22    2.37 
  -6   0   4   59.84    2.52 
  -6   0   4   56.81    2.24 
  -6   0   4   58.27    2.32 
   5   0  -4   57.53    2.38 
  -5   0   4   55.37    2.26 
  -5   0   4   55.03    2.47 
  -5   0   4   54.72    2.20 
   3   0  -4  516.18   19.24 
   3   0  -4  579.35   19.62 
   3   0  -4  557.10   18.96 
   2   0  -4  245.29   10.30 
   2   0  -4  258.51    9.09 
   2   0  -4  269.56    9.45 
   1   0  -4  249.45    8.92 
   1   0  -4  257.06    9.14 
   0   0  -4   40.74    1.77 
   0   0  -4   38.87    1.96 
   0   0  -4   39.76    1.73 
   0   0   4   39.39    1.64 
  -1   0  -4    9.50    0.60 
  -1   0  -4    9.22    0.79 
  -1   0  -4    9.08    0.85 
   1   0   4    9.43    0.58 
  -2   0  -4  465.87   16.12 
   2   0   4  479.97   16.29 
   3   0   4    2.78    0.34 
  -4   0  -4  108.84    4.35 
  -4   0  -4  106.34    4.49 
  -4   0  -4  110.15    4.27 
  -4   0  -4  110.05    4.39 
   4   0   4  111.15    4.25 
  -5   0  -4  169.39    6.95 
  -5   0  -4  176.10    6.74 
  -5   0  -4  178.55    6.70 
  -5   0  -4  181.88    6.61 
   5   0   4  179.43    6.66 
  -6   0  -4    0.53    0.21 
  -6   0  -4    0.47    0.20 
  -6   0  -4    0.56    0.18 
  -7   0  -4   12.78    0.79 
  -7   0  -4   12.68    0.70 
  -7   0  -4   12.54    0.79 
  -8   1   4    1.95    0.20 
  -7   1   4   17.30    0.85 
  -7   1   4   16.53    0.87 
  -7   1   4   16.27    0.83 
   6  -1  -4  157.56    6.51 
  -6   1   4  173.34    6.06 
  -6   1   4  173.87    6.12 
  -6   1   4  170.31    6.28 
   5  -1  -4   43.83    2.03 
  -5   1   4   43.70    1.83 
  -5   1   4   44.56    1.89 
  -5   1   4   43.74    1.87 
  -5   1   4   41.61    2.04 
   4  -1  -4  114.08    4.31 
  -4   1   4  108.89    4.33 
  -4   1   4  109.95    4.10 
  -4   1   4  111.26    4.13 
   2  -1  -4  225.89    7.81 
   2  -1  -4  224.16    8.13 
   2  -1  -4  203.17    8.09 
   1  -1  -4  108.53    4.50 
   1  -1  -4  106.73    4.01 
   1  -1  -4  103.05    4.19 
  -1  -1  -4  206.28    7.35 
  -1  -1  -4  197.91    7.58 
   1   1   4  201.17    7.17 
  -2  -1  -4   93.63    3.72 
   2   1   4   95.58    3.62 
   3   1   4  173.10    6.34 
  -4  -1  -4   60.76    2.88 
  -4  -1  -4   61.32    2.74 
  -4  -1  -4   61.45    2.62 
  -4  -1  -4   61.98    2.74 
   4   1   4   60.48    2.65 
  -5  -1  -4    0.65    0.26 
  -5  -1  -4    0.65    0.30 
  -5  -1  -4    0.27    0.19 
  -5  -1  -4    1.16    0.26 
  -6  -1  -4    1.13    0.31 
  -6  -1  -4    1.53    0.24 
  -6  -1  -4    0.85    0.23 
  -6  -1  -4    1.77    0.37 
  -7  -1  -4    1.47    0.21 
  -7  -1  -4    1.01    0.23 
  -7  -1  -4    1.66    0.26 
  -7   2   4   25.16    1.27 
  -7   2   4   22.45    1.05 
  -7   2   4   22.06    1.04 
  -7   2   4   22.17    1.00 
  -6   2   4  111.04    4.99 
  -6   2   4  124.83    4.53 
  -6   2   4  127.46    4.49 
   5  -2  -4   25.06    1.42 
  -5   2   4   21.53    1.80 
  -5   2   4   24.76    1.23 
   4  -2  -4   54.39    2.41 
  -4   2   4   52.36    2.17 
  -4   2   4   52.25    2.16 
  -4   2   4   50.47    2.10 
  -4   2   4   50.03    2.32 
   3  -2  -4    8.38    0.69 
   3  -2  -4    8.48    0.86 
   2  -2  -4   55.55    2.39 
   2  -2  -4   54.67    2.63 
   1  -2  -4  297.56   10.82 
   1  -2  -4  297.95   10.56 
  -1  -2  -4  365.84   13.09 
   1   2   4  362.43   12.72 
  -2  -2  -4  715.08   24.88 
  -3  -2  -4  177.71    6.75 
  -3  -2  -4  176.57    6.72 
  -3  -2  -4  185.84    6.99 
  -3  -2  -4  181.01    7.00 
   3   2   4  184.37    6.73 
  -4  -2  -4   40.46    1.90 
  -4  -2  -4   39.64    2.03 
  -4  -2  -4   44.70    2.29 
  -4  -2  -4   42.39    2.06 
   4   2   4   40.31    2.07 
  -5  -2  -4   46.26    2.23 
  -5  -2  -4   46.56    2.04 
  -5  -2  -4   46.40    2.23 
  -5  -2  -4   45.66    2.38 
   5   2   4   42.40    2.24 
  -6  -2  -4    1.18    0.29 
  -6  -2  -4    0.79    0.21 
  -6  -2  -4    0.97    0.24 
  -7  -2  -4   14.15    0.79 
  -7  -2  -4   14.09    0.77 
  -7   3   4    2.39    0.26 
  -7   3   4    2.90    0.25 
  -7   3   4    2.62    0.25 
  -6   3   4   52.89    2.19 
  -6   3   4   52.17    2.19 
  -6   3   4   54.64    2.16 
  -6   3   4   53.67    2.28 
   5  -3  -4   89.22    4.37 
  -5   3   4   88.04    3.61 
  -5   3   4   86.05    3.44 
  -5   3   4   89.76    3.43 
  -5   3   4   86.23    3.36 
   4  -3  -4   55.51    2.73 
  -4   3   4   48.49    2.35 
  -4   3   4   52.43    2.23 
  -4   3   4   52.65    2.15 
  -4   3   4   52.40    2.19 
   3  -3  -4  148.85    5.96 
  -3   3   4  151.01    5.84 
  -3   3   4  158.41    5.62 
  -3   3   4  157.26    5.58 
  -3   3   4  160.66    5.70 
   2  -3  -4   13.12    0.92 
   2  -3  -4   11.90    1.52 
   1  -3  -4  353.06   12.90 
   1  -3  -4  375.39   13.30 
   0  -3  -4  640.87   22.29 
   0   3   4  624.39   21.84 
  -1  -3  -4  282.32   10.49 
   1   3   4  277.42   10.05 
   2   3   4  172.22    6.47 
  -3  -3  -4   56.99    2.55 
  -3  -3  -4   58.29    2.81 
  -3  -3  -4   56.49    2.52 
  -3  -3  -4   53.30    2.34 
   3   3   4   55.02    2.57 
  -4  -3  -4  111.76    4.44 
  -4  -3  -4  119.12    4.82 
  -4  -3  -4  118.10    5.02 
  -4  -3  -4  117.85    4.71 
   4   3   4  121.30    4.83 
  -5  -3  -4   19.96    1.39 
  -5  -3  -4   20.85    1.28 
  -5  -3  -4   20.34    1.25 
  -6  -3  -4    7.22    0.61 
  -6  -3  -4    7.10    0.67 
  -6  -3  -4    7.79    0.63 
  -7  -3  -4    5.32    0.39 
   7  -4  -4   32.89    1.34 
  -7   4   4   33.29    1.33 
  -7   4   4   34.86    1.33 
  -6   4   4   40.02    1.69 
  -6   4   4   37.67    1.70 
  -6   4   4   42.68    1.67 
  -6   4   4   40.68    1.72 
  -5   4   4   13.61    0.77 
  -5   4   4   14.17    0.81 
  -5   4   4   10.97    1.09 
  -5   4   4   14.69    0.86 
   4  -4  -4   94.32    4.14 
   4  -4  -4   85.67    3.64 
  -4   4   4   97.17    3.92 
  -4   4   4  101.20    3.65 
  -4   4   4   97.31    3.68 
  -4   4   4  100.49    3.77 
   3  -4  -4   45.90    2.16 
   3  -4  -4   54.54    2.64 
  -3   4   4   56.90    2.30 
  -3   4   4   51.22    2.15 
  -3   4   4   55.67    2.16 
  -3   4   4   51.94    2.40 
   2  -4  -4  423.76   15.30 
   2  -4  -4  433.14   15.76 
  -2   4   4  481.71   15.40 
  -2   4   4  427.67   15.45 
   1  -4  -4  341.75   13.15 
   1  -4  -4  373.82   12.61 
  -1   4   4  366.74   12.72 
   0  -4  -4   22.60    1.17 
   0   4   4   22.99    1.22 
  -1  -4  -4  221.35    8.18 
  -1  -4  -4  235.16    8.27 
  -1  -4  -4  223.15    8.52 
   1   4   4  230.46    8.19 
  -2  -4  -4   20.62    1.21 
  -2  -4  -4   21.10    1.42 
  -2  -4  -4   20.74    1.22 
   2   4   4   21.49    1.36 
   2   4   4   18.23    1.18 
  -3  -4  -4   74.65    3.40 
  -3  -4  -4   79.08    3.70 
  -3  -4  -4   80.74    3.32 
   3   4   4   78.41    3.52 
  -4  -4  -4  206.19    8.11 
  -4  -4  -4  212.49    7.83 
  -4  -4  -4  214.42    7.80 
   4   4   4  205.83    8.06 
  -5  -4  -4    4.35    0.58 
  -5  -4  -4    4.60    0.52 
  -5  -4  -4    4.53    0.48 
  -6  -4  -4   43.95    2.03 
  -6  -4  -4   44.25    1.90 
  -6  -4  -4   43.21    2.00 
  -6   5   4   37.55    1.54 
  -6   5   4   36.06    1.47 
  -6   5   4   36.79    1.46 
   5  -5  -4   24.84    1.16 
  -5   5   4   23.70    1.11 
  -5   5   4   23.55    1.20 
  -5   5   4   24.48    1.14 
  -5   5   4   25.27    1.26 
  -4   5   4   46.77    1.91 
  -4   5   4   46.34    2.04 
  -4   5   4   45.57    2.13 
  -4   5   4   44.81    1.92 
   3  -5  -4  252.69    9.06 
   3  -5  -4  253.43    9.73 
  -3   5   4  249.16    9.22 
  -3   5   4  240.39    8.87 
  -3   5   4  257.47    8.92 
  -3   5   4  266.16    9.13 
   2  -5  -4  269.34   11.04 
   2  -5  -4  307.71   10.61 
  -2   5   4  295.68   10.39 
  -2   5   4  317.10   11.29 
   1  -5  -4   37.10    1.72 
   1  -5  -4   35.57    1.74 
  -1   5   4   36.00    1.80 
   0  -5  -4   50.41    2.19 
   0  -5  -4   48.67    2.23 
   0   5   4   48.42    2.22 
  -1  -5  -4   26.19    1.62 
  -1  -5  -4   25.74    1.40 
  -1  -5  -4   26.92    1.47 
   1   5   4   28.20    1.44 
  -2  -5  -4  116.74    4.69 
  -2  -5  -4  122.01    5.01 
  -2  -5  -4  118.92    4.66 
   2   5   4  122.33    5.13 
   2   5   4  116.55    4.56 
  -3  -5  -4   87.37    3.83 
  -3  -5  -4   84.41    3.49 
  -3  -5  -4   84.25    3.53 
   3   5   4   79.04    3.29 
   3   5   4   85.43    4.51 
  -4  -5  -4    5.24    0.64 
  -4  -5  -4    5.58    0.57 
  -4  -5  -4    3.85    0.47 
  -5  -5  -4   16.94    0.90 
  -5  -5  -4   16.92    1.02 
  -5  -5  -4   16.43    1.14 
   5  -6  -4    1.46    0.24 
  -5   6   4    1.92    0.20 
  -5   6   4    1.47    0.18 
  -5   6   4    1.46    0.26 
   4  -6  -4    0.23    0.12 
  -4   6   4    0.41    0.11 
  -4   6   4    0.59    0.20 
   3  -6  -4    6.87    0.58 
   3  -6  -4    7.17    0.58 
  -3   6   4    6.68    0.46 
  -3   6   4    7.24    0.48 
  -3   6   4    6.81    0.64 
   2  -6  -4   15.94    0.99 
   2  -6  -4   14.96    0.95 
  -2   6   4   14.52    1.00 
   1  -6  -4  279.98   10.02 
   1  -6  -4  273.23   10.07 
  -1   6   4  288.57   10.14 
   0  -6  -4  100.72    3.92 
   0  -6  -4   94.82    3.96 
   0   6   4  100.21    3.97 
  -1  -6  -4   69.19    2.98 
  -1  -6  -4   68.67    2.91 
  -1  -6  -4   66.56    3.06 
   1   6   4   71.06    2.91 
  -2  -6  -4   88.33    3.63 
  -2  -6  -4   75.75    3.46 
  -2  -6  -4   79.41    3.55 
   2   6   4   82.88    3.76 
  -3  -6  -4   45.73    2.11 
  -3  -6  -4   46.72    2.28 
  -3  -6  -4   45.27    2.02 
   3   6   4   42.65    1.92 
  -4  -6  -4    2.08    0.42 
  -4  -6  -4    2.02    0.32 
  -4  -6  -4    2.41    0.42 
  -5  -6  -4   30.60    1.49 
   4  -7  -4   21.79    1.03 
   4  -7  -4   22.12    0.99 
  -4   7   4   21.28    0.98 
   3  -7  -4    2.83    0.32 
   3  -7  -4    2.34    0.31 
  -3   7   4    2.69    0.32 
   2  -7  -4   21.49    1.16 
   2  -7  -4   20.75    1.12 
  -2   7   4   22.22    1.19 
   1  -7  -4   22.14    1.23 
   1  -7  -4   21.91    1.17 
  -1   7   4   21.38    1.20 
   0  -7  -4    1.98    0.30 
   0   7   4    2.07    0.33 
  -1  -7  -4    1.34    0.29 
  -1  -7  -4    1.25    0.26 
   1   7   4    1.66    0.33 
  -2  -7  -4   21.11    1.09 
  -2  -7  -4   22.15    1.21 
   2   7   4   23.94    1.48 
  -3  -7  -4    3.62    0.39 
  -3  -7  -4    3.46    0.42 
   3   7   4    3.77    0.39 
   2  -8  -4    1.36    0.21 
   2  -8  -4    1.98    0.20 
  -2   8   4    2.44    0.28 
   1  -8  -4   35.23    1.54 
   1  -8  -4   35.51    1.44 
  -1   8   4   35.04    1.53 
   0  -8  -4   20.75    1.06 
   0  -8  -4   24.56    1.15 
   0   8   4   23.88    1.12 
  -1  -8  -4   39.00    1.68 
   1   8   4   39.70    1.64 
  -3  -7   5    8.18    0.61 
  -3  -7   5    7.52    0.48 
   2   7  -5   10.51    0.61 
  -2  -7   5   10.26    0.57 
  -2  -7   5   10.78    0.95 
   1   7  -5   21.40    1.06 
  -1   7  -5   33.26    1.60 
  -2   7  -5    0.41    0.13 
  -3   7  -5   16.12    0.89 
  -5  -6   5   12.80    0.88 
  -5  -6   5   12.95    0.68 
  -4  -6   5   10.39    0.71 
  -4  -6   5   10.97    0.97 
   3   6  -5   15.48    0.85 
  -3  -6   5   14.03    0.86 
  -3  -6   5   14.20    1.20 
   2   6  -5   24.81    1.27 
  -2  -6   5   24.10    1.24 
  -2  -6   5   26.34    1.72 
  -1  -6   5    2.70    0.31 
  -1  -6   5    3.47    0.59 
  -1   6  -5   10.34    0.75 
  -2   6  -5   16.47    0.97 
  -3   6  -5   55.46    2.24 
   3  -6   5   51.87    2.06 
  -4   6  -5    7.34    0.47 
   4  -6   5    7.86    0.57 
  -6  -5   5   14.96    1.08 
  -6  -5   5   12.20    0.69 
  -5  -5   5    0.75    0.28 
  -5  -5   5    0.83    0.21 
   4   5  -5   41.11    1.79 
  -4  -5   5   40.66    1.88 
  -4  -5   5   40.10    2.43 
   3   5  -5    9.48    0.69 
  -3  -5   5    9.06    0.69 
  -3  -5   5    8.87    1.06 
   2   5  -5  380.16   13.24 
  -2  -5   5  377.66   13.25 
  -2  -5   5  374.23   14.18 
   1   5  -5  185.13    6.71 
  -1  -5   5  179.38    6.62 
  -1  -5   5  182.62    7.47 
   0   5  -5   49.19    2.13 
   0  -5   5   43.90    2.54 
  -1   5  -5  124.66    4.78 
  -2   5  -5  115.66    4.47 
  -3   5  -5    0.71    0.17 
  -3   5  -5    0.63    0.19 
  -4   5  -5    0.34    0.15 
  -4   5  -5    0.58    0.16 
  -4   5  -5    0.92    0.25 
  -5   5  -5   16.02    0.92 
  -5   5  -5   16.78    0.78 
  -5   5  -5   20.15    1.00 
  -6  -4   5   43.29    2.22 
  -6  -4   5   44.69    1.89 
  -5  -4   5   15.77    0.83 
  -5  -4   5   16.24    1.00 
  -5  -4   5   16.70    1.39 
   4   4  -5   60.49    2.89 
  -4  -4   5   62.92    2.67 
  -4  -4   5   59.74    3.31 
  -4  -4   5   61.16    2.46 
   3   4  -5   33.93    1.96 
  -3  -4   5   34.20    1.55 
  -3  -4   5   33.18    1.67 
  -3  -4   5   33.51    2.29 
  -2  -4   5   19.09    1.62 
  -2  -4   5   18.68    1.09 
  -2  -4   5   18.80    1.02 
   1   4  -5   94.09    4.06 
   1   4  -5   95.66    4.62 
  -1  -4   5   92.97    3.60 
  -1  -4   5   91.28    3.64 
  -1  -4   5   92.15    4.39 
   0   4  -5   28.42    1.42 
   0  -4   5   29.81    1.95 
  -1   4  -5  104.48    4.05 
  -2   4  -5  303.76   10.87 
  -3   4  -5    2.55    0.40 
  -3   4  -5    2.30    0.35 
  -3   4  -5    2.52    0.36 
  -4   4  -5   16.80    0.98 
  -4   4  -5   17.75    1.02 
  -4   4  -5   17.66    1.01 
  -4   4  -5   17.93    1.04 
  -5   4  -5   25.91    1.60 
  -5   4  -5   23.44    1.44 
  -5   4  -5   24.06    1.16 
  -5   4  -5   22.42    1.07 
  -6   4  -5   38.61    1.43 
  -6   4  -5   30.03    1.38 
  -6   4  -5   37.69    1.45 
  -7  -3   5   27.84    1.60 
  -7  -3   5   29.16    1.32 
  -6  -3   5   45.33    1.89 
  -6  -3   5   48.73    2.10 
  -6  -3   5   49.30    2.51 
  -5  -3   5   27.99    1.26 
  -5  -3   5   26.78    1.90 
  -5  -3   5   26.87    1.46 
   4   3  -5   57.77    2.61 
  -4  -3   5   54.26    2.23 
  -4  -3   5   50.94    3.00 
  -4  -3   5   53.73    2.44 
   3   3  -5  226.71    8.30 
  -3  -3   5  218.77    8.01 
  -3  -3   5  216.85    7.80 
  -3  -3   5  219.34    8.87 
   2   3  -5  233.07    8.97 
   2   3  -5  228.47    8.47 
  -2  -3   5  222.24    8.12 
  -2  -3   5  223.56    8.15 
   1   3  -5   22.67    1.62 
   1   3  -5   18.96    1.38 
  -1  -3   5   19.52    1.02 
   0   3  -5   23.69    1.72 
   0   3  -5   23.21    1.38 
   0   3  -5   19.61    1.55 
   0  -3   5   27.75    1.32 
  -1   3  -5   80.71    3.17 
  -2   3  -5   42.98    1.91 
   2  -3   5   43.94    2.10 
  -3   3  -5  141.79    5.36 
  -3   3  -5  146.46    5.39 
  -3   3  -5  138.76    5.25 
  -3   3  -5  141.91    5.39 
   3  -3   5  137.18    5.50 
  -4   3  -5   23.38    1.30 
  -4   3  -5   22.98    1.33 
  -4   3  -5   23.72    1.33 
  -4   3  -5   23.27    1.19 
   4  -3   5   23.28    1.44 
  -5   3  -5    8.14    0.55 
  -5   3  -5   10.00    0.71 
  -5   3  -5    8.71    0.70 
  -5   3  -5    9.31    0.70 
  -6   3  -5    8.91    0.59 
  -6   3  -5    8.24    0.56 
  -6   3  -5    8.81    0.59 
  -7  -2   5    0.33    0.15 
  -7  -2   5    0.40    0.19 
  -6  -2   5   53.18    2.34 
  -6  -2   5   53.39    2.12 
  -6  -2   5   54.20    2.70 
  -5  -2   5  116.20    4.27 
  -5  -2   5  116.27    4.56 
  -5  -2   5  113.76    5.14 
   4   2  -5   12.19    0.91 
  -4  -2   5   11.59    0.70 
  -4  -2   5   12.44    1.22 
  -4  -2   5   11.15    0.84 
   3   2  -5  127.26    5.36 
   3   2  -5  128.49    4.95 
  -3  -2   5  128.33    4.61 
  -3  -2   5  124.29    4.82 
  -3  -2   5  122.08    5.54 
   2   2  -5   36.58    2.22 
   2   2  -5   37.35    2.14 
   2   2  -5   37.97    1.85 
   1   2  -5  163.92    6.24 
   1   2  -5  158.90    6.41 
   1   2  -5  154.07    5.97 
   0   2  -5  296.69   11.05 
   0   2  -5  290.36   10.57 
   0   2  -5  299.20   10.54 
   1  -2   5  275.95    9.80 
   2  -2   5  133.36    5.08 
  -3   2  -5  947.44   33.10 
  -3   2  -5  957.17   33.10 
  -3   2  -5  954.84   33.16 
  -3   2  -5 1000.00   33.07 
   3  -2   5  979.08   33.19 
  -4   2  -5   33.17    1.70 
  -4   2  -5   32.74    1.74 
  -4   2  -5   33.53    1.69 
   4  -2   5   32.38    1.72 
  -5   2  -5    5.80    0.91 
  -5   2  -5    8.11    0.74 
  -6   2  -5    4.96    0.48 
  -6   2  -5    5.36    0.50 
  -6   2  -5    5.27    0.46 
  -7  -1   5   11.11    0.68 
  -7  -1   5   11.33    0.58 
  -6  -1   5   17.30    1.10 
  -6  -1   5   15.95    1.19 
  -6  -1   5   15.99    0.86 
   5   1  -5  105.58    4.17 
  -5  -1   5  101.40    4.17 
  -5  -1   5  108.22    3.91 
  -5  -1   5  101.78    4.65 
   4   1  -5  114.80    4.38 
  -4  -1   5  110.27    4.06 
  -4  -1   5  107.32    4.32 
  -4  -1   5  106.77    4.87 
   3   1  -5   42.06    1.99 
   3   1  -5   43.36    2.49 
   3   1  -5   42.33    2.32 
   2   1  -5  353.98   13.00 
   2   1  -5  361.25   13.02 
   2   1  -5  353.49   12.57 
   1   1  -5  660.01   23.62 
   1   1  -5  687.83   23.45 
   0   1  -5  111.80    4.32 
   0   1  -5  116.83    4.36 
   0   1  -5  108.11    4.70 
  -1   1  -5  165.04    6.57 
   1  -1   5  161.62    5.97 
   2  -1   5  311.03   10.98 
  -3   1  -5   75.18    3.16 
  -3   1  -5   80.04    3.18 
   3  -1   5   77.29    3.18 
  -4   1  -5  116.54    4.73 
  -4   1  -5  120.40    4.86 
   4  -1   5  126.96    4.80 
  -5   1  -5    5.53    0.59 
  -5   1  -5    5.46    0.56 
  -5   1  -5    5.59    0.56 
  -6   1  -5    6.91    0.61 
  -6   1  -5    7.49    0.58 
  -6   1  -5    7.58    0.64 
  -7   1  -5    6.38    0.41 
  -7   1  -5    4.59    0.48 
  -7   1  -5    6.23    0.47 
  -7   0   5    3.31    0.40 
  -7   0   5    3.96    0.37 
  -6   0   5  123.85    4.40 
  -6   0   5  120.84    4.55 
   5   0  -5  161.52    6.22 
  -5   0   5  166.22    6.24 
  -5   0   5  166.56    5.95 
   4   0  -5   15.14    1.02 
  -4   0   5   14.33    1.25 
  -4   0   5   15.82    1.01 
  -4   0   5   14.92    0.82 
   3   0  -5   34.51    2.02 
   3   0  -5   35.61    1.74 
   3   0  -5   35.05    2.12 
   2   0  -5   17.12    1.23 
   2   0  -5   16.25    1.01 
   2   0  -5   17.24    1.28 
   1   0  -5   18.20    1.31 
   1   0  -5   18.16    1.16 
   1   0  -5   17.40    1.04 
   0   0  -5   13.56    0.88 
   0   0  -5   13.53    1.10 
   0   0   5   14.95    0.85 
  -1   0  -5    5.03    0.46 
   1   0   5    5.16    0.46 
   2   0   5  107.30    4.12 
  -3   0  -5  229.81    8.96 
  -3   0  -5  240.47    9.00 
  -3   0  -5  240.85    9.35 
  -3   0  -5  237.80    8.71 
   3   0   5  252.48    8.72 
  -4   0  -5   33.35    1.72 
  -4   0  -5   32.70    1.77 
  -4   0  -5   34.12    1.70 
  -4   0  -5   32.60    1.87 
   4   0   5   34.06    1.73 
  -5   0  -5   11.60    0.87 
  -5   0  -5   13.00    0.95 
  -5   0  -5   13.15    0.88 
   5   0   5    9.04    1.19 
  -6   0  -5    5.22    0.54 
  -6   0  -5    5.66    0.49 
  -6   0  -5    5.72    0.56 
  -7   0  -5   17.16    0.78 
  -7   0  -5   16.99    0.87 
  -7   0  -5   17.00    0.86 
  -7   1   5   12.95    0.82 
  -7   1   5   11.38    0.56 
  -7   1   5   11.43    0.68 
  -6   1   5   15.96    1.00 
  -6   1   5   15.54    0.81 
   5  -1  -5  105.76    4.36 
  -5   1   5  110.11    4.06 
  -5   1   5  109.20    3.99 
  -5   1   5  105.70    4.30 
   4  -1  -5  114.39    4.50 
  -4   1   5  111.67    4.09 
  -4   1   5  108.53    4.39 
  -4   1   5  110.45    4.14 
   3  -1  -5   43.61    2.03 
   3  -1  -5   42.27    2.38 
   3  -1  -5   41.46    2.35 
  -3   1   5   38.63    2.48 
   2  -1  -5  362.24   13.06 
   2  -1  -5  354.74   12.68 
   1  -1  -5  637.12   22.05 
   1  -1  -5  626.82   22.34 
   0  -1  -5  121.04    5.11 
   0  -1  -5  121.35    4.68 
   0  -1  -5  120.96    4.79 
   0   1   5  120.19    4.55 
  -1  -1  -5  160.61    6.30 
  -1  -1  -5  175.57    7.62 
   1   1   5  167.36    6.17 
  -2  -1  -5  328.26   11.95 
   2   1   5  343.56   11.88 
  -3  -1  -5   81.19    3.43 
  -3  -1  -5   83.84    3.68 
  -3  -1  -5   82.79    3.32 
   3   1   5   81.47    3.39 
  -4  -1  -5  125.11    4.74 
  -4  -1  -5  125.52    5.06 
  -4  -1  -5  116.19    4.85 
  -4  -1  -5  109.58    4.91 
   4   1   5  126.63    4.84 
  -5  -1  -5    5.31    0.53 
  -5  -1  -5    5.20    0.57 
  -5  -1  -5    5.18    0.58 
  -5  -1  -5    5.56    0.65 
  -6  -1  -5    6.92    0.62 
  -6  -1  -5    6.64    0.58 
  -6  -1  -5    6.71    0.52 
   6   1   5    5.98    0.84 
  -7  -1  -5    7.97    0.58 
  -7  -1  -5    7.15    0.67 
  -7   2   5    0.40    0.10 
  -7   2   5    0.46    0.10 
  -7   2   5    0.43    0.19 
  -6   2   5   58.41    2.26 
  -6   2   5   53.23    2.18 
  -6   2   5   56.33    2.21 
  -6   2   5   54.07    2.40 
  -5   2   5  113.88    4.59 
  -5   2   5  117.19    4.28 
  -5   2   5  111.68    4.30 
  -5   2   5  120.04    4.35 
   4  -2  -5   11.64    0.97 
  -4   2   5   12.37    0.75 
  -4   2   5   15.17    0.98 
  -4   2   5   11.80    0.71 
  -4   2   5   12.28    0.76 
   3  -2  -5  125.58    4.95 
  -3   2   5  124.29    4.89 
  -3   2   5  125.49    4.53 
  -3   2   5  119.44    4.70 
   2  -2  -5   36.37    1.88 
   2  -2  -5   38.05    2.18 
   1  -2  -5  155.62    5.99 
   1  -2  -5  159.16    6.29 
   0  -2  -5  299.67   10.91 
   0  -2  -5  309.06   11.15 
   0   2   5  301.35   10.80 
  -1  -2  -5  274.46   10.46 
   1   2   5  293.24   10.18 
  -2  -2  -5  141.40    5.62 
  -2  -2  -5  134.55    5.25 
  -2  -2  -5  134.00    5.52 
  -2  -2  -5  139.42    5.74 
   2   2   5  141.95    5.34 
  -3  -2  -5  999.86   33.50 
  -3  -2  -5  992.87   34.00 
  -3  -2  -5  945.05   33.62 
  -3  -2  -5  969.40   33.67 
   3   2   5  997.99   33.76 
  -4  -2  -5   33.17    1.62 
  -4  -2  -5   32.19    1.74 
  -4  -2  -5   31.61    1.73 
  -4  -2  -5   31.43    1.90 
   4   2   5   32.42    1.80 
  -5  -2  -5    9.37    0.68 
  -5  -2  -5    8.64    0.97 
  -6  -2  -5    5.14    0.40 
  -6  -2  -5    5.14    0.51 
  -6  -2  -5    4.84    0.51 
  -6  -2  -5    4.29    0.45 
  -7   3   5   26.85    1.11 
  -7   3   5   27.11    1.09 
  -6   3   5   50.42    2.01 
  -6   3   5   50.19    2.14 
  -6   3   5   48.28    2.00 
  -6   3   5   48.56    1.97 
  -5   3   5   26.02    1.31 
  -5   3   5   28.00    1.51 
  -5   3   5   28.26    1.29 
  -5   3   5   27.90    1.31 
   4  -3  -5   52.61    2.64 
  -4   3   5   51.98    2.27 
  -4   3   5   52.06    2.43 
  -4   3   5   52.93    2.18 
  -4   3   5   53.37    2.15 
   3  -3  -5  206.49    8.15 
  -3   3   5  227.76    7.66 
  -3   3   5  208.07    7.91 
  -3   3   5  222.57    7.74 
  -3   3   5  213.55    7.63 
   2  -3  -5  230.68    8.06 
   2  -3  -5  227.70    8.47 
  -2   3   5  217.13    8.13 
   1  -3  -5   19.44    1.09 
   1  -3  -5   19.73    1.29 
   0  -3  -5   21.83    1.27 
   0  -3  -5   23.57    1.63 
  -1  -3  -5   79.09    3.32 
  -1  -3  -5   82.02    3.67 
  -1  -3  -5   91.14    3.71 
   1   3   5   80.28    3.52 
  -2  -3  -5   42.82    2.06 
  -2  -3  -5   42.58    2.30 
  -2  -3  -5   45.98    2.05 
  -2  -3  -5   42.24    2.04 
   2   3   5   45.23    2.22 
  -3  -3  -5  137.60    5.46 
  -3  -3  -5  145.40    5.82 
  -3  -3  -5  139.55    5.48 
  -3  -3  -5  138.15    5.27 
   3   3   5  144.30    5.66 
  -4  -3  -5   23.58    1.38 
  -4  -3  -5   23.92    1.58 
  -4  -3  -5   22.62    1.21 
  -4  -3  -5   22.05    1.36 
   4   3   5   22.95    1.51 
  -5  -3  -5    7.80    0.68 
  -5  -3  -5    8.24    0.70 
  -5  -3  -5    8.00    0.80 
  -6  -3  -5    8.36    0.67 
  -6  -3  -5    8.39    0.60 
  -6  -3  -5    8.10    0.59 
   6  -4  -5   45.42    1.88 
  -6   4   5   46.95    1.83 
  -6   4   5   47.13    1.87 
  -6   4   5   45.45    1.90 
  -5   4   5   16.34    0.86 
  -5   4   5   16.51    1.02 
  -5   4   5   16.87    0.92 
  -5   4   5   15.91    0.85 
   4  -4  -5   61.10    3.31 
  -4   4   5   61.22    2.46 
  -4   4   5   63.08    2.57 
  -4   4   5   61.77    2.46 
  -4   4   5   61.69    2.73 
   3  -4  -5   31.22    1.98 
  -3   4   5   34.85    1.52 
  -3   4   5   37.07    1.67 
  -3   4   5   33.00    1.75 
   2  -4  -5   16.80    1.01 
   2  -4  -5   17.70    1.02 
   2  -4  -5   17.06    1.36 
  -2   4   5   18.34    1.14 
  -2   4   5   18.51    0.94 
   1  -4  -5   93.78    3.69 
   1  -4  -5   88.48    3.63 
  -1   4   5   91.88    3.75 
  -1   4   5   98.58    3.55 
   0  -4  -5   27.00    1.25 
   0  -4  -5   29.03    1.45 
   0  -4  -5   28.17    1.42 
   0  -4  -5   24.03    1.63 
   0   4   5   28.21    1.43 
  -1  -4  -5   98.70    3.79 
  -1  -4  -5  101.63    4.31 
  -1  -4  -5   98.52    4.00 
  -1  -4  -5  103.05    4.00 
   1   4   5  100.83    3.92 
  -2  -4  -5  298.98   10.65 
  -2  -4  -5  280.95   10.31 
  -2  -4  -5  291.10   10.63 
  -2  -4  -5  313.04   11.01 
   2   4   5  297.65   10.90 
   2   4   5  278.55   10.34 
  -3  -4  -5    2.08    0.37 
  -3  -4  -5    1.85    0.49 
  -3  -4  -5    2.16    0.37 
   3   4   5    1.89    0.68 
  -4  -4  -5   16.62    1.17 
  -4  -4  -5   17.61    1.39 
  -4  -4  -5   18.78    1.14 
  -5  -4  -5   21.85    1.20 
  -5  -4  -5   21.86    1.36 
  -5  -4  -5   22.87    1.21 
  -6  -4  -5   34.85    1.39 
  -6  -4  -5   35.26    1.49 
  -6  -4  -5   31.61    1.55 
   6  -5  -5   12.82    0.66 
  -6   5   5   13.09    0.59 
  -6   5   5   12.76    0.62 
   5  -5  -5    1.06    0.23 
  -5   5   5    0.75    0.16 
  -5   5   5    0.81    0.14 
  -4   5   5   40.73    1.68 
  -4   5   5   41.66    1.93 
  -4   5   5   38.31    1.64 
   3  -5  -5    8.54    0.68 
   3  -5  -5    9.74    0.70 
  -3   5   5    9.65    0.77 
  -3   5   5    8.34    0.57 
  -3   5   5    9.37    0.60 
   2  -5  -5  371.50   12.76 
   2  -5  -5  358.38   12.75 
  -2   5   5  353.18   12.56 
  -2   5   5  365.57   12.89 
   1  -5  -5  175.12    6.51 
   1  -5  -5  189.23    6.75 
  -1   5   5  183.18    6.82 
   0  -5  -5   44.46    2.04 
   0  -5  -5   42.50    2.04 
   0  -5  -5   43.93    1.83 
   0   5   5   43.49    2.04 
  -1  -5  -5  118.79    4.66 
  -1  -5  -5  120.66    4.70 
  -1  -5  -5  120.54    4.94 
   1   5   5  117.44    4.59 
  -2  -5  -5  112.88    4.46 
  -2  -5  -5  114.50    4.50 
  -2  -5  -5  114.45    4.77 
   2   5   5  109.98    4.29 
  -3  -5  -5    0.63    0.26 
  -3  -5  -5    0.85    0.26 
  -3  -5  -5    0.57    0.19 
  -4  -5  -5    0.53    0.19 
  -4  -5  -5    0.69    0.21 
  -4  -5  -5    0.43    0.20 
  -5  -5  -5   14.88    0.84 
  -5  -5  -5   15.11    0.78 
  -5  -5  -5   14.71    0.95 
   5  -6  -5   13.51    0.70 
  -5   6   5   12.26    0.58 
  -5   6   5   13.44    0.66 
  -4   6   5   10.25    0.55 
  -4   6   5   10.31    0.70 
   3  -6  -5   14.06    0.83 
   3  -6  -5   14.53    0.88 
  -3   6   5   12.78    0.71 
  -3   6   5   14.45    0.91 
   2  -6  -5   22.84    1.08 
   2  -6  -5   23.48    1.25 
   2  -6  -5   23.93    1.27 
  -2   6   5   23.75    1.32 
   0  -6  -5   44.05    2.71 
  -1  -6  -5    9.11    0.81 
  -1  -6  -5    8.63    0.70 
  -1  -6  -5    9.12    0.71 
   1   6   5    9.00    0.67 
  -2  -6  -5   14.82    1.06 
  -2  -6  -5   15.93    1.00 
  -2  -6  -5   14.93    0.95 
   2   6   5   14.61    0.87 
  -3  -6  -5   50.04    2.18 
  -3  -6  -5   54.74    2.88 
  -3  -6  -5   49.27    2.23 
  -4  -6  -5    6.64    0.44 
  -4  -6  -5    7.02    0.52 
  -4  -6  -5    6.65    0.58 
   3  -7  -5    8.32    0.56 
   3  -7  -5    8.18    0.51 
  -3   7   5    8.52    0.56 
   2  -7  -5    9.60    0.65 
   2  -7  -5    9.92    0.65 
  -2   7   5   11.31    0.73 
   1  -7  -5   19.41    1.27 
   1  -7  -5   20.36    1.12 
  -1   7   5   20.83    1.11 
   0  -7  -5   32.52    1.83 
   0  -7  -5   27.60    1.59 
   0   7   5   34.42    1.52 
  -1  -7  -5   33.77    1.54 
  -1  -7  -5   33.39    1.61 
   1   7   5   34.07    1.52 
  -2  -7  -5    0.85    0.22 
  -2  -7  -5    0.44    0.15 
   2   7   5    0.78    0.25 
  -3  -7  -5   15.32    0.92 
   2   7  -6   10.72    0.57 
   1   7  -6   15.23    0.78 
   0   7  -6   13.32    0.73 
  -1   7  -6    0.37    0.13 
   4   6  -6    1.87    0.30 
  -4  -6   6    2.06    0.23 
  -4  -6   6    1.95    0.36 
   3   6  -6    0.35    0.13 
  -3  -6   6    0.55    0.16 
  -3  -6   6    0.85    0.28 
   2   6  -6   11.91    0.74 
  -2  -6   6   12.62    0.70 
  -2  -6   6   11.60    1.31 
   1   6  -6   36.72    1.59 
  -1  -6   6   29.05    2.28 
   0   6  -6   20.29    1.10 
  -1   6  -6    3.56    0.40 
  -2   6  -6    0.20    0.10 
  -3   6  -6    6.79    0.48 
   5   5  -6    1.81    0.23 
  -5  -5   6    1.31    0.21 
  -5  -5   6    0.97    0.29 
   4   5  -6   30.50    1.52 
  -4  -5   6   27.61    1.35 
  -4  -5   6   26.83    1.80 
   3   5  -6  107.97    4.04 
  -3  -5   6  101.62    4.02 
  -3  -5   6  106.61    4.83 
   2   5  -6    2.70    0.33 
  -2  -5   6    1.76    0.67 
  -2  -5   6    2.96    0.40 
   1   5  -6   15.93    0.98 
  -1  -5   6   15.79    1.35 
   0   5  -6  145.92    5.35 
   0  -5   6  136.84    5.82 
  -1   5  -6  107.35    4.17 
  -2   5  -6   20.73    1.13 
  -3   5  -6   23.35    1.18 
  -4   5  -6   10.55    0.60 
  -6  -4   6    0.45    0.19 
  -6  -4   6    0.64    0.17 
  -5  -4   6   28.32    1.36 
  -5  -4   6   28.96    1.82 
  -5  -4   6   24.90    1.42 
  -4  -4   6   12.40    0.82 
  -4  -4   6   11.37    0.71 
  -4  -4   6   12.15    1.23 
   3   4  -6   72.63    3.29 
  -3  -4   6   68.46    3.67 
  -3  -4   6   67.47    2.87 
  -3  -4   6   67.75    2.76 
   2   4  -6   66.06    3.20 
  -2  -4   6   69.11    2.79 
  -2  -4   6   64.59    2.72 
  -2  -4   6   69.10    3.62 
   1   4  -6   51.14    2.30 
  -1  -4   6   52.61    2.99 
  -1  -4   6   54.58    2.27 
   0   4  -6   36.10    1.72 
  -1   4  -6   46.00    2.04 
   1  -4   6   44.23    2.50 
  -2   4  -6   39.40    1.82 
  -3   4  -6   58.94    2.49 
  -3   4  -6   60.42    2.47 
  -4   4  -6    3.58    0.37 
  -4   4  -6    2.97    0.36 
  -4   4  -6    3.18    0.34 
  -5   4  -6   40.56    1.60 
  -5   4  -6   40.29    1.69 
  -6  -3   6   22.59    1.41 
  -6  -3   6   22.26    1.38 
  -6  -3   6   20.79    0.96 
  -5  -3   6   47.41    2.12 
  -5  -3   6   46.37    1.93 
  -5  -3   6   46.93    2.66 
   4   3  -6   83.53    3.72 
  -4  -3   6   88.32    3.53 
  -4  -3   6   85.40    4.26 
  -4  -3   6   87.11    3.32 
   3   3  -6  250.07    9.22 
  -3  -3   6  247.68    8.70 
  -3  -3   6  238.02    8.85 
  -3  -3   6  245.87    9.85 
  -2  -3   6   27.46    1.38 
  -2  -3   6   26.14    1.96 
  -2  -3   6   27.47    1.31 
   1   3  -6   12.08    1.33 
   1   3  -6   12.89    1.05 
  -1  -3   6   13.95    0.82 
  -1  -3   6   13.71    1.30 
   0   3  -6   76.82    3.02 
   0  -3   6   72.97    2.97 
   0  -3   6   74.07    3.70 
  -1   3  -6   72.83    2.89 
  -1   3  -6   67.48    2.86 
   1  -3   6   72.18    3.54 
  -2   3  -6  127.41    4.99 
  -2   3  -6  135.10    5.15 
   2  -3   6  122.86    5.41 
  -3   3  -6  213.15    7.76 
  -3   3  -6  213.62    7.71 
  -3   3  -6  218.68    7.86 
  -4   3  -6   21.54    1.16 
  -4   3  -6   22.35    1.18 
  -4   3  -6   22.69    1.21 
  -4   3  -6   20.42    1.04 
  -5   3  -6    1.51    0.24 
  -5   3  -6    1.81    0.28 
  -5   3  -6    1.68    0.39 
  -6   3  -6    4.36    0.31 
  -6   3  -6    3.04    0.30 
  -7  -2   6    4.85    0.30 
  -6  -2   6   30.35    1.44 
  -6  -2   6   28.38    1.25 
  -6  -2   6   27.99    2.16 
  -5  -2   6   44.34    2.06 
  -5  -2   6   43.64    1.84 
  -5  -2   6   43.23    2.62 
   4   2  -6   37.10    1.95 
  -4  -2   6   35.07    1.78 
  -4  -2   6   37.49    1.61 
  -4  -2   6   35.03    2.33 
   3   2  -6   26.90    1.62 
  -3  -2   6   26.74    1.96 
  -3  -2   6   27.58    1.44 
  -3  -2   6   27.01    1.28 
   2   2  -6  263.37    9.91 
   2   2  -6  269.42   10.52 
  -2  -2   6  281.91    9.50 
  -2  -2   6  266.59   10.51 
   1   2  -6   52.06    2.98 
   1   2  -6   52.12    2.54 
   1   2  -6   54.34    2.71 
  -1  -2   6   56.27    2.24 
  -1  -2   6   59.69    3.22 
   0   2  -6   15.07    2.19 
   0  -2   6   16.52    0.90 
   0  -2   6   17.41    1.48 
  -1   2  -6   10.70    0.74 
  -1   2  -6   11.22    0.70 
  -2   2  -6   38.74    1.77 
  -2   2  -6   42.49    1.92 
   2  -2   6   41.36    2.52 
  -3   2  -6   76.10    3.25 
  -3   2  -6   80.62    3.24 
  -3   2  -6   76.24    3.51 
   3  -2   6   76.61    3.35 
  -4   2  -6  319.51   11.35 
  -4   2  -6  317.45   11.43 
  -4   2  -6  321.77   11.39 
  -5   2  -6   59.97    2.49 
  -5   2  -6   59.83    2.54 
  -5   2  -6   57.59    2.49 
  -6   2  -6   42.77    1.74 
  -6   2  -6   41.64    1.73 
  -6   2  -6   41.23    1.73 
  -7  -1   6    9.25    0.49 
  -7  -1   6    9.59    0.57 
  -6  -1   6    5.72    0.67 
  -6  -1   6    5.32    0.41 
  -6  -1   6    5.40    0.51 
  -5  -1   6   49.10    2.69 
  -5  -1   6   47.04    2.23 
  -5  -1   6   49.84    2.02 
   4   1  -6   19.88    1.30 
  -4  -1   6   19.21    1.63 
   3   1  -6  935.01   31.27 
   3   1  -6  864.20   31.28 
  -3  -1   6  931.08   30.79 
  -3  -1   6  923.58   31.94 
  -3  -1   6  875.58   31.01 
   2   1  -6   36.97    1.93 
   2   1  -6   37.89    2.34 
  -2  -1   6   40.48    1.97 
  -2  -1   6   37.11    2.34 
  -2  -1   6   38.91    1.62 
   1   1  -6   25.34    1.79 
   1   1  -6   25.87    1.46 
   1   1  -6   25.42    1.56 
   0   1  -6  124.95    4.96 
   0   1  -6  128.00    5.54 
   0   1  -6  123.06    4.86 
  -1   1  -6    1.89    0.28 
   1  -1   6    0.86    0.51 
  -2   1  -6  125.86    4.60 
  -2   1  -6  125.48    4.66 
   2  -1   6  108.30    5.52 
   2  -1   6  117.12    4.66 
  -3   1  -6  427.03   14.64 
  -3   1  -6  417.07   14.56 
  -3   1  -6  419.97   14.70 
   3  -1   6  436.61   14.75 
   3  -1   6  377.40   15.62 
  -4   1  -6   13.22    0.93 
  -4   1  -6   13.86    0.93 
  -4   1  -6   14.71    0.99 
   4  -1   6   12.91    1.32 
   4  -1   6   14.17    1.02 
  -5   1  -6   13.08    0.91 
  -5   1  -6   12.62    0.85 
  -5   1  -6   12.83    0.86 
  -6   1  -6   18.79    0.97 
  -6   1  -6   18.10    0.95 
  -6   1  -6   18.88    1.01 
  -7   0   6   67.34    2.46 
  -7   0   6   65.53    2.56 
  -6   0   6    4.41    0.46 
  -6   0   6    5.02    0.39 
   5   0  -6  204.02    7.72 
  -5   0   6  202.25    7.19 
  -5   0   6  205.24    7.97 
  -5   0   6  205.08    7.58 
  -5   0   6  208.03    7.30 
   4   0  -6   19.24    1.28 
  -4   0   6   17.92    0.92 
  -4   0   6   19.30    1.52 
  -4   0   6   19.24    1.19 
  -4   0   6   20.31    0.99 
   3   0  -6   53.17    3.01 
   3   0  -6   51.63    2.45 
  -3   0   6   52.06    2.06 
  -3   0   6   46.38    2.32 
  -3   0   6   51.12    2.83 
  -3   0   6   49.54    2.28 
   2   0  -6  108.97    4.47 
   2   0  -6  111.91    5.01 
  -2   0   6  109.69    4.32 
  -2   0   6  114.63    5.22 
   1   0  -6   93.82    3.90 
   1   0  -6  101.15    4.55 
   1   0  -6   89.74    4.04 
   0   0  -6   72.28    3.17 
   0   0  -6   70.92    3.15 
   0   0  -6   73.16    3.62 
  -1   0  -6  188.69    6.48 
   1   0   6  153.34    7.55 
   1   0   6  191.41    6.67 
  -2   0  -6   15.41    0.91 
   2   0   6   11.64    1.41 
   2   0   6   14.59    0.97 
  -3   0  -6  125.03    4.65 
  -3   0  -6  113.49    4.58 
  -3   0  -6  120.15    4.73 
   3   0   6  117.21    4.70 
  -4   0  -6    0.70    0.21 
  -4   0  -6    0.90    0.31 
  -4   0  -6    0.97    0.27 
   4   0   6    0.56    0.24 
   4   0   6    1.07    0.49 
  -5   0  -6   12.62    0.86 
  -5   0  -6   14.02    0.95 
  -5   0  -6   13.21    0.86 
   5   0   6   10.99    1.21 
  -6   0  -6    2.14    0.31 
  -6   0  -6    2.45    0.29 
  -6   0  -6    2.19    0.30 
  -7   1   6    9.59    0.57 
  -7   1   6    9.92    0.52 
  -6   1   6    5.44    0.38 
  -6   1   6    6.08    0.55 
  -6   1   6    5.46    0.42 
  -5   1   6   47.67    1.97 
  -5   1   6   48.17    2.27 
  -5   1   6   51.05    2.05 
   4  -1  -6   20.65    1.38 
  -4   1   6   19.40    1.18 
   3  -1  -6  863.66   30.49 
  -3   1   6  882.79   30.26 
  -3   1   6  885.27   29.95 
  -3   1   6  895.52   29.96 
   2  -1  -6   37.28    2.37 
   2  -1  -6   37.47    1.95 
  -2   1   6   36.64    1.77 
  -2   1   6   38.16    1.59 
   1  -1  -6   28.09    1.80 
   1  -1  -6   30.49    1.67 
   1  -1  -6   31.58    2.08 
   0  -1  -6  128.70    5.27 
   0  -1  -6  131.04    5.76 
  -1  -1  -6    1.32    0.36 
  -1  -1  -6    1.38    0.28 
   1   1   6    1.84    0.38 
   1   1   6    1.86    0.62 
  -2  -1  -6  124.74    4.84 
  -2  -1  -6  124.59    4.77 
  -2  -1  -6  131.05    4.94 
  -2  -1  -6  124.48    5.21 
   2   1   6  125.92    4.97 
  -3  -1  -6  418.55   15.34 
  -3  -1  -6  447.09   15.31 
  -3  -1  -6  432.59   15.76 
  -3  -1  -6  430.12   15.43 
   3   1   6  455.19   15.53 
  -4  -1  -6   14.32    0.96 
  -4  -1  -6   14.62    1.17 
  -4  -1  -6   14.02    0.98 
  -4  -1  -6   13.63    1.02 
   4   1   6   15.59    1.13 
  -5  -1  -6   12.00    0.88 
  -5  -1  -6   12.28    0.83 
  -5  -1  -6   11.58    0.78 
   5   1   6    9.17    1.14 
  -6  -1  -6   17.72    0.88 
  -6  -1  -6   17.97    0.96 
  -6  -1  -6   18.37    1.00 
  -7   2   6    4.88    0.32 
  -7   2   6    4.91    0.33 
  -7   2   6    4.89    0.28 
  -6   2   6   28.03    1.43 
  -6   2   6   29.93    1.25 
  -6   2   6   29.49    1.28 
  -5   2   6   44.51    1.86 
  -5   2   6   43.78    1.83 
  -5   2   6   43.87    2.10 
   4  -2  -6   34.37    1.60 
   4  -2  -6   35.44    2.03 
  -4   2   6   37.75    1.59 
  -4   2   6   36.84    1.57 
  -4   2   6   33.78    1.80 
   3  -2  -6   28.09    1.34 
  -3   2   6   26.80    1.48 
  -3   2   6   27.20    1.24 
  -3   2   6   26.86    1.25 
   2  -2  -6  264.47    9.95 
   2  -2  -6  274.38    9.56 
  -2   2   6  257.14    9.32 
  -2   2   6  260.45    9.63 
  -2   2   6  274.14    9.40 
  -2   2   6  281.41   10.46 
   1  -2  -6   52.97    2.22 
   1  -2  -6   53.18    2.55 
  -1   2   6   47.43    2.27 
  -1   2   6   53.01    2.26 
  -1   2   6   48.54    3.07 
   0  -2  -6   16.25    0.86 
   0  -2  -6   16.65    0.97 
   0   2   6   12.35    1.40 
  -1  -2  -6   10.63    0.95 
  -1  -2  -6   13.86    0.88 
  -1  -2  -6   11.32    0.75 
  -2  -2  -6   39.94    2.24 
  -2  -2  -6   47.03    2.02 
  -2  -2  -6   40.43    2.00 
  -2  -2  -6   37.90    1.83 
   2   2   6   40.91    2.09 
  -3  -2  -6   80.21    3.67 
  -3  -2  -6   75.93    3.30 
  -3  -2  -6   76.12    3.19 
  -3  -2  -6   76.73    3.35 
   3   2   6   81.86    3.50 
  -4  -2  -6  317.26   11.38 
  -4  -2  -6  311.07   11.24 
  -4  -2  -6  322.84   11.75 
  -4  -2  -6  317.60   11.44 
  -5  -2  -6   57.15    2.68 
  -5  -2  -6   56.93    2.34 
  -5  -2  -6   57.73    2.53 
  -5  -2  -6   56.56    2.46 
  -6  -2  -6   39.88    1.64 
  -6  -2  -6   40.19    1.69 
  -6  -2  -6   40.97    1.68 
   6   2   6   32.07    1.92 
  -6   3   6   20.56    1.06 
  -6   3   6   20.18    0.94 
  -6   3   6   20.64    0.96 
   5  -3  -6   45.19    1.94 
  -5   3   6   45.48    2.14 
  -5   3   6   47.19    1.90 
  -5   3   6   47.00    1.90 
   4  -3  -6   80.55    3.19 
   4  -3  -6   79.93    3.71 
  -4   3   6   75.09    3.34 
  -4   3   6   82.50    3.09 
  -4   3   6   83.10    3.08 
   3  -3  -6  219.11    8.94 
  -3   3   6  242.06    8.65 
  -3   3   6  245.26    8.32 
   2  -3  -6   31.40    1.86 
   2  -3  -6   27.16    1.41 
  -2   3   6   32.01    1.37 
  -2   3   6   26.25    1.50 
   1  -3  -6   14.22    0.88 
  -1   3   6   13.43    0.91 
  -1   3   6   13.53    0.79 
  -1   3   6   13.22    1.43 
   0  -3  -6   72.05    2.91 
   0  -3  -6   73.51    2.76 
   0   3   6   72.82    2.89 
   0   3   6   57.97    3.71 
  -1  -3  -6   64.87    2.83 
  -1  -3  -6   68.72    2.89 
  -1  -3  -6   66.19    2.69 
  -1  -3  -6   67.37    3.18 
  -2  -3  -6  129.38    5.30 
  -2  -3  -6  138.17    5.49 
  -2  -3  -6  127.32    5.20 
   2   3   6  131.71    5.41 
  -3  -3  -6  228.17    8.55 
  -3  -3  -6  220.33    8.16 
  -3  -3  -6  220.82    7.95 
  -3  -3  -6  208.07    8.08 
   3   3   6  223.24    8.48 
  -4  -3  -6   21.61    1.26 
  -4  -3  -6   21.58    1.47 
  -4  -3  -6   20.11    1.25 
  -4  -3  -6   20.94    1.12 
  -5  -3  -6    1.68    0.30 
  -5  -3  -6    1.85    0.39 
  -5  -3  -6    1.50    0.29 
  -6  -3  -6    3.44    0.31 
  -6  -3  -6    3.49    0.31 
   6   3   6    2.71    0.49 
   6  -4  -6    0.41    0.13 
  -6   4   6    0.45    0.19 
  -6   4   6    0.36    0.08 
   5  -4  -6   28.45    1.40 
  -5   4   6   28.98    1.44 
  -5   4   6   28.24    1.24 
  -5   4   6   28.68    1.22 
   4  -4  -6   11.76    0.78 
  -4   4   6   12.41    0.70 
  -4   4   6   12.44    0.89 
  -4   4   6   12.05    0.67 
   3  -4  -6   67.41    2.80 
  -3   4   6   71.41    2.68 
  -3   4   6   66.60    2.93 
  -3   4   6   64.95    2.56 
   2  -4  -6   65.75    2.79 
  -2   4   6   67.00    2.91 
  -2   4   6   67.16    2.65 
   1  -4  -6   53.24    2.38 
   1  -4  -6   51.78    2.25 
   1  -4  -6   51.57    2.33 
  -1   4   6   53.71    2.38 
   0  -4  -6   34.56    1.60 
   0   4   6   24.61    2.95 
   0   4   6   27.41    2.00 
  -1  -4  -6   44.01    2.09 
  -1  -4  -6   43.06    2.34 
  -1  -4  -6   41.77    1.88 
  -1  -4  -6   47.28    2.11 
   1   4   6   43.65    1.96 
  -2  -4  -6   35.27    1.68 
  -2  -4  -6   38.45    1.91 
  -2  -4  -6   40.03    2.20 
  -2  -4  -6   38.24    1.89 
  -3  -4  -6   58.95    2.78 
  -3  -4  -6   56.43    2.34 
  -4  -4  -6    3.25    0.50 
  -4  -4  -6    2.57    0.37 
  -4  -4  -6    3.06    0.39 
  -5  -4  -6   37.30    1.63 
  -5  -4  -6   37.19    1.80 
  -5  -4  -6   37.10    1.62 
   5  -5  -6    1.15    0.20 
  -5   5   6    1.21    0.17 
  -5   5   6    1.71    0.16 
  -5   5   6    1.36    0.23 
   4  -5  -6   26.56    1.29 
  -4   5   6   26.31    1.36 
  -4   5   6   25.64    1.16 
  -4   5   6   26.69    1.09 
   3  -5  -6  103.40    4.02 
  -3   5   6  105.69    3.86 
  -3   5   6  102.32    4.11 
   2  -5  -6    3.50    0.46 
   2  -5  -6    3.51    0.39 
   2  -5  -6    3.25    0.41 
  -2   5   6    2.68    0.40 
   1  -5  -6   15.65    1.00 
   1  -5  -6   14.76    0.84 
   1  -5  -6   15.62    0.94 
  -1   5   6   15.37    1.01 
   0  -5  -6  141.50    5.18 
   0  -5  -6  141.63    5.39 
   0  -5  -6  142.25    5.43 
   0   5   6  144.06    5.39 
  -1  -5  -6  100.18    3.97 
  -1  -5  -6   97.34    3.91 
  -1  -5  -6   93.90    3.65 
  -2  -5  -6   20.43    1.20 
  -2  -5  -6   20.61    1.19 
  -2  -5  -6   19.76    1.35 
  -3  -5  -6   24.17    1.45 
  -3  -5  -6   21.08    1.20 
  -3  -5  -6   22.49    1.24 
  -4  -5  -6   10.64    0.81 
  -4  -5  -6    9.49    0.65 
  -4  -5  -6   10.28    0.67 
   4  -6  -6    1.85    0.23 
  -4   6   6    1.74    0.25 
   3  -6  -6    0.64    0.23 
   3  -6  -6    0.57    0.13 
  -3   6   6    1.00    0.36 
   2  -6  -6   12.36    0.74 
   2  -6  -6   11.73    0.78 
   2  -6  -6   11.80    0.65 
  -2   6   6   11.93    0.80 
   1  -6  -6   34.59    1.61 
   1  -6  -6   34.66    1.67 
   1  -6  -6   35.99    1.57 
  -1   6   6   35.45    1.68 
   0  -6  -6   18.08    1.09 
   0  -6  -6   19.46    1.08 
   0   6   6   19.49    1.07 
  -1  -6  -6    3.13    0.38 
  -1  -6  -6    3.15    0.39 
   1   6   6    2.96    0.35 
  -2  -6  -6    0.01    0.19 
  -2  -6  -6    0.21    0.18 
   2   6   6   -0.26    0.22 
   2   6   6    0.17    0.24 
  -3  -6  -6    5.60    0.45 
  -3  -6  -6    5.84    0.45 
   3   6   6    4.85    0.67 
   2  -7  -6   10.15    0.63 
  -2   7   6   11.22    0.65 
   1  -7  -6   14.10    0.80 
   1  -7  -6   13.91    0.74 
  -1   7   6   14.61    0.79 
   0  -7  -6   12.60    0.74 
   0  -7  -6   13.78    0.79 
   0   7   6   12.34    0.70 
  -1  -7  -6    0.55    0.19 
  -1  -7  -6    0.40    0.18 
   1   7   6    0.41    0.13 
   3   6  -7    7.16    0.44 
  -3  -6   7    7.07    0.66 
   2   6  -7   12.82    0.72 
  -2  -6   7   13.02    1.01 
   1   6  -7    2.97    0.33 
  -1  -6   7    3.28    0.47 
   0   6  -7   13.49    0.77 
  -1   6  -7    6.42    0.47 
  -2   6  -7   17.96    0.87 
   4   5  -7   14.88    0.77 
  -4  -5   7   14.99    1.10 
  -4  -5   7   14.44    0.75 
   3   5  -7   28.57    1.32 
  -3  -5   7   27.90    1.26 
  -3  -5   7   27.61    1.77 
   2   5  -7   52.47    2.17 
  -2  -5   7   48.62    2.68 
  -2  -5   7   50.31    2.03 
   1   5  -7   13.27    0.84 
  -1  -5   7   13.53    1.15 
   0   5  -7   52.81    2.30 
   0  -5   7   55.15    2.70 
  -1   5  -7   31.41    1.50 
  -2   5  -7   14.50    0.83 
  -3   5  -7    0.77    0.15 
   5   4  -7   12.95    0.68 
  -5  -4   7   12.34    0.71 
  -5  -4   7   12.19    0.63 
  -5  -4   7   12.21    0.99 
  -4  -4   7   19.14    1.47 
  -4  -4   7   18.71    1.01 
  -4  -4   7   19.55    0.96 
  -3  -4   7   20.40    1.64 
  -3  -4   7   21.67    1.11 
  -3  -4   7   18.70    1.03 
   2   4  -7   63.55    2.69 
  -2  -4   7   66.14    2.64 
  -2  -4   7   63.84    2.63 
  -2  -4   7   64.75    3.44 
   1   4  -7    6.68    0.57 
  -1  -4   7    6.12    0.84 
   0   4  -7   60.98    2.54 
   0  -4   7   57.20    3.08 
  -1   4  -7   11.36    0.76 
   1  -4   7   10.44    1.04 
  -2   4  -7    0.50    0.16 
  -3   4  -7    8.94    0.59 
  -3   4  -7    9.16    0.58 
  -4   4  -7   14.69    0.73 
  -6  -3   7   11.04    0.76 
  -6  -3   7    9.79    0.51 
  -6  -3   7   10.41    0.60 
  -5  -3   7    3.40    0.38 
  -5  -3   7    3.73    0.33 
  -5  -3   7    3.52    0.56 
  -4  -3   7   29.15    1.45 
  -4  -3   7   27.86    1.98 
  -4  -3   7   29.74    1.35 
  -3  -3   7  107.35    3.99 
  -3  -3   7  102.57    4.06 
  -3  -3   7  104.94    4.97 
   2   3  -7  197.16    8.04 
  -2  -3   7  197.16    7.29 
  -2  -3   7  212.36    7.29 
  -2  -3   7  201.60    8.34 
  -1  -3   7  240.44    8.61 
  -1  -3   7  242.53    9.63 
   0   3  -7   34.21    1.63 
   0  -3   7   34.89    2.25 
  -1   3  -7   61.50    2.64 
  -1   3  -7   62.63    2.66 
   1  -3   7   69.75    3.40 
  -2   3  -7    0.30    0.18 
  -3   3  -7    4.99    0.50 
  -4   3  -7   21.18    1.15 
  -5   3  -7   33.26    1.51 
  -6  -2   7   24.40    1.19 
  -6  -2   7   26.49    1.10 
  -6  -2   7   24.62    1.77 
  -5  -2   7    2.52    0.29 
  -5  -2   7    2.74    0.35 
  -5  -2   7    2.34    0.50 
  -4  -2   7   17.64    1.06 
  -4  -2   7   16.73    1.49 
  -4  -2   7   16.81    0.92 
   3   2  -7  343.74   12.42 
  -3  -2   7  336.29   13.00 
  -3  -2   7  325.67   11.97 
  -3  -2   7  350.86   11.84 
   2   2  -7   10.30    0.95 
  -2  -2   7   11.06    0.76 
  -1  -2   7   79.78    4.02 
  -1  -2   7   80.41    3.13 
   0   2  -7    5.34    0.52 
   0  -2   7    6.36    0.88 
   0  -2   7    6.67    0.52 
  -1   2  -7   22.92    1.20 
  -1   2  -7   25.02    1.31 
   1  -2   7   24.66    1.96 
  -2   2  -7   55.44    2.51 
  -2   2  -7   52.30    2.33 
   2  -2   7   67.66    3.31 
  -3   2  -7  172.61    6.43 
  -4   2  -7   43.51    1.99 
  -4   2  -7   45.46    1.97 
  -5   2  -7   30.20    1.34 
  -5   2  -7   31.95    1.50 
  -5   2  -7   29.39    1.38 
  -6  -1   7    4.15    0.41 
  -6  -1   7    3.88    0.57 
  -5  -1   7   30.53    1.90 
  -5  -1   7   30.68    1.37 
  -5  -1   7   30.21    1.53 
   4   1  -7    3.51    0.57 
  -4  -1   7    3.14    0.33 
  -4  -1   7    4.00    0.68 
  -4  -1   7    2.91    0.40 
   3   1  -7   50.46    2.59 
  -3  -1   7   53.76    2.34 
  -3  -1   7   53.97    2.16 
  -3  -1   7   50.36    2.96 
   2   1  -7  541.63   19.74 
  -2  -1   7  600.21   19.77 
  -2  -1   7  575.17   19.91 
  -2  -1   7  588.16   20.97 
   1   1  -7   39.08    2.11 
   1   1  -7   39.90    2.76 
   1   1  -7   37.67    1.71 
  -1  -1   7   38.74    2.49 
  -1  -1   7   38.82    1.68 
   0   1  -7   50.64    2.17 
   0  -1   7   52.36    3.05 
   0  -1   7   48.77    2.08 
  -1   1  -7   54.53    2.35 
  -1   1  -7   52.34    2.19 
   1  -1   7   55.50    3.25 
  -2   1  -7   56.60    2.50 
   2  -1   7   57.35    3.36 
  -3   1  -7   47.02    2.23 
  -3   1  -7   51.14    2.26 
   3  -1   7   48.36    2.91 
  -4   1  -7   72.05    3.08 
  -4   1  -7   71.86    2.96 
  -4   1  -7   72.24    3.06 
   4  -1   7   80.68    3.67 
  -5   1  -7   29.80    1.81 
  -5   1  -7   30.17    1.35 
  -5   1  -7   29.34    1.43 
  -6   0   7   61.07    2.53 
  -6   0   7   58.21    2.30 
   5   0  -7   15.31    0.78 
  -5   0   7   14.89    0.80 
  -5   0   7   14.50    0.95 
  -5   0   7   13.76    1.15 
   4   0  -7   58.40    2.84 
   4   0  -7   56.14    2.33 
  -4   0   7   58.53    2.34 
  -4   0   7   57.79    2.29 
  -4   0   7   57.04    3.05 
  -4   0   7   61.47    2.61 
   3   0  -7  438.72   15.47 
  -3   0   7  420.74   15.98 
   2   0  -7   12.13    0.76 
   2   0  -7   12.14    1.04 
  -2   0   7   13.65    1.33 
  -2   0   7   11.84    0.71 
  -2   0   7   13.99    0.89 
   1   0  -7   63.06    3.03 
   1   0  -7   64.78    2.62 
   1   0  -7   59.73    4.91 
  -1   0   7   65.95    2.53 
  -1   0   7   70.07    3.64 
   0   0  -7   17.24    0.99 
   0   0   7   17.60    1.68 
  -1   0  -7    0.18    0.14 
   1   0   7    0.36    0.42 
  -2   0  -7   22.05    1.52 
  -2   0  -7   21.05    1.32 
   2   0   7   21.99    2.86 
  -3   0  -7    3.77    0.45 
  -3   0  -7    3.78    0.48 
  -3   0  -7    3.22    0.44 
   3   0   7    2.23    0.69 
  -4   0  -7   52.32    2.25 
  -4   0  -7   55.00    2.42 
  -4   0  -7   54.34    2.34 
   4   0   7   47.47    2.96 
  -5   0  -7   16.70    0.91 
  -5   0  -7   16.74    0.94 
   5   0   7   17.93    1.28 
   6  -1  -7    3.01    0.26 
  -6   1   7    3.76    0.53 
  -6   1   7    2.86    0.39 
  -5   1   7   28.33    1.26 
  -5   1   7   29.58    1.31 
  -5   1   7   29.06    1.51 
   4  -1  -7    3.48    0.60 
  -4   1   7    4.66    0.52 
  -4   1   7    3.24    0.67 
  -4   1   7    4.03    0.37 
  -4   1   7    3.57    0.35 
   3  -1  -7   54.00    2.71 
  -3   1   7   51.47    2.15 
  -3   1   7   51.77    2.12 
  -3   1   7   54.45    2.42 
   2  -1  -7  596.92   20.11 
   2  -1  -7  548.33   20.65 
  -2   1   7  573.64   20.26 
  -2   1   7  574.79   19.97 
  -2   1   7  631.74   21.30 
   1  -1  -7   35.71    1.75 
   1  -1  -7   38.30    1.71 
  -1   1   7   39.17    1.78 
  -1   1   7   40.65    2.62 
   0  -1  -7   51.35    2.24 
   0  -1  -7   52.40    2.16 
   0   1   7   45.85    3.11 
  -1  -1  -7   54.17    2.26 
  -1  -1  -7   55.32    2.38 
   1   1   7   44.62    3.22 
  -2  -1  -7   54.02    2.42 
  -2  -1  -7   54.75    2.31 
   2   1   7   44.79    3.25 
  -3  -1  -7   48.42    2.14 
  -3  -1  -7   49.01    2.17 
  -3  -1  -7   50.75    2.31 
   3   1   7   40.16    3.01 
  -4  -1  -7   68.41    2.89 
  -4  -1  -7   73.58    2.95 
  -4  -1  -7   71.33    3.05 
  -5  -1  -7   28.42    1.31 
  -5  -1  -7   22.74    1.59 
  -5  -1  -7   29.12    1.31 
   5   1   7   29.44    1.85 
  -6   2   7   26.39    1.10 
  -6   2   7   25.37    1.23 
  -6   2   7   25.85    1.08 
  -5   2   7    2.07    0.35 
  -5   2   7    2.20    0.25 
  -5   2   7    2.03    0.24 
  -4   2   7   19.31    0.94 
  -4   2   7   16.33    1.09 
  -4   2   7   16.94    0.88 
   3  -2  -7  324.03   11.57 
   3  -2  -7  320.92   12.23 
  -3   2   7  339.99   11.50 
  -3   2   7  332.80   11.79 
  -3   2   7  331.60   11.42 
   2  -2  -7    9.67    1.02 
   2  -2  -7   10.89    0.73 
  -2   2   7    9.95    0.58 
  -2   2   7   10.43    1.12 
  -2   2   7    7.27    0.90 
   1  -2  -7   78.26    3.16 
   1  -2  -7   79.70    3.06 
  -1   2   7   77.37    4.06 
  -1   2   7   72.88    3.12 
   0  -2  -7    6.26    0.51 
   0  -2  -7    5.80    0.58 
   0   2   7    4.29    0.90 
  -1  -2  -7   25.95    1.58 
  -2  -2  -7   54.57    2.38 
  -2  -2  -7   56.73    2.52 
  -2  -2  -7   56.06    2.36 
   2   2   7   47.60    3.40 
  -3  -2  -7  165.90    6.05 
  -3  -2  -7  171.63    6.12 
  -3  -2  -7  168.60    6.23 
   3   2   7  142.78    7.28 
  -4  -2  -7   40.69    1.78 
  -4  -2  -7   40.29    1.81 
  -4  -2  -7   41.31    1.92 
   4   2   7   32.95    2.52 
  -5  -2  -7   26.22    1.16 
  -5  -2  -7   26.79    1.23 
  -5  -2  -7   27.34    1.31 
   5   2   7   23.77    1.72 
  -6   3   7   10.57    0.61 
  -6   3   7   10.49    0.53 
  -6   3   7   10.50    0.52 
  -5   3   7    3.94    0.43 
  -5   3   7    2.98    0.30 
  -5   3   7    3.18    0.30 
   4  -3  -7   28.27    1.38 
  -4   3   7   30.75    1.57 
  -4   3   7   29.54    1.27 
  -4   3   7   30.00    1.33 
   3  -3  -7  105.12    4.02 
  -3   3   7  103.85    4.17 
  -3   3   7   97.87    3.77 
  -3   3   7  109.42    3.92 
   2  -3  -7  212.96    7.39 
   2  -3  -7  209.94    7.50 
  -2   3   7  185.39    8.18 
  -2   3   7  206.15    7.57 
  -2   3   7  211.72    7.35 
   1  -3  -7  223.74    8.11 
   1  -3  -7  224.04    7.96 
  -1   3   7  226.41    8.12 
  -1   3   7  216.77    9.02 
   0  -3  -7   33.91    1.68 
   0  -3  -7   34.28    1.53 
   0   3   7   33.86    1.58 
   0   3   7   27.03    2.28 
  -1  -3  -7   60.20    2.63 
  -1  -3  -7   60.80    2.55 
  -1  -3  -7   66.16    2.78 
  -2  -3  -7    0.61    0.21 
  -2  -3  -7    0.69    0.20 
  -2  -3  -7    0.34    0.23 
   2   3   7    0.77    0.43 
  -3  -3  -7    4.57    0.44 
  -3  -3  -7    4.95    0.65 
  -3  -3  -7    6.09    0.57 
  -3  -3  -7    5.42    0.53 
   3   3   7    4.08    0.85 
  -4  -3  -7   20.22    0.98 
  -4  -3  -7   18.67    1.31 
  -4  -3  -7   20.15    1.13 
   4   3   7   17.59    1.64 
  -5  -3  -7   30.52    1.34 
  -5  -3  -7   31.79    1.42 
   5   3   7   25.05    1.73 
   5  -4  -7   11.85    0.65 
  -5   4   7   12.39    0.75 
  -5   4   7   13.12    0.64 
  -5   4   7   12.88    0.62 
   4  -4  -7   19.27    1.01 
  -4   4   7   18.73    0.84 
  -4   4   7   19.33    0.93 
  -4   4   7   19.14    1.10 
   3  -4  -7   19.58    1.10 
  -3   4   7   20.33    1.19 
  -3   4   7   20.43    1.01 
   2  -4  -7   63.73    2.60 
   2  -4  -7   66.67    2.75 
  -2   4   7   63.79    2.78 
   1  -4  -7    6.54    0.52 
   1  -4  -7    6.52    0.60 
  -1   4   7    6.84    0.93 
  -1   4   7    6.46    0.60 
   0  -4  -7   55.53    2.26 
   0  -4  -7   57.52    2.46 
   0   4   7   45.36    3.00 
   0   4   7   57.04    2.35 
  -1  -4  -7    9.83    0.73 
  -1  -4  -7    9.58    0.81 
  -1  -4  -7   11.35    0.81 
   1   4   7    7.38    1.12 
  -2  -4  -7    0.97    0.28 
  -2  -4  -7    0.70    0.21 
  -2  -4  -7    0.65    0.18 
   2   4   7    0.53    0.36 
  -3  -4  -7    8.34    0.56 
  -3  -4  -7    8.49    0.67 
  -3  -4  -7    7.54    0.61 
   3   4   7    6.48    0.97 
  -4  -4  -7   13.50    0.74 
  -4  -4  -7   12.73    0.77 
   4   4   7   10.47    1.13 
   4  -5  -7   15.89    0.77 
   4  -5  -7   14.58    0.81 
  -4   5   7   15.81    0.87 
   3  -5  -7   28.85    1.29 
   3  -5  -7   28.32    1.38 
  -3   5   7   30.06    1.45 
   2  -5  -7   47.85    2.11 
   2  -5  -7   47.75    1.96 
  -2   5   7   47.84    2.13 
   1  -5  -7   13.50    0.75 
   1  -5  -7   14.18    0.91 
  -1   5   7   12.65    0.84 
   0  -5  -7   51.36    2.06 
   0  -5  -7   51.93    2.27 
   0  -5  -7   51.55    2.17 
   0   5   7   50.78    2.15 
   0   5   7   45.96    2.63 
  -1  -5  -7   28.58    1.51 
  -1  -5  -7   30.12    1.45 
   1   5   7   32.16    1.66 
  -2  -5  -7   13.61    0.82 
  -2  -5  -7   14.47    0.89 
   2   5   7   11.08    1.69 
  -3  -5  -7    0.53    0.17 
  -3  -5  -7    0.47    0.13 
   3   5   7    0.13    0.24 
   3  -6  -7    7.17    0.49 
   3  -6  -7    7.07    0.40 
  -3   6   7    7.50    0.50 
   2  -6  -7   12.30    0.69 
   2  -6  -7   13.32    0.78 
  -2   6   7   12.57    0.74 
   1  -6  -7    3.24    0.36 
  -1   6   7    2.83    0.32 
   0  -6  -7    9.88    0.88 
   0  -6  -7   12.01    0.75 
   0   6   7   11.72    0.67 
  -1  -6  -7    5.81    0.48 
  -1  -6  -7    5.21    0.51 
   1   6   7    5.97    0.39 
  -2  -6  -7   15.81    0.79 
  -2  -6  -7   15.56    0.84 
   2   6   7   16.98    1.17 
   1   6  -8    2.02    0.23 
   0   6  -8    4.72    0.35 
   3   5  -8   11.70    0.64 
  -3  -5   8   11.14    0.88 
   2   5  -8   13.80    0.76 
  -2  -5   8   13.04    1.01 
   1   5  -8   11.56    0.89 
  -1  -5   8   13.33    0.99 
   0   5  -8   23.70    1.18 
   0  -5   8   25.24    1.82 
  -1   5  -8   18.95    0.94 
  -2   5  -8   29.22    1.37 
   4   4  -8   21.13    1.00 
  -4  -4   8   21.55    1.39 
  -4  -4   8   20.74    0.96 
  -3  -4   8    6.13    0.75 
  -3  -4   8    5.16    0.40 
   2   4  -8    8.64    0.61 
  -2  -4   8    6.85    0.83 
   1   4  -8   67.76    2.77 
  -1  -4   8   68.64    3.37 
   0   4  -8    6.43    0.55 
   0  -4   8    6.95    0.79 
  -1   4  -8   47.24    2.04 
   1  -4   8   50.50    2.46 
  -2   4  -8    7.55    0.51 
  -5  -3   8    0.10    0.07 
  -5  -3   8    0.46    0.20 
  -5  -3   8    0.00    0.10 
  -4  -3   8   14.43    0.77 
  -4  -3   8   13.20    1.17 
  -3  -3   8    9.17    0.60 
  -3  -3   8    7.76    0.96 
  -3  -3   8    8.57    0.61 
  -2  -3   8   48.20    2.86 
  -2  -3   8   49.28    2.20 
  -2  -3   8   54.51    2.16 
   1   3  -8    8.07    0.62 
  -1  -3   8    7.81    0.98 
   0   3  -8   34.42    1.91 
  -1   3  -8   79.21    3.16 
  -1   3  -8   82.77    3.18 
   1  -3   8   81.53    3.81 
  -2   3  -8   55.38    2.27 
  -2   3  -8   50.98    2.17 
   2  -3   8   58.78    2.75 
  -3   3  -8   17.83    0.92 
  -4   3  -8    6.55    0.41 
  -5  -2   8   10.33    0.88 
  -5  -2   8   10.62    0.60 
  -5  -2   8   10.03    0.65 
  -4  -2   8    5.90    0.46 
  -4  -2   8    6.01    0.52 
  -4  -2   8    6.57    0.84 
  -3  -2   8    8.88    1.44 
  -3  -2   8   13.32    0.79 
  -2  -2   8  266.81    9.09 
  -2  -2   8  249.44   10.12 
  -2  -2   8  253.73    9.08 
   1   2  -8   74.18    3.12 
  -1  -2   8   83.87    4.09 
  -1  -2   8   83.95    3.17 
   0   2  -8   86.53    3.48 
   0   2  -8   86.89    3.44 
   0  -2   8   94.00    4.39 
  -1   2  -8    6.40    0.56 
  -1   2  -8    5.88    0.47 
   1  -2   8    6.64    0.89 
  -2   2  -8   39.34    1.86 
   2  -2   8   41.56    2.36 
  -3   2  -8   35.31    1.74 
   3  -2   8   42.90    2.67 
  -4   2  -8    6.16    0.47 
  -6  -1   8    4.94    0.38 
  -6  -1   8    5.41    0.34 
  -5  -1   8    1.74    0.23 
  -5  -1   8    2.30    0.43 
  -5  -1   8    1.53    0.27 
  -4  -1   8   75.93    2.90 
  -4  -1   8   76.38    3.68 
  -4  -1   8   72.93    3.03 
   3   1  -8   57.73    2.52 
  -3  -1   8   56.30    2.45 
  -3  -1   8   58.53    3.18 
  -3  -1   8   57.32    2.32 
   2   1  -8   36.97    1.68 
  -2  -1   8   39.21    1.68 
  -2  -1   8   37.09    1.73 
  -2  -1   8   39.74    2.49 
   1   1  -8   47.98    2.13 
  -1  -1   8   49.93    2.07 
  -1  -1   8   52.17    2.99 
   0   1  -8   78.59    3.09 
   0   1  -8   79.92    3.23 
   0  -1   8   81.69    4.14 
  -1   1  -8  121.98    4.79 
   1  -1   8  128.99    5.78 
  -2   1  -8   21.42    1.21 
   2  -1   8   21.14    1.71 
  -3   1  -8   18.37    1.02 
  -3   1  -8   17.17    1.03 
   3  -1   8   17.14    1.39 
  -4   1  -8   32.86    1.86 
  -4   1  -8   30.10    1.39 
   4  -1   8   30.08    2.07 
  -5   1  -8   14.02    0.86 
  -5   1  -8   19.26    1.07 
  -6   0   8    8.93    0.54 
  -6   0   8    8.91    0.48 
  -5   0   8   14.03    0.73 
  -5   0   8   13.44    0.84 
   4   0  -8   17.80    0.88 
  -4   0   8   17.25    0.88 
  -4   0   8   16.60    1.33 
  -4   0   8   16.75    1.02 
   3   0  -8    6.91    0.53 
  -3   0   8    7.41    0.62 
  -3   0   8    7.22    0.90 
  -3   0   8    6.91    0.50 
   2   0  -8   91.86    3.62 
  -2   0   8   96.81    4.56 
  -2   0   8   95.31    3.54 
  -2   0   8   92.81    3.69 
   1   0  -8   68.53    2.80 
  -1   0   8   69.50    3.72 
  -1   0   8   67.29    2.66 
   0   0  -8   67.43    2.83 
   0   0   8   70.19    3.83 
  -1   0  -8   22.96    1.30 
  -1   0  -8   26.07    1.35 
   1   0   8   26.14    2.11 
  -2   0  -8   30.54    1.64 
  -2   0  -8   34.72    1.67 
   2   0   8   33.15    2.39 
  -3   0  -8   25.99    1.42 
  -3   0  -8   28.10    1.44 
   3   0   8   30.04    2.11 
  -4   0  -8    2.45    0.31 
  -4   0  -8    1.28    0.28 
   4   0   8    1.87    0.42 
  -5   0  -8    1.19    0.20 
  -5   0  -8    1.85    0.23 
  -6   1   8    5.02    0.39 
  -6   1   8    5.06    0.32 
   5  -1  -8    1.82    0.23 
  -5   1   8    2.04    0.24 
  -5   1   8    1.92    0.31 
   4  -1  -8   73.99    2.83 
  -4   1   8   69.78    3.25 
  -4   1   8   71.83    3.00 
  -4   1   8   74.82    2.77 
   3  -1  -8   57.71    2.35 
  -3   1   8   58.60    3.07 
  -3   1   8   54.82    2.24 
  -3   1   8   57.71    2.51 
   2  -1  -8   37.82    1.74 
  -2   1   8   39.68    2.43 
  -2   1   8   38.04    1.62 
  -2   1   8   39.98    1.84 
   1  -1  -8   52.54    2.23 
  -1   1   8   53.55    3.09 
  -1   1   8   49.85    2.20 
   0  -1  -8   73.73    3.20 
   0  -1  -8   83.77    3.22 
   0   1   8   80.06    4.29 
  -1  -1  -8  120.84    4.55 
  -1  -1  -8  117.01    4.61 
   1   1   8  116.67    5.78 
  -2  -1  -8   17.91    1.15 
  -2  -1  -8   20.75    1.14 
   2   1   8   18.23    1.80 
  -3  -1  -8   16.81    0.99 
  -3  -1  -8   16.54    1.02 
   3   1   8   15.20    1.53 
  -4  -1  -8   28.00    1.41 
   4   1   8   30.68    1.97 
  -5  -1  -8   20.19    0.96 
  -5  -1  -8   20.43    0.90 
   5  -2  -8   10.33    0.58 
  -5   2   8    9.92    0.67 
  -5   2   8   10.05    0.54 
   4  -2  -8    7.50    0.52 
  -4   2   8    6.27    0.57 
  -4   2   8    6.48    0.43 
   3  -2  -8   10.48    0.77 
  -3   2   8   11.45    0.81 
  -3   2   8   11.68    0.61 
  -3   2   8   10.34    0.98 
   2  -2  -8  271.32    9.39 
   2  -2  -8  239.10    9.37 
  -2   2   8  280.26   10.25 
  -2   2   8  268.71    9.52 
   1  -2  -8   78.69    3.15 
   1  -2  -8   75.89    3.21 
  -1   2   8   83.58    4.09 
  -1   2   8   80.40    3.20 
   0  -2  -8   95.40    3.65 
   0  -2  -8   90.97    3.73 
   0   2   8   91.71    4.72 
  -1  -2  -8    7.35    0.59 
  -1  -2  -8    6.92    0.65 
   1   2   8    5.27    0.96 
  -2  -2  -8   40.88    1.92 
  -2  -2  -8   40.15    1.81 
   2   2   8   34.87    2.67 
  -3  -2  -8   34.91    1.59 
  -3  -2  -8   36.70    1.72 
  -3  -2  -8   33.95    1.52 
   3   2   8   31.40    2.34 
  -4  -2  -8    5.55    0.44 
  -4  -2  -8    6.22    0.44 
   4   2   8    5.91    0.82 
   5  -3  -8    0.17    0.09 
  -5   3   8    0.08    0.09 
  -5   3   8   -0.02    0.06 
   4  -3  -8   15.89    0.82 
  -4   3   8   14.06    0.88 
  -4   3   8   13.98    0.67 
   3  -3  -8    8.85    0.64 
   3  -3  -8    8.78    0.60 
  -3   3   8    8.71    0.69 
   2  -3  -8   46.10    2.06 
   2  -3  -8   45.29    2.00 
  -2   3   8   46.28    2.40 
  -2   3   8   49.10    2.12 
   1  -3  -8    8.88    0.64 
  -1   3   8    8.47    0.67 
  -1   3   8    9.71    1.34 
   0  -3  -8   28.71    2.03 
   0  -3  -8   31.06    1.48 
  -1  -3  -8   80.34    3.09 
  -1  -3  -8   80.50    3.24 
   1   3   8   70.20    4.05 
  -2  -3  -8   52.61    2.13 
  -2  -3  -8   52.29    2.28 
   2   3   8   44.26    2.98 
  -3  -3  -8   16.32    0.88 
  -3  -3  -8   17.24    1.00 
  -3  -3  -8   17.65    0.87 
   3   3   8   14.99    1.45 
  -4  -3  -8    5.66    0.45 
  -4  -3  -8    4.29    0.39 
  -4  -3  -8    5.32    0.35 
   4   3   8    5.36    0.73 
   4  -4  -8   21.83    0.98 
   4  -4  -8   21.51    0.99 
  -4   4   8   21.38    1.08 
   3  -4  -8    5.74    0.45 
   3  -4  -8    5.52    0.47 
  -3   4   8    5.91    0.50 
   2  -4  -8    7.30    0.59 
   2  -4  -8    7.37    0.54 
  -2   4   8    8.20    0.61 
   1  -4  -8   64.28    2.60 
   1  -4  -8   65.17    2.74 
  -1   4   8   67.32    2.67 
   0  -4  -8    6.74    0.58 
   0  -4  -8    6.88    0.52 
   0   4   8    7.29    0.90 
  -1  -4  -8   43.40    1.84 
  -1  -4  -8   45.19    2.01 
   1   4   8   41.84    2.58 
  -2  -4  -8    6.57    0.56 
  -2  -4  -8    7.10    0.49 
   2   4   8    6.35    1.33 
  -3  -4  -8   23.63    1.07 
  -3  -4  -8   21.90    0.97 
  -3  -4  -8   21.71    1.11 
   3   4   8   20.58    1.55 
   3  -5  -8   11.21    0.71 
   3  -5  -8   11.69    0.60 
  -3   5   8   11.25    0.66 
   2  -5  -8   12.00    0.67 
   2  -5  -8   12.97    0.76 
  -2   5   8   13.09    0.74 
   1  -5  -8   12.27    0.68 
   1  -5  -8   12.90    0.79 
  -1   5   8   12.39    0.71 
   0  -5  -8   21.52    1.00 
   0  -5  -8   21.83    1.16 
  -1  -5  -8   16.55    0.79 
  -1  -5  -8   17.24    0.95 
  -2  -5  -8   35.25    1.54 
   2   5   8   34.66    1.87 
   1  -6  -8    2.05    0.24 
   0  -6  -8    4.39    0.36 
   1   5  -9    6.88    0.42 
   3   4  -9   19.43    0.90 
  -3  -4   9   19.00    1.20 
   2   4  -9    3.92    0.35 
  -2  -4   9    4.15    0.54 
   1   4  -9    3.17    0.32 
  -1  -4   9    3.09    0.48 
   0   4  -9    2.92    0.31 
   0  -4   9    2.93    0.44 
  -1   4  -9   12.48    0.71 
   4   3  -9    1.77    0.22 
  -4  -3   9    2.11    0.36 
  -4  -3   9    2.42    0.25 
  -4  -3   9    1.92    0.21 
   3   3  -9   25.73    1.20 
  -3  -3   9   26.22    1.64 
   2   3  -9    4.44    0.40 
  -2  -3   9    4.67    0.67 
   1   3  -9   54.87    2.22 
  -1  -3   9   53.69    2.80 
   0   3  -9  100.86    3.80 
   0  -3   9   95.58    4.28 
  -1   3  -9   39.07    1.65 
   1  -3   9   42.99    2.14 
  -4  -2   9    4.17    0.35 
  -4  -2   9    4.60    0.36 
  -4  -2   9    4.49    0.57 
  -3  -2   9   14.53    1.22 
  -3  -2   9   14.73    0.78 
  -3  -2   9   14.87    0.79 
  -2  -2   9   20.46    1.55 
  -2  -2   9   19.95    1.00 
   1   2  -9    2.69    0.31 
  -1  -2   9    3.03    0.58 
   0   2  -9   28.46    1.31 
   0   2  -9   26.54    1.26 
   0  -2   9   28.03    1.87 
  -1   2  -9  158.23    5.89 
   1  -2   9  166.56    6.59 
  -2   2  -9   40.67    1.76 
   2  -2   9   41.37    2.13 
  -3   2  -9    1.09    0.19 
  -5  -1   9    3.71    0.28 
  -5  -1   9    3.03    0.37 
  -4  -1   9    5.82    0.67 
  -4  -1   9    5.77    0.41 
  -4  -1   9    6.01    0.46 
  -3  -1   9   34.47    1.46 
  -3  -1   9   31.99    1.57 
  -3  -1   9   34.29    2.09 
   2   1  -9   63.85    2.53 
  -2  -1   9   63.81    3.30 
  -2  -1   9   63.06    2.48 
   1   1  -9   13.29    0.77 
   1   1  -9   13.96    0.82 
  -1  -1   9   14.43    1.32 
   0   1  -9  129.04    4.87 
   0   1  -9  120.46    4.68 
   0  -1   9  141.32    5.82 
  -1   1  -9   15.22    0.94 
   1  -1   9   17.51    1.43 
  -2   1  -9   28.84    1.45 
   2  -1   9   32.31    1.93 
  -3   1  -9   10.27    0.67 
   3  -1   9   10.98    0.87 
  -4   1  -9    2.03    0.23 
  -5   0   9    1.35    0.19 
  -5   0   9    1.35    0.18 
   4   0  -9   86.65    3.40 
  -4   0   9   94.82    3.38 
  -4   0   9   94.98    3.50 
  -4   0   9   91.20    3.84 
   3   0  -9   15.18    0.80 
  -3   0   9   14.28    0.76 
  -3   0   9   15.11    1.24 
  -3   0   9   15.31    0.86 
   2   0  -9   28.77    1.41 
  -2   0   9   31.80    2.03 
  -2   0   9   30.02    1.32 
  -2   0   9   31.78    1.41 
   1   0  -9    7.71    0.59 
  -1   0   9    8.41    1.01 
  -1   0   9    7.02    0.49 
   0   0  -9   32.81    1.59 
   0   0   9   33.86    2.26 
  -1   0  -9    1.01    0.23 
   1   0   9    0.56    0.32 
  -2   0  -9    5.55    0.52 
   2   0   9    6.78    0.85 
  -3   0  -9    0.43    0.14 
  -3   0  -9    0.35    0.20 
   3   0   9    0.60    0.26 
  -4   0  -9    0.77    0.21 
  -5   1   9    3.93    0.32 
  -5   1   9    3.61    0.27 
   4  -1  -9    6.45    0.44 
  -4   1   9    6.22    0.48 
  -4   1   9    5.84    0.39 
   3  -1  -9   33.64    1.50 
  -3   1   9   33.12    1.47 
  -3   1   9   34.58    1.57 
  -3   1   9   35.56    2.02 
   2  -1  -9   64.75    2.65 
  -2   1   9   68.33    2.67 
  -2   1   9   65.92    3.28 
  -2   1   9   66.01    2.50 
   1  -1  -9   13.64    0.85 
  -1   1   9   14.64    1.33 
   0  -1  -9  138.01    5.19 
   0   1   9  140.09    6.14 
  -1  -1  -9   15.49    0.95 
  -1  -1  -9   16.29    0.95 
   1   1   9   16.47    1.50 
  -2  -1  -9   28.93    1.41 
  -2  -1  -9   28.97    1.43 
   2   1   9   31.57    2.09 
  -3  -1  -9    9.92    0.64 
  -3  -1  -9    9.63    0.63 
  -4  -1  -9    2.55    0.29 
  -4  -1  -9    2.19    0.23 
   4   1   9    2.48    0.38 
   4  -2  -9    5.34    0.38 
  -4   2   9    4.53    0.39 
  -4   2   9    4.31    0.33 
   3  -2  -9   14.68    0.80 
   2  -2  -9   20.72    1.06 
  -2   2   9   20.53    1.04 
  -2   2   9   19.16    1.37 
   1  -2  -9    2.29    0.38 
   1  -2  -9    2.46    0.35 
   0  -2  -9   26.90    1.38 
   0  -2  -9   29.30    1.39 
   0   2   9   29.25    1.98 
  -1  -2  -9  159.81    5.89 
  -1  -2  -9  154.77    5.91 
   1   2   9  168.53    6.90 
  -2  -2  -9   39.30    1.74 
  -2  -2  -9   38.67    1.77 
   2   2   9   41.38    2.44 
  -3  -2  -9    0.94    0.19 
  -3  -2  -9    0.55    0.18 
   4  -3  -9    2.05    0.23 
  -4   3   9    2.37    0.26 
   3  -3  -9   26.92    1.19 
  -3   3   9   25.38    1.21 
   2  -3  -9    4.42    0.40 
   2  -3  -9    4.58    0.41 
  -2   3   9    4.08    0.38 
   1  -3  -9   51.56    2.23 
   1  -3  -9   54.91    2.22 
  -1   3   9   51.71    2.39 
  -1   3   9   58.01    2.74 
   0  -3  -9   94.97    4.13 
   0  -3  -9   99.34    3.76 
   0   3   9  104.36    4.44 
  -1  -3  -9   40.65    1.87 
  -1  -3  -9   44.56    1.91 
  -2  -3  -9   12.62    0.75 
  -2  -3  -9   12.09    0.69 
   2   3   9   12.30    1.10 
  -3  -3  -9   34.68    1.39 
  -3  -3  -9   33.39    1.47 
   3   3   9   38.21    2.16 
   3  -4  -9   19.17    0.87 
  -3   4   9   18.67    0.88 
   2  -4  -9    3.19    0.35 
   2  -4  -9    3.40    0.32 
  -2   4   9    3.75    0.42 
   1  -4  -9    2.64    0.30 
   1  -4  -9    2.50    0.28 
  -1   4   9    3.00    0.32 
   0  -4  -9    2.56    0.28 
   0  -4  -9    3.33    0.34 
   0   4   9    2.41    0.60 
  -1  -4  -9   15.62    0.86 
  -1  -4  -9   15.11    0.77 
   1   4   9   16.58    1.10 
  -2  -4  -9   49.13    2.16 
  -2  -4  -9   54.45    2.18 
   2   4   9   59.95    2.53 
   1  -5  -9    6.52    0.41 
   1  -5  -9    6.25    0.42 
   2   3 -10   17.13    0.77 
  -2  -3  10   16.94    1.40 
   1   3 -10    1.33    0.18 
  -1  -3  10    1.57    0.32 
   0  -3  10    4.68    0.48 
   3   2 -10   33.62    1.36 
  -3  -2  10   34.18    1.80 
   2   2 -10    8.56    0.51 
  -2  -2  10    8.48    0.81 
   1   2 -10    0.56    0.19 
  -1  -2  10    0.51    0.23 
   0  -2  10   27.12    1.59 
  -1   2 -10   33.87    1.59 
   1  -2  10   44.77    2.00 
   3   1 -10   12.76    0.84 
  -3  -1  10   11.07    0.74 
  -3  -1  10   13.55    0.97 
   2   1 -10   15.29    0.75 
  -2  -1  10   17.25    1.23 
   1   1 -10    3.06    0.31 
  -1  -1  10    4.39    0.73 
   0   1 -10   32.99    1.43 
   0  -1  10   33.66    1.96 
  -1   1 -10   41.59    1.77 
   1  -1  10   44.85    2.24 
  -2   1 -10   11.84    0.67 
   2  -1  10   10.96    0.84 
  -4   0  10    0.26    0.09 
   3   0 -10   38.25    1.49 
  -3   0  10   37.88    1.45 
  -3   0  10   38.56    1.90 
   2   0 -10    0.27    0.13 
  -2   0  10    0.60    0.24 
   1   0 -10    1.07    0.20 
   0   0 -10    0.47    0.15 
   0   0  10    0.55    0.36 
  -1   0 -10    8.34    0.57 
   1   0  10    8.74    0.85 
   2   0  10    0.62    0.24 
   3  -1 -10   13.56    0.77 
  -3   1  10   10.88    0.70 
  -3   1  10   12.94    0.81 
   2  -1 -10   17.13    0.85 
  -2   1  10   16.74    1.14 
   1  -1 -10    3.12    0.33 
  -1   1  10    3.50    0.53 
   0  -1 -10   35.17    1.57 
   0   1  10   36.56    2.05 
  -1  -1 -10   41.44    1.81 
   1   1  10   45.46    2.31 
  -2  -1 -10   11.87    0.66 
   2   1  10   12.56    0.95 
   3  -2 -10   27.36    1.33 
   2  -2 -10    8.58    0.53 
  -2   2  10    8.18    0.64 
  -1   2  10    0.70    0.24 
   0  -2 -10   27.41    1.26 
   0   2  10   27.83    1.61 
  -1  -2 -10   44.10    1.84 
   1   2  10   46.64    2.26 
  -2  -2 -10   15.40    0.77 
   2   2  10   17.37    1.10 
   2  -3 -10   16.96    0.85 
   1  -3 -10    1.56    0.21 
   0  -3 -10    5.03    0.37 
   0   3  10    5.11    0.49 
  -1  -3 -10   54.96    2.15 
   1   3  10   59.30    2.46 
   0   0   0    0.00    0.00 
;
_shelx_hkl_checksum              6215
loop_
_space_group_symop_operation_xyz
'x, y, z'
'-x, y+1/2, -z'
loop_
_atom_site_label
_atom_site_type_symbol
_atom_site_fract_x
_atom_site_fract_y
_atom_site_fract_z
_atom_site_U_iso_or_equiv
_atom_site_adp_type
_atom_site_occupancy
_atom_site_site_symmetry_order
_atom_site_calc_flag
_atom_site_refinement_flags_posn
_atom_site_refinement_flags_adp
O1 O 0.6363(2) 0.4975(3) 0.5404(2) 0.0673(6) Uani 1 1 d . .
O2 O 0.0183(2) 0.4792(2) 0.87295(16) 0.0445(4) Uani 1 1 d . .
O3 O 0.3957(2) 0.3657(2) 0.90785(17) 0.0507(5) Uani 1 1 d . .
C1 C 0.4954(3) 0.5330(3) 0.6064(3) 0.0446(5) Uani 1 1 d . .
C2 C 0.5122(3) 0.6168(3) 0.7609(3) 0.0495(6) Uani 1 1 d . .
H2A H 0.5023 0.7487 0.7509 0.059 Uiso 1 1 calc R U
H2B H 0.6392 0.5891 0.8100 0.059 Uiso 1 1 calc R U
C3 C 0.3582(3) 0.5503(3) 0.8609(2) 0.0413(5) Uani 1 1 d . .
H3 H 0.3665 0.6271 0.9512 0.050 Uiso 1 1 calc R U
C4 C 0.1522(3) 0.5694(3) 0.7830(2) 0.0353(5) Uani 1 1 d . .
C5 C 0.1407(2) 0.4553(3) 0.6395(2) 0.0338(5) Uani 1 1 d . .
H5 H 0.0122 0.4714 0.5859 0.041 Uiso 1 1 calc R U
C6 C 0.2942(3) 0.5045(3) 0.5333(2) 0.0424(5) Uani 1 1 d . .
H6A H 0.2982 0.4078 0.4593 0.051 Uiso 1 1 calc R U
H6B H 0.2537 0.6154 0.4798 0.051 Uiso 1 1 calc R U
C7 C 0.1508(3) 0.2663(3) 0.7126(2) 0.0390(5) Uani 1 1 d . .
H7 H 0.1131 0.1693 0.6401 0.047 Uiso 1 1 calc R U
C8 C 0.0030(3) 0.2907(3) 0.8268(2) 0.0475(6) Uani 1 1 d . .
H8A H -0.1264 0.2641 0.7817 0.057 Uiso 1 1 calc R U
H8B H 0.0317 0.2101 0.9121 0.057 Uiso 1 1 calc R U
C9 C 0.3503(3) 0.2325(3) 0.7931(3) 0.0480(6) Uani 1 1 d . .
H9A H 0.3540 0.1114 0.8377 0.058 Uiso 1 1 calc R U
H9B H 0.4467 0.2371 0.7209 0.058 Uiso 1 1 calc R U
C10 C 0.0895(4) 0.7663(3) 0.7624(3) 0.0523(6) Uani 1 1 d . .
H10A H -0.0450 0.7706 0.7261 0.079 Uiso 1 1 calc R U
H10B H 0.1652 0.8243 0.6910 0.079 Uiso 1 1 calc R U
H10C H 0.1084 0.8290 0.8570 0.079 Uiso 1 1 calc R U
loop_
_atom_site_aniso_label
_atom_site_aniso_U_11
_atom_site_aniso_U_22
_atom_site_aniso_U_33
_atom_site_aniso_U_23
_atom_site_aniso_U_13
_atom_site_aniso_U_12
O1 0.0440(9) 0.0873(14) 0.0736(11) 0.0048(10) 0.0223(8) 0.0028(9)
O2 0.0540(8) 0.0409(8) 0.0410(7) -0.0012(6) 0.0184(6) -0.0068(6)
O3 0.0594(9) 0.0454(9) 0.0433(8) 0.0062(7) -0.0169(7) -0.0003(7)
C1 0.0378(10) 0.0451(12) 0.0520(11) 0.0076(9) 0.0092(8) -0.0016(8)
C2 0.0392(11) 0.0500(12) 0.0584(13) -0.0018(10) -0.0011(9) -0.0094(10)
C3 0.0495(11) 0.0381(11) 0.0348(10) -0.0035(8) -0.0040(8) -0.0067(8)
C4 0.0399(10) 0.0326(10) 0.0343(9) 0.0013(8) 0.0081(7) -0.0021(8)
C5 0.0304(9) 0.0390(10) 0.0317(9) 0.0002(8) 0.0002(7) -0.0016(7)
C6 0.0434(10) 0.0523(12) 0.0321(9) 0.0033(9) 0.0062(7) 0.0011(10)
C7 0.0442(11) 0.0323(10) 0.0400(10) -0.0037(8) 0.0011(8) -0.0042(8)
C8 0.0574(12) 0.0394(11) 0.0468(11) 0.0007(9) 0.0113(9) -0.0122(9)
C9 0.0564(12) 0.0355(12) 0.0505(12) 0.0033(9) -0.0046(10) 0.0050(9)
C10 0.0609(14) 0.0357(11) 0.0628(14) 0.0043(9) 0.0191(11) 0.0058(10)
loop_
_atom_type_symbol
_atom_type_description
_atom_type_scat_dispersion_real
_atom_type_scat_dispersion_imag
_atom_type_scat_source
C C 0.0181 0.0091 'International Tables Vol C Tables 4.2.6.8 and 6.1.1.4'
H H 0.0000 0.0000 'International Tables Vol C Tables 4.2.6.8 and 6.1.1.4'
O O 0.0492 0.0322 'International Tables Vol C Tables 4.2.6.8 and 6.1.1.4'
loop_
_geom_angle_atom_site_label_1
_geom_angle_atom_site_label_2
_geom_angle_atom_site_label_3
_geom_angle
C8 O2 C4 108.29(14)
C9 O3 C3 114.26(15)
O1 C1 C6 121.1(2)
O1 C1 C2 122.2(2)
C6 C1 C2 116.62(18)
C1 C2 C3 113.88(17)
C1 C2 H2A 108.8
C3 C2 H2A 108.8
C1 C2 H2B 108.8
C3 C2 H2B 108.8
H2A C2 H2B 107.7
O3 C3 C2 110.65(18)
O3 C3 C4 110.83(16)
C2 C3 C4 111.98(15)
O3 C3 H3 107.7
C2 C3 H3 107.7
C4 C3 H3 107.7
O2 C4 C10 108.15(16)
O2 C4 C5 103.28(15)
C10 C4 C5 115.21(18)
O2 C4 C3 108.93(15)
C10 C4 C3 112.81(17)
C5 C4 C3 107.90(15)
C4 C5 C7 97.97(14)
C4 C5 C6 113.89(16)
C7 C5 C6 118.02(17)
C4 C5 H5 108.8
C7 C5 H5 108.8
C6 C5 H5 108.8
C1 C6 C5 115.71(15)
C1 C6 H6A 108.4
C5 C6 H6A 108.4
C1 C6 H6B 108.4
C5 C6 H6B 108.4
H6A C6 H6B 107.4
C8 C7 C9 109.95(17)
C8 C7 C5 99.95(17)
C9 C7 C5 110.74(16)
C8 C7 H7 111.9
C9 C7 H7 111.9
C5 C7 H7 111.9
O2 C8 C7 105.52(16)
O2 C8 H8A 110.6
C7 C8 H8A 110.6
O2 C8 H8B 110.6
C7 C8 H8B 110.6
H8A C8 H8B 108.8
O3 C9 C7 111.18(17)
O3 C9 H9A 109.4
C7 C9 H9A 109.4
O3 C9 H9B 109.4
C7 C9 H9B 109.4
H9A C9 H9B 108.0
C4 C10 H10A 109.5
C4 C10 H10B 109.5
H10A C10 H10B 109.5
C4 C10 H10C 109.5
H10A C10 H10C 109.5
H10B C10 H10C 109.5
loop_
_geom_bond_atom_site_label_1
_geom_bond_atom_site_label_2
_geom_bond_distance
O1 C1 1.213(3)
O2 C8 1.440(3)
O2 C4 1.441(2)
O3 C9 1.428(3)
O3 C3 1.431(3)
C1 C6 1.501(3)
C1 C2 1.504(3)
C2 C3 1.532(3)
C2 H2A 0.9700
C2 H2B 0.9700
C3 C4 1.538(3)
C3 H3 0.9800
C4 C10 1.510(3)
C4 C5 1.526(3)
C5 C7 1.528(3)
C5 C6 1.530(3)
C5 H5 0.9800
C6 H6A 0.9700
C6 H6B 0.9700
C7 C8 1.519(3)
C7 C9 1.521(3)
C7 H7 0.9800
C8 H8A 0.9700
C8 H8B 0.9700
C9 H9A 0.9700
C9 H9B 0.9700
C10 H10A 0.9600
C10 H10B 0.9600
C10 H10C 0.9600
loop_
_geom_torsion_atom_site_label_1
_geom_torsion_atom_site_label_2
_geom_torsion_atom_site_label_3
_geom_torsion_atom_site_label_4
_geom_torsion
O1 C1 C2 C3 -144.9(2)
C6 C1 C2 C3 38.4(3)
C9 O3 C3 C2 -74.6(2)
C9 O3 C3 C4 50.2(2)
C1 C2 C3 O3 72.2(2)
C1 C2 C3 C4 -52.0(3)
C8 O2 C4 C10 148.19(19)
C8 O2 C4 C5 25.6(2)
C8 O2 C4 C3 -88.87(19)
O3 C3 C4 O2 47.1(2)
C2 C3 C4 O2 171.22(17)
O3 C3 C4 C10 167.22(18)
C2 C3 C4 C10 -68.7(2)
O3 C3 C4 C5 -64.4(2)
C2 C3 C4 C5 59.7(2)
O2 C4 C5 C7 -45.34(17)
C10 C4 C5 C7 -163.05(17)
C3 C4 C5 C7 69.91(17)
O2 C4 C5 C6 -170.85(15)
C10 C4 C5 C6 71.4(2)
C3 C4 C5 C6 -55.6(2)
O1 C1 C6 C5 149.0(2)
C2 C1 C6 C5 -34.3(3)
C4 C5 C6 C1 43.9(3)
C7 C5 C6 C1 -70.2(2)
C4 C5 C7 C8 47.08(17)
C6 C5 C7 C8 169.61(17)
C4 C5 C7 C9 -68.82(19)
C6 C5 C7 C9 53.7(2)
C4 O2 C8 C7 5.2(2)
C9 C7 C8 O2 82.9(2)
C5 C7 C8 O2 -33.6(2)
C3 O3 C9 C7 -47.5(2)
C8 C7 C9 O3 -49.8(2)
C5 C7 C9 O3 59.7(2)
