#------------------------------------------------------------------------------
#$Date: 2019-11-02 06:58:15 +0200 (Sat, 02 Nov 2019) $
#$Revision: 220877 $
#$URL: file:///home/coder/svn-repositories/cod/cif/4/12/76/4127678.cif $
#------------------------------------------------------------------------------
#
# This file is available in the Crystallography Open Database (COD),
# http://www.crystallography.net/
#
# All data on this site have been placed in the public domain by the
# contributors.
#
data_4127678
loop_
_publ_author_name
'Touge, Taichiro'
'Sakaguchi, Kazuhiko'
'Tamaki, Nao'
'Nara, Hideki'
'Yokozawa, Tohru'
'Matsumura, Kazuhiko'
'Kayaki, Yoshihito'
_publ_section_title
;
 Multiple Absolute Stereocontrol in Cascade Lactone Formation via Dynamic
 Kinetic Resolution Driven by the Asymmetric Transfer Hydrogenation of
 Keto Acids with Oxo-Tethered Ruthenium Catalysts.
;
_journal_issue                   41
_journal_name_full               'Journal of the American Chemical Society'
_journal_page_first              16354
_journal_page_last               16361
_journal_paper_doi               10.1021/jacs.9b07297
_journal_volume                  141
_journal_year                    2019
_chemical_absolute_configuration 'CHOOSE rm ad rmad syn or unk'
_chemical_formula_moiety         'C18 H15 Br O2'
_chemical_formula_sum            'C18 H15 Br O2'
_chemical_formula_weight         343.22
_space_group_crystal_system      monoclinic
_space_group_IT_number           4
_space_group_name_Hall           'P 2yb'
_space_group_name_H-M_alt        'P 1 21 1'
_symmetry_space_group_name_Hall  'P 2yb'
_symmetry_space_group_name_H-M   'P 1 21 1'
_atom_sites_solution_hydrogens   geom
_atom_sites_solution_primary     direct
_atom_sites_solution_secondary   difmap
_cell_angle_alpha                90.0000
_cell_angle_beta                 101.619(4)
_cell_angle_gamma                90.0000
_cell_formula_units_Z            2
_cell_length_a                   8.342(3)
_cell_length_b                   8.299(3)
_cell_length_c                   10.721(4)
_cell_measurement_reflns_used    2813
_cell_measurement_temperature    93
_cell_measurement_theta_max      27.49
_cell_measurement_theta_min      3.13
_cell_volume                     727.0(5)
_computing_cell_refinement       CrystalClear
_computing_data_collection       'CrystalClear (Rigaku Inc., 2008)'
_computing_data_reduction        CrystalClear
_computing_molecular_graphics    'CrystalStructure 4.2.5'
_computing_publication_material  'CrystalStructure 4.2.5 (Rigaku, 2017)'
_computing_structure_refinement  'SHELXL Version 2014/7 (Sheldrick, 2008)'
_computing_structure_solution    'SIR92 (Altomare, et al., 1994)'
_diffrn_ambient_temperature      93
_diffrn_detector_area_resol_mean 7.111
_diffrn_measured_fraction_theta_full 0.948
_diffrn_measured_fraction_theta_max 0.956
_diffrn_measurement_device_type  'Rigaku Saturn724'
_diffrn_measurement_method       \w
_diffrn_radiation_type           'Mo K\a'
_diffrn_radiation_wavelength     0.71075
_diffrn_reflns_av_R_equivalents  0.0386
_diffrn_reflns_Laue_measured_fraction_full 0.948
_diffrn_reflns_Laue_measured_fraction_max 0.956
_diffrn_reflns_limit_h_max       9
_diffrn_reflns_limit_h_min       -10
_diffrn_reflns_limit_k_max       10
_diffrn_reflns_limit_k_min       -10
_diffrn_reflns_limit_l_max       13
_diffrn_reflns_limit_l_min       -13
_diffrn_reflns_number            4698
_diffrn_reflns_point_group_measured_fraction_full 0.887
_diffrn_reflns_point_group_measured_fraction_max 0.900
_diffrn_reflns_theta_full        25.242
_diffrn_reflns_theta_max         27.489
_diffrn_reflns_theta_min         3.129
_diffrn_standards_number         0
_exptl_absorpt_coefficient_mu    2.836
_exptl_absorpt_correction_T_max  0.797
_exptl_absorpt_correction_T_min  0.688
_exptl_absorpt_correction_type   multi-scan
_exptl_absorpt_process_details   'REQAB (Rigaku, 1998)'
_exptl_crystal_colour            colorless
_exptl_crystal_density_diffrn    1.568
_exptl_crystal_density_method    'not measured'
_exptl_crystal_description       prism
_exptl_crystal_F_000             348.00
_exptl_crystal_size_max          0.250
_exptl_crystal_size_mid          0.160
_exptl_crystal_size_min          0.080
_refine_diff_density_max         1.53
_refine_diff_density_min         -0.58
_refine_ls_abs_structure_details
;
 Flack x determined using 1208 quotients [(I+)-(I-)]/[(I+)+(I-)]
 (Parsons, Flack and Wagner, Acta Cryst. B69 (2013) 249-259).
;
_refine_ls_abs_structure_Flack   0.047(14)
_refine_ls_extinction_method     none
_refine_ls_goodness_of_fit_ref   1.000
_refine_ls_hydrogen_treatment    constr
_refine_ls_number_parameters     190
_refine_ls_number_reflns         2994
_refine_ls_number_restraints     1
_refine_ls_R_factor_all          0.0393
_refine_ls_R_factor_gt           0.0386
_refine_ls_shift/su_max          0.000
_refine_ls_structure_factor_coef Fsqd
_refine_ls_weighting_details
'w = 1/[\s^2^(Fo^2^)+(0.0819P)^2^] where P=(Fo^2^+2Fc^2^)/3'
_refine_ls_weighting_scheme      calc
_refine_ls_wR_factor_gt          0.0958
_refine_ls_wR_factor_ref         0.0963
_reflns_Friedel_coverage         0.761
_reflns_Friedel_fraction_full    0.815
_reflns_Friedel_fraction_max     0.835
_reflns_number_gt                2891
_reflns_number_total             2994
_reflns_threshold_expression     F^2^>2.0\s(F^2^)
_cod_data_source_file            ja9b07297_si_006.cif
_cod_data_source_block           58D-Br-Ph
_cod_original_cell_volume        727.0(4)
_cod_database_code               4127678
_shelx_res_file
;

    shelxl.res created by SHELXL-2014/7

TITL 58D-Br-Ph
CELL  0.71075 8.34190 8.29920 10.72130 90.00000 101.61860 90.00000
ZERR  2 0.00300 0.00280 0.00380 0.00000 0.00440 0.00000
LATT -1
SYMM    -X, .50+Y,    -Z
SFAC C H BR O
UNIT 36 30 2 4
L.S. 5
FMAP 2
PLAN 25
WPDB -2
HTAB
BOND $H
CONF
LIST 4
TEMP -179.8
ACTA
SIZE 0.160 0.080 0.250
WGHT    0.081900
FVAR       1.34930
BR1   3    0.131975    0.280120   -0.089479    11.00000    0.02077    0.02825 =
         0.01701   -0.00122   -0.00101    0.00413
O1    4    1.020381    0.252833    0.416410    11.00000    0.01477    0.02834 =
         0.02009    0.00099    0.00099   -0.00015
O2    4    0.997696    0.357430    0.603148    11.00000    0.02455    0.02629 =
         0.02006   -0.00272   -0.00189   -0.00678
C1    1    0.911561    0.206146    0.297809    11.00000    0.01773    0.01969 =
         0.01643   -0.00122    0.00527   -0.00083
AFIX  13
H1    2    0.955509    0.108631    0.261337    11.00000   -1.20000
AFIX   0
C2    1    0.900321    0.346981    0.204786    11.00000    0.01753    0.02063 =
         0.02202    0.00170    0.00722   -0.00110
AFIX  23
H2A   2    0.864727    0.445368    0.243822    11.00000   -1.20000
H2B   2    1.009104    0.367988    0.184566    11.00000   -1.20000
AFIX   0
C3    1    0.777761    0.305829    0.083362    11.00000    0.02027    0.02195 =
         0.01640    0.00310    0.00562   -0.00070
AFIX  23
H3A   2    0.764796    0.399646    0.025161    11.00000   -1.20000
H3B   2    0.820078    0.214642    0.039953    11.00000   -1.20000
AFIX   0
C4    1    0.613096    0.261132    0.111780    11.00000    0.01805    0.01898 =
         0.01258   -0.00103    0.00387   -0.00172
C5    1    0.471223    0.288498    0.019125    11.00000    0.02047    0.01807 =
         0.01284    0.00101    0.00299    0.00176
AFIX  43
H5    2    0.478692    0.342502   -0.057625    11.00000   -1.20000
AFIX   0
C6    1    0.320210    0.237277    0.038796    11.00000    0.02014    0.01831 =
         0.01348   -0.00461    0.00280    0.00328
C7    1    0.306924    0.154504    0.148758    11.00000    0.01701    0.01728 =
         0.02082   -0.00439    0.00693   -0.00121
AFIX  43
H7    2    0.203858    0.114926    0.159863    11.00000   -1.20000
AFIX   0
C8    1    0.445980    0.130370    0.242111    11.00000    0.02168    0.01449 =
         0.01599   -0.00061    0.00634   -0.00057
AFIX  43
H8    2    0.436838    0.075308    0.318049    11.00000   -1.20000
AFIX   0
C9    1    0.600473    0.185567    0.227007    11.00000    0.01666    0.01618 =
         0.01335    0.00016    0.00346    0.00210
C10   1    0.747437    0.166539    0.334489    11.00000    0.01488    0.01532 =
         0.01229   -0.00013    0.00270    0.00194
AFIX  13
H10   2    0.751094    0.052865    0.365871    11.00000   -1.20000
AFIX   0
C11   1    0.749314    0.281991    0.449221    11.00000    0.01597    0.01342 =
         0.01281   -0.00062    0.00107   -0.00196
AFIX  13
H11   2    0.703138    0.388186    0.415457    11.00000   -1.20000
AFIX   0
C12   1    0.932880    0.303344    0.501599    11.00000    0.01617    0.01680 =
         0.01877    0.00317    0.00180   -0.00171
C13   1    0.657734    0.226144    0.548975    11.00000    0.01676    0.01393 =
         0.01559   -0.00094    0.00196   -0.00075
C14   1    0.729184    0.127204    0.648811    11.00000    0.01856    0.01718 =
         0.01930    0.00032    0.00361    0.00210
AFIX  43
H14   2    0.839142    0.092796    0.655121    11.00000   -1.20000
AFIX   0
C15   1    0.642820    0.077673    0.739561    11.00000    0.02831    0.01777 =
         0.01706    0.00243    0.00371   -0.00008
AFIX  43
H15   2    0.693841    0.011034    0.808207    11.00000   -1.20000
AFIX   0
C16   1    0.480658    0.125976    0.729815    11.00000    0.02646    0.01858 =
         0.01936   -0.00493    0.00982   -0.00515
AFIX  43
H16   2    0.420789    0.091256    0.791478    11.00000   -1.20000
AFIX   0
C17   1    0.406984    0.223983    0.630935    11.00000    0.02038    0.02197 =
         0.02072   -0.00572    0.00701   -0.00280
AFIX  43
H17   2    0.296120    0.255631    0.624163    11.00000   -1.20000
AFIX   0
C18   1    0.495029    0.277065    0.540411    11.00000    0.01748    0.01762 =
         0.01530   -0.00011    0.00229   -0.00088
AFIX  43
H18   2    0.445164    0.347020    0.473649    11.00000   -1.20000
AFIX   0
HKLF 4

REM  58D-Br-Ph
REM R1 =  0.0386 for    2891 Fo > 4sig(Fo)  and  0.0393 for all    2994 data
REM    190 parameters refined using      1 restraints

END

WGHT      0.0721      0.0000

REM Instructions for potential hydrogen bonds
EQIV $1 -x+2, y-1/2, -z+1
HTAB C1 O2_$1
HTAB C10 O2_$1

REM Highest difference peak  1.526,  deepest hole -0.582,  1-sigma level  0.122
Q1    1   0.6102  0.2771  0.2744  11.00000  0.05    0.76
Q2    1   0.1361  0.2743 -0.1744  11.00000  0.05    0.61
Q3    1   0.5623  0.2773  0.0789  11.00000  0.05    0.45
Q4    1   0.8377  0.2893  0.4811  11.00000  0.05    0.43
Q5    1   0.9724  0.3121  0.5883  11.00000  0.05    0.43
Q6    1   0.7995  0.2863  0.4635  11.00000  0.05    0.42
Q7    1   0.2507  0.2732 -0.0376  11.00000  0.05    0.41
Q8    1   0.8750  0.2916  0.4982  11.00000  0.05    0.40
Q9    1   0.8200  0.2914  0.6911  11.00000  0.05    0.39
Q10   1   0.6823  0.1783  0.5971  11.00000  0.05    0.39
Q11   1   0.5586  0.2997 -0.1295  11.00000  0.05    0.39
Q12   1   0.7818  0.2585  0.2763  11.00000  0.05    0.38
Q13   1   1.0006  0.5028  0.1565  11.00000  0.05    0.34
Q14   1   0.9699  0.2855  0.1001  11.00000  0.05    0.33
Q15   1   1.1195  0.4441  0.2814  11.00000  0.05    0.32
Q16   1   1.1013  0.2767  0.5220  11.00000  0.05    0.32
Q17   1   0.9302  0.1019 -0.0507  11.00000  0.05    0.32
Q18   1   0.2404  0.2684  0.4042  11.00000  0.05    0.31
Q19   1   0.8390  0.0599 -0.0327  11.00000  0.05    0.31
Q20   1   0.9092  0.2813  0.2509  11.00000  0.05    0.30
Q21   1   0.7392  0.3862  0.3312  11.00000  0.05    0.30
Q22   1   0.5545 -0.1022  0.7569  11.00000  0.05    0.30
Q23   1   0.2998  0.3572  0.7452  11.00000  0.05    0.30
Q24   1   0.2209  0.2070  0.5653  11.00000  0.05    0.29
Q25   1   0.8938  0.2171  0.1968  11.00000  0.05    0.29
;
_shelx_res_checksum              27831
_shelx_hkl_file
;
   0   0   2 1608.83    9.08
   0   0   2 1565.01    8.37
   0   0   3    0.93    2.45
   0   0  -3    3.44    3.34
   0   0  -3    2.48    2.43
   0   0   3    0.95    2.53
   0   0  -5 2361.34   15.88
   0   0   6 5977.13  153.50
   0   0  -6 4855.13  124.44
   0   0   8    7.79    8.57
   0   0  -8    7.46    7.17
   0   0   9  426.10   13.47
   0   0  -9  447.92   11.96
   0   0  10  398.14   12.83
   0   0 -10  452.56   13.82
   0   0  11 1188.49   26.28
   0   0 -11 1259.91   25.93
   0   0  12  548.41   21.71
   0   0 -12  600.18   19.43
   0   0  13  138.44   12.51
   0   0 -13  151.14   13.65
   0   1  -1  113.41    3.42
   0   1  -1   95.43    3.19
   0  -1  -1   87.73    2.35
   0  -1   1   81.98    2.80
   0  -1   3 6876.38  175.23
   0  -1  -4 2027.38   11.87
   0   1  -5   22.99    4.22
   0   1   5   25.09    3.42
   0   1   5   26.92    3.23
   0  -1  -5   58.09    3.83
   0  -1   5   64.68    5.49
   0   1  -6  185.11    7.42
   0   1   6  207.38    7.17
   0  -1  -6  223.38    7.04
   0  -1  -6  175.58    6.57
   0  -1   6  168.49    7.58
   0   1   7 2222.46   20.47
   0   1  -7 2159.84   19.46
   0  -1   7 1985.60   18.88
   0  -1  -7 2086.29   16.49
   0   1   8 2524.51   22.50
   0  -1   8 2551.30   26.19
   0   1   9  781.95   13.79
   0   1  -9  725.51   12.69
   0  -1  -9  727.39   12.22
   0  -1   9  722.51   16.03
   0   1  10 2572.32   23.42
   0   1 -10 2735.50   24.91
   0  -1  10 2697.14   27.83
   0   1  11   16.80    5.93
   0   1 -11   23.15   10.16
   0  -1  11   22.03    8.60
   0  -1 -11   20.22    5.64
   0   1  12  265.98   12.90
   0   1 -12  329.09   16.98
   0  -1  12  380.94   14.99
   0  -1 -12  392.15   15.42
   0   1  13  307.13   11.72
   0   1 -13  346.90   13.82
   0  -1  13  269.69   15.15
   0  -1 -13  255.09   11.35
   0   2   3 1138.85    7.53
   0  -2  -3 1154.99    6.96
   0  -2   3 1145.99    9.87
   0  -2   5 2605.74   19.54
   0   2  -6 3907.51   25.40
   0  -2  -6 4141.25   21.95
   0   2  -7  988.97   12.81
   0  -2  -7 1004.98   12.36
   0  -2  -7 1013.24    9.94
   0   2   8  352.26    7.95
   0   2  -8  329.93   10.62
   0  -2   8  328.76   12.36
   0  -2  -8  293.47    8.92
   0   2   9  471.69   10.34
   0   2  -9  563.67   14.52
   0  -2  -9  487.78    9.93
   0  -2   9  518.00   14.50
   0   2  10 2121.02   33.56
   0  -2 -10 2159.63   35.75
   0   2  11  855.55   18.04
   0   2 -11  889.02   19.95
   0  -2  11  902.64   21.06
   0  -2 -11 1026.99   21.33
   0   2  12  194.80   10.84
   0   2 -12  203.53   12.44
   0  -2 -12  243.12   15.74
   0  -2  12  230.72   17.23
   0   2 -13  250.22   13.02
   0  -2 -13  245.74   13.02
   0  -2  13  231.61   12.43
   0   3   0    1.88    2.90
   0   3   0    0.20    2.05
   0  -3   0    0.84    2.50
   0  -3   0   -1.40    2.31
   0  -3  -1 1589.14    9.21
   0   3  -2 3531.55   19.39
   0  -3  -3 2190.46   14.06
   0   3   5   27.26    2.53
   0   3   5   27.90    2.52
   0   3  -5   34.81    4.43
   0  -3  -5    9.33    2.15
   0  -3   5    8.85    4.94
   0  -3  -5    6.98    4.08
   0   3  -6  122.31    7.16
   0   3   6  134.93    4.81
   0  -3  -6  145.62    5.09
   0  -3  -6  134.53    6.03
   0  -3   6  110.91    8.11
   0   3  -7  660.12   11.92
   0  -3  -7  775.95   11.10
   0  -3  -7  679.10    7.95
   0   3  -8 2804.70   24.50
   0   3   8 2856.50   17.35
   0  -3   8 3059.39   28.88
   0   3   9  738.39   10.41
   0   3  -9  893.43   18.07
   0  -3   9  779.11   17.35
   0  -3  -9  767.97   13.72
   0   3  10  532.85   11.76
   0   3 -10  667.25   20.89
   0  -3  10  691.24   20.20
   0  -3 -10  685.21   16.11
   0   3 -11   51.12   10.98
   0  -3 -11   43.84    7.13
   0  -3  11   44.37   11.67
   0   3 -12   98.68    8.85
   0  -3 -12  174.30   11.94
   0  -3  12  184.03   16.11
   0   3 -13  379.62   17.71
   0  -3 -13  275.39   12.60
   0  -3  13  296.77   18.78
   0   4   0 6984.92  178.06
   0   4   0 7135.29  182.08
   0  -4   0 7375.29  188.02
   0  -4   0 5654.67  144.60
   0   4   1 2411.73   14.96
   0   4   1 2312.33   12.99
   0   4  -1 2387.12   16.25
   0  -4  -1 2296.00   15.52
   0  -4   1 2310.12   16.99
   0   4  -2 7033.82  180.11
   0  -4   2 7868.96  201.38
   0   4   3  510.64    4.34
   0  -4  -3  526.15    8.34
   0   4   4  779.49    5.13
   0   4   4  751.26    4.97
   0   4  -5 2820.87   23.91
   0  -4  -5 2909.62   13.65
   0   4   6 2920.43   14.64
   0  -4  -6 2869.00   14.57
   0  -4  -6 2849.21   20.54
   0   4  -7  515.75   11.37
   0  -4  -7  527.30   10.64
   0  -4  -7  523.74    6.35
   0   4   8  249.38    8.27
   0   4  -8  293.96   13.84
   0  -4   8  312.89   14.74
   0  -4  -8  336.90   14.05
   0   4  -9  261.42   16.47
   0  -4  -9  271.00   13.86
   0  -4   9  301.88   17.33
   0   4 -10 1150.20   25.93
   0  -4 -10  880.32   23.47
   0  -4  10  973.83   24.36
   0   4 -11 1530.43   52.55
   0  -4 -11 1152.03   28.24
   0  -4  11 1279.23   47.77
   0  -4  12  282.40   15.58
   0  -4 -12  249.20   11.60
   0   5   0    0.81    2.41
   0  -5   0    2.26    4.58
   0   5   1 1813.73   13.39
   0  -5  -1 2002.16   16.31
   0   5   3  257.70    3.63
   0   5  -3  230.06    9.80
   0   5   4 1702.30    8.20
   0   5  -5   89.47    7.71
   0  -5  -5  102.03    6.31
   0  -5   5   80.55    8.43
   0   5  -6  164.03   11.62
   0  -5  -6  167.95    7.81
   0  -5   6  142.16   24.43
   0   5  -7  432.29   12.31
   0  -5  -7  378.94   19.97
   0  -5   7  343.45   23.87
   0   5  -8 2048.87   35.75
   0  -5  -8 2210.87   34.67
   0  -5   8 2075.92   54.28
   0   5  -9  548.26   18.01
   0  -5  -9  456.07   12.91
   0  -5   9  471.72   17.41
   0   5 -10  374.68   18.12
   0  -5 -10  337.82   15.24
   0  -5  10  367.22   19.42
   0   5 -11  102.90   11.63
   0  -5 -11   96.06    8.89
   0  -5  11  103.43   19.32
   0  -5  12    4.87    9.95
   0  -5 -12    5.45    5.24
   0  -6   0 4582.66  118.46
   0  -6   0 4517.69   45.83
   0  -6   1 1689.84   17.80
   0  -6  -1 1594.89   15.87
   0   6  -2 1380.41   19.55
   0   6  -3  171.34   11.98
   0   6   3  145.70    4.58
   0   6   3  172.42    5.49
   0  -6  -3  165.21    7.63
   0  -6   3  168.59   10.29
   0   6  -4  189.97   11.50
   0   6   4  168.53    4.34
   0   6   4  194.18    5.02
   0  -6  -4  207.61    9.61
   0  -6   4  226.98   12.15
   0  -6   5 2574.12   29.16
   0  -6  -5 2525.27   21.97
   0   6  -6 1642.38   23.82
   0  -6  -6 1522.23   32.18
   0  -6   6 1712.05   26.32
   0  -6   7  307.14   21.40
   0  -6  -7  326.67   12.97
   0   6  -8   12.97   12.48
   0  -6  -8   25.45    5.84
   0  -6   8   13.43    9.57
   0   6  -9  202.44   14.63
   0  -6  -9  178.47   10.11
   0  -6   9  199.25   14.63
   0   6 -10  119.03   14.16
   0  -6 -10   81.16    7.02
   0  -6  10   90.89   13.64
   0   6 -11 1015.57   22.92
   0  -6  11 1090.74   29.78
   0  -7   0    1.34    2.25
   0  -7   0   -1.52    4.99
   0   7   1  352.31   16.20
   0  -7   1  480.61   20.31
   0  -7   1  473.88   10.81
   0  -7  -1  465.12   10.74
   0   7  -2 1125.09   18.29
   0  -7  -2 1209.18   16.62
   0   7   3  384.99   15.56
   0   7  -3  389.33   13.16
   0  -7   3  329.32   14.07
   0  -7  -3  306.12   12.94
   0   7  -4  980.94   20.36
   0  -7  -4  980.73   15.82
   0  -7   4 1067.47   20.10
   0   7  -5   55.76   12.07
   0  -7  -5   33.38    6.77
   0  -7   5   37.50   10.71
   0   7  -6   42.22   12.27
   0  -7  -6   31.22    7.16
   0  -7   6   36.64   13.24
   0   7  -7  141.95   14.93
   0  -7  -7  102.23    8.29
   0  -7   7   99.81   14.21
   0   7  -8  850.37   26.14
   0  -7  -8  934.04   23.64
   0  -7   8 1073.66   33.04
   0   7  -9  841.36   26.12
   0  -7   9  824.04   28.68
   0   7 -10  240.30   14.11
   0  -7  10  296.76   20.67
   0  -8   0 1290.77   16.00
   0  -8   0 1369.21   30.50
   0   8   1  806.38   16.51
   0   8  -1  807.47   20.30
   0  -8   1  753.48   16.16
   0  -8  -1  786.99   17.78
   0   8  -2  472.47   14.43
   0  -8  -2  445.98   21.87
   0  -8   2  465.69   25.43
   0   8  -3  117.12   10.42
   0  -8  -3   99.33    8.04
   0  -8   3  101.18    9.07
   0   8  -4  317.68   14.29
   0  -8  -4  410.03   12.86
   0  -8   4  383.61   14.00
   0   8  -5 1186.10   28.36
   0  -8  -5 1060.90   21.33
   0  -8   5 1023.62   37.39
   0   8  -6  323.57   17.51
   0  -8  -6  401.66   16.17
   0  -8   6  423.91   20.51
   0   8  -7  224.56   15.68
   0  -8  -7  119.93    8.40
   0  -8   7  131.52   12.62
   0  -8   8   19.02   10.13
   0   8  -9  222.54   14.15
   0  -8   9  228.96   16.37
   0   9   0    4.02    5.81
   0   9   0   -1.22    6.55
   0   9  -1   26.41    7.99
   0  -9  -1   19.17   14.81
   0  -9   1   19.83   16.25
   0   9  -2  944.43   23.97
   0  -9  -2  953.62   20.47
   0  -9   2  827.21   35.13
   0   9  -3  177.96   14.78
   0  -9  -3  170.64    9.31
   0  -9   3  185.70   14.27
   0   9  -4  302.25   17.01
   0  -9  -4  323.96   12.05
   0  -9   4  337.16   14.67
   0   9  -5  156.53   12.69
   0  -9  -5  143.54    9.88
   0  -9   5  129.52   11.81
   0  -9   6   10.40   11.71
   0   9  -7  246.41   14.99
   0  -9   7  163.98   19.54
   0  10   0  295.14   14.27
   0  10  -1  243.12   12.85
   0  10   1  223.52   12.00
   0  10  -2  144.28   11.91
   0 -10  -2  118.77    8.09
   0 -10   2  124.58    8.15
   0  10  -3   33.62    8.99
   0 -10  -3   36.59    6.39
   0 -10   3   37.17   17.43
   0  10  -4  112.52   13.45
   0 -10   4  171.22   13.39
   0  10  -5  431.08   17.67
   0 -10   5  315.75   15.69
  -1   0  13   85.85    9.26
   1   0 -13   90.30   11.86
  -1   0  12  213.32   12.40
   1   0 -12  241.54   12.39
  -1   0  11   21.49    9.72
   1   0 -11   21.12    9.51
  -1   0  10 5078.82  195.06
   1   0 -10 4571.15   39.90
  -1   0   9 1843.52   20.83
   1   0  -9 1634.04   17.58
  -1   0   8  930.45   15.15
   1   0  -8 1059.28   14.21
  -1   0   7   81.65    6.48
   1   0  -7   77.00    6.65
  -1   0   6  663.63   10.45
   1   0  -6  663.73    8.37
   1   0  -5 2063.77   13.82
  -1   0   2  127.30    4.15
   1   0  -2  134.43    4.31
  -1   0   2  133.81    4.01
   1   0   4  144.35    5.17
  -1   0  -4  188.38    6.19
  -1   0  -4  136.90    5.20
   1   0   4  171.73    5.52
   1   0   5  138.52    6.79
  -1   0  -5  169.47    7.31
  -1   0  -5  128.96    5.80
   1   0   6 2379.67   21.01
  -1   0  -6 2147.46   16.95
   1   0   8 6272.59  162.83
  -1   0  -8 5704.87  147.55
   1   0   9 2744.31   25.30
  -1   0  -9 3048.16   34.50
   1   0  10  811.13   19.28
  -1   0 -10  866.55   22.14
   1   0  11  144.40   10.74
  -1   0 -11  140.83   13.17
   1   0  12 1074.24   29.76
  -1   0 -12 1070.92   28.25
   1   0  13  371.08   13.49
  -1   0 -13  344.71   25.51
  -1   1  13 1027.10   27.36
   1   1 -13 1190.33   31.99
  -1  -1  13 1097.46   29.57
   1  -1 -13 1114.41   35.63
  -1   1  12  558.54   18.17
   1   1 -12  540.75   16.62
   1  -1 -12  462.62   16.05
  -1  -1  12  444.49   17.09
  -1   1  11  363.35   13.30
   1   1 -11  324.66   12.01
  -1  -1  11  273.48   17.08
   1  -1 -11  267.58   13.45
  -1   1  10  338.30   14.55
   1   1 -10  399.70   12.39
  -1  -1  10  379.29   21.93
   1  -1 -10  387.61   19.06
  -1   1   9  546.88   14.33
   1   1  -9  613.26   12.79
  -1  -1   9  592.52   14.44
   1  -1  -9  577.47   11.56
  -1  -1   8  759.38   14.33
   1   1  -7 3005.95   21.78
  -1   1   5  292.03    5.07
  -1   1   5  309.42    6.27
   1   1  -5  258.60    5.75
   1  -1  -5  279.91    5.43
  -1  -1   5  225.27    7.85
  -1   1   4  218.72    6.81
   1   1  -4  254.95    5.42
   1   1  -4  228.52    7.82
  -1   1   4  237.91    3.85
  -1  -1   4  220.95    7.41
   1  -1  -4  232.94    7.49
   1  -1  -4  207.80    5.62
  -1  -1   4  241.75    4.60
   1   1  -3 4694.96  119.99
   1  -1   2 4059.98   21.61
   1  -1   3 2563.63   14.54
   1  -1   4 6948.85  178.14
   1   1   6 1872.18   15.12
  -1   1  -6 1889.00   17.24
   1   1   7  214.23    9.48
  -1   1  -7  177.74    7.72
   1  -1   7  215.83   13.09
  -1  -1  -7  169.73    7.92
   1   1   8  704.60   13.22
   1  -1   8  820.69   20.72
   1   1   9  220.22   10.93
  -1   1  -9  235.54   12.91
  -1  -1  -9   88.64    8.57
   1  -1   9   96.94   11.44
   1   1  10  521.67   13.73
   1  -1  10  461.53   16.32
  -1  -1 -10  437.87   13.60
   1   1  11  185.74   11.21
  -1   1 -11  200.22   14.52
  -1  -1 -11  152.97   10.84
   1  -1  11  164.14   12.33
   1   1  12  175.93   12.33
  -1   1 -12  182.08   12.51
  -1  -1 -12  189.19   12.82
   1  -1  12  201.26   13.43
  -1   1 -13  284.10   13.14
  -1  -1 -13  280.29   21.06
   1  -1  13  275.93   14.99
   1   2 -13  124.42   12.85
   1  -2 -13  148.65   16.50
  -1  -2  13  134.87   14.66
  -1   2  12  268.35   12.26
   1   2 -12  324.97   15.15
  -1  -2  12  262.74   17.58
   1  -2 -12  301.11   13.28
  -1   2  11  276.97   13.20
   1   2 -11  316.23   16.83
  -1  -2  11  231.79   17.48
   1  -2 -11  205.58    9.85
  -1   2  10 3095.75   24.78
  -1  -2  10 3213.12   34.91
  -1   2   9  588.95   11.33
   1   2  -9  622.55   14.17
  -1  -2   9  744.84   19.11
   1  -2  -9  640.04   17.51
   1   2  -8 1460.48   16.79
   1  -2  -8 1347.43   14.09
  -1   2   7  278.48    7.77
   1   2  -7  222.49    9.45
  -1  -2   7  232.75   10.23
   1  -2  -7  235.16    6.59
   1  -2  -6 1296.92   11.51
  -1   2   5 2398.42   13.94
   1  -2  -5 2372.54   13.51
  -1  -2   5 2281.80   18.68
  -1   2   4 6125.14  156.28
   1   2  -4 5114.70  131.30
  -1  -2   4 5120.71  131.59
   1  -2  -4 6637.72  169.14
   1   2  -3 5211.22  133.35
  -1  -2   3 4497.90   24.41
   1   2  -2 6993.20  178.29
  -1  -2   2 5362.01  136.98
  -1  -2   2 6455.00  164.68
   1   2  -1 4158.90   19.57
  -1  -2   1 4110.52   20.12
   1   2   2 2182.67   12.52
  -1  -2  -2 2161.87   13.35
   1  -2   3 1920.11   15.20
   1   2   4  155.92    4.77
  -1   2  -4  123.02    5.60
   1   2   4  152.41    4.97
  -1  -2  -4  119.49    4.97
  -1  -2  -4  165.06    4.55
   1  -2   4  127.84    7.02
   1   2   5  865.81    7.92
  -1  -2  -5  845.99    9.81
   1   2   6 4728.92  121.19
  -1   2  -7 3338.10   25.86
  -1  -2  -7 3605.58   33.70
  -1  -2  -7 3349.03   19.49
  -1   2  -8 3169.71   26.94
  -1   2  -9 1149.44   17.69
   1   2  10  115.93    8.17
  -1   2 -10  114.80   10.79
  -1  -2 -10  149.13   11.86
   1  -2  10  128.11   11.89
   1   2  11   48.16    6.90
  -1   2 -11   53.78   10.75
  -1  -2 -11  105.44   11.54
   1  -2  11  112.03   11.07
  -1   2 -12 1862.67  141.70
  -1  -2 -12 1653.45  125.92
   1  -2  12 1727.21  132.08
  -1   2 -13  283.35   16.56
  -1  -2 -13  278.14   12.92
   1  -2  13  309.94   19.39
   1   3 -13  352.07   14.55
   1  -3 -13  259.50   10.57
  -1  -3  13  264.15   13.87
   1   3 -12 1519.09   53.67
   1  -3 -12 1305.95   44.31
  -1  -3  12 1312.81   47.19
  -1   3  11  494.90   12.21
   1   3 -11  583.83   18.19
  -1  -3  11  475.96   24.26
   1  -3 -11  476.46   20.20
  -1   3  10   21.31    5.09
   1   3 -10   25.88   11.85
  -1  -3  10   32.17   11.11
   1  -3 -10   33.66    8.39
  -1   3   9  163.69    8.26
   1   3  -9  175.69   11.41
  -1  -3   9  213.48   13.69
   1  -3  -9  197.37    8.78
  -1   3   8  320.83    7.57
   1   3  -8  311.30   11.68
  -1  -3   8  365.92   11.24
   1  -3  -8  403.59    8.78
   1   3  -7 3406.79   27.84
   1  -3  -7 3377.72   21.35
   1  -3  -7 3201.79   19.55
   1   3  -6 1253.01   15.85
  -1   3   6 1355.61   11.08
   1  -3  -6 1284.41   11.32
   1   3  -5  440.89    9.20
  -1   3   4 1179.66    9.16
   1  -3  -4 1183.88    9.12
   1  -3  -4 1132.48    8.81
   1   3  -3 6361.95  162.92
  -1  -3   3 5144.21  132.03
   1   3  -2 8115.78  206.96
   1   3  -2 9380.46  239.16
  -1   3   1 3861.77   20.10
  -1   3   1 3973.19   18.08
   1   3  -1 3760.12   19.74
  -1   3   1 3764.81   19.63
   1   3  -1 3860.40   20.13
  -1  -3   1 3969.39   20.20
  -1   3   0 2207.60   14.04
   1   3   0 2102.41   11.65
  -1   3   0 2102.81   12.95
   1   3   1  699.49    4.62
  -1   3  -1  676.12    8.19
  -1   3  -1  708.09   10.31
   1  -3   1  650.84    8.80
  -1  -3  -1  654.48    7.33
  -1   3  -2 4295.06   23.31
  -1  -3  -2 4554.40  116.70
   1  -3   2 5187.48  133.15
  -1   3  -4 6810.03  174.29
  -1  -3  -4 7790.70  199.11
   1  -3   4 7153.52  183.84
   1   3   6  510.77    6.22
   1  -3   6  466.71   11.54
  -1  -3  -6  497.93   11.07
   1   3   7   43.63    3.82
  -1   3  -7   48.46    7.06
   1  -3   7   36.88    7.30
  -1  -3  -7   39.91    6.02
  -1  -3  -7   38.25    2.83
  -1   3  -8  461.25   12.78
   1  -3   8  568.13   15.00
   1   3   9  885.88   11.43
   1  -3  10  909.52   24.43
  -1   3 -11  161.69   11.11
  -1  -3 -11  210.45   14.05
   1  -3  11  245.88   19.34
  -1   3 -12    6.54    9.45
  -1  -3 -12    6.56    6.32
   1  -3  12    6.30   10.52
   1   4 -12  352.96   15.67
   1  -4 -12  293.28   10.81
  -1  -4  12  335.19   16.92
   1   4 -11  213.25   14.60
   1  -4 -11  226.47   12.62
  -1  -4  11  250.36   18.69
   1   4 -10 1242.18   29.67
   1  -4 -10  983.37   27.37
  -1  -4  10 1104.15   27.04
  -1   4   9  589.41   12.34
  -1  -4   9  549.88   17.28
   1  -4  -9  500.94   11.54
  -1   4   8  887.49   11.63
   1   4  -8  810.18   16.33
  -1  -4   8  818.00   16.91
   1  -4  -8  864.65   12.86
  -1   4   7  527.48    8.04
   1   4  -7  460.37   13.34
   1  -4  -7  549.78    9.83
   1  -4  -7  528.62    7.64
  -1   4   6  473.62    6.98
   1  -4  -6  483.36    7.06
   1  -4  -6  471.47    8.80
  -1   4   5 1553.83   10.87
   1  -4  -5 1527.12   11.54
   1  -4  -4 1665.63   11.39
   1   4  -3 6542.51  168.99
  -1  -4   3 5835.85  149.99
  -1   4   2 2985.86   16.64
  -1  -4   2 2816.78   22.83
  -1   4   1  102.26    4.01
  -1   4   1   98.41    5.71
   1   4  -1   97.62    4.26
  -1   4   1  101.14    3.80
  -1  -4   1   80.70    5.03
  -1  -4   1   66.23    4.63
   1  -4  -1   72.34    3.50
  -1   4   0 2080.44   14.58
   1   4   0 2137.91   13.01
  -1  -4   0 2033.11   15.47
  -1   4  -1 3180.47   19.59
   1   4   1 3191.42   15.28
  -1   4  -1 3196.93   18.03
  -1  -4  -1 3141.32   20.78
   1  -4   1 3227.00   23.90
   1  -4   2 2892.22   20.53
   1  -4   4  514.31   11.24
   1  -4   5 1328.43   17.61
   1  -4   6 3037.50   29.02
  -1   4  -7 3079.97   26.11
  -1  -4  -7 2961.56   11.13
   1  -4   7 2817.20   29.48
  -1   4  -8 1096.09   17.88
   1  -4   8 1120.49   22.22
  -1   4  -9  396.32   16.05
  -1  -4  -9  344.87   13.70
   1  -4   9  374.62   18.70
  -1   4 -10   64.56   10.94
  -1  -4 -10   37.28    6.17
   1  -4  10   48.27   14.84
  -1   4 -11   43.20   10.51
  -1  -4 -11   16.66    7.45
   1  -4  11   31.43   12.70
  -1   4 -12 1078.10   22.23
  -1  -4 -12 1102.77   20.62
   1  -4  12 1263.11   30.00
   1   5 -12  794.38   22.95
  -1  -5  12  839.82   23.89
   1   5 -11  255.82   13.27
  -1  -5  11  264.42   17.18
   1   5 -10  146.88   14.17
   1  -5 -10  134.34    8.39
  -1  -5  10  150.84   15.39
   1   5  -9   98.88   12.40
   1  -5  -9  110.28    8.44
  -1  -5   9  107.88   12.99
   1   5  -8 1209.96   24.31
   1  -5  -8 1057.36   12.85
  -1  -5   8 1035.45   23.09
   1   5  -7 1112.50   19.01
  -1  -5   7 1089.06   20.43
   1   5  -6  646.42   13.46
   1  -5  -6  616.28    9.59
  -1  -5   6  600.62   18.12
  -1   5   5  390.17    8.00
  -1   5   5  432.87    6.30
   1   5  -5  369.23   10.91
   1  -5  -5  384.91    7.95
  -1   5   4  591.74    9.19
  -1   5   4  630.23    7.57
   1  -5  -4  661.13    8.62
  -1   5   3 1534.70   11.56
  -1   5   2 3985.98   21.95
  -1   5   2 3905.79   20.99
  -1   5   2 4064.75   28.00
  -1  -5   2 4082.23   40.54
   1  -5  -2 4672.76  119.85
  -1  -5   2 4800.08  124.16
  -1   5   1 1817.79   13.21
   1   5  -1 1809.11   14.32
  -1  -5   1 1939.56   21.63
  -1   5   0 1117.90   12.76
  -1   5  -1  576.14    9.82
   1   5   1  573.39    6.14
   1  -5   1  570.78   10.01
   1   5   2 1827.14    9.18
   1   5   2 1885.32    9.94
  -1   5  -2 2001.50   19.45
  -1  -5  -3 1032.88   13.32
  -1   5  -4 4301.32   32.56
  -1  -5  -4 4979.12  129.21
   1  -5   4 4154.63   33.92
   1  -5   5  330.84   12.85
  -1  -5  -5  347.76   11.19
  -1   5  -6  284.29   12.69
  -1  -5  -6  250.52   12.52
   1  -5   6  244.53   13.70
  -1   5  -7  546.76   13.41
  -1  -5  -7  525.82   12.70
   1  -5   7  564.94   17.18
  -1   5  -8  138.34   12.17
  -1  -5  -8  147.86   10.61
   1  -5   8  153.17   13.59
  -1   5  -9  961.27   22.78
  -1  -5  -9  856.63   17.92
   1  -5   9  962.05   24.42
  -1   5 -10  820.15   27.20
  -1  -5 -10  712.78   21.72
   1  -5  10  792.11   33.15
   1  -5  11   18.94    7.79
  -1  -5 -11   19.93    6.48
   1   6 -11  184.26   12.13
  -1  -6  11  100.78   14.42
   1   6 -10  604.50   20.45
  -1  -6  10  614.99   22.52
   1   6  -9  753.12   19.66
   1  -6  -9  667.89   14.19
  -1  -6   9  696.57   21.13
   1   6  -8  355.01   16.03
   1  -6  -8  223.47   11.13
  -1  -6   8  223.43   17.45
   1   6  -7  198.28   13.29
   1  -6  -7  175.10   11.12
  -1  -6   7  183.85   15.02
  -1   6   6    7.64    2.05
   1   6  -6   12.62   12.26
  -1  -6   6   47.39   11.07
   1  -6  -6   44.01    5.16
   1   6  -5 2672.78   28.89
  -1   6   4 1569.60   11.92
  -1  -6   4 1568.06   27.61
   1  -6  -4 1674.03   18.11
   1   6  -3 3438.12   29.84
   1  -6  -3 3354.33   22.66
  -1   6   2  294.73    5.89
  -1   6   2  343.98   10.77
  -1  -6   2  330.66    9.21
   1  -6  -2  359.43   12.25
  -1   6   1  234.01    9.88
  -1  -6   1  267.06    9.12
   1  -6  -1  257.74    9.49
  -1  -6   1  199.55   17.96
  -1   6   0  120.06    8.37
   1   6   0  114.18    5.50
  -1  -6   0   73.29   10.35
  -1  -6   0   69.24    6.95
   1  -6   0   77.95   13.59
   1   6   1  714.94    7.85
  -1   6  -1  731.97   12.97
   1  -6   1  768.95   26.33
  -1  -6  -1  717.36   12.39
   1   6   2 3184.74   16.03
   1  -6   2 3266.21   34.58
  -1   6  -3 1008.84   14.96
   1  -6   3 1044.83   18.22
  -1   6  -4   31.60    9.59
  -1  -6  -4   20.06    6.34
   1  -6   4   20.19    8.70
  -1   6  -5  134.71   12.79
  -1  -6  -5  173.11   10.01
   1  -6   5  192.05   12.80
  -1   6  -6 1204.94   22.10
  -1  -6  -6 1374.87   19.68
   1  -6   6 1366.73   24.56
  -1   6  -7 1653.43   33.28
  -1  -6  -7 1710.80   30.60
   1  -6   7 1899.53   38.41
  -1   6  -8  729.84   19.99
  -1  -6  -8  677.16   16.30
   1  -6   8  680.03   19.58
  -1   6  -9  241.36   16.75
  -1  -6  -9  209.43   12.40
   1  -6   9  221.66   16.35
  -1   6 -10   23.36   11.49
  -1  -6 -10   13.12    6.61
   1  -6  10   11.80   14.54
   1   7 -10   89.89   13.46
  -1  -7  10  100.46   14.43
   1   7  -9  102.43   13.78
  -1  -7   9  118.10   14.16
   1   7  -8  479.71   21.80
  -1  -7   8  479.93   21.58
   1   7  -7  344.71   19.90
   1  -7  -7  412.38   15.18
  -1  -7   7  437.25   21.74
   1   7  -6  698.74   20.54
   1  -7  -6  640.66   14.08
  -1  -7   6  646.41   20.32
   1   7  -5  170.02   12.95
   1  -7  -5  211.20    9.43
  -1  -7   5  215.57   15.02
  -1   7   4  390.39    6.86
   1   7  -4  402.73   16.46
  -1  -7   4  403.57   12.27
   1  -7  -4  408.87    9.66
  -1   7   3   67.47    5.07
   1   7  -3   75.31   10.36
  -1  -7   3  157.59   10.33
   1  -7  -3  130.88    6.98
  -1  -7   2 1064.71   16.11
   1  -7  -2 1176.07   25.85
  -1   7   1 2499.75   20.71
  -1  -7   1 2718.38   26.30
   1  -7  -1 2422.79   29.16
  -1  -7   1 2587.14   31.62
  -1   7   0  720.86   13.12
  -1   7   0  710.05   14.44
  -1  -7   0  747.57   13.49
  -1   7  -1  104.83    7.91
  -1  -7  -1  146.29   11.06
  -1  -7  -1  158.98   11.34
   1  -7   1  145.02    9.24
   1   7   2 1071.71    8.93
  -1   7  -2  950.00   15.30
   1  -7   2 1014.74   17.33
  -1  -7  -2 1039.69   18.53
  -1   7  -3  596.41   14.77
  -1  -7  -3  508.80   12.03
   1  -7   3  518.98   13.98
  -1   7  -4  899.44   17.66
  -1  -7  -4  892.96   16.34
   1  -7   4  901.48   18.91
  -1   7  -5  654.32   19.37
  -1  -7  -5  518.82   15.66
   1  -7   5  496.47   17.29
  -1   7  -6  397.77   17.56
  -1  -7  -6  410.73   12.44
   1  -7   6  372.24   23.76
  -1   7  -7  108.93   11.24
  -1  -7  -7  105.76    8.21
   1  -7   7  111.91   13.77
  -1   7  -8  221.79   15.13
  -1  -7  -8  204.42   12.58
   1  -7   8  198.11   15.18
  -1   7  -9  183.33   13.99
  -1  -7  -9  193.29    9.99
   1  -7   9  212.86   14.24
  -1   7 -10  334.06   15.92
  -1  -7 -10  297.98   13.44
   1  -7  10  355.21   19.10
   1   8  -9  151.42   16.02
  -1  -8   9  200.06   13.99
   1   8  -8  584.29   23.69
  -1  -8   8  493.06   22.55
   1   8  -7   91.60   13.23
  -1  -8   7   91.97   16.44
   1   8  -6   59.11   12.63
  -1  -8   6   45.02   12.49
   1   8  -5 1628.41   32.88
   1  -8  -5 1391.49   21.68
  -1  -8   5 1431.80   29.93
   1   8  -4  840.68   23.05
   1  -8  -4  824.78   21.26
  -1  -8   4  978.83   22.80
   1   8  -3  898.42   22.71
   1  -8  -3  857.45   23.58
  -1  -8   3  847.76   20.81
  -1   8   2   18.92    5.38
  -1  -8   2   23.87    4.80
   1  -8  -2   23.17   12.84
  -1   8   1   39.60    5.63
  -1   8   1   41.23    5.83
  -1  -8   1   55.34   10.27
  -1  -8   1   63.15    9.07
  -1   8   0  152.47    9.50
  -1   8   0  149.20    9.91
  -1  -8   0   98.52    7.74
  -1  -8   0  116.47   11.06
   1   8   1  750.25   14.30
  -1   8  -1  775.96   19.60
   1  -8   1  648.21   30.88
  -1  -8  -1  599.93   15.13
  -1   8  -2  554.68   16.35
  -1  -8  -2  592.84   15.81
   1  -8   2  615.33   28.11
  -1   8  -3  649.21   19.45
  -1  -8  -3  609.83   15.99
   1  -8   3  591.70   30.78
  -1   8  -4  104.07   10.68
  -1  -8  -4   87.38    9.82
   1  -8   4   84.02   10.82
  -1   8  -5  199.52   13.93
  -1  -8  -5  105.56    8.98
   1  -8   5  113.08   11.28
  -1   8  -6  676.87   20.80
  -1  -8  -6  810.30   23.07
   1  -8   6  783.85   34.38
  -1   8  -7  509.71   18.87
  -1  -8  -7  579.21   19.06
   1  -8   7  550.83   21.59
  -1   8  -8  499.06   19.03
  -1  -8  -8  453.56   13.97
   1  -8   8  443.60   18.09
   1   9  -7  255.58   15.00
  -1  -9   7  279.08   23.08
   1   9  -6  153.76   16.51
  -1  -9   6  220.33   14.65
   1   9  -5  124.48   12.61
  -1  -9   5  141.92   15.16
   1   9  -4  159.58   15.85
  -1  -9   4  134.01   11.36
   1   9  -3   54.45    9.97
   1  -9  -3   48.08    5.07
  -1  -9   3   51.76    9.14
   1   9  -2  460.71   22.83
  -1  -9   2  449.72   21.16
  -1   9   1  895.04   19.52
  -1  -9   1 1049.29   39.93
  -1  -9   1 1010.36   17.71
  -1   9   0  168.11   11.36
  -1   9   0  171.02   11.06
  -1  -9   0  277.21   14.52
  -1   9  -1   -0.34    6.78
  -1   9  -1    0.71    6.52
  -1  -9  -1    0.41    5.11
  -1   9  -2   70.13    7.65
  -1  -9  -2   71.81    7.92
   1  -9   2   70.62   20.85
  -1   9  -3  395.82   16.15
  -1  -9  -3  386.92   17.04
   1  -9   3  392.91   22.66
  -1   9  -4  638.11   21.17
  -1  -9  -4  608.48   19.04
   1  -9   4  625.12   30.01
  -1   9  -5  275.40   14.99
  -1  -9  -5  244.00   11.56
   1  -9   5  227.08   26.01
  -1   9  -6   94.33   13.50
  -1  -9  -6  112.23   12.46
   1  -9   6  110.08   16.60
  -1   9  -7   27.27    8.32
   1  -9   7   31.68    9.30
   1  10  -4  319.51   16.94
  -1 -10   4  292.23   14.15
   1  10  -3  363.71   16.17
  -1 -10   3  281.62   12.74
   1  10  -2   32.71    8.95
  -1  10   1   17.50    6.67
   1  10  -1   15.37    5.91
  -1  10   0  151.94   11.35
  -1 -10   0  156.51   10.91
  -1  10  -1  400.95   15.17
  -1 -10  -1  412.06   16.10
  -1  10  -2  176.99   11.11
  -1  10  -2  187.81   18.06
  -1 -10  -2  139.11    9.79
  -1  10  -3  410.13   16.12
  -1 -10  -3  388.27   12.50
   1 -10   3  398.48   23.96
  -1  10  -4    7.83    9.79
  -1 -10  -4    4.98    4.89
   1 -10   4    4.69    5.04
  -2   0  13  458.27   17.04
   2   0 -13  493.84   16.34
  -2   0  12  257.68   17.26
   2   0 -12  265.86   16.91
  -2   0  11    3.73    7.64
   2   0 -11   13.97    5.82
  -2   0  10 1870.56   23.52
   2   0 -10 1735.83   18.84
  -2   0   9  458.05   12.75
   2   0  -9  486.46   11.07
  -2   0   8 3215.84   29.35
   2   0  -8 3351.09   24.30
   2   0  -7 1213.15   13.31
  -2   0   6    6.21    5.52
   2   0  -6    5.35    4.29
  -2   0   6    4.53    2.29
  -2   0   5  230.79    8.77
   2   0  -5  251.03    5.73
  -2   0   5  255.67    5.20
   2   0  -4  501.93    7.43
   2   0  -4  496.68    5.66
   2   0  -3 4327.74   22.34
   2   0  -3 4261.46   19.01
   2   0   0  860.40    8.18
  -2   0   0  853.68    6.61
  -2   0  -1  777.78    6.44
  -2   0  -2 6227.99  158.75
   2   0   3 2262.10   17.33
   2   0   3 2405.44   13.47
  -2   0  -4 4117.44   22.82
   2   0   5 4979.02  128.71
  -2   0  -5 4053.49   23.51
   2   0   7   32.84    6.73
  -2   0  -7   14.13    4.29
   2   0   8  405.02   13.54
  -2   0  -8  403.37   12.02
   2   0   9 2040.47   24.09
  -2   0  -9 2342.97   26.01
   2   0  10   61.39    7.69
  -2   0 -10   57.88   11.32
   2   0  11  220.80   13.33
  -2   0 -11  227.44   13.23
   2   0  12  103.34   20.39
  -2   0 -12  116.97    9.93
  -2   1  13  112.58   10.09
   2   1 -13  120.33   10.55
  -2  -1  13   95.91   12.27
   2  -1 -13   92.64    8.85
  -2   1  12  449.22   18.55
   2   1 -12  423.57   17.13
  -2  -1  12  494.00   16.59
   2  -1 -12  489.14   13.29
  -2   1  11 1017.86   23.05
   2   1 -11 1167.38   24.99
  -2  -1  11 1067.47   25.59
   2  -1 -11 1091.74   21.62
  -2   1  10  179.69   12.84
   2   1 -10  185.54   10.62
  -2  -1  10  157.70   12.39
   2  -1 -10  164.72    9.95
  -2   1   9 1615.64   20.90
   2   1  -9 1531.14   18.07
  -2  -1   9 1386.15   23.69
   2  -1  -9 1592.08   16.52
  -2   1   8  168.06    9.13
   2   1  -8  157.87    8.54
  -2  -1   8  148.54    9.43
   2  -1  -8  131.71    6.85
   2   1  -7  292.74    7.57
   2  -1  -7  229.26    7.76
  -2  -1   7  236.70    8.66
   2   1  -6 7318.57  187.48
  -2   1   6 6401.10  164.35
  -2   1   6 7445.06  189.94
  -2  -1   6 7151.08  183.73
  -2   1   5 3927.92   19.60
   2   1  -5 3739.01   22.47
   2  -1  -5 3948.22   22.31
   2   1  -4 3455.89   19.44
   2  -1  -3  347.62    5.77
   2   1  -2  972.96    8.11
   2   1  -2  970.47    7.66
  -2  -1   2  995.32    7.85
  -2   1   1 4726.92  121.14
  -2  -1   1 4332.53   20.69
   2   1   0 2646.10   14.03
   2   1   0 2649.92   13.92
  -2  -1  -2 2058.44   11.95
   2  -1   2 2101.64   12.65
   2   1   3 2385.84   17.65
   2  -1   3 2334.35   14.50
  -2  -1  -4 2556.31   17.89
  -2   1  -6 3682.98   25.08
   2  -1   6 3935.70   49.60
   2   1   8   87.29    8.80
  -2   1  -8   87.17    8.93
   2  -1   8  109.55   16.09
  -2  -1  -8   90.27   10.44
   2   1   9  377.79   17.48
  -2   1  -9  435.77   15.99
   2  -1   9  400.12   11.93
  -2  -1  -9  391.76   26.14
   2   1  10  929.34   23.08
  -2   1 -10 1089.92   35.84
  -2  -1 -10 1147.28   25.79
   2  -1  10 1035.66   41.83
   2   1  11 1079.28   27.09
  -2   1 -11 1229.98   51.81
  -2  -1 -11 1388.57   59.13
   2  -1  11 1214.83   31.57
  -2   1 -12  976.68   27.01
  -2  -1 -12 1033.13   29.87
   2  -1  12  835.38   25.40
  -2   2  13  393.67   17.95
   2   2 -13  462.82   17.32
  -2  -2  13  392.53   17.77
   2  -2 -13  394.01   14.87
  -2   2  12  141.92   12.89
   2   2 -12  150.08   11.71
  -2  -2  12  136.37   15.58
   2  -2 -12  119.80    8.79
  -2   2  11  173.69   10.70
   2   2 -11  199.63   13.83
  -2  -2  11  196.65   17.26
   2  -2 -11  168.39   12.09
  -2   2  10  784.64   16.41
   2   2 -10  785.01   17.70
  -2  -2  10  780.81   18.10
   2  -2 -10  745.17   12.24
   2   2  -9 1528.11   20.58
   2  -2  -9 1384.17   13.92
   2  -2  -8 2622.53   18.47
  -2   2   7  298.99    5.97
  -2   2   7  338.35    9.73
   2   2  -7  300.84    9.90
   2  -2  -7  273.27    5.88
  -2  -2   7  281.37    9.03
  -2   2   6  461.31    6.19
  -2   2   6  474.48    9.28
   2   2  -6  419.84    9.28
   2  -2  -6  444.65    5.73
  -2  -2   6  374.09   10.99
  -2   2   5  183.10    7.17
   2   2  -5  164.52    7.27
  -2  -2   5  169.70    7.91
   2  -2  -5  233.70    8.34
   2   2  -4 3452.61   21.35
   2  -2  -4 3272.65   21.16
  -2   2   3 4922.92  126.02
   2   2  -3 4993.70  127.89
   2   2  -3 5159.30  131.95
  -2  -2   3 4857.66  124.78
  -2  -2   3 5219.77  133.75
   2  -2  -3 5511.67  140.84
  -2   2   2 3816.19   21.06
   2  -2  -2 4703.34  120.49
  -2  -2   2 3952.93   21.22
   2   2  -1 4581.37  117.13
   2  -2  -1 4582.68  117.32
  -2  -2   1 3964.58   20.07
  -2   2   0 1101.21   10.53
   2   2   0 1071.90    7.71
   2   2   0 1092.62    8.90
   2   2   1   97.88    4.17
   2   2   2 7628.44  194.43
  -2   2  -2 7229.67  184.68
   2  -2   2 6297.35  161.58
   2  -2   2 7794.61  198.73
  -2   2  -3 4342.00   23.63
  -2  -2  -3 4305.69   23.86
   2  -2   3 4689.51  121.09
  -2  -2  -4 3371.12   20.66
  -2   2  -5 2433.87   19.06
   2   2   6 1119.18   17.07
   2  -2   6 1013.67   28.07
  -2  -2  -6 1093.25   14.55
   2  -2   7  103.07    9.38
  -2  -2  -7  107.78    4.94
  -2  -2  -7   92.61    8.08
   2   2   8  926.15   12.11
  -2   2  -8  954.62   16.05
  -2  -2  -8  789.04   14.45
   2  -2   8  814.05   17.15
   2   2   9 1783.44   17.08
   2  -2   9 1787.74   29.32
  -2  -2  -9 1733.19   22.52
   2   2  10  117.90    8.85
  -2   2 -10  177.93   13.33
  -2  -2 -10  128.75   24.30
   2  -2  10  133.47   12.56
  -2   2 -11   67.03   11.95
  -2  -2 -11   64.35    9.82
   2  -2  11   60.79   10.28
  -2   2 -12  124.99   13.81
  -2  -2 -12  107.96   12.46
   2  -2  12  101.37   12.51
   2   3 -13   73.43   12.17
  -2  -3  13   61.67   14.73
   2   3 -12  403.68   18.21
   2  -3 -12  411.22   12.88
  -2  -3  12  431.22   18.31
  -2   3  11  675.82   16.41
   2   3 -11  739.90   22.09
  -2  -3  11  622.79   20.63
   2  -3 -11  612.80   14.73
  -2   3  10  291.96   14.84
   2   3 -10  302.27   17.34
  -2  -3  10  374.37   15.59
   2  -3 -10  338.78    9.94
  -2   3   9 1426.02   17.22
   2   3  -9 1472.84   21.25
  -2  -3   9 1449.95   23.36
   2  -3  -9 1486.17   13.55
  -2  -3   8  712.62   14.01
   2  -3  -8  721.91    9.78
  -2   3   7  275.70   13.98
   2   3  -7  263.65   10.01
  -2   3   7  253.88    4.94
   2  -3  -7  216.49    7.59
  -2   3   6 3292.41   17.21
  -2  -3   6 3265.56   31.16
  -2   3   5 2127.15   11.59
   2  -3  -5 2208.89   16.26
   2  -3  -4 3444.53   15.50
  -2   3   3 2545.12   17.24
  -2   3   2  790.26    4.99
  -2  -3   2  877.22    9.76
  -2  -3   2  845.32    9.66
  -2  -3   1 3324.45   18.97
  -2  -3  -1 3923.70   23.18
   2  -3   2 1006.75    9.83
  -2   3  -5 3723.32   25.73
   2  -3   6 2699.73   25.65
  -2  -3  -6 2745.70   21.50
   2  -3   7 1239.40   23.70
  -2  -3  -7 1308.16   26.28
   2   3   8   22.73    5.96
  -2   3  -8   28.76    7.91
  -2  -3  -8   29.52    9.59
   2  -3   8   36.46   10.89
  -2   3  -9  123.54   10.63
  -2  -3  -9  137.41   10.95
   2  -3   9  152.47   16.25
  -2   3 -10  750.00   17.89
  -2  -3 -10  754.58   19.77
   2  -3  10  822.25   24.56
  -2   3 -11 1051.08   28.55
  -2  -3 -11  871.46   24.48
   2  -3  11  958.23   29.26
  -2   3 -12  649.13   18.07
  -2  -3 -12  510.46   16.25
   2  -3  12  481.61   16.86
   2   4 -12  112.17   10.80
  -2  -4  12   78.24   12.51
   2   4 -11   45.65   10.49
   2  -4 -11   32.61   12.37
  -2  -4  11   35.40   13.49
  -2   4  10  244.72   12.15
   2   4 -10  260.03   17.31
  -2  -4  10  252.11   16.97
   2  -4 -10  214.92   10.86
   2   4  -9 1114.82   24.30
  -2   4   9 1152.52   20.98
  -2  -4   9 1292.35   29.38
  -2   4   5  516.29    8.65
   2   4  -5  430.14   10.90
  -2   4   5  477.65    4.85
   2  -4  -5  527.07    8.56
  -2   4   4 3391.81   21.90
  -2   4   3 1911.94    9.99
  -2  -4   3 2010.28   19.39
   2  -4  -3 2017.52   14.84
  -2   4   2 1265.35   11.32
  -2   4   2 1254.12    8.59
  -2  -4   2 1216.43   12.05
  -2   4   1 2117.93   15.86
   2   4  -1 2090.67   15.88
  -2   4   1 2092.87   17.46
  -2   4   0   96.47    6.08
   2   4   0  124.87    4.26
  -2   4   0  120.24    4.50
  -2   4   0  125.00    5.66
  -2  -4   0  144.68    5.17
  -2  -4   0  114.07    6.11
  -2   4  -1  479.00    8.99
  -2   4  -2 3719.15   22.38
  -2  -4  -2 3489.36   24.64
   2  -4   2 3422.55   36.09
  -2   4  -3 2486.02   18.61
  -2  -4  -3 2594.45   19.80
   2  -4   3 2661.01   23.30
  -2  -4  -4  993.27   12.76
  -2   4  -5  817.62   14.55
  -2  -4  -5  819.51   13.19
  -2   4  -6  473.50   12.04
  -2  -4  -6  486.11   11.70
   2  -4   6  442.17   11.68
   2  -4   7  442.18   14.60
  -2  -4  -7  448.53   12.25
  -2   4  -8 1143.18   23.37
  -2  -4  -8 1027.39   24.30
   2  -4   8  922.25   39.83
  -2   4  -9  796.00   18.99
  -2  -4  -9  689.33   19.22
   2  -4   9  657.57   21.47
  -2   4 -10  381.79   15.29
  -2  -4 -10  427.69   17.32
   2  -4  10  403.85   18.57
  -2   4 -11  118.42   10.93
  -2  -4 -11  105.60   10.69
   2  -4  11   98.91   25.42
   2   5 -12  287.63   16.93
  -2  -5  12  320.82   18.09
   2   5 -11  838.57   23.90
  -2  -5  11  870.09   31.28
   2   5 -10  201.86   13.62
  -2  -5  10  248.64   15.84
   2   5  -9  364.92   18.19
   2  -5  -9  393.71    9.87
  -2  -5   9  436.60   20.47
  -2   5   8  376.06   16.30
   2   5  -8  388.22   21.35
  -2  -5   8  360.12   21.18
   2  -5  -8  305.38   10.80
  -2   5   7  135.94    7.77
   2   5  -7  118.91   11.39
  -2  -5   7   51.14   12.14
   2  -5  -7   61.23    5.38
  -2  -5   6 2727.75   56.15
  -2   5   5 1061.86   11.12
  -2   5   5 1107.13    8.31
   2  -5  -4 2830.06   15.91
  -2   5   3 1398.15    9.90
  -2  -5   3 1301.91   24.77
  -2  -5   3 1476.23   16.75
  -2   5   2  257.61    4.97
  -2   5   2  288.92    8.74
  -2   5   2  257.18    4.67
  -2  -5   2  237.25    7.76
  -2  -5   2  272.83    7.27
  -2   5   1 1397.94   15.60
   2   5  -1 1480.99   12.90
  -2   5   1 1491.24   11.10
  -2  -5   1 1419.95   13.11
  -2   5   0 3560.05   27.41
  -2   5   0 3467.10   21.71
  -2   5   0 3534.31   21.06
  -2  -5   0 3513.19   26.28
  -2   5  -1 3310.90   23.50
   2   5   1 3071.66   15.58
   2  -5   1 3074.59   26.87
   2   5   2   86.48    2.21
  -2   5  -2  102.96    8.80
   2  -5   2   37.48    6.66
  -2  -5  -2   35.57    6.43
  -2   5  -3  171.73    9.49
  -2  -5  -3  196.38    8.88
   2  -5   3  159.16   14.86
  -2   5  -4  623.32   12.25
  -2  -5  -4  603.66   12.57
   2  -5   4  524.07   12.46
  -2   5  -5 3565.45   30.36
   2  -5   6 1273.29   21.34
  -2   5  -7  530.78   15.12
  -2  -5  -7  568.91   15.43
   2  -5   7  573.67   17.55
  -2   5  -8  100.99   11.90
  -2  -5  -8   52.72    9.13
   2  -5   8   49.37   18.76
  -2   5  -9   63.25   12.37
  -2  -5  -9   36.24    9.09
   2  -5   9   33.32   34.19
  -2   5 -10  828.58   27.63
  -2  -5 -10  650.97   21.03
   2  -5  10  637.43   23.48
  -2   5 -11  655.77   17.77
  -2  -5 -11  632.93   17.16
   2  -5  11  636.47   20.74
   2   6 -11   48.50   10.43
  -2  -6  11   37.76   12.04
   2   6 -10   82.86   10.09
  -2  -6  10   83.55   11.51
   2   6  -9  298.35   17.57
  -2  -6   9  269.33   19.23
   2   6  -8 1488.84   30.75
  -2  -6   8 1171.58   27.10
  -2   6   7 1394.79   22.34
   2   6  -7 1342.98   28.01
  -2  -6   7 1207.85   29.59
   2  -6  -7 1350.18   20.77
  -2   6   6   16.84    4.39
   2   6  -6   16.38    8.80
  -2  -6   6   51.28    9.63
   2  -6  -6   41.04    4.85
  -2   6   5  523.88    8.72
   2   6  -5  525.37   14.08
  -2  -6   5  568.54   14.82
   2  -6  -5  585.37    7.98
  -2   6   3 1493.43   11.25
  -2   6   3 1468.20   16.37
   2  -6  -3 1512.68   18.02
  -2  -6   3 1321.07   29.59
  -2  -6   3 1435.01   19.38
  -2   6   1  402.39    9.85
  -2   6   1  407.82    7.97
  -2  -6   1  441.21    8.75
  -2  -6   1  352.45    9.85
  -2   6   0   40.58    6.11
   2   6   0   36.17    3.43
  -2   6   0   43.07    7.12
  -2  -6   0   30.15    7.31
  -2  -6   0   35.68    4.78
  -2   6  -1  518.55   10.27
   2   6   1  493.52    5.95
  -2  -6  -1  500.96    6.51
  -2  -6  -1  482.02   13.38
   2  -6   1  468.90   23.55
  -2   6  -2 1562.46   18.30
   2   6   2 1531.29    7.50
   2   6   2 1511.61    7.47
  -2  -6  -2 1451.26   26.44
   2  -6   2 1468.86   19.78
   2  -6   3  963.84   24.22
  -2  -6  -3 1031.45   16.32
   2  -6   4 2563.48   33.33
  -2   6  -5  231.45   13.22
  -2  -6  -5  317.47   15.43
   2  -6   5  287.59   23.47
  -2   6  -6   33.91    7.30
  -2  -6  -6   41.56    8.59
   2  -6   6   47.55   12.58
  -2   6  -7  418.61   16.63
  -2  -6  -7  318.82   12.89
   2  -6   7  311.85   19.67
  -2   6  -8  580.69   19.93
  -2  -6  -8  597.31   26.46
   2  -6   8  576.17   19.81
  -2   6  -9  387.06   16.62
  -2  -6  -9  258.61   14.98
   2  -6   9  242.63   17.15
  -2   6 -10  271.01   14.72
  -2  -6 -10  270.01   13.74
   2  -6  10  248.32   13.72
   2   7 -10  349.06   14.65
  -2  -7  10  366.48   16.44
   2   7  -9   78.53   14.29
  -2  -7   9   85.11   11.34
   2   7  -8  220.14   17.43
  -2  -7   8  172.47   14.35
   2   7  -7  168.90   14.14
  -2  -7   7  109.19   12.30
   2   7  -6 1798.37   36.47
  -2  -7   6 1536.07   32.30
  -2   7   5  448.48   10.55
   2   7  -5  444.31   15.56
  -2  -7   5  476.67   15.14
   2  -7  -5  447.07    9.19
  -2   7   4 1751.56   16.37
   2   7  -4 1654.26   24.81
  -2  -7   4 1708.02   22.82
   2  -7  -4 1836.97   14.18
  -2   7   3  199.03    9.09
  -2  -7   3  255.69   11.67
  -2  -7   3  248.98   14.08
   2  -7  -3  246.17    8.55
  -2   7   2  326.14   12.45
  -2   7   2  302.17   10.83
  -2  -7   2  368.78   20.68
  -2  -7   2  401.83   12.86
  -2   7   1 1018.32   14.82
  -2   7   1 1048.55   13.74
  -2  -7   0 1224.77   18.20
  -2   7  -1  914.51   18.33
  -2   7  -1  890.07   14.87
  -2  -7  -1  950.97   11.59
  -2  -7  -1 1054.69   27.24
  -2   7  -2  137.44    9.98
  -2  -7  -2  142.26    9.93
   2  -7   2  140.30   12.80
  -2   7  -3   88.00   12.05
  -2  -7  -3   80.64    8.86
   2  -7   3   77.76   13.60
  -2   7  -4  484.75   13.92
  -2  -7  -4  585.10   18.06
   2  -7   4  561.00   19.43
   2  -7   5 1418.40   49.58
  -2   7  -6   35.26    9.10
  -2  -7  -6   77.50    7.59
   2  -7   6   85.67   12.26
  -2   7  -7 1038.65   27.41
  -2  -7  -7  968.32   27.19
   2  -7   7  919.37   26.42
  -2   7  -8   63.07   10.33
  -2  -7  -8   90.28    9.60
   2  -7   8   92.04   10.84
  -2   7  -9   80.18   11.98
  -2  -7  -9   68.84   11.40
   2  -7   9   51.08   32.96
   2   8  -9  231.71   14.77
  -2  -8   9  149.72   20.10
   2   8  -8  467.63   21.18
  -2  -8   8  470.97   21.79
   2   8  -7  466.67   21.82
  -2  -8   7  394.76   17.05
   2   8  -6  601.40   22.91
  -2  -8   6  468.74   27.77
   2   8  -5   26.97   13.42
  -2  -8   5   51.96   10.14
   2   8  -4   72.78   13.28
   2  -8  -4   50.09   10.67
  -2  -8   4   69.90   10.75
  -2   8   3  971.24   18.62
  -2   8   3  920.26   17.51
  -2  -8   3 1037.56   22.23
  -2  -8   3  942.43   22.91
  -2   8   2  327.44   12.03
  -2   8   2  303.15   14.24
  -2  -8   2  452.64   13.60
  -2  -8   2  433.77   38.95
  -2   8   1   54.10    6.73
  -2   8   1   48.01    7.40
  -2  -8   1   73.64    7.22
  -2  -8   1   65.16   23.14
  -2   8   0  128.60   12.83
  -2   8   0  132.26    8.40
  -2  -8   0  126.28    8.07
  -2  -8   0  132.72   11.58
  -2   8  -1  159.92   13.48
  -2   8  -1  147.97   10.45
  -2  -8  -1  140.56   12.59
  -2   8  -2 1013.46   22.31
  -2  -8  -2  943.99   23.29
   2  -8   2  980.85   33.63
  -2   8  -3  918.92   22.06
  -2  -8  -3  849.58   21.11
   2  -8   3  796.78   28.15
  -2   8  -4 1156.26   24.49
  -2  -8  -4 1119.97   31.35
   2  -8   4 1138.53   45.03
  -2   8  -5   17.96    8.43
  -2  -8  -5   32.79   18.57
   2  -8   5   34.80   32.08
  -2   8  -6   30.92    8.78
  -2  -8  -6   45.67    8.81
   2  -8   6   52.98   12.97
  -2   8  -7  337.43   15.88
  -2  -8  -7  280.13   14.36
   2  -8   7  257.22   24.49
  -2   8  -8  192.75   12.61
  -2  -8  -8  227.57   10.76
   2  -8   8  231.00   21.37
   2   9  -7   83.99   13.38
  -2  -9   7   66.35   11.23
   2   9  -6  979.45   30.73
  -2  -9   6  921.09   28.94
   2   9  -5  424.09   20.75
  -2  -9   5  523.04   19.07
   2   9  -4  366.30   16.44
  -2  -9   4  437.50   17.55
   2   9  -3   14.82    8.95
  -2  -9   2  154.11    9.51
  -2  -9   2  166.63   12.58
  -2   9   1  750.33   18.62
  -2   9   1  669.22   15.01
  -2  -9   1  754.62   19.29
  -2   9   0  873.89   20.50
  -2   9   0  846.69   18.45
  -2  -9   0  860.11   19.12
  -2   9  -1  351.67   33.98
  -2   9  -1  384.08   17.11
  -2  -9  -1  335.95   17.53
  -2   9  -2   99.29    9.84
  -2   9  -2  109.61    9.44
  -2  -9  -2  156.16   11.33
  -2   9  -3    4.79    9.84
  -2  -9  -3    4.07    7.68
   2  -9   3    8.77   10.45
  -2   9  -4   41.85    6.47
  -2  -9  -4   95.00   30.45
   2  -9   4   96.50   11.95
  -2   9  -5  244.94   14.34
  -2  -9  -5  341.45   13.65
   2  -9   5  356.45   17.12
  -2   9  -6  269.37   12.83
  -2  -9  -6  207.16   11.03
   2  -9   6  201.67   12.73
   2  10  -4  295.63   15.04
  -2 -10   4  260.74   17.85
   2  10  -3  274.01   15.07
   2  10  -2   62.37   11.96
  -2 -10   1   34.97    8.46
  -2 -10   0    3.76    5.13
  -2  10  -1   54.84    7.63
  -2  10  -1   61.11    6.84
  -2 -10  -1   48.75   26.14
  -2  10  -2  392.09   14.95
  -2  10  -2  440.20   14.77
  -2 -10  -2  437.25   13.20
  -2  10  -3  332.25   15.57
  -2  10  -3  380.54   16.19
  -2 -10  -3  292.84   12.08
  -3   0  13  194.06   12.21
   3   0 -13  188.95   18.28
  -3   0  12  596.24   16.85
   3   0 -12  554.81   14.95
  -3   0  11 2670.49   31.28
   3   0 -11 2904.41   25.30
  -3   0  10   56.99   10.74
   3   0 -10   63.19    8.57
  -3   0   9   23.14    9.34
   3   0  -9   25.60    5.91
   3   0  -8 1520.78   15.04
   3   0  -6  635.28    7.28
  -3   0   5 6205.27  159.61
   3   0  -5 6355.52  162.20
   3   0  -4 1314.73    9.59
  -3   0   3  256.49    6.50
   3   0  -3  274.14    5.81
  -3   0   3  320.55    5.53
   3   0  -3  290.41    4.27
  -3   0   2 4907.75  125.85
   3   0  -2 5830.74  149.21
   3   0   0  337.44    5.83
  -3   0   0  283.63    4.71
  -3   0  -3  338.72   14.69
  -3   0  -4  840.13    9.70
  -3   0  -6  514.38    9.44
   3   0   7   54.33   11.69
  -3   0  -7   32.82    7.80
   3   0   8  222.86   11.45
  -3   0  -8  229.79   14.90
   3   0   9 1370.62   24.65
  -3   0  -9 1232.11   26.11
   3   0  10 1123.44   26.23
  -3   0 -10 1249.85   25.47
   3   0  11  463.52   16.21
  -3   0 -11  511.42   16.69
   3   0  12  134.37   12.85
  -3   0 -12  195.68   13.74
  -3   1  13   19.04    8.70
   3   1 -13   17.52    5.98
  -3  -1  13   40.45   10.53
   3  -1 -13   43.33    6.36
  -3   1  12  219.18   13.52
   3   1 -12  227.77   12.99
  -3  -1  12  234.68   14.65
   3  -1 -12  232.49   12.43
  -3   1  11 1348.86   27.70
   3   1 -11 1586.39   28.55
  -3  -1  11 1374.60   30.17
   3  -1 -11 1533.98   26.53
  -3   1  10  280.25   16.02
   3   1 -10  284.74   13.25
  -3  -1  10  202.19   18.99
   3  -1 -10  167.60    8.82
   3   1  -9 2094.02   20.76
   3  -1  -9 2081.77   16.09
  -3  -1   9 2149.48   28.71
  -3   1   8  405.55   11.44
   3   1  -8  383.48   10.70
  -3  -1   8  287.66   10.69
   3  -1  -8  350.64    8.05
   3   1  -7  161.02   10.26
  -3   1   7  138.39    8.04
   3  -1  -7   94.99    4.84
   3  -1  -7  116.94    6.59
  -3  -1   7  101.77    7.97
   3   1  -6  267.31    7.63
  -3   1   6  237.43    8.32
   3  -1  -6  197.04    8.10
   3  -1  -6  207.55    6.97
  -3  -1   6  186.84    8.43
  -3   1   5 1725.92   16.65
  -3   1   4 5962.87  153.03
   3   1  -4 6828.76  174.36
  -3  -1   4 6338.04  162.64
  -3  -1   4 6188.37  158.60
   3   1  -3  858.15    9.47
  -3   1   3  811.88    9.48
   3   1  -3  905.26    7.85
   3  -1  -3  807.50   10.76
  -3  -1   2  545.65    7.21
  -3  -1   2  589.38    7.24
   3  -1  -1  559.41    4.89
   3   1   0 3379.01   17.76
   3   1   0 3428.00   18.67
  -3   1   0 3313.28   16.53
  -3  -1   0 3288.91   18.88
  -3  -1  -1 2986.10   17.66
   3  -1   3 5994.92  154.60
  -3  -1  -3 6169.33  157.90
  -3   1  -4   87.43    5.26
  -3  -1  -4   76.62    4.41
  -3  -1  -4   64.85    4.98
  -3  -1  -4   48.65    3.89
   3  -1   4   49.88    4.95
   3   1   5   34.29    9.30
  -3   1  -5   23.40   14.19
   3  -1   5   23.96    5.54
  -3  -1  -5   20.33    5.90
  -3  -1  -5   25.33    3.51
  -3   1  -6 2652.48   20.55
   3  -1   6 3026.50   47.51
   3   1   7 1815.96   21.73
  -3  -1  -7 1857.28   21.15
   3   1   8 1554.08   20.31
   3   1   9  178.60   10.55
  -3   1  -9  198.84   13.46
  -3  -1  -9  221.93   16.45
   3  -1   9  175.27   12.13
   3   1  10   70.24    7.45
  -3   1 -10   81.09   10.67
  -3  -1 -10   80.88   12.38
   3  -1  10   74.72   14.62
  -3   1 -11  586.76   19.67
  -3  -1 -11  715.77   26.05
   3  -1  11  539.07   21.83
  -3   1 -12  796.88   19.61
  -3  -1 -12  831.32   21.49
   3  -1  12  714.66   31.74
   3   2 -13  714.15   17.45
  -3   2  13  641.80   17.88
  -3  -2  13  557.84   18.79
  -3   2  12  561.84   19.50
   3   2 -12  581.31   18.74
  -3  -2  12  557.48   20.25
   3  -2 -12  516.49   14.13
  -3   2  11 1634.56   29.60
   3   2 -11 1647.61   59.11
  -3  -2  11 1608.50   33.09
   3  -2 -11 1753.77   60.58
  -3   2  10   40.75    9.82
   3   2 -10   43.08   10.80
  -3  -2  10   49.85   11.85
   3  -2 -10   44.60    5.72
  -3   2   9   38.53    7.98
   3   2  -9   41.54    7.80
  -3  -2   9   63.42   10.09
   3  -2  -9   52.24    5.23
  -3   2   8 1113.93   22.01
   3  -2  -8 1042.31   14.06
  -3  -2   7 3690.90   29.91
   3  -2  -7 3685.47   19.61
  -3   2   6  769.58   12.14
  -3  -2   6  808.39   13.06
  -3   2   5 2701.52   20.13
   3   2  -5 2579.49   19.63
  -3  -2   4  659.40   12.48
  -3  -2   3  402.92    7.92
  -3   2   2 3443.90   21.97
  -3   2   1 9727.47  248.17
   3  -2  -112179.45  310.22
  -3  -2   1 9895.28  252.24
  -3   2   0 1486.10   21.26
  -3  -2   0 1441.87   11.09
  -3  -2  -1 1404.14   10.23
  -3   2  -2  665.60    7.91
  -3  -2  -2  674.03    9.43
   3  -2   2  636.54    7.63
  -3  -2  -3  514.18    6.96
  -3   2  -5 2380.68   19.45
   3  -2   6  560.06   12.66
  -3  -2  -6  600.21    9.51
  -3   2  -7   17.01    8.88
  -3  -2  -7   15.48   10.15
   3  -2   7    1.53    3.48
   3   2   8  268.65   10.47
  -3   2  -8  288.26   13.45
  -3  -2  -8  269.21   14.25
   3  -2   8  257.74   16.36
   3   2   9  978.54   18.23
   3  -2   9  906.37   21.92
  -3  -2  -9  918.20   22.15
  -3   2 -10  882.63   25.11
  -3  -2 -10 1007.47   22.20
   3  -2  10  954.77   28.99
  -3   2 -11  714.18   21.85
  -3  -2 -11  625.51   20.20
   3  -2  11  584.93   24.30
  -3   2 -12  214.54   12.97
  -3  -2 -12  220.65   13.36
   3  -2  12  228.05   16.88
   3   3 -13  134.16   14.77
  -3  -3  13  179.91   13.47
   3   3 -12   69.50   12.49
  -3   3  12   69.17    9.02
  -3  -3  12   84.35   37.93
   3   3 -11  761.62   20.43
  -3   3  11  778.67   19.52
  -3  -3  11  697.74   23.16
  -3   3  10  555.28   14.73
   3   3 -10  549.64   16.65
  -3  -3  10  473.51   18.70
   3  -3 -10  440.82   10.74
  -3   3   9  977.67   16.07
  -3  -3   9  901.13   18.50
   3  -3  -9  874.78   10.65
  -3  -3   8  416.95   13.33
   3  -3  -8  405.76    6.16
   3   3  -7  419.12   11.24
  -3   3   7  456.88   11.42
  -3   3   7  377.72    5.51
  -3  -3   7  348.98   11.64
  -3   3   6  830.44    6.67
  -3  -3   4 2470.08   23.85
  -3  -3   3 3316.49   22.40
  -3   3   2    8.12    1.00
   3   3  -2    7.51    2.38
  -3   3   2    8.60    5.88
  -3   3   2    7.57    1.74
  -3  -3   2   16.78    4.31
  -3  -3   2   16.95    3.64
   3   3  -1 1390.17   11.16
  -3   3   1 1296.04    7.40
  -3  -3   1 1390.38   12.24
  -3  -3   1 1281.47   14.01
  -3   3   0  992.99    7.99
   3   3   1 4727.93  120.69
  -3   3  -1 4619.72  118.33
  -3  -3  -1 4539.66   27.63
   3  -3   1 4868.06  124.61
   3   3   2 4823.46  123.01
  -3   3  -2 4181.87   23.73
  -3   3  -4   74.95    6.45
  -3  -3  -4   62.19    3.03
  -3  -3  -4   55.32    3.44
  -3  -3  -4   39.88    6.11
   3  -3   4   51.70    6.47
  -3   3  -5   66.73    6.30
  -3  -3  -5   46.29    4.90
  -3  -3  -5   43.35    3.42
  -3  -3  -5   37.52    6.90
   3  -3   5   35.84    6.00
  -3  -3  -6 2255.51   13.75
  -3  -3  -6 2077.62   30.94
   3  -3   7 1557.86   33.01
  -3  -3  -7 1576.28   32.13
  -3  -3  -8 2153.57   31.02
  -3   3  -9  349.64   18.01
  -3  -3  -9  286.59   29.44
   3  -3   9  304.78   18.10
  -3   3 -10    0.13    9.15
  -3  -3 -10    2.07    5.02
   3  -3  10   -0.82    7.81
  -3   3 -11  329.91   15.18
  -3  -3 -11  321.83   24.05
   3  -3  11  342.56   18.52
   3   4 -12  365.36   15.93
  -3  -4  12  381.65   19.48
   3   4 -11  469.72   17.40
  -3   4  11  527.53   16.93
  -3  -4  11  502.09   21.46
   3   4 -10   79.14   13.53
  -3   4  10   68.40    7.21
  -3  -4  10   68.95   12.89
  -3   4   9   51.81    6.29
   3   4  -9   59.59   12.79
  -3  -4   9   70.64   11.87
   3  -4  -9   64.64    4.58
   3   4  -8 1027.17   20.25
  -3  -4   8  877.47   20.75
  -3   4   7 2275.57   20.49
  -3  -4   7 2276.00   26.73
   3  -4  -7 2419.74   11.81
  -3   4   6  582.39   11.39
  -3  -4   6  490.83   13.26
  -3  -4   5  809.13   15.51
  -3   4   4   47.73    5.71
  -3  -4   4   35.05    7.44
  -3  -4   4   42.99   17.75
  -3   4   3  316.84   11.02
  -3  -4   3  322.22   10.43
  -3  -4   3  257.52    7.42
  -3   4   2 3866.38   26.09
  -3   4   2 3869.72   16.57
   3   4  -1 2759.43   17.46
  -3  -4   1 2601.15   22.24
  -3   4   0 2379.15   15.10
  -3   4   0 2345.33   14.09
  -3  -4   0 2350.10   16.04
  -3   4  -1 1348.43   11.92
  -3  -4  -1 1346.25   10.46
   3  -4   1 1305.54   11.94
  -3   4  -2   94.42    5.92
   3   4   2   97.93    3.22
  -3  -4  -2  138.20    4.63
  -3  -4  -2  122.23    7.93
   3  -4   2  120.72    7.73
  -3   4  -3 1003.24   12.80
  -3  -4  -4 3522.74   28.22
  -3   4  -5  843.39   16.38
  -3  -4  -5  851.31   15.89
   3  -4   5  744.82   20.58
  -3   4  -6  345.51   15.29
  -3  -4  -6  247.12   12.58
   3  -4   6  255.36   12.65
  -3   4  -7   56.51    9.79
  -3  -4  -7   28.90   15.49
   3  -4   7   33.89   20.10
  -3   4  -8  205.47   13.67
  -3  -4  -8  265.59   17.51
   3  -4   8  245.44   16.60
  -3   4  -9  864.81   21.35
  -3  -4  -9  831.30   22.61
   3  -4   9  725.81   20.92
  -3   4 -10  576.49   21.67
  -3  -4 -10  624.32   21.10
   3  -4  10  561.16   19.61
  -3   4 -11  564.16   20.42
  -3  -4 -11  489.90   16.53
   3  -4  11  439.13   16.37
   3   5 -12    1.84    8.63
  -3  -5  12    8.17    9.14
   3   5 -11  206.82   12.40
  -3  -5  11  117.24   13.93
   3   5 -10  704.60   23.18
  -3  -5  10  564.51   19.33
   3   5  -9 1505.07   32.34
  -3   5   9 1473.05   26.46
  -3  -5   9 1348.79   30.37
   3   5  -8  197.96   15.25
  -3   5   8  214.60   12.91
  -3  -5   8  191.25   15.44
  -3   5   7   95.21    6.98
   3   5  -7   95.05   12.35
  -3  -5   7  105.67   14.53
   3  -5  -7   94.37    4.11
  -3   5   6  473.05   10.17
   3   5  -6  390.33   13.34
  -3  -5   6  460.50   13.98
   3  -5  -6  485.64    4.23
  -3   5   5  719.05   12.00
  -3   5   5  703.61    4.23
  -3   5   4  661.69   12.26
  -3  -5   4  648.87   12.89
  -3  -5   4  634.02   12.27
  -3   5   3 3902.61   16.88
  -3   5   3 3879.25   17.66
  -3   5   2  229.92    7.34
  -3   5   2  228.13   10.34
  -3   5   2  232.02    7.36
  -3  -5   2  136.34    7.22
  -3   5   1  110.94    9.22
   3   5  -1   96.62    5.30
  -3   5   1  104.56    4.30
  -3   5   1   95.01    4.48
  -3  -5   1   89.38    6.26
  -3  -5   1   78.58   17.49
  -3   5   0 1508.05   11.53
  -3   5   0 1486.17   12.34
   3   5   2  846.90    5.52
  -3  -5  -2  817.14   13.70
  -3  -5  -3 1716.20   21.40
  -3   5  -4   30.70    7.37
  -3  -5  -4   23.18    7.78
   3  -5   4   26.49   15.87
  -3   5  -5  170.26   10.97
  -3  -5  -5   94.79    9.20
   3  -5   5   86.92   12.02
  -3  -5  -6 1678.35   23.32
  -3   5  -7  880.51   23.18
  -3  -5  -7  896.67   22.58
   3  -5   7  888.45   34.84
  -3   5  -8 1468.56   30.45
  -3  -5  -8 1237.65   26.04
   3  -5   8 1164.29   72.45
  -3   5  -9  255.92   14.39
  -3  -5  -9  350.96   15.35
   3  -5   9  344.10   19.22
  -3   5 -10  127.33   14.33
  -3  -5 -10  118.49   13.37
   3  -5  10  131.81   30.38
   3   6 -11  282.53   14.30
  -3  -6  11  258.60   15.71
   3   6 -10    1.20   10.46
  -3  -6  10    3.12   11.11
   3   6  -9   29.08   10.74
  -3  -6   9   34.51   11.61
   3   6  -8  331.39   18.08
  -3   6   8  312.66   16.28
  -3  -6   8  354.88   19.51
   3   6  -7  773.69   21.39
  -3   6   7  727.96   15.57
  -3  -6   7  766.07   20.44
  -3   6   6 1726.01   17.80
   3   6  -6 1608.27   24.81
   3   6  -5  735.49   16.00
  -3   6   5  757.43   12.74
  -3  -6   5  780.38   17.35
  -3   6   4  191.31    9.66
  -3   6   4  168.42    5.67
  -3  -6   4  170.56    9.85
  -3  -6   4  147.96   21.07
  -3   6   3  632.08    6.84
  -3   6   3  637.65   13.88
  -3   6   3  609.39    6.23
  -3  -6   3  537.11   12.49
  -3  -6   3  615.76   12.31
  -3   6   2 1453.03   10.98
  -3   6   2 1316.49   18.78
  -3   6   2 1511.31   12.41
  -3  -6   2 1450.27   22.85
  -3   6   1  627.48    9.43
  -3   6   1  662.57   15.06
  -3   6   1  577.94    7.29
  -3  -6   1  603.09   14.34
  -3  -6   1  613.88   11.05
   3   6   0 2789.42   17.28
  -3   6   0 2660.95   18.85
  -3  -6   0 2848.85   18.75
  -3  -6   0 2603.96   32.79
  -3   6  -1  331.59    8.35
   3   6   1  343.03    5.25
  -3   6  -1  372.77   12.07
  -3  -6  -1  338.55   13.70
  -3  -6  -1  370.86    5.79
  -3   6  -2   46.42   11.15
  -3   6  -2   41.02    5.95
  -3  -6  -2   56.26    9.45
   3  -6   3 1027.28   20.41
  -3  -6  -3  966.03   19.97
  -3   6  -4 1402.04   18.71
   3  -6   4 1611.75   37.45
  -3   6  -5  185.24   11.59
  -3  -6  -5  190.01   13.20
   3  -6   5  199.45   18.08
  -3   6  -6  665.93   17.82
  -3  -6  -6  506.23   18.66
   3  -6   6  534.34   19.79
  -3   6  -7    3.84    8.78
  -3  -6  -7    9.59    5.85
   3  -6   7    4.19   11.44
  -3   6  -8  202.63   13.54
  -3  -6  -8  218.72   15.22
   3  -6   8  215.49   16.43
  -3   6  -9  346.24   18.52
  -3  -6  -9  300.32   16.78
   3  -6   9  257.24   41.31
   3   7 -10  521.46   20.79
  -3  -7  10  429.57   19.90
   3   7  -9  837.06   26.83
  -3  -7   9  719.83   24.40
   3   7  -8   35.51   11.33
  -3  -7   8   34.82   11.43
   3   7  -7   95.57   13.78
  -3  -7   7   88.35   11.62
  -3   7   6   20.18   11.20
  -3  -7   6   39.82   10.24
   3   7  -5  609.33   18.32
  -3   7   5  600.10   14.56
  -3  -7   5  559.51   16.86
  -3   7   4   99.76    8.29
  -3  -7   4   82.12    7.96
  -3  -7   4   84.73    8.36
  -3   7   3  758.45   13.26
  -3   7   2  220.36   14.19
  -3   7   2  222.00    8.59
  -3  -7   2  276.32   13.53
  -3  -7   2  268.67   14.12
  -3   7   1  122.59   11.28
  -3   7   1  117.46    7.25
  -3  -7   1  117.30    7.04
  -3  -7   1  119.46   11.56
  -3   7   0 1582.45   18.38
  -3  -7   0 1708.40   24.23
  -3  -7   0 1646.39   14.38
  -3   7  -1 1538.56   44.78
  -3   7  -1 1593.30   17.07
  -3  -7  -1 1726.08   11.05
  -3  -7  -1 1554.01   24.35
  -3   7  -2  252.58   16.91
  -3   7  -2  216.29   10.32
  -3  -7  -2  212.02   12.87
  -3   7  -3  888.11   18.11
  -3  -7  -3  978.36   25.19
   3  -7   3 1036.11   26.56
  -3   7  -4  124.55    9.82
  -3  -7  -4  187.24   14.29
   3  -7   4  181.71   15.71
  -3   7  -5  123.21    9.83
  -3  -7  -5   77.98    9.42
   3  -7   5   83.53   13.30
  -3   7  -6 1227.63   25.84
  -3  -7  -6 1165.73   25.13
   3  -7   6 1174.72   27.61
  -3   7  -7  716.98   22.38
  -3  -7  -7  737.38   24.27
   3  -7   7  734.92   31.59
  -3   7  -8  787.29   21.71
  -3  -7  -8  626.61   18.46
   3  -7   8  563.73   46.15
   3   8  -9    2.85    9.72
  -3  -8   9   15.58   11.43
   3   8  -8  139.77   13.99
  -3  -8   8  121.38   12.27
   3   8  -7  719.54   26.75
  -3  -8   7  620.31   22.50
   3   8  -6  930.25   30.53
  -3  -8   6  851.70   25.01
   3   8  -5  222.05   16.27
  -3  -8   5  306.16   16.23
  -3   8   4  481.90   12.90
  -3  -8   4  417.32   17.09
  -3  -8   4  445.58   34.26
  -3   8   3  284.95   15.40
  -3  -8   3  331.63   12.21
  -3  -8   3  397.26   17.87
  -3   8   2 1723.37   38.43
  -3  -8   2 1779.85   30.66
  -3  -8   2 1537.17   53.31
  -3   8   1  182.59   12.16
  -3   8   1  173.14    9.72
  -3  -8   1  200.79   10.70
  -3  -8   1  204.12   15.49
  -3   8   0 1031.58   24.19
  -3   8   0 1102.51   21.70
  -3  -8   0  974.66   25.74
  -3   8  -1  169.66   13.27
  -3   8  -1  133.46   10.00
  -3  -8  -1  153.18   13.63
  -3   8  -2  221.87   14.06
  -3   8  -2  188.22    9.51
  -3  -8  -2  273.59   16.35
  -3   8  -3  275.25   17.27
  -3   8  -3  249.27   12.16
  -3  -8  -3  384.66   17.34
  -3   8  -4  277.03   12.70
  -3  -8  -4  242.52   17.90
   3  -8   4  260.40   16.05
  -3   8  -5  285.50   14.64
  -3  -8  -5  282.25   13.48
   3  -8   5  294.34   17.87
  -3   8  -6  189.00   19.29
  -3  -8  -6  195.96   16.23
   3  -8   6  188.01   21.96
  -3   8  -7   29.53    6.49
  -3  -8  -7   31.77    8.07
   3  -8   7   20.02   27.31
   3   9  -7   42.78   12.35
  -3  -9   7   36.77    8.74
   3   9  -6   21.17    7.88
  -3  -9   6    8.50    8.84
   3   9  -5  221.49   13.58
  -3  -9   5  264.57   13.35
   3   9  -4  112.02   14.40
  -3  -9   4   47.03    7.03
  -3  -9   3  552.33   17.90
  -3  -9   3  517.81   18.51
  -3   9   2   59.04    8.13
  -3  -9   2  131.04   12.97
  -3   9   1  165.27   13.70
  -3  -9   1  125.52    9.78
  -3   9   0  226.13   14.41
  -3  -9   0  274.46   14.80
  -3   9  -1  583.41   20.08
  -3   9  -1  500.35   15.38
  -3  -9  -1  511.53   18.36
  -3   9  -2  472.68   17.74
  -3   9  -2  438.07   14.52
  -3  -9  -2  499.65   20.21
  -3   9  -3  427.88   19.09
  -3   9  -3  371.80   14.24
  -3  -9  -3  483.88   19.05
  -3   9  -4   91.76   11.96
  -3   9  -4   82.31    8.76
  -3  -9  -4  123.74   16.75
  -3   9  -5   79.06   10.98
  -3  -9  -5   65.31   12.36
   3  -9   5   63.63   11.73
   3  10  -4   36.78    8.22
  -3 -10   2 1397.48   27.91
  -3 -10   1  150.65   17.39
  -3  10   0  421.01   14.66
  -3 -10   0  323.26   13.37
  -3  10  -1   71.23   10.00
  -3 -10  -1   63.67    9.53
  -3  10  -2  126.61   10.61
  -3 -10  -2  166.54   12.53
  -4   0  13  126.29   12.77
   4   0 -13  109.53    8.23
  -4   0  12   51.78   10.49
   4   0 -12   57.58    8.51
  -4   0  11 1070.46   26.33
   4   0 -11 1069.29   20.47
  -4   0  10 1545.09   31.60
   4   0 -10 1727.06   28.81
  -4   0   9  155.15   13.57
   4   0  -9  145.17    8.33
  -4   0   8   16.26    6.60
   4   0  -8   21.20    6.38
  -4   0   6 1949.31   21.33
  -4   0   5 4507.66   30.16
   4   0  -5 4693.89  120.69
   4   0  -5 5301.42  135.82
  -4   0   4  409.17    9.01
   4   0  -4  463.88    5.80
  -4   0   3 4983.05  128.53
   4   0  -3 5567.14  142.10
  -4   0   2  310.86    8.98
  -4   0   2  399.98    7.24
   4   0  -2  347.55    4.93
  -4   0   1 4039.94   21.85
  -4   0   0  811.54    8.48
  -4   0  -1 9088.95  232.19
  -4   0  -1 8844.22  225.53
  -4   0  -2   70.37    5.34
  -4   0  -2   58.33    4.93
  -4   0  -3  126.25    6.80
  -4   0  -3  108.93    6.12
  -4   0  -4  220.72    9.52
  -4   0  -4  207.71    9.25
  -4   0  -5 2639.19   23.02
  -4   0  -6 1995.06   22.10
  -4   0  -6 1863.17   24.73
   4   0   7 1813.07   20.80
   4   0   8   59.81   12.36
  -4   0  -8   67.88    8.71
   4   0   9  122.38    8.26
  -4   0  -9  146.10   13.23
   4   0  10  453.98   15.62
  -4   0 -10  584.41   21.37
   4   0  11  281.71   10.53
  -4   0 -11  384.40   18.64
   4   1 -13  572.41   16.09
  -4   1  13  563.16   19.85
  -4  -1  13  544.63   20.25
  -4   1  12  337.24   17.83
   4   1 -12  342.51   14.54
  -4  -1  12  356.80   17.81
   4  -1 -12  313.73   11.08
  -4   1  11   41.82    9.51
   4   1 -11   36.10    6.70
  -4  -1  11   50.01   14.49
   4  -1 -11   33.03    4.52
  -4   1  10   87.88   10.26
   4   1 -10   80.35    7.39
  -4  -1  10  104.49   14.64
   4  -1 -10   84.78    6.73
   4   1  -9  919.65   14.52
  -4   1   9  948.92   18.31
  -4  -1   9  963.87   21.08
  -4   1   8  989.14   17.62
   4  -1  -8 1134.27   11.91
  -4   1   7  919.36   18.07
   4   1  -7 1091.30   14.17
   4  -1  -7 1000.61    9.35
   4   1  -6   94.66    7.67
  -4   1   6   89.55    7.31
   4  -1  -6  112.91    5.96
   4  -1  -6  115.12    5.24
  -4  -1   6   84.39    6.88
  -4   1   5   74.24    6.54
  -4  -1   5   56.48    8.25
  -4  -1   5   74.38    5.22
   4  -1  -5   71.13    3.34
   4  -1  -5   80.68    4.76
  -4  -1   4 3424.49   23.71
   4  -1  -4 3468.91   16.42
  -4   1   3 6625.07  170.33
   4   1  -3 7472.36  190.67
  -4  -1   3 6286.27  161.51
  -4  -1   3 7524.22  193.03
  -4   1   1   52.46    3.64
  -4   1   1   44.99    6.42
   4   1  -1   47.29    3.58
   4   1  -1   50.12    3.57
  -4  -1   1   24.92    4.42
  -4  -1   1   28.07    4.00
   4  -1  -1   29.20    3.37
  -4   1   0  682.92    9.56
  -4  -1   0  687.78   10.29
   4   1   1 2077.44   15.27
  -4   1  -1 1833.35   23.48
  -4   1  -1 1927.49   16.75
  -4  -1  -1 2050.37   16.89
  -4  -1  -2 1863.77   16.50
  -4  -1  -3 4442.48   29.93
  -4   1  -4  903.76   14.15
  -4  -1  -5  756.19   12.33
  -4   1  -6  184.38   10.21
   4  -1   6  204.62   13.40
  -4  -1  -6  138.73    9.08
  -4  -1  -6  221.05   10.67
  -4   1  -7  157.61   10.98
   4  -1   7  191.84   10.70
  -4  -1  -7  185.77   10.96
  -4  -1  -7  214.53   11.38
  -4   1  -8 1374.54   26.00
   4  -1   8 1441.71   36.52
  -4  -1  -8 1676.43   38.28
  -4  -1  -8 1516.97   27.70
  -4   1  -9 1017.36   21.89
   4  -1   9 1027.09   25.44
  -4  -1  -9 1057.78   23.30
  -4  -1  -9 1051.52   20.19
  -4   1 -10  585.97   19.58
   4  -1  10  485.27   15.66
  -4  -1 -10  567.36   18.97
  -4  -1 -10  514.18   15.84
  -4   1 -11  650.31   19.56
  -4  -1 -11  676.53   19.05
   4  -1  11  614.45   17.42
   4   2 -13  229.94   10.69
  -4   2  13  222.85   13.05
  -4  -2  13  268.04   21.06
   4   2 -12  289.78   13.50
  -4   2  12  312.98   13.96
  -4  -2  12  189.13   14.71
  -4   2  11  835.16   21.56
   4   2 -11  793.27   18.48
  -4  -2  11  835.64   24.82
   4  -2 -11  719.41   14.22
  -4   2  10  912.51   23.48
   4   2 -10  856.89   19.76
  -4  -2  10  976.97   24.54
   4  -2 -10  999.52   16.91
  -4   2   9  425.99   11.81
   4   2  -9  495.16   14.70
  -4  -2   9  371.09   20.45
   4  -2  -9  332.23   11.10
   4   2  -8   80.97   10.61
  -4   2   8   73.73    9.12
   4  -2  -8   61.63    3.05
   4  -2  -8   76.47    4.49
  -4  -2   8   78.30   10.24
  -4   2   7 1205.15   17.12
   4   2  -7 1217.33   17.46
   4  -2  -7 1182.69    8.66
   4  -2  -7 1070.83    8.40
  -4  -2   6 1290.01   17.98
   4  -2  -6 1375.45    7.88
  -4  -2   5 4884.94  127.09
   4  -2  -5 4938.24  125.48
  -4   2   4 1910.45   18.18
  -4  -2   4 1747.02   17.97
  -4  -2   4 1728.42   19.07
   4  -2  -3 2026.12    8.66
  -4   2   2  122.39    8.00
  -4   2   2  133.78    3.85
  -4  -2   2  162.12    7.38
  -4  -2   2  132.06    5.96
  -4   2   1 3180.80   23.98
  -4  -2   1 3166.45   20.82
   4  -2  -1 3243.00   15.80
  -4   2  -1 5459.15  139.93
   4   2   1 6807.70  174.00
  -4   2  -1 5261.67  135.94
  -4  -2  -1 5719.94  147.04
  -4  -2  -1 6629.74  169.60
   4  -2   1 6037.27  154.16
  -4   2  -2  108.58    8.29
   4   2   2  136.22    5.61
  -4   2  -2  111.58    6.79
  -4   2  -3  297.13    9.67
  -4  -2  -3  367.27    7.79
  -4  -2  -3  332.46    8.68
  -4   2  -5 1982.36   32.85
   4  -2   5 1954.67   30.31
  -4   2  -6  920.93   17.54
   4  -2   6 1065.86   27.23
  -4   2  -7 2010.34   24.94
   4  -2   7 2030.13   43.61
  -4  -2  -7 2058.49   23.63
  -4  -2  -7 1968.08   17.94
  -4   2  -8  140.43   11.75
   4  -2   8  111.96   10.91
  -4  -2  -8  102.74   12.02
  -4  -2  -8  112.38    8.04
  -4   2  -9   54.80   10.11
   4  -2   9   48.93    9.85
  -4  -2  -9   54.64   10.17
  -4  -2  -9   55.71    5.66
  -4   2 -10  520.82   19.35
  -4  -2 -10  560.62   18.48
   4  -2  10  544.40   23.37
  -4   2 -11  419.27   15.58
  -4  -2 -11  362.66   14.21
   4  -2  11  338.90   29.33
   4   3 -13  387.49   16.10
  -4   3  13  345.95   14.80
  -4  -3  13  419.92   20.35
   4   3 -12  274.79   13.65
  -4   3  12  286.46   16.82
  -4  -3  12  244.72   15.68
   4   3 -11   79.72    8.84
  -4   3  11   80.05    8.55
  -4  -3  11   79.51   14.87
   4   3 -10  126.89   12.67
  -4   3  10  114.55    9.81
  -4  -3  10  119.83   13.25
  -4   3   9  920.30   15.82
   4   3  -9 1085.74   20.67
  -4  -3   9 1073.50   21.55
   4  -3  -9  942.30    8.33
  -4   3   8  934.15   17.91
   4   3  -8  906.61   18.25
  -4  -3   8  939.59   22.33
   4  -3  -8  898.20    7.14
   4   3  -7 1011.31   18.56
   4  -3  -7  993.41    6.21
   4  -3  -7 1019.38    6.47
   4   3  -6  144.76   10.09
  -4   3   6  162.58   10.15
  -4  -3   6   65.39    8.87
  -4   3   5  425.76   11.71
  -4  -3   5  315.04   10.35
  -4  -3   5  319.99    9.04
  -4  -3   4  972.79   11.91
  -4  -3   3 3317.30   24.33
  -4   3   2 3230.58   24.31
  -4  -3   2 3155.99   23.64
   4  -3  -1 1310.54    8.99
  -4   3   0  124.98    5.04
   4   3   0  145.37    6.03
  -4   3   0  117.54    7.84
  -4  -3   0   70.91    5.76
  -4  -3   0   95.94    4.98
   4  -3   0  111.14    4.81
   4   3   1  958.05    9.67
  -4   3  -1  862.23   10.07
  -4  -3  -1  959.43   12.61
  -4   3  -2  526.80   11.53
  -4   3  -3 4735.65  123.71
  -4  -3  -3 4388.98   29.28
  -4   3  -5  660.53   13.40
   4  -3   5  725.31   15.47
  -4  -3  -5  805.79    9.26
  -4  -3  -5  781.24    8.21
  -4   3  -6  237.42   14.52
   4  -3   6  243.87   14.05
  -4  -3  -6  217.74   12.71
  -4  -3  -6  213.00    7.84
  -4   3  -7  419.03   13.61
   4  -3   7  417.65   25.34
  -4  -3  -7  470.97   17.15
  -4  -3  -7  448.90   10.08
  -4   3  -8  873.59   25.52
  -4  -3  -8  889.42   25.61
   4  -3   8  810.24   22.42
  -4   3  -9  957.23   26.99
  -4  -3  -9  900.64   25.12
   4  -3   9  918.27   35.17
  -4   3 -10  644.76   25.67
  -4  -3 -10  586.08   22.30
   4  -3  10  568.19   29.14
  -4   3 -11  144.28   11.30
  -4  -3 -11  159.78   12.46
   4  -3  11  157.69   15.20
   4   4 -12  472.38   18.19
  -4  -4  12  384.78   16.59
   4   4 -11  446.56   16.84
  -4   4  11  510.30   18.01
  -4  -4  11  506.43   21.32
   4   4 -10  751.78   21.42
  -4   4  10  704.62   17.39
  -4  -4  10  562.52   23.09
   4   4  -9  322.63   19.30
  -4   4   9  342.55   13.49
  -4  -4   9  270.46   18.58
   4   4  -8  196.54   13.34
  -4   4   8  201.26   10.25
  -4  -4   8  224.48   16.82
   4   4  -7  400.07   13.28
  -4   4   7  402.68   11.21
  -4  -4   7  469.86   17.51
  -4   4   6  885.07   15.59
   4   4  -6  771.40   16.89
  -4   4   5 4681.67  122.33
  -4  -4   5 4402.44   37.04
  -4  -4   5 4473.16   37.54
  -4   4   3   49.37    8.70
  -4  -4   3   37.98    6.85
  -4  -4   3   28.42    5.40
  -4   4   2   21.64    1.81
  -4   4   2   18.07    6.05
  -4   4   2   21.80    1.55
  -4  -4   2   55.10    7.84
  -4  -4   2   46.98    5.78
  -4   4   1 1664.32   10.20
  -4  -4   0 2703.51   23.14
  -4   4  -2   48.76    4.81
  -4   4  -2   51.97    8.45
   4   4   2   60.87    4.48
  -4  -4  -2   73.34    7.27
  -4  -4  -2   82.09    4.39
  -4   4  -3  295.09   10.72
  -4  -4  -3  386.84    5.41
  -4  -4  -3  280.50   14.82
  -4  -4  -4 1351.76   20.85
  -4   4  -5 1118.43   17.43
  -4  -4  -5 1155.96    6.89
   4  -4   5 1023.05   40.01
  -4   4  -6 1037.09   17.20
  -4  -4  -6  905.05   20.59
   4  -4   6  971.63   18.92
  -4   4  -7 1250.31   26.69
  -4  -4  -7 1146.94   26.09
   4  -4   7 1185.70   26.75
  -4   4  -8   64.61   11.34
  -4  -4  -8   41.05   11.20
   4  -4   8   35.42   29.10
  -4   4  -9   26.63   10.23
  -4  -4  -9   42.30    9.32
   4  -4   9   39.60   11.16
  -4   4 -10  253.34   12.52
  -4  -4 -10  278.22   12.54
   4  -4  10  298.19   16.86
   4   5 -12  166.35   13.28
  -4  -5  12  166.94   11.71
   4   5 -11   26.55   10.49
  -4  -5  11   21.19   33.83
   4   5 -10  226.12   21.03
  -4   5  10  211.24   11.68
  -4  -5  10  238.95   16.57
   4   5  -9  894.34   24.81
  -4   5   9  901.63   19.56
  -4  -5   9  820.06   24.68
   4   5  -8  140.94   16.05
  -4   5   8  148.62   10.30
  -4  -5   8  165.39   15.42
   4   5  -7 1102.27   20.99
  -4   5   7 1121.66   17.37
  -4  -5   7 1114.84   26.50
   4   5  -6  170.94   12.63
  -4   5   6  178.60   10.80
  -4  -5   6   99.48   14.05
  -4   5   5  395.39   11.25
  -4  -5   5  356.26   17.84
  -4  -5   5  342.42   14.47
  -4  -5   4 1138.23   19.79
  -4   5   3  947.77   16.96
  -4   5   2 1903.49   21.92
  -4   5   1 1800.83   12.03
  -4   5   1 1789.52   22.22
  -4   5   1 1832.88   12.48
  -4  -5   1 1731.17   17.04
  -4   5   0  253.01   12.09
   4   5   0  231.70    8.12
  -4   5   0  231.71    7.45
  -4   5   0  236.89    9.31
  -4  -5   0  214.62    8.34
  -4  -5   0  166.90    9.35
   4   5   1  593.59    7.32
  -4   5  -1  557.02   17.96
  -4   5  -1  580.92    9.33
  -4  -5  -1  588.53   13.21
  -4   5  -2 1033.42   17.27
  -4  -5  -2 1068.90    8.71
  -4  -5  -3 2600.53   28.52
  -4   5  -4  285.67   13.17
  -4  -5  -4  300.30   16.90
   4  -5   4  324.48   16.53
  -4   5  -5  669.24   11.96
  -4  -5  -5  851.32   20.69
   4  -5   5  850.68   33.88
  -4   5  -6    8.27    5.06
  -4  -5  -6   15.56   14.05
   4  -5   6    5.40    6.94
  -4   5  -7  487.78   15.50
  -4  -5  -7  645.66   19.86
   4  -5   7  602.50   20.09
  -4   5  -8  778.21   23.53
  -4  -5  -8  638.87   22.24
   4  -5   8  590.58   53.97
  -4   5  -9  837.29   24.20
  -4  -5  -9  752.54   22.85
   4  -5   9  749.06   25.42
   4   6 -11   87.66   13.74
  -4  -6  11  124.36   13.95
   4   6 -10 1178.26   34.68
  -4  -6  10  958.99   30.10
   4   6  -9  180.63   15.07
  -4  -6   9  162.35   14.27
   4   6  -8   12.63    7.83
  -4   6   8   13.98    5.83
  -4  -6   8   18.82    8.46
   4   6  -7  321.72   15.37
  -4   6   7  289.87   15.15
  -4  -6   7  307.20   18.98
   4   6  -6  379.19   16.68
  -4   6   6  375.81   10.65
  -4  -6   6  470.26   16.50
  -4   6   4 1776.04   23.41
  -4  -6   4 1921.44   23.39
  -4  -6   4 2225.95   55.15
  -4   6   3  164.01   10.03
  -4  -6   3  119.29    8.68
  -4  -6   3  127.19   10.20
  -4   6   2  129.06    9.86
  -4   6   2  117.22    6.62
  -4  -6   2  131.87    8.73
  -4  -6   2  132.92   10.76
  -4   6   1  971.55   18.26
  -4   6   1  982.71    9.89
  -4  -6   1  926.00   12.28
  -4  -6   1  867.95   17.31
  -4   6  -1 1754.58   26.24
  -4  -6  -1 1861.86   42.79
  -4   6  -2  465.77   16.31
  -4   6  -2  426.39    9.83
  -4  -6  -2  407.25   15.14
  -4   6  -3  119.80   13.60
  -4   6  -3  123.14    8.63
  -4  -6  -3  135.19   12.30
  -4   6  -4  617.34   20.10
  -4   6  -4  610.99   15.37
  -4  -6  -4  711.27   23.26
  -4   6  -5 1058.02   22.82
  -4  -6  -5 1044.28   25.68
   4  -6   5 1047.43   45.69
  -4   6  -6 1256.49   25.23
  -4  -6  -6 1037.19   25.28
   4  -6   6 1073.20   40.63
  -4   6  -7  394.11   15.50
  -4  -6  -7  406.31   16.65
   4  -6   7  448.75   19.77
  -4   6  -8   43.35   10.27
  -4  -6  -8   19.01   13.75
   4  -6   8   15.95   18.00
  -4   6  -9  112.85   10.66
  -4  -6  -9  132.78   12.26
   4  -6   9  118.05   12.53
   4   7 -10   38.15    9.26
  -4  -7  10   79.54   13.54
   4   7  -9  702.15   24.50
  -4  -7   9  628.39   23.42
   4   7  -8  203.63   15.26
  -4  -7   8  121.98   12.53
   4   7  -7  416.83   24.51
  -4  -7   7  447.07   20.70
   4   7  -6    8.57    9.96
  -4   7   6    9.06    8.25
  -4  -7   6    8.00    7.68
  -4   7   5  135.79   10.09
  -4  -7   5  142.65   10.92
  -4  -7   5  100.05   12.84
  -4   7   4  788.90   17.77
  -4  -7   4  621.66   16.18
  -4  -7   4  709.68   21.56
  -4   7   3 1169.24   26.44
  -4  -7   3  997.92   21.09
  -4  -7   3  986.72   22.85
  -4   7   2 1267.73   26.12
  -4  -7   2 1059.47   23.53
  -4  -7   2 1107.95   25.76
  -4   7   1  557.20   16.34
  -4   7   1  462.70    9.61
  -4  -7   1  524.96   12.58
  -4  -7   1  564.50   18.84
  -4   7   0   16.25    7.83
  -4   7   0   15.57    4.02
  -4  -7   0   17.36    3.85
  -4  -7   0   22.80   12.36
  -4   7  -1  120.69   12.30
  -4   7  -1  100.23    7.16
  -4  -7  -1  121.82   13.47
  -4   7  -2  486.68   18.99
  -4   7  -2  451.73   12.19
  -4  -7  -2  553.62   18.34
  -4   7  -3  802.10   24.22
  -4   7  -3  764.51   16.69
  -4  -7  -3  798.17   21.65
  -4   7  -4  229.32   18.07
  -4   7  -4  230.71   12.02
  -4  -7  -4  135.48   13.50
  -4   7  -5  177.19   13.71
  -4  -7  -5  197.20   13.55
  -4   7  -6   62.97   12.96
  -4  -7  -6   54.26   14.57
   4  -7   6   47.21    8.59
  -4   7  -7   43.88    8.34
  -4  -7  -7   70.03   10.48
   4  -7   7   70.09   28.81
  -4   7  -8  397.36   14.96
  -4  -7  -8  450.74   19.49
   4  -7   8  448.67   19.36
   4   8  -8  172.78   19.73
  -4  -8   8  162.53   18.19
   4   8  -7  214.05   16.02
  -4  -8   7  268.81   18.24
   4   8  -6  409.05   20.48
  -4  -8   6  286.00   16.18
  -4   8   5  243.75   12.85
  -4  -8   5  267.70   14.63
  -4   8   4  511.41   27.04
  -4  -8   4  609.20   17.24
  -4  -8   4  617.34   17.93
  -4   8   3   61.57    7.44
  -4  -8   3  101.98    9.14
  -4  -8   3  111.89   11.16
  -4   8   2  216.97   13.24
  -4  -8   2  270.03   12.14
  -4  -8   2  272.90   17.50
  -4   8   1  613.97   19.25
  -4  -8   1  672.68   19.68
  -4   8   0  153.65   14.63
  -4  -8   0   50.51   11.84
  -4   8  -1 1063.22   24.95
  -4   8  -1  967.53   18.02
  -4   8  -2  265.27   15.84
  -4   8  -2  244.20   12.50
  -4  -8  -2  318.14   17.19
  -4   8  -3   19.78    8.01
  -4   8  -3   18.83    7.08
  -4  -8  -3   17.25    9.81
  -4   8  -4  349.91   19.79
  -4   8  -4  346.39   14.17
  -4  -8  -4  379.94   16.30
  -4   8  -5  607.33   24.38
  -4   8  -5  602.14   20.05
  -4  -8  -5  709.39   23.05
  -4   8  -6  871.46   22.52
  -4  -8  -6  827.31   22.74
  -4  -9   6   46.37    8.23
   4   9  -5   15.51    8.18
  -4  -9   5   26.71    6.59
  -4  -9   4  377.14   13.89
  -4  -9   4  412.50   16.80
  -4   9   3  408.65   15.43
  -4  -9   3  371.15   19.88
  -4   9   2  710.53   22.79
  -4  -9   2  589.69   20.72
  -4   9   1  556.77   19.91
  -4  -9   1  541.47   19.07
  -4   9   0   49.68   11.22
  -4  -9   0   39.02    9.95
  -4   9  -1  109.79   15.06
  -4  -9  -1   92.48   11.48
  -4   9  -2   33.61    8.76
  -4  -9  -2   93.99   10.74
  -4   9  -3  218.81   13.68
  -4   9  -3  192.07    8.64
  -4  -9  -3  189.43   15.90
  -4   9  -4  382.25   18.08
  -4   9  -4  390.16   13.22
  -4  -9  -4  349.30   16.45
  -4  10   1  276.59   13.29
  -4 -10   1  367.62   16.85
  -5   0  13  334.68   15.38
  -5   0  12    5.91   10.07
   5   0 -12    9.01    6.76
  -5   0  11  232.60   14.76
   5   0 -11  235.28   11.78
  -5   0  10  144.77   16.27
   5   0 -10  115.29    9.28
  -5   0   9  817.00   19.12
   5   0  -9  787.28   12.17
  -5   0   8  200.68   13.93
   5   0  -8  228.60   10.07
  -5   0   7  721.26   17.25
   5   0  -7  818.51   13.16
  -5   0   6    3.04    7.17
   5   0  -6    4.71    6.01
   5   0  -5 1791.71   13.05
  -5   0   4  233.62   11.67
  -5   0   4  262.84    6.38
   5   0  -4  257.50    6.05
  -5   0   3 2150.45   20.51
   5   0  -3 2178.96   14.59
  -5   0   2 1225.89   17.10
  -5   0   2 1368.54   12.66
   5   0  -2 1360.31   12.06
  -5   0   1  236.55    8.39
  -5   0   1  285.04   16.05
  -5   0   0 1053.88   14.72
  -5   0   0  987.89   13.76
  -5   0  -2 3128.67   31.39
  -5   0  -2 2822.37   23.74
  -5   0  -5  865.38   15.95
  -5   0  -5  842.39   16.00
  -5   0  -6   15.49    7.26
  -5   0  -7 1863.35   32.23
  -5   0  -7 1816.84   32.39
  -5   0  -8 1231.65   23.61
  -5   0  -8 1227.28   24.58
  -5   0  -9  431.77   15.55
  -5   0  -9  442.46   37.71
  -5   0 -10   22.75    6.59
  -5   0 -10   16.91   21.45
   5   1 -13  444.57   13.43
  -5   1  13  421.56   16.68
  -5  -1  13  427.72   18.36
   5   1 -12  772.39   20.97
  -5   1  12  805.76   28.25
  -5  -1  12  812.03   28.24
  -5   1  11  124.09   12.04
   5   1 -11  112.34   11.43
  -5  -1  11   98.46   14.80
   5  -1 -11   74.02    5.87
  -5   1  10  114.14   12.85
   5   1 -10   95.02    7.81
  -5  -1  10  132.62   15.94
   5  -1 -10  124.00    8.20
  -5   1   9  161.16   12.86
   5   1  -9  186.91    9.95
  -5  -1   9  161.69   12.56
   5  -1  -9  156.33    7.83
  -5   1   8 3133.08   33.95
   5   1  -8 2952.64   25.30
  -5  -1   8 2964.92   32.37
   5  -1  -8 2976.23   17.51
  -5   1   7 4262.54   38.10
  -5   1   6 2804.08   27.15
   5  -1  -5  804.70    7.58
  -5   1   4  643.23    7.46
  -5  -1   4  604.23   10.00
  -5   1   3 1060.23    9.02
  -5   1   1 2925.77   18.50
  -5  -1   0 2110.56   18.55
  -5   1  -1  451.42   11.56
  -5  -1  -1  513.36   10.65
  -5   1  -2  152.25    9.88
  -5   1  -2  166.10    7.63
  -5  -1  -2  148.04   12.15
  -5  -1  -2  120.66    7.36
  -5   1  -3 1362.37   15.09
  -5   1  -3 1330.48   18.61
  -5  -1  -3 1251.80   15.40
  -5   1  -4 1847.42   22.74
  -5   1  -4 1943.90   25.45
  -5   1  -5 4744.14  181.85
  -5  -1  -5 4086.70   29.29
  -5  -1  -5 5279.17  200.96
  -5   1  -6  126.66   10.26
  -5   1  -6  138.42   13.63
  -5  -1  -6   34.43   18.64
  -5  -1  -6   27.82    7.43
  -5   1  -7  178.64   18.16
  -5   1  -7  165.77   12.69
  -5  -1  -7  166.75   11.76
  -5  -1  -7  151.94   12.10
  -5   1  -8  445.73   20.26
  -5   1  -8  451.11   20.97
  -5  -1  -8  398.47   16.32
  -5  -1  -8  388.69   17.36
  -5   1  -9  524.10   19.13
  -5   1  -9  588.53   22.16
  -5  -1  -9  570.12   17.08
  -5  -1  -9  552.52   20.70
  -5   1 -10  673.75   18.91
  -5   1 -10  784.53   23.74
  -5  -1 -10  656.21   18.32
   5   2 -13  222.45   11.57
  -5   2  13  225.54   15.06
  -5  -2  13  243.55   24.08
   5   2 -12   42.48    7.70
  -5   2  12   50.43    9.68
  -5  -2  12   74.11   12.99
   5   2 -11  117.57   11.53
  -5   2  11  131.19   12.73
  -5  -2  11  169.53   18.19
   5   2 -10  514.35   15.22
  -5   2  10  443.37   14.82
  -5  -2  10  368.59   17.21
   5   2  -9 1192.64   24.38
  -5   2   9 1244.76   27.82
  -5  -2   9  992.81   24.91
  -5   2   8   60.60   10.55
   5   2  -8   48.39    8.13
  -5  -2   8   73.61   10.97
   5  -2  -8   60.94    3.64
   5   2  -7  727.63   13.59
  -5   2   7  739.15   18.63
   5  -2  -7  761.43    5.95
   5  -2  -7  774.70    5.92
  -5  -2   7  760.13   16.06
  -5  -2   6   41.39    9.53
  -5  -2   6   47.47    8.66
   5  -2  -6   42.79    2.42
   5  -2  -6   46.99    2.57
  -5  -2   5 1504.76   23.31
   5  -2  -5 1472.27    7.30
  -5  -2   4  474.79    9.91
   5  -2  -4  500.30    3.75
  -5  -2   3 1784.81   17.88
  -5  -2   2  525.64   10.81
   5  -2  -2  559.86    5.21
  -5   2   1   46.24    7.40
  -5   2   1   56.37    3.97
  -5  -2   1   56.45    6.29
  -5  -2   1   34.15    5.45
   5  -2  -1   52.07    3.50
  -5   2   0  628.52    8.27
  -5  -2   0  644.86   11.56
   5  -2   0  595.91    7.49
  -5  -2  -1 2593.83   22.32
  -5  -2  -2 3438.44   23.73
  -5   2  -3  549.33   10.66
  -5  -2  -3  617.20   20.58
  -5   2  -4 1335.15   40.60
  -5   2  -4 1643.75   31.83
  -5   2  -5  358.69   18.27
  -5   2  -5  320.31   22.45
  -5  -2  -5  395.85    9.09
  -5  -2  -5  450.86   15.03
  -5   2  -6  229.02   17.22
  -5   2  -6  206.71   11.29
  -5  -2  -6  130.68    7.80
  -5  -2  -6   84.61    9.52
  -5   2  -7 2135.65   40.54
  -5   2  -7 1749.71   44.18
  -5  -2  -7 1764.74   29.61
  -5  -2  -7 2062.63   35.47
  -5   2  -8  686.91   21.32
  -5   2  -8  620.02   17.67
  -5  -2  -8  795.33   16.39
  -5  -2  -8  710.20   18.93
  -5   2  -9  386.83   17.11
  -5   2  -9  356.99   15.39
  -5  -2  -9  476.74   17.85
  -5   2 -10   20.71   12.40
  -5   2 -10   14.93    9.40
  -5  -2 -10    6.74    7.66
   5   3 -12  359.10   14.27
  -5   3  12  369.04   17.65
  -5  -3  12  382.71   19.87
   5   3 -11  289.20   16.48
  -5   3  11  258.27   15.72
  -5  -3  11  273.18   23.38
   5   3 -10   44.57    6.56
  -5   3  10   43.58    9.03
  -5  -3  10   66.51   13.65
   5   3  -9  464.92   15.49
  -5   3   9  473.17   21.07
  -5  -3   9  459.78   18.52
   5   3  -8  662.59   15.47
  -5   3   8  630.78   16.28
  -5  -3   8  699.77   18.96
   5   3  -7 1927.68   23.47
  -5   3   7 1833.79   24.93
  -5  -3   7 1918.76   28.93
  -5   3   6 5584.60  146.91
  -5  -3   6 5031.65  133.05
  -5  -3   6 4883.48  128.55
  -5  -3   5 1214.58   23.17
  -5   3   4  206.85   10.60
  -5  -3   4  218.68   11.65
  -5  -3   4  248.63    8.99
  -5   3   3  628.07   27.44
  -5  -3   3  829.48   14.65
  -5  -3   3  747.17   13.31
  -5   3   2 1877.48   22.41
  -5  -3   2 1783.17   19.51
   5  -3  -2 1947.49   10.88
  -5  -3   1 2700.27   24.43
  -5  -3   0 1867.85   27.82
  -5   3  -1  382.56    8.74
  -5  -3  -1  329.41    8.74
  -5   3  -2  204.75   10.28
  -5   3  -2  251.00    8.56
  -5  -3  -2  291.89    7.88
  -5  -3  -2  238.73    9.13
  -5   3  -3 2526.66   45.13
  -5   3  -3 2887.55   24.71
  -5   3  -5 2400.88   32.29
  -5  -3  -5 2663.69   28.29
  -5   3  -6  406.36   18.24
  -5   3  -6  399.68   15.04
  -5  -3  -6  435.68   10.61
  -5  -3  -6  413.14   15.10
  -5   3  -7  135.39   14.14
  -5   3  -7  135.43   11.86
  -5  -3  -7  104.48   14.18
  -5   3  -8  271.12   13.64
  -5  -3  -8  335.41   18.21
  -5   3  -9  376.38   17.64
  -5  -3  -9  456.31   18.28
  -5   3 -10  577.86   19.94
  -5  -3 -10  535.18   23.09
   5  -3  10  480.16   19.91
   5   4 -12    4.97   10.14
  -5   4  12    5.42    6.37
  -5  -4  12    5.32    9.00
   5   4 -11   44.51   11.15
  -5   4  11   42.53   11.01
  -5  -4  11   23.53   19.14
   5   4 -10  273.82   17.70
  -5   4  10  253.63   13.20
  -5  -4  10  314.37   16.92
   5   4  -9 1136.76   27.98
  -5   4   9 1137.87   23.98
  -5  -4   9 1157.72   29.51
   5   4  -8  406.53   18.51
  -5   4   8  426.76   14.51
  -5  -4   8  292.54   20.85
   5   4  -7  259.66   15.04
  -5   4   7  234.42   12.15
  -5  -4   7  319.94   17.55
  -5   4   6   43.19   10.07
  -5  -4   6   53.37   11.48
  -5  -4   6   44.56   11.40
  -5   4   5  161.43   12.47
  -5  -4   5  292.78   18.19
  -5  -4   5  294.96   13.75
  -5   4   4  758.64   17.11
  -5  -4   4  745.61   14.90
  -5  -4   4  713.52   14.40
  -5   4   3 1566.60   23.59
  -5  -4   3 1705.41   20.91
  -5  -4   3 1453.70   18.21
  -5   4   2  227.41    6.62
  -5   4   2  213.37   12.08
  -5   4   2  213.35    6.33
  -5  -4   2  175.61   10.36
  -5  -4   2  203.17   11.29
  -5   4   1   26.86    8.57
  -5   4   1   28.94    6.56
  -5  -4   1   32.20    5.83
  -5  -4   1   21.84   14.92
   5  -4  -1   30.93    3.06
  -5   4   0  289.48   10.24
  -5   4   0  298.52    5.31
  -5  -4   0  259.97    8.00
  -5  -4   0  250.67    9.29
   5  -4   0  290.31    6.17
  -5   4  -2 2724.70   28.07
  -5  -4  -2 2822.64   28.48
  -5   4  -3  703.41   16.62
  -5   4  -3  722.33   16.94
  -5  -4  -3  807.10    9.29
  -5  -4  -3  750.22   15.27
  -5   4  -4  966.65   22.31
  -5   4  -4  861.95   22.77
  -5  -4  -4  999.74    9.40
  -5  -4  -4 1031.01   21.33
  -5   4  -5  130.80   14.62
  -5   4  -5  108.29   14.17
  -5  -4  -5  141.42   13.26
  -5   4  -6  360.61   17.65
  -5   4  -6  348.23   14.16
  -5  -4  -6  401.39   18.04
  -5   4  -7 1095.63   27.72
  -5   4  -7 1062.92   30.71
  -5  -4  -7 1126.52   26.07
  -5   4  -8  390.54   21.75
  -5  -4  -8  414.61   16.05
  -5   4  -9  336.21   13.75
  -5  -4  -9  447.33   17.35
   5  -4   9  407.74   17.45
   5   5 -11  457.67   18.43
  -5  -5  11  369.75   17.41
   5   5 -10   32.96   11.30
  -5   5  10   27.87    7.87
  -5  -5  10   61.83   10.89
   5   5  -9  291.80   17.71
  -5   5   9  290.53   14.75
  -5  -5   9  311.92   18.68
   5   5  -8  475.88   23.25
  -5   5   8  508.86   15.04
  -5  -5   8  450.80   25.84
   5   5  -7 1257.40   28.93
  -5   5   7 1262.55   25.72
  -5  -5   7 1318.70   31.62
  -5  -5   6 1732.89   43.40
  -5   5   5  745.42   16.29
  -5  -5   5  754.27   19.52
  -5  -5   5  810.66   17.04
  -5   5   4   63.42    9.14
  -5  -5   4   89.19   10.61
  -5  -5   4   73.59    7.23
  -5   5   3  499.27   14.65
  -5  -5   3  555.34   12.57
  -5  -5   3  551.43   13.95
  -5   5   2 1223.91   21.95
  -5   5   2 1377.41    6.97
  -5  -5   2 1253.65   18.68
  -5  -5   2 1387.24   20.36
  -5   5   0  738.04   32.00
  -5  -5   0  591.14   17.51
  -5   5  -1   60.79   10.11
  -5  -5  -1  126.68   10.29
  -5   5  -2  240.07   13.45
  -5   5  -2  231.17    9.95
  -5  -5  -2  281.02    9.39
  -5  -5  -2  278.72   14.21
  -5   5  -3 2212.02   47.69
  -5   5  -3 2235.10   22.34
  -5  -5  -3 2460.40   29.30
  -5   5  -4 1483.16   35.24
  -5   5  -5  885.40   24.57
  -5   5  -5  919.85   20.81
  -5  -5  -5  859.65   22.63
  -5   5  -6  151.00   14.21
  -5   5  -6  146.91   10.40
  -5  -5  -6  178.52   13.50
  -5   5  -7  108.82   14.01
  -5   5  -7  121.04   10.92
  -5  -5  -7  104.26   11.48
  -5   5  -8   34.97   10.49
  -5  -5  -8   42.60    9.36
  -5   5  -9  429.56   16.23
  -5  -5  -9  416.63   17.52
   5  -5   9  409.13   20.01
   5   6 -10   54.00   10.94
   5   6  -9  289.27   15.46
  -5   6   9  274.83   12.80
  -5  -6   9  398.96   17.90
   5   6  -8  751.48   25.91
  -5   6   8  707.70   20.87
  -5  -6   8  676.52   23.58
   5   6  -7   20.61   11.41
  -5   6   7   24.83    6.87
  -5  -6   7   22.86   20.18
  -5   6   6  172.23   13.59
  -5  -6   6  183.06   14.57
  -5  -6   6  172.86   13.54
  -5   6   5  187.49   15.40
  -5  -6   5  118.23   10.90
  -5  -6   5  128.29   12.44
  -5   6   4  935.28   21.22
  -5  -6   4  880.66   19.67
  -5  -6   4  801.96   19.70
  -5   6   3  590.13   15.51
  -5  -6   3  603.55   15.02
  -5  -6   3  591.92   15.86
  -5   6   2  146.26   12.79
  -5  -6   2  135.67    9.05
  -5  -6   2  132.56   10.95
  -5   6   1  232.53   13.51
  -5   6   1  215.92    7.57
  -5  -6   1  255.54   11.06
  -5  -6   1  297.69   15.84
  -5   6   0  698.01   20.15
  -5   6   0  587.51    8.88
  -5  -6   0  596.95   10.30
  -5  -6   0  599.48   16.67
  -5   6  -1  666.17   19.41
  -5   6  -1  549.76   14.14
  -5  -6  -1  678.13    9.24
  -5  -6  -1  675.46   28.75
  -5   6  -2  971.99   26.58
  -5   6  -2  826.10   15.61
  -5   6  -3  632.58   21.50
  -5   6  -3  493.67   15.78
  -5  -6  -3  738.96   24.18
  -5   6  -4  288.97   27.15
  -5   6  -4  273.30   12.54
  -5  -6  -4  356.46   21.97
  -5   6  -5  120.51   16.40
  -5   6  -5  125.33    9.33
  -5  -6  -5  164.33   13.92
  -5   6  -6  149.17   15.16
  -5   6  -6  157.15   11.49
  -5  -6  -6  198.87   13.82
  -5   6  -7  639.06   24.25
  -5   6  -7  690.49   21.75
  -5  -6  -7  700.77   21.82
  -5   6  -8  159.80   14.75
  -5   6  -8  202.99   11.34
  -5  -6  -8  258.77   13.73
   5   7  -9   65.58   12.95
  -5  -7   9   64.00   12.71
   5   7  -8  435.24   18.23
  -5  -7   8  365.43   17.23
   5   7  -7  735.24   23.37
  -5   7   7  724.22   20.66
  -5  -7   7  718.78   24.93
  -5   7   6  356.07   16.30
  -5  -7   6  434.92   19.05
  -5   7   5  280.19   13.40
  -5  -7   5  245.12   21.87
  -5  -7   5  310.71   18.07
  -5   7   4   25.52   21.58
  -5  -7   4   34.04    7.64
  -5  -7   4   39.88   10.58
  -5   7   3  209.24   16.09
  -5  -7   3  221.10   12.39
  -5  -7   3  204.30   23.60
  -5   7   2  322.30   15.46
  -5  -7   2  302.00   14.29
  -5  -7   2  342.83   15.55
  -5   7   1  944.02   23.83
  -5  -7   1 1054.75   20.18
  -5  -7   1 1124.27   26.80
  -5   7   0 1021.17   50.84
  -5  -7   0  960.27   25.78
  -5   7  -1  102.70   12.74
  -5   7  -1   72.28    5.21
  -5  -7  -1  133.30   15.85
  -5   7  -2   93.58   13.01
  -5   7  -2   71.63    6.65
  -5  -7  -2  112.30   14.14
  -5   7  -3  561.89   21.59
  -5   7  -3  467.53   19.33
  -5  -7  -3  581.58   20.99
  -5   7  -4  725.19   26.52
  -5   7  -4  637.78   17.57
  -5  -7  -4  749.21   24.51
  -5   7  -5  890.16   29.57
  -5   7  -5  795.18   22.02
  -5  -7  -5  790.35   24.62
  -5   7  -6  318.38   20.78
  -5   7  -6  308.65   12.52
  -5  -7  -6  212.04   11.56
   5   8  -7   81.27   13.25
  -5  -8   7   88.37   12.75
   5   8  -6   31.90   22.46
  -5  -8   6   42.86   10.92
  -5   8   5  286.32   16.45
  -5  -8   5  269.38   12.99
  -5  -8   5  248.27   15.95
  -5   8   4  750.17   23.43
  -5  -8   4  644.89   19.64
  -5  -8   4  769.56   32.77
  -5   8   3  370.28   16.06
  -5  -8   3  315.78   11.96
  -5  -8   3  321.74   15.04
  -5   8   2   69.20    9.36
  -5  -8   2   94.91   11.97
  -5   8   1   51.24    9.62
  -5  -8   1   64.61   11.35
  -5   8   0  257.41   18.44
  -5  -8   0  257.46   16.65
  -5   8  -1  431.41   21.68
  -5  -8  -1  611.35   21.75
  -5   8  -2  880.69   27.01
  -5  -8  -2  800.97   24.18
  -5   8  -3  227.61   20.13
  -5   8  -3  168.61    8.99
  -5  -8  -3  240.27   13.50
  -5   8  -4   33.04    9.16
  -5   8  -4   29.64    5.93
  -5  -8  -4   70.09   11.19
  -5   8  -5   17.91    9.82
  -5   8  -5    5.95    6.92
  -5  -8  -5   24.87   10.62
  -5  -9   5  107.44   10.41
  -5  -9   5  111.81   15.19
  -5  -9   4   34.01   12.84
  -5   9   3   70.35   11.57
  -5  -9   3  109.52   14.47
  -5   9   2  255.81   12.97
  -5  -9   2  214.26   12.48
  -5   9   1  181.78   15.63
  -5  -9   1  237.84   13.15
  -5   9   0  535.26   18.55
  -5  -9   0  527.44   20.81
  -5  -9  -1   24.24   10.30
  -5   9  -2    0.36    8.55
  -5  -9  -2    0.46    9.37
  -6   0  12  210.23   16.55
  -6   0  11   14.06    8.53
  -6   0  10  527.53   20.71
   6   0 -10  498.42   12.56
  -6   0   9 2565.19   36.03
   6   0  -9 2544.70   38.35
  -6   0   8  804.27   20.65
   6   0  -8  773.30   11.99
  -6   0   7   44.09    8.89
   6   0  -7   37.26    5.26
  -6   0   6 1304.34   20.91
   6   0  -6 1494.10   16.05
  -6   0   4  161.58    9.43
  -6   0   4  208.73    7.95
  -6   0   2 2205.96   23.39
  -6   0   2 2465.44   19.90
  -6   0   0   66.99    8.05
  -6   0   0   85.21    8.84
  -6   0  -1   69.19    8.80
  -6   0  -1   63.18    6.94
  -6   0  -2   17.89    8.24
  -6   0  -2   26.66    7.07
  -6   0  -3 1575.10   20.79
  -6   0  -3 1563.81   21.58
  -6   0  -4  673.18   15.34
  -6   0  -4  611.83   21.18
  -6   0  -5  300.39   14.67
  -6   0  -5  267.33   15.26
  -6   0  -6   37.24    9.48
  -6   0  -6   38.74   10.65
  -6   0  -7 1219.32   27.12
  -6   0  -7 1114.92   25.41
  -6   0  -8  417.43   14.90
  -6   0  -8  400.56   20.36
  -6   0  -9  679.96   21.08
  -6   0  -9  697.29   24.67
  -6   1  12  386.29   18.83
  -6  -1  12  367.75   18.76
   6   1 -11  457.75   14.43
  -6   1  11  504.46   20.00
  -6  -1  11  521.65   22.61
   6   1 -10  743.07   17.84
  -6   1  10  611.68   19.85
  -6  -1  10  596.58   22.71
  -6   1   9  699.85   23.69
   6   1  -9  689.63   18.73
  -6  -1   9  648.04   23.06
   6  -1  -9  611.85   12.45
  -6   1   8  699.97   18.59
   6   1  -8  692.75   14.14
  -6  -1   8  696.96   19.17
   6  -1  -8  669.04    9.66
  -6   1   7  405.13   14.30
   6   1  -7  390.92   10.55
  -6  -1   7  361.07   20.00
   6  -1  -7  360.58   15.32
  -6   1   6  345.66   14.51
  -6  -1   6  311.59   14.45
  -6  -1   6  334.88   17.96
   6  -1  -6  313.07    9.38
   6  -1  -6  391.32    7.16
  -6   1   5 4946.48  126.61
  -6   1   5 4543.90   35.91
  -6  -1   5 4805.20  126.30
  -6  -1   5 5104.47  137.95
   6  -1  -5 5333.83  136.31
  -6   1   4  246.67    9.92
  -6  -1   4  171.22   11.62
  -6  -1   4  227.81   10.34
  -6   1   3  308.75   10.86
  -6   1   3  403.32    8.67
  -6  -1   3  295.06   10.18
  -6  -1   3  359.73   10.20
   6  -1  -3  364.00    8.68
  -6   1   2  450.07   12.50
  -6   1   2  549.33   10.98
  -6  -1   2  434.53   11.22
  -6  -1   2  504.87   10.92
  -6   1   0 3943.16   32.12
  -6   1   0 4666.31  121.49
  -6  -1   0 4688.42  122.47
  -6  -1   0 4939.30  128.12
  -6   1  -1 6985.58  180.07
  -6  -1  -1 6630.95  171.38
  -6  -1  -1 7077.14  187.72
  -6   1  -2  906.63   18.37
  -6  -1  -2  865.80   15.25
  -6   1  -3  323.13   16.56
  -6   1  -3  313.59   12.91
  -6  -1  -3  260.71   13.22
  -6  -1  -3  278.41   17.84
  -6   1  -4  467.24   16.34
  -6   1  -4  416.37   11.91
  -6  -1  -4  321.66   12.95
  -6  -1  -4  361.14   18.82
  -6   1  -5  919.75   35.56
  -6   1  -5  857.12   18.57
  -6  -1  -5  789.09   14.55
  -6  -1  -5  747.03   16.71
  -6   1  -6 2824.46   28.88
  -6  -1  -6 2963.25   30.72
  -6  -1  -6 3080.07   27.25
  -6   1  -7  687.73   18.81
  -6   1  -7  691.38   22.05
  -6  -1  -7  666.16   16.01
  -6  -1  -7  633.09   18.14
  -6   1  -8  353.10   15.53
  -6   1  -8  362.89   17.07
  -6  -1  -8  372.84   16.27
  -6  -1  -8  339.68   16.86
  -6   1  -9    1.44    6.73
  -6   1  -9    2.44    8.33
  -6  -1  -9   17.18   11.51
   6   2 -12   40.34    7.09
  -6   2  12   44.87   10.59
  -6  -2  12   64.83   13.99
   6   2 -11   33.12    8.41
  -6   2  11   31.69   10.59
  -6  -2  11   42.43   15.53
   6   2 -10  265.89   15.52
  -6   2  10  253.12   14.50
  -6  -2  10  317.20   21.47
   6   2  -9  911.15   20.58
  -6   2   9  926.24   25.79
  -6  -2   9 1136.49   30.07
   6   2  -8 1371.95   27.02
  -6   2   8 1389.02   34.40
  -6  -2   8 1352.11   30.81
   6   2  -7  450.37   11.59
  -6   2   7  460.20   18.33
  -6  -2   7  302.32   16.28
  -6   2   6  431.46   16.41
  -6  -2   6  536.82   16.77
  -6  -2   6  571.37   12.37
   6  -2  -6  528.03    4.47
  -6   2   5  192.97   11.21
  -6  -2   5  182.08   12.61
  -6  -2   5  170.98   17.04
   6  -2  -5  161.60    4.36
   6  -2  -5  198.83    5.70
  -6  -2   4  333.14   12.23
  -6   2   3 2020.53   23.96
  -6  -2   3 2096.46   24.03
  -6  -2   3 2141.28   35.64
  -6  -2   2 2104.66   23.23
  -6   2   1  754.42   11.42
  -6  -2   1  704.86   13.41
  -6  -2   1  758.27   15.97
  -6   2   0  141.74   10.28
  -6   2   0  207.91    9.48
  -6  -2   0  146.06   10.95
  -6  -2   0  151.56   10.26
  -6   2  -1  402.48   14.51
  -6   2  -1  422.54   11.14
  -6  -2  -1  367.91   10.75
  -6  -2  -1  358.21   17.02
  -6   2  -2  281.90   13.56
  -6  -2  -2  111.96   11.98
  -6   2  -3 1380.09   17.67
  -6   2  -4  844.27   20.23
  -6   2  -4  843.16   24.00
  -6  -2  -4  746.06   13.86
  -6  -2  -4  675.41   15.31
  -6   2  -5   66.27   11.12
  -6   2  -5   75.74   11.76
  -6  -2  -5  125.65    8.02
  -6  -2  -5  149.98   12.52
  -6   2  -6   24.80   25.78
  -6  -2  -6   26.65    7.07
  -6  -2  -6   24.77    7.68
  -6   2  -7  347.27   30.26
  -6   2  -7  385.57   18.71
  -6  -2  -7  404.28   15.97
  -6  -2  -7  459.24   22.56
  -6   2  -8  593.39   22.62
  -6   2  -8  605.25   19.69
  -6  -2  -8  499.86   19.61
  -6   2  -9  888.67   31.90
  -6   2  -9  972.87   22.50
  -6  -2  -9 1057.04   24.78
   6   3 -12  138.58   13.57
  -6   3  12  144.17   16.54
  -6  -3  12  110.70   15.56
   6   3 -11  639.83   21.61
  -6   3  11  535.55   18.56
  -6  -3  11  580.46   24.25
   6   3 -10 1267.53   45.46
  -6   3  10 1267.13   34.81
  -6  -3  10 1124.84   32.67
   6   3  -9  544.13   16.16
  -6   3   9  528.43   16.74
  -6  -3   9  626.22   22.40
   6   3  -8  176.59   11.70
  -6   3   8  180.70   13.80
  -6  -3   8  230.60   17.93
   6   3  -7  995.75   33.82
  -6   3   7 1015.42   22.24
  -6  -3   7 1072.65   22.86
  -6  -3   6  153.31   13.00
  -6  -3   6  181.28   10.71
  -6   3   5 1923.27   28.88
  -6  -3   5 1794.24   26.68
  -6  -3   5 1848.56   35.20
  -6   3   4  581.51   17.28
  -6  -3   4  693.64   24.92
  -6  -3   4  646.21   15.14
  -6   3   3  478.36   14.06
  -6   3   3  514.02    4.64
  -6  -3   3  504.36   13.94
  -6  -3   3  511.20   19.50
   6  -3  -3  520.10    5.04
  -6   3   2  431.05   12.66
  -6  -3   2  463.81   12.13
  -6  -3   2  442.13   15.03
   6  -3  -1 1517.40   11.44
  -6   3   0 1698.56   17.85
  -6  -3   0 1933.67   22.15
  -6   3  -1 2198.95   17.25
  -6  -3  -2 2265.68   18.86
  -6  -3  -2 2152.59   25.37
  -6   3  -3  682.97   49.13
  -6   3  -3  733.80   14.56
  -6  -3  -3  635.53   11.17
  -6  -3  -3  646.20   14.67
  -6   3  -4  717.17   20.18
  -6   3  -4  659.88   12.96
  -6  -3  -4  718.12   11.96
  -6  -3  -4  692.92   17.07
  -6   3  -5 1180.79   28.34
  -6   3  -5 1118.92   21.98
  -6  -3  -5 1209.98   21.41
  -6  -3  -5 1159.99   25.35
  -6   3  -6 1158.17   30.13
  -6   3  -6 1004.03   19.51
  -6  -3  -6 1045.88   23.94
  -6   3  -7  701.19   23.07
  -6   3  -7  649.18   19.04
  -6  -3  -7  625.12   21.02
  -6   3  -8  552.29   23.78
  -6   3  -8  510.85   17.30
  -6  -3  -8  632.23   28.90
  -6   3  -9   43.76   11.65
  -6   3  -9   43.89    6.67
  -6  -3  -9   50.16   10.97
   6   4 -11  136.11   15.21
  -6   4  11  122.20   16.58
  -6  -4  11  102.61   16.39
   6   4 -10  177.98   14.28
  -6   4  10  165.52   12.15
  -6  -4  10  185.98   15.98
   6   4  -9   72.96   10.61
  -6   4   9   71.87    9.86
  -6  -4   9   56.91   14.67
   6   4  -8  915.81   23.52
  -6   4   8  912.58   22.32
  -6  -4   8 1126.33   30.75
   6   4  -7  810.94   21.42
  -6   4   7  843.66   22.17
  -6  -4   7  871.13   25.16
  -6   4   6  138.31   14.84
  -6  -4   6  146.47   13.31
  -6  -4   6  151.72   11.31
  -6   4   5   69.41   12.91
  -6  -4   5   56.60   10.66
  -6  -4   5   52.01   10.54
  -6   4   4  235.65   14.61
  -6  -4   4  267.37   13.07
  -6  -4   4  279.83   13.31
  -6   4   3 1532.25   47.85
  -6  -4   3 1657.32   21.22
  -6  -4   3 1628.91   23.98
  -6   4   2  696.63   16.99
  -6   4   2  715.79    6.14
  -6  -4   2  778.25   16.12
  -6   4   1  855.50   19.42
  -6   4   1  937.95   10.78
  -6  -4   1  863.72   15.16
  -6  -4   1  881.40   19.38
  -6   4   0  262.29   13.97
  -6   4   0  246.67   11.00
  -6  -4   0  272.31   12.15
  -6  -4   0  290.42   15.47
  -6   4  -1  301.55   15.48
  -6   4  -1  304.51   13.03
  -6  -4  -1  272.56   10.75
  -6  -4  -1  244.29   16.42
  -6   4  -2  922.20   13.05
  -6  -4  -2  804.93   28.98
  -6   4  -3  493.10   17.97
  -6   4  -4  342.62   17.11
  -6   4  -4  329.99   12.09
  -6  -4  -4  295.36   17.55
  -6   4  -5  153.64   14.71
  -6   4  -5  145.75   11.71
  -6  -4  -5  139.91   13.08
  -6   4  -6   38.46   12.65
  -6   4  -6   35.44   10.41
  -6  -4  -6   45.83    9.63
  -6   4  -7  174.64   14.24
  -6   4  -7  162.62   14.65
  -6  -4  -7  148.58   13.40
  -6   4  -8  408.94   18.04
  -6   4  -8  399.04   16.06
  -6  -4  -8  338.72   14.38
   6   5 -10 1019.81   31.29
  -6   5  10 1009.02   29.76
  -6  -5  10  998.37   32.91
   6   5  -9   50.67   10.95
  -6   5   9   45.41   10.18
  -6  -5   9   81.88   17.15
   6   5  -8   73.19   11.78
  -6   5   8   85.35   11.47
  -6  -5   8   76.72   13.22
   6   5  -7  338.94   19.48
  -6   5   7  332.27   16.38
  -6  -5   7  425.62   21.98
  -6  -5   6  323.34   14.95
  -6  -5   6  330.80   17.00
  -6   5   5 1686.63   33.82
  -6  -5   5 1630.29   35.29
  -6  -5   5 1447.10   41.65
  -6   5   4  247.66   14.38
  -6  -5   4  278.43   13.73
  -6  -5   4  274.51   14.75
  -6   5   3  214.14   19.94
  -6  -5   3  204.96   11.26
  -6  -5   3  203.04   12.79
  -6   5   2   26.60   11.92
  -6  -5   2   22.28    6.91
  -6  -5   2   22.47    9.17
  -6   5   1 1000.76   20.99
  -6   5   1 1115.05    9.18
  -6  -5   1 1131.84   22.44
  -6  -5   1 1173.83   20.62
  -6   5   0 1501.56   47.49
  -6  -5   0 1785.35   27.59
  -6   5  -1 1018.14   23.86
  -6   5  -1  876.12   15.67
  -6  -5  -1  879.95   16.34
  -6  -5  -1  984.52   23.53
  -6   5  -2  853.03   22.98
  -6   5  -2  773.70   16.98
  -6  -5  -2  929.57   16.44
  -6  -5  -2  859.32   21.18
  -6   5  -3  105.93   12.82
  -6   5  -3  107.52    8.84
  -6  -5  -3  124.37   12.83
  -6   5  -4  118.18   13.95
  -6   5  -4  113.82    9.13
  -6  -5  -4  158.84   13.42
  -6   5  -5  554.43   20.89
  -6   5  -5  523.36   17.62
  -6  -5  -5  598.29   19.77
  -6   5  -6 1276.12   49.03
  -6   5  -6 1187.55   29.12
  -6  -5  -6 1465.86   52.11
  -6   5  -7  446.97   17.80
  -6   5  -7  438.32   14.93
  -6  -5  -7  455.50   28.00
   6   6 -10   82.29   12.08
  -6  -6  10   80.64   12.47
   6   6  -9  341.40   15.28
  -6   6   9  324.73   13.54
  -6  -6   9  232.64   13.61
   6   6  -8  381.18   18.64
  -6   6   8  346.52   15.61
  -6  -6   8  412.55   21.74
   6   6  -7  373.08   17.08
  -6   6   7  358.00   15.25
  -6  -6   7  480.27   21.34
  -6   6   6  105.14   12.27
  -6  -6   6  125.95   13.67
  -6  -6   6  125.69   14.06
  -6   6   5   46.70   11.02
  -6  -6   5   45.29    8.96
  -6  -6   5   44.63   12.72
  -6   6   4  370.37   14.47
  -6  -6   4  422.02   14.84
  -6  -6   4  398.48   16.23
  -6   6   3  736.36   19.79
  -6  -6   3  709.57   18.36
  -6  -6   3  753.72   21.62
  -6   6   2  199.69   16.81
  -6  -6   2  237.48   12.94
  -6  -6   2  261.60   16.71
  -6   6   1  432.12   20.83
  -6  -6   1  450.54   13.10
  -6  -6   1  453.13   17.54
  -6   6   0  174.67   15.65
  -6  -6   0  249.56   12.59
  -6  -6   0  264.81   16.86
  -6   6  -1  143.28   17.15
  -6   6  -1  121.41    8.21
  -6  -6  -1  200.81   17.66
  -6   6  -2  808.66   26.47
  -6   6  -2  662.73   14.14
  -6  -6  -2  765.99   23.00
  -6   6  -3  401.97   24.77
  -6   6  -3  364.54   17.76
  -6  -6  -3  435.55   18.86
  -6   6  -4  382.14   19.24
  -6   6  -4  353.95   22.67
  -6  -6  -4  232.30   17.36
  -6   6  -5  196.02   14.95
  -6   6  -5  184.78   12.31
  -6  -6  -5  226.05   16.13
  -6   6  -6   18.97   12.43
  -6  -6  -6    7.08   11.89
   6   7  -8  114.26   14.88
  -6   7   8  114.69   12.59
  -6  -7   8  129.78   15.02
   6   7  -7  102.73   11.95
  -6   7   7   86.01   13.65
  -6  -7   7   67.96   10.92
  -6   7   6  220.22   13.41
  -6  -7   6  142.58   12.22
  -6  -7   6  149.07   15.53
  -6   7   5  686.76   21.67
  -6  -7   5  785.75   25.76
  -6  -7   5  839.01   28.09
  -6   7   4  393.00   16.31
  -6  -7   4  312.35   13.56
  -6  -7   4  276.06   17.07
  -6   7   3  301.97   17.99
  -6  -7   3  254.25   13.61
  -6  -7   3  268.86   16.84
  -6  -7   2   15.23    5.41
  -6  -7   2    7.88    9.98
  -6   7   1  757.57   21.24
  -6  -7   1  860.90   23.38
  -6   7   0 1075.19   28.30
  -6  -7   0 1064.52   26.75
  -6   7  -1  581.51   22.12
  -6  -7  -1  518.04   18.80
  -6   7  -2  292.29   19.91
  -6  -7  -2  299.50   18.28
  -6   7  -3   22.65   12.41
  -6   7  -3   24.45    5.92
  -6  -7  -3   25.43    9.76
  -6   7  -4   59.64   13.30
  -6   7  -4   42.07    6.33
  -6  -7  -4   59.76    9.99
  -6   7  -5  230.22   15.39
  -6   7  -5  205.50   10.51
  -6  -7  -5  217.69   12.84
  -6   8   6    5.96    7.64
  -6  -8   6    6.08   13.23
  -6  -8   6    8.32   13.29
  -6   8   5   24.25    8.62
  -6  -8   5   23.12    5.41
  -6  -8   5   29.88   31.13
  -6   8   4  149.53   15.76
  -6  -8   4  135.06   11.39
  -6  -8   4  179.63   15.63
  -6   8   3  353.66   16.04
  -6  -8   3  258.47   19.96
  -6   8   2   91.45   11.03
  -6  -8   2  123.06   12.37
  -6   8   1  280.28   18.04
  -6  -8   1  228.54   14.87
  -6   8   0   61.13   11.97
  -6  -8   0  107.00   12.65
  -6   8  -1   40.32   14.21
  -6  -8  -1   63.99   10.24
  -6   8  -2  226.23   15.43
  -6  -8  -2  172.95   12.91
  -6   8  -3  432.71   18.56
  -6  -8  -3  447.46   17.28
  -7   0  12  480.26   19.19
  -7   0  11  115.06   14.13
  -7   0  10  407.59   19.31
  -7   0   9    2.63   12.29
   7   0  -9    4.54    7.60
  -7   0   8  307.63   18.90
   7   0  -8  277.16   14.21
  -7   0   7  740.65   21.10
   7   0  -7  712.45   14.94
  -7   0   6  803.34   20.23
  -7   0   6  738.94   10.89
  -7   0   5   32.02   10.66
  -7   0   5   31.33    4.65
  -7   0   4 1563.94   22.68
  -7   0   3 1150.01   23.75
  -7   0   3 1229.70   14.50
  -7   0   2  604.31   16.43
  -7   0   2  615.75   10.97
  -7   0   1 4682.52   37.68
  -7   0   1 4690.66  178.55
  -7   0   0 1025.32   17.77
  -7   0   0 1074.36   16.12
  -7   0  -1   83.72    9.37
  -7   0  -1   78.52    8.01
  -7   0  -2   68.61   12.41
  -7   0  -2   57.11    8.09
  -7   0  -3  536.06   14.36
  -7   0  -3  570.07   15.85
  -7   0  -4 2055.85   37.70
  -7   0  -4 2459.59   42.40
  -7   0  -5  523.44   16.54
  -7   0  -5  500.02   16.00
  -7   0  -6  759.66   20.42
  -7   0  -6  706.81   24.71
  -7   0  -7  191.68   13.39
  -7   0  -7  179.26   15.38
  -7   0  -8  159.14   16.56
  -7   0  -8  151.01   19.47
  -7   1  12   22.75    9.93
  -7  -1  12   30.36   13.17
  -7   1  11   97.36   14.64
  -7  -1  11   95.04   13.95
   7   1 -10  669.72   20.26
  -7   1  10  560.46   20.37
  -7  -1  10  679.25   29.89
   7   1  -9  543.46   15.24
  -7   1   9  537.63   20.91
  -7  -1   9  523.50   19.34
   7   1  -8  592.53   15.55
  -7   1   8  602.22   20.81
  -7  -1   8  671.84   24.67
  -7   1   7  201.78   14.43
   7   1  -7  189.42   10.64
  -7  -1   7  152.62   14.65
   7  -1  -7  165.09    8.57
  -7   1   6  250.03   14.49
  -7  -1   6  251.16   16.78
  -7  -1   6  243.58   14.34
   7  -1  -6  255.45    9.62
  -7   1   5  488.28   16.00
  -7  -1   5  331.17   16.60
  -7   1   4 3479.13   20.62
  -7   1   4 3396.51   33.45
  -7  -1   4 3694.71   35.71
  -7   1   3 1772.82   15.00
  -7  -1   3 1860.41   20.95
  -7   1   2  592.52   18.18
  -7  -1   2  483.27   14.19
  -7  -1   2  491.65   11.72
  -7   1   1  221.17   13.90
  -7   1   1  214.81   13.22
  -7  -1   1  211.28   13.69
  -7  -1   1  225.32   13.48
  -7   1   0  391.38   15.45
  -7   1   0  395.07   10.52
  -7  -1   0  301.76   32.75
  -7  -1   0  289.94   13.44
  -7   1  -1  892.39   20.60
  -7   1  -1  836.17   14.18
  -7  -1  -1  798.06   17.14
  -7  -1  -1  774.63   16.39
  -7   1  -2 1761.97   20.48
  -7  -1  -2 1779.13   23.78
  -7  -1  -2 1854.08   24.28
  -7   1  -3  988.71   20.21
  -7   1  -3  870.09   25.81
  -7  -1  -3 1009.50   18.79
  -7  -1  -3  908.55   18.25
  -7   1  -4  466.24   18.64
  -7   1  -4  406.85   16.93
  -7  -1  -4  500.04   14.80
  -7  -1  -4  491.04   19.38
  -7   1  -5  318.47   18.41
  -7   1  -5  287.38   15.28
  -7  -1  -5  310.26   14.69
  -7  -1  -5  353.92   20.90
  -7   1  -6   84.49   11.87
  -7   1  -6   83.28   12.03
  -7  -1  -6   66.30   10.02
  -7  -1  -6   71.09   14.16
  -7   1  -7 1425.29  110.14
  -7   1  -7 1269.19   33.46
  -7  -1  -7 1224.19   31.04
  -7  -1  -7 1343.62  104.11
  -7   1  -8  441.02   17.05
  -7   1  -8  402.54   18.06
  -7  -1  -8  580.51   19.42
   7   2 -11  499.56   16.66
  -7   2  11  428.25   19.08
  -7  -2  11  402.86   20.88
   7   2 -10  207.16   13.41
  -7   2  10  228.64   17.45
  -7  -2  10  261.11   19.98
   7   2  -9  161.34   13.04
  -7   2   9  145.40   13.09
  -7  -2   9  125.91   11.28
   7   2  -8  179.43   12.52
  -7   2   8  166.26   16.45
  -7  -2   8  141.69   14.14
  -7   2   7  377.41   16.77
  -7  -2   7  559.82   20.27
  -7   2   6 1563.95   27.54
  -7  -2   6 1495.32   28.47
  -7  -2   6 1618.06   38.82
  -7   2   5   33.73    9.08
  -7  -2   5   11.22   10.70
  -7  -2   5    3.47    6.13
   7  -2  -5    5.13    3.77
  -7   2   4  238.94    7.57
  -7   2   4  268.39   14.82
  -7  -2   4  288.80   15.73
  -7  -2   4  271.67   12.77
  -7   2   3 1101.22   34.72
  -7   2   3 1134.55   10.09
  -7  -2   3 1091.44   21.95
  -7  -2   3 1037.74   18.46
  -7   2   2  346.02   16.12
  -7   2   2  360.79   15.62
  -7  -2   2  353.95   19.13
  -7  -2   2  336.79   13.62
  -7   2   1 3263.72   27.55
  -7  -2   1 3405.52   30.50
  -7   2   0  681.34   20.89
  -7   2   0  667.79   11.27
  -7  -2   0  746.99   15.39
  -7  -2   0  760.44   15.71
  -7   2  -1   86.38   11.96
  -7   2  -1   93.70    7.40
  -7  -2  -1   30.89    7.09
  -7  -2  -1   27.86   10.59
  -7   2  -2   61.30   14.22
  -7   2  -2   50.84    6.70
  -7  -2  -2   51.48    8.96
  -7  -2  -2   62.79   11.09
  -7   2  -3  590.60   20.89
  -7   2  -3  535.91   14.82
  -7  -2  -3  622.73   15.58
  -7  -2  -3  623.82   20.06
  -7   2  -4 1258.38   28.98
  -7   2  -4 1179.89   25.31
  -7  -2  -4 1290.30   24.07
  -7  -2  -4 1235.28   28.56
  -7   2  -5  848.21   28.01
  -7   2  -5  805.74   19.17
  -7  -2  -5  853.86   19.19
  -7  -2  -5  790.75   21.07
  -7   2  -6  995.01   29.86
  -7   2  -6  966.44   27.18
  -7  -2  -6  929.92   24.31
  -7  -2  -6  857.86   34.71
  -7   2  -7   81.45   19.82
  -7   2  -7   81.89   11.05
  -7  -2  -7  116.22   13.90
  -7   2  -8   73.55   25.93
  -7   2  -8   81.62   11.92
  -7  -2  -8  116.37   15.62
   7   3 -11  213.32   12.66
  -7   3  11  181.96   12.17
  -7  -3  11  184.53   15.09
   7   3 -10  199.35   12.28
  -7   3  10  189.57   19.15
  -7  -3  10  249.86   16.87
   7   3  -9  340.41   15.38
  -7   3   9  342.61   17.28
  -7  -3   9  310.70   16.48
   7   3  -8  480.35   14.80
  -7   3   8  466.01   22.37
  -7  -3   8  497.85   19.88
  -7   3   7  207.56   16.04
  -7  -3   7  180.09   18.52
  -7  -3   7  162.14   15.18
  -7   3   6   23.64    8.60
  -7  -3   6   16.17   15.30
  -7  -3   6   12.79   10.29
  -7   3   5  895.55   21.56
  -7  -3   5  863.70   20.34
  -7  -3   5  778.33   14.99
  -7   3   4 2044.67   45.25
  -7   3   3  519.98   16.46
  -7   3   3  458.54    5.59
  -7  -3   3  416.80   13.41
  -7  -3   3  429.87   12.54
  -7   3   2 2512.43   59.14
  -7   3   2 2608.43   15.35
  -7  -3   2 2741.60   30.07
  -7  -3   2 2567.64   36.17
  -7   3   1  240.58   16.76
  -7   3   1  226.07   10.16
  -7  -3   1  243.87   11.66
  -7  -3   1  255.04   15.93
  -7   3   0  218.93   16.97
  -7   3   0  235.71    9.96
  -7  -3   0  157.83    9.29
  -7  -3   0  149.30   12.52
  -7   3  -1 1021.52   22.53
  -7   3  -1  980.97   22.44
  -7  -3  -1 1031.03   16.76
  -7  -3  -1 1065.40   21.16
  -7   3  -2  787.30   23.26
  -7   3  -2  746.99   16.17
  -7  -3  -2  875.52   18.27
  -7  -3  -2  834.10   20.58
  -7   3  -3  654.09   22.59
  -7   3  -3  633.29   16.46
  -7  -3  -3  473.79   13.43
  -7  -3  -3  486.53   16.83
  -7   3  -4  420.14   28.47
  -7   3  -4  372.21   30.74
  -7  -3  -4  453.61   17.38
  -7  -3  -4  463.18   22.76
  -7   3  -5   53.91   12.97
  -7   3  -5   40.81   13.21
  -7  -3  -5   43.72   12.43
  -7   3  -6  120.79   26.89
  -7   3  -6  129.73   11.63
  -7  -3  -6  154.36   16.38
  -7   3  -7 1430.58   28.99
  -7   3  -7 1563.13   46.93
  -7  -3  -7 1526.38   30.09
   7   4 -10  122.15   14.95
  -7   4  10  104.24   12.42
  -7  -4  10  133.44   16.52
   7   4  -9   35.27   10.13
  -7   4   9   38.67   10.38
  -7  -4   9   30.69   10.74
   7   4  -8  307.48   14.92
  -7   4   8  289.17   17.43
  -7  -4   8  239.30   16.87
  -7   4   7  344.10   17.82
  -7  -4   7  444.38   23.78
  -7  -4   7  347.12   26.37
  -7   4   6  933.60   25.34
  -7  -4   6 1075.74   28.45
  -7  -4   6 1059.49   27.47
  -7   4   5   76.61   13.60
  -7  -4   5   57.06   10.25
  -7  -4   5   65.84   26.32
  -7   4   4  195.25   15.74
  -7  -4   4  156.58   12.37
  -7  -4   4  173.06   16.09
  -7   4   3  853.62   25.55
  -7  -4   3  935.30   21.99
  -7  -4   3  906.01   26.01
  -7   4   2  510.45   16.72
  -7  -4   2  363.58   18.49
  -7  -4   2  373.58   20.49
  -7   4   1 1073.30   23.98
  -7   4   1 1161.02   18.23
  -7  -4   1 1296.30   25.22
  -7  -4   1 1286.34   41.30
  -7   4   0  177.78   14.29
  -7   4   0  169.41    8.71
  -7  -4   0  191.16   11.98
  -7  -4   0  196.84   14.47
  -7   4  -1  295.90   27.26
  -7   4  -1  364.75   10.12
  -7  -4  -1  362.04   11.96
  -7  -4  -1  353.35   14.63
  -7   4  -2   31.83   12.53
  -7   4  -2   23.01    5.59
  -7  -4  -2   22.54    6.19
  -7  -4  -2   31.31   11.30
  -7   4  -3  574.13   20.55
  -7   4  -3  609.65   15.02
  -7  -4  -3  647.16   18.89
  -7   4  -4  873.86   23.74
  -7   4  -4  893.47   22.78
  -7  -4  -4  814.13   24.51
  -7   4  -5  909.66   31.07
  -7   4  -5  911.96   23.75
  -7  -4  -5  958.97   40.89
  -7   4  -6  340.17   16.73
  -7   4  -6  383.02   15.34
  -7  -4  -6  347.04   16.90
  -7   4  -7    8.02    9.38
  -7   4  -7   10.14   12.21
  -7  -4  -7   27.32    8.04
   7   5 -10  211.63   13.88
  -7   5  10  222.16   15.85
  -7  -5  10  162.12   17.44
   7   5  -9  366.58   16.15
  -7   5   9  361.06   15.53
  -7  -5   9  357.34   18.10
   7   5  -8  357.45   16.60
  -7   5   8  345.29   15.20
  -7  -5   8  344.27   16.17
  -7   5   7   45.00   10.05
  -7  -5   7   13.40   15.02
  -7   5   6   29.76    7.01
  -7  -5   6   23.10   10.27
  -7  -5   6   17.20   14.05
  -7   5   5  262.79   17.91
  -7  -5   5  222.55   13.64
  -7  -5   5  192.33   12.65
  -7   5   4  845.11   27.22
  -7  -5   4  881.84   21.62
  -7  -5   4  864.71   22.28
  -7   5   3  996.83   28.02
  -7  -5   3  831.76   21.10
  -7  -5   3  814.71   22.90
  -7   5   2 1885.85   44.73
  -7  -5   2 1971.81   34.03
  -7  -5   2 2129.18   41.67
  -7   5   1    5.08   10.71
  -7  -5   1   11.55   12.54
  -7   5   0  179.77   16.38
  -7  -5   0  248.19   12.83
  -7  -5   0  253.05   16.71
  -7   5  -1  432.89   21.75
  -7   5  -1  414.74   17.86
  -7  -5  -1  421.06   16.10
  -7  -5  -1  428.57   22.46
  -7   5  -2  601.37   20.92
  -7   5  -2  587.89   13.99
  -7  -5  -2  537.96   17.63
  -7   5  -3  734.60   26.22
  -7   5  -3  729.46   24.92
  -7  -5  -3  602.49   22.41
  -7   5  -4  235.49   20.23
  -7   5  -4  194.67   12.32
  -7  -5  -4  255.34   22.15
  -7   5  -5   95.65   10.01
  -7   5  -5   91.52    8.55
  -7  -5  -5   99.66   12.35
  -7   5  -6   53.76   12.66
  -7  -5  -6   62.92   11.41
   7   6  -8  175.38   13.87
  -7   6   8  157.83   16.16
  -7  -6   8  130.89   16.32
  -7   6   7  362.30   14.92
  -7  -6   7  524.39   23.63
  -7  -6   7  444.96   20.11
  -7   6   6  523.89   18.92
  -7  -6   6  578.81   23.27
  -7  -6   6  583.41   21.63
  -7   6   5  184.05   14.94
  -7  -6   5  137.60   13.76
  -7  -6   5  127.00   11.71
  -7   6   4   62.61   10.79
  -7  -6   4   74.82   10.07
  -7  -6   4   65.75   13.53
  -7   6   3  537.95   18.59
  -7  -6   3  545.25   16.46
  -7  -6   3  571.98   23.44
  -7   6   2  304.53   18.61
  -7  -6   2  317.65   15.83
  -7  -6   2  317.84   19.90
  -7   6   1  380.86   20.24
  -7  -6   1  409.22   17.27
  -7  -6   1  407.77   21.07
  -7   6   0  310.84   23.17
  -7  -6   0  288.84   17.62
  -7   6  -1  402.44   21.33
  -7  -6  -1  427.10   23.60
  -7   6  -2  197.57   17.89
  -7  -6  -2  197.11   16.09
  -7   6  -3  407.20   34.75
  -7   6  -3  322.81   16.79
  -7  -6  -3  421.18   18.25
  -7   6  -4  397.70   19.37
  -7   6  -4  322.50    9.84
  -7  -6  -4  391.30   16.92
  -7   6  -5  592.05   23.69
  -7   7   7   51.25    7.77
  -7  -7   7   43.00   10.80
  -7  -7   6   24.63    8.58
  -7  -7   6   13.26   17.29
  -7   7   5  258.74   14.34
  -7  -7   5  184.46   13.97
  -7  -7   5  186.09   19.46
  -7   7   4  420.65   18.46
  -7  -7   4  419.94   15.95
  -7  -7   4  404.81   30.19
  -7   7   3  486.25   20.00
  -7  -7   3  476.46   16.45
  -7  -7   3  482.90   25.88
  -7   7   2  497.00   23.60
  -7  -7   2  547.01   23.46
  -7   7   1   46.36   10.85
  -7  -7   1   35.80   14.18
  -7   7   0   17.88   10.27
  -7  -7   0   43.74   11.04
  -7   7  -1  316.33   21.65
  -7  -7  -1  294.61   15.99
  -7   7  -2  444.46   21.45
  -7  -7  -2  380.29   15.35
  -7   7  -3  242.39   15.50
  -7  -7  -3  243.47   14.96
  -7   8   4    1.60    8.35
  -7  -8   4    6.68    6.79
  -7   8   3  168.46   15.91
  -7  -8   3  199.74   13.96
  -7   8   2   88.65   12.91
  -7  -8   2  119.88   16.12
  -7   8   1  461.30   17.53
  -7  -8   1  405.26   16.09
  -7   8   0  287.45   17.54
  -7  -8   0  413.03   19.14
  -8   0  11  717.16   24.09
  -8   0  10  179.42   16.09
  -8   0   9   99.16   16.20
  -8   0   8   12.81   15.11
  -8   0   7   63.74   14.13
   8   0  -7   58.30    6.59
  -8   0   6 1341.13   33.59
  -8   0   6 1320.97   34.75
  -8   0   5  978.63   27.90
  -8   0   5  824.21   16.20
  -8   0   4 1172.19   31.34
  -8   0   4 1096.16   27.94
  -8   0   3   77.08   13.20
  -8   0   3   72.17    6.95
  -8   0   2   15.43   15.57
  -8   0   2    9.71    6.58
  -8   0   1  122.47   12.32
  -8   0   1  139.79    9.73
  -8   0   0 2307.30   44.36
  -8   0   0 2268.47   38.22
  -8   0  -1  316.25   14.24
  -8   0  -1  336.72   12.66
  -8   0  -2  680.93   20.42
  -8   0  -2  666.80   19.26
  -8   0  -3  120.78   12.38
  -8   0  -3  105.06    9.95
  -8   0  -4  348.83   16.80
  -8   0  -4  342.71   18.43
  -8   0  -5  177.28   13.33
  -8   0  -5  192.63   15.41
  -8   0  -6  886.99   25.70
  -8   0  -6  999.37   29.93
  -8   0  -7  414.80   17.34
  -8   0  -7  443.20   20.25
  -8   1  11   97.82   14.76
  -8  -1  11   81.67   14.92
  -8   1  10   63.22   12.42
  -8  -1  10   62.61   14.46
  -8   1   9  211.87   18.85
  -8  -1   9  189.38   16.01
   8   1  -8  601.31   15.31
  -8   1   8  625.60   23.52
  -8  -1   8  614.16   23.27
  -8   1   7  622.71   20.82
  -8  -1   7  571.82   22.01
  -8   1   6  301.46   21.90
  -8  -1   6  339.65   18.78
  -8  -1   6  300.28   17.03
  -8   1   5   10.66    8.45
  -8   1   5    6.24   10.53
  -8  -1   5   22.66   15.74
  -8  -1   5   11.83    7.17
  -8   1   4  114.89   17.01
  -8   1   4  125.16    9.09
  -8  -1   4  109.40   15.32
  -8  -1   4  119.31    9.82
  -8   1   3  595.40   19.60
  -8   1   3  562.90   12.30
  -8  -1   3  539.88   19.42
  -8  -1   3  481.32   13.79
  -8   1   2 1164.50   27.77
  -8   1   2 1098.02   17.24
  -8  -1   2 1260.18   24.10
  -8  -1   2 1327.50   21.78
  -8   1   1  323.59   19.44
  -8   1   1  313.78   15.53
  -8  -1   1  363.98   14.95
  -8  -1   1  335.16   23.40
  -8   1   0  310.33   19.98
  -8   1   0  329.45   11.83
  -8  -1   0  323.72   13.75
  -8  -1   0  296.72   16.24
  -8   1  -1  363.94   16.74
  -8   1  -1  327.91   12.57
  -8  -1  -1  367.53   16.35
  -8  -1  -1  362.72   13.43
  -8   1  -2  471.05   18.18
  -8   1  -2  449.23   13.57
  -8  -1  -2  487.61   15.26
  -8  -1  -2  481.26   16.64
  -8   1  -3 1057.52   24.30
  -8   1  -3 1149.07   25.85
  -8  -1  -3 1022.06   22.93
  -8  -1  -3  955.21   22.13
  -8   1  -4 1196.32   32.23
  -8   1  -4 1309.01   46.88
  -8  -1  -4 1278.08   45.47
  -8  -1  -4 1208.47   25.03
  -8   1  -5  387.54   17.13
  -8   1  -5  387.14   17.94
  -8  -1  -5  472.07   16.01
  -8  -1  -5  455.50   17.29
  -8   1  -6  106.14   14.42
  -8   1  -6   98.85   22.27
  -8  -1  -6  118.64   10.87
  -8  -1  -6  116.25   11.40
  -8   1  -7  146.18   13.53
  -8   1  -7  145.75   10.62
  -8  -1  -7  201.32   13.98
   8   2 -10  256.92   10.89
  -8   2  10  242.49   15.81
  -8  -2  10  233.12   18.60
   8   2  -9  135.01   10.45
  -8   2   9  142.07   13.72
  -8  -2   9  168.53   14.73
   8   2  -8   48.75    8.09
  -8   2   8   48.91   14.46
  -8  -2   8   62.57   12.18
  -8   2   7   83.36   13.88
  -8  -2   7  105.37   13.26
  -8  -2   7   85.57   12.66
  -8   2   6 1135.11   31.71
  -8  -2   6 1202.23   29.57
  -8  -2   6  974.30   33.51
  -8   2   5  423.16   16.21
  -8  -2   5  620.81   22.27
  -8  -2   5  590.56   15.06
  -8   2   4 1361.85   32.94
  -8  -2   4 1284.78   31.35
  -8  -2   4 1196.58   27.61
  -8   2   3  538.16   41.42
  -8   2   3  511.39   10.84
  -8  -2   3  506.09   17.14
  -8  -2   3  493.28   20.58
  -8   2   2   71.32   13.95
  -8   2   2   68.57    6.45
  -8  -2   2   63.64   12.57
  -8  -2   2   59.72    8.06
  -8   2   1  392.25   18.98
  -8   2   1  356.88   11.34
  -8  -2   1  284.87   17.87
  -8  -2   1  279.69   15.95
  -8   2   0 1501.58   34.21
  -8   2   0 1605.07   27.70
  -8  -2   0 1385.55   28.69
  -8  -2   0 1439.70   29.91
  -8   2  -1  582.96   24.57
  -8   2  -1  541.88   14.69
  -8  -2  -1  513.35   15.42
  -8  -2  -1  495.61   32.64
  -8   2  -2  558.84   21.36
  -8   2  -2  601.60   16.27
  -8  -2  -2  613.57   16.55
  -8  -2  -2  577.42   18.05
  -8   2  -3   39.92   12.48
  -8   2  -3   33.70   11.96
  -8  -2  -3   47.80    7.91
  -8  -2  -3   56.95   12.08
  -8   2  -4  210.07   15.62
  -8   2  -4  194.40   11.78
  -8  -2  -4  252.86   13.54
  -8  -2  -4  233.22   17.44
  -8   2  -5  377.30   18.10
  -8   2  -5  342.49   15.88
  -8  -2  -5  366.12   13.29
  -8  -2  -5  364.82   16.51
  -8   2  -6 1046.06   27.61
  -8   2  -6  952.61   21.18
  -8  -2  -6  859.37   21.73
   8   3 -10   57.28    9.06
  -8   3  10   65.50   12.41
  -8  -3  10   66.41   14.95
   8   3  -9  345.51   14.24
  -8   3   9  368.03   18.00
  -8  -3   9  356.80   17.76
   8   3  -8  680.66   21.61
  -8   3   8  667.52   23.66
  -8  -3   8  701.76   24.76
  -8  -3   7  478.77   19.01
  -8  -3   7  436.66   17.92
  -8   3   6  258.81   18.47
  -8  -3   6  273.02   19.24
  -8  -3   6  214.30   11.23
  -8  -3   5    4.30    9.97
  -8  -3   5    9.71    9.60
  -8   3   4  235.21   16.29
  -8  -3   4  211.26   15.82
  -8  -3   4  201.02   13.24
  -8   3   3  777.82   26.67
  -8  -3   3  823.69   22.58
  -8  -3   3  711.59   18.39
  -8   3   2  678.19   23.49
  -8  -3   2  934.80   22.52
  -8  -3   2  873.33   20.82
  -8   3   1  258.87   18.34
  -8  -3   1   95.93   11.02
  -8  -3   1   95.28   11.44
  -8   3   0  411.81   19.52
  -8   3   0  349.50   10.34
  -8  -3   0  400.22   14.72
  -8  -3   0  377.20   15.02
  -8   3  -1  108.81   12.42
  -8   3  -1  104.63    6.66
  -8  -3  -1  120.67   10.88
  -8  -3  -1  128.98   12.16
  -8   3  -2  482.58   18.83
  -8   3  -2  430.16   24.86
  -8  -3  -2  505.79   13.86
  -8  -3  -2  522.01   20.87
  -8   3  -3  767.88   24.99
  -8   3  -3  758.37   20.59
  -8  -3  -3  697.60   19.74
  -8  -3  -3  662.69   22.33
  -8   3  -4 1081.48   32.64
  -8   3  -4  985.46   25.28
  -8  -3  -4 1219.13   34.45
  -8   3  -5  178.79   17.73
  -8   3  -5  188.46   18.50
  -8  -3  -5  221.76   14.23
  -8   3  -6  177.29   13.19
  -8   3  -6  145.18   14.57
  -8  -3  -6  174.57   15.56
   8   4  -9   91.55   13.51
  -8   4   9   86.11   12.16
  -8  -4   9  114.20   15.58
   8   4  -8  128.91   11.75
  -8   4   8  132.84   16.62
  -8  -4   8  143.54   13.70
  -8   4   7   20.59   12.82
  -8  -4   7   43.06   11.65
  -8  -4   7   33.52   10.86
  -8   4   6  661.98   23.86
  -8  -4   6  729.29   23.92
  -8  -4   6  641.41   35.35
  -8   4   5  391.89   21.02
  -8  -4   5  418.12   19.62
  -8  -4   5  411.50   19.99
  -8   4   4  873.45   25.95
  -8  -4   4  906.19   23.83
  -8  -4   4  838.77   21.23
  -8   4   3  508.31   21.80
  -8  -4   3  628.46   19.32
  -8  -4   3  626.77   19.54
  -8   4   2   32.03   25.43
  -8  -4   2   30.81    7.81
  -8  -4   2   23.41    9.53
  -8   4   1  327.70   19.91
  -8  -4   1  248.28   13.90
  -8  -4   1  249.22   15.69
  -8   4   0  934.45   24.39
  -8  -4   0  946.64   20.36
  -8  -4   0  967.10   23.52
  -8   4  -1  804.87   22.28
  -8   4  -1  746.82   14.75
  -8  -4  -1  892.61   18.90
  -8  -4  -1  887.98   25.43
  -8   4  -2  418.03   17.66
  -8   4  -2  409.07   13.67
  -8  -4  -2  476.61   23.59
  -8  -4  -3   15.79   16.43
  -8   4  -4   27.27   10.60
  -8   4  -4   26.63    7.24
  -8  -4  -4   38.34   10.87
  -8   4  -5  444.40   20.16
  -8   4  -5  412.74   16.75
  -8  -4  -5  489.61   20.14
   8   5  -8  538.43   18.83
  -8   5   8  521.71   18.09
  -8  -5   8  529.79   19.66
  -8   5   7  655.24   22.75
  -8  -5   7  545.08   22.94
  -8  -5   7  440.94   22.43
  -8   5   6  304.36   18.37
  -8  -5   6  304.45   16.71
  -8  -5   6  303.14   22.87
  -8   5   5   31.69   12.59
  -8  -5   5   25.97   10.21
  -8  -5   5   18.87   21.06
  -8   5   4  311.25   18.14
  -8  -5   4  328.26   15.11
  -8  -5   4  313.82   15.56
  -8   5   3  153.97   18.42
  -8  -5   3  250.20   14.51
  -8  -5   3  269.12   17.66
  -8   5   2  424.94   21.46
  -8  -5   2  367.38   15.23
  -8  -5   2  384.25   16.75
  -8  -5   1  520.81   16.13
  -8  -5   1  509.12   20.76
  -8   5   0   75.15   10.77
  -8  -5   0  122.09    8.49
  -8  -5   0  117.91   13.87
  -8   5  -1  115.52   14.61
  -8  -5  -1  116.22   14.33
  -8   5  -2  314.55   17.18
  -8  -5  -2  350.52   18.76
  -8   5  -3  386.78   19.31
  -8  -5  -3  284.92   15.48
  -8   5  -4  604.95   25.75
  -8   5  -4  597.85   15.69
  -8  -5  -4  722.94   22.18
  -8   6   7   19.97    9.55
  -8  -6   7   15.73   11.48
  -8   6   6  246.04   13.50
  -8  -6   6  264.41   13.24
  -8  -6   6  269.85   14.71
  -8   6   5  533.03   21.80
  -8  -6   5  566.63   20.90
  -8  -6   5  543.18   19.77
  -8   6   4  397.77   18.22
  -8  -6   4  451.87   18.25
  -8  -6   4  403.28   18.30
  -8   6   3  111.60   14.06
  -8  -6   3  185.10   11.05
  -8  -6   3  194.47   14.18
  -8   6   2    3.70    9.20
  -8  -6   2    5.61    7.96
  -8  -6   2   -0.21    8.69
  -8   6   1  233.55   16.27
  -8  -6   1  169.01   13.94
  -8   6   0  499.82   21.26
  -8  -6   0  527.99   19.77
  -8   6  -1  316.35   18.04
  -8  -6  -1  387.45   33.23
  -8   6  -2  537.33   21.26
  -8  -6  -2  602.65   19.29
  -8   6  -3   90.77   12.69
  -8  -6  -3   75.99   12.08
  -8   7   4   73.81   11.24
  -8  -7   4  127.04   11.83
  -8  -7   4  115.98   19.09
  -8   7   3   31.89   30.80
  -8  -7   3   32.41   10.72
  -8   7   2  713.30   24.63
  -8  -7   2  683.57   22.02
  -8   7   1  358.82   16.55
  -8  -7   1  380.31   17.26
  -8   7   0   48.12   11.61
  -8  -7   0   25.68   29.75
  -9   0   9  134.51   17.77
  -9   0   8  106.10   15.46
  -9   0   7   42.40    9.27
  -9   0   6   44.58   11.70
  -9   0   5   34.90   12.07
  -9   0   4  634.18   21.64
  -9   0   4  629.62   21.70
  -9   0   3  727.30   23.95
  -9   0   3  704.74   17.57
  -9   0   2  609.08   21.16
  -9   0   2  598.18   15.03
  -9   0   1   23.08   14.19
  -9   0   1   16.47    5.82
  -9   0   0  174.68   20.86
  -9   0   0  171.56   10.44
  -9   0  -1  495.64   17.71
  -9   0  -1  470.24   20.88
  -9   0  -2 1107.72   32.02
  -9   0  -2 1124.08   30.80
  -9   0  -3  827.39   26.75
  -9   0  -3  793.74   24.03
  -9   0  -4  241.96   13.79
  -9   0  -4  218.31   13.21
  -9   0  -5    7.22   10.21
  -9   0  -5    5.04    6.96
  -9   1   9   53.23   13.20
  -9  -1   9   49.39   14.00
  -9   1   8  103.24   15.41
  -9  -1   8  147.88   14.69
  -9   1   7  564.89   23.64
  -9  -1   7  503.48   22.73
  -9   1   6  943.99   31.13
  -9  -1   6 1134.05   35.57
  -9  -1   6  929.21   30.43
  -9   1   5  443.86   22.22
  -9  -1   5  413.62   21.84
  -9  -1   5  383.74   16.61
  -9   1   4   12.77   11.43
  -9  -1   4    8.00   13.60
  -9  -1   4    2.29    5.49
  -9   1   3   57.66   14.54
  -9   1   3   39.52    5.47
  -9  -1   3   47.98   15.08
  -9  -1   3   36.64    6.60
  -9   1   2  343.40   22.34
  -9   1   2  313.18   13.05
  -9  -1   2  419.00   20.92
  -9  -1   2  416.19   19.26
  -9   1   1  640.14   22.79
  -9   1   1  633.16   17.00
  -9  -1   1  577.56   18.36
  -9  -1   1  543.58   15.56
  -9   1   0  789.01   23.85
  -9   1   0  757.38   18.62
  -9  -1   0  701.03   19.20
  -9  -1   0  729.30   19.71
  -9   1  -1  393.96   23.42
  -9   1  -1  418.40   16.09
  -9  -1  -1  439.29   18.86
  -9  -1  -1  414.08   16.42
  -9   1  -2   29.00    9.81
  -9   1  -2   32.90    9.02
  -9  -1  -2   27.95   12.39
  -9  -1  -2   28.87   10.09
  -9   1  -3  177.29   14.80
  -9   1  -3  163.42   11.67
  -9  -1  -3  168.54   11.71
  -9  -1  -3  172.96   15.28
  -9   1  -4  171.61   13.28
  -9   1  -4  163.51   15.88
  -9  -1  -4   81.95   11.48
  -9  -1  -4   80.57   11.96
  -9   1  -5  313.76   14.54
  -9   1  -5  342.62   18.62
  -9  -1  -5  322.63   14.06
  -9  -1  -5  336.91   15.66
  -9   2   9  156.18   17.48
  -9  -2   9  119.31   16.25
   9   2  -8  165.49    9.85
  -9   2   8  194.86   14.98
  -9  -2   8  138.13   13.47
  -9   2   7   56.19   14.40
  -9  -2   7   65.87   13.58
  -9  -2   7   55.31   13.77
  -9   2   6   14.54   16.68
  -9  -2   6   21.52   12.27
  -9  -2   6    8.13   13.09
  -9   2   5  159.71   16.05
  -9  -2   5  168.46   15.62
  -9  -2   5  133.25   11.01
  -9   2   4  851.76   24.73
  -9  -2   4  756.89   24.15
  -9  -2   4  727.08   17.75
  -9   2   3  368.97   22.24
  -9  -2   3  365.04   18.33
  -9  -2   3  367.58   16.94
  -9   2   2  375.84   19.88
  -9  -2   2  421.87   20.70
  -9  -2   2  397.60   18.79
  -9   2   1   10.67   14.12
  -9   2   1    7.53    5.19
  -9  -2   1    4.49    7.55
  -9  -2   1    6.85   10.27
  -9   2   0  173.06   15.46
  -9   2   0  162.60   10.61
  -9  -2   0  129.19   10.83
  -9  -2   0  138.12   13.69
  -9   2  -1  444.70   19.19
  -9   2  -1  387.32   14.69
  -9  -2  -1  423.00   16.87
  -9  -2  -1  444.86   18.11
  -9   2  -2  859.64   27.80
  -9   2  -2  787.44   22.18
  -9  -2  -2  983.03   26.60
  -9  -2  -2  965.43   27.63
  -9   2  -3  712.82   23.46
  -9   2  -3  761.44   24.99
  -9  -2  -3  750.36   23.04
  -9  -2  -3  727.97   29.01
  -9   2  -4  101.72   14.52
  -9   2  -4  108.36   14.04
  -9  -2  -4  141.43   14.53
  -9  -2  -4  155.29   17.34
   9   3  -8  149.94   14.89
  -9   3   8  162.33   17.45
  -9  -3   8  227.20   15.07
  -9   3   7  672.17   25.93
  -9  -3   7  517.93   19.25
  -9  -3   7  508.21   32.37
  -9   3   6  357.84   19.46
  -9  -3   6  531.01   21.54
  -9  -3   6  448.48   20.95
  -9   3   5  370.03   21.06
  -9  -3   5  394.04   19.17
  -9  -3   5  363.38   14.26
  -9   3   4   52.72   14.60
  -9  -3   4   69.30   14.77
  -9  -3   4   59.67    9.22
  -9   3   3   10.22   10.19
  -9  -3   3   19.97   11.61
  -9  -3   3    7.36    7.26
  -9   3   2  335.19   17.20
  -9  -3   2  360.01   15.43
  -9  -3   2  332.05   14.56
  -9   3   1  799.93   27.06
  -9  -3   1  745.16   22.97
  -9  -3   1  788.66   26.11
  -9   3   0  964.31   31.62
  -9  -3   0  887.17   25.41
  -9  -3   0  869.37   25.89
  -9   3  -1  178.26   17.23
  -9   3  -1  161.50    9.62
  -9  -3  -1  154.47   10.20
  -9  -3  -1  134.81   15.93
  -9   3  -2  154.67   13.07
  -9   3  -2  152.53   10.61
  -9  -3  -2  141.83   10.32
  -9  -3  -2  160.70   15.36
  -9   3  -3   52.82   10.75
  -9   3  -3   58.13    9.04
  -9  -3  -3   31.15   10.88
  -9   3  -4  544.72   21.65
  -9   3  -4  499.52   16.13
  -9  -3  -4  474.42   20.13
  -9  -4   7   33.01   11.72
  -9  -4   7   26.72    9.66
  -9   4   6   26.39   11.00
  -9  -4   6    8.49    7.96
  -9  -4   6    7.35    9.45
  -9   4   5  257.24   19.05
  -9  -4   5  264.21   14.82
  -9  -4   5  253.56   12.69
  -9   4   4  407.56   20.31
  -9  -4   4  406.99   19.88
  -9  -4   4  386.28   15.76
  -9   4   3  295.25   18.68
  -9  -4   3  224.23   14.53
  -9  -4   3  240.10   17.22
  -9   4   2  283.69   18.74
  -9  -4   2  314.66   16.07
  -9  -4   2  297.13   18.22
  -9   4   1   17.79   15.12
  -9  -4   1    6.31    6.59
  -9  -4   1   13.02   13.65
  -9   4   0   66.24   13.99
  -9  -4   0   47.71    6.83
  -9  -4   0   49.89   10.15
  -9   4  -1  372.88   19.23
  -9  -4  -1  288.48   14.94
  -9   4  -2  417.06   18.50
  -9  -4  -2  599.84   17.74
  -9   4  -3  616.74   26.47
  -9   5   6  145.48   14.63
  -9  -5   6  162.22   12.31
  -9  -5   6  155.38   10.75
  -9   5   5  323.45   16.86
  -9  -5   5  311.12   13.56
  -9  -5   5  299.97   18.77
  -9   5   4   79.71   13.73
  -9  -5   4  110.87   12.88
  -9  -5   4  114.84   13.42
  -9   5   3   28.17    8.22
  -9  -5   3    9.32    6.68
  -9  -5   3   19.87   12.07
  -9   5   2  641.91   25.44
  -9  -5   2  604.22   19.23
  -9  -5   2  694.71   25.45
  -9   5   1  328.39   17.17
  -9  -5   1  387.33   14.92
  -9   5   0  506.45   20.20
  -9  -5   0  456.12   16.55
  -9   5  -1  265.79   16.06
  -9  -5  -1  291.91   15.10
 -10   0   7  314.25   17.85
 -10   0   6    8.66    8.97
 -10   0   5  176.95   14.97
 -10   0   4  458.25   19.27
 -10   0   3  429.61   18.98
 -10   0   2  709.13   24.36
 -10   0   2  737.40   20.66
 -10   0   1  103.45   11.80
 -10   0   1   83.34    9.48
 -10   0   0   21.24   12.30
 -10   0   0   21.00    7.19
 -10   0  -1    7.88    8.30
 -10   0  -1    5.10    6.37
 -10   0  -2  151.20   16.43
 -10   0  -2  146.74   17.41
 -10   1   7   37.85    9.18
 -10  -1   7   42.14   12.05
 -10   1   6  183.33   14.48
 -10  -1   6  148.19   16.26
 -10   1   5  454.24   20.23
 -10  -1   5  409.28   18.41
 -10   1   4  478.95   20.70
 -10  -1   4  533.57   21.13
 -10  -1   4  543.56   18.71
 -10   1   3   61.01   11.99
 -10  -1   3   53.44   11.97
 -10  -1   3   48.67   16.05
 -10   1   2  140.07   15.95
 -10  -1   2  151.48   16.73
 -10  -1   2  136.47   15.99
 -10   1   1   18.94    6.87
 -10  -1   1   19.35    8.44
 -10   1   0  800.30   27.31
 -10   1   0  772.07   22.75
 -10  -1   0  816.96   25.50
 -10  -1   0  772.84   24.04
 -10   1  -1  408.71   16.26
 -10   1  -1  390.06   13.63
 -10  -1  -1  425.02   16.08
 -10  -1  -1  438.16   18.49
 -10   1  -2  707.95   24.24
 -10   1  -2  704.56   19.34
 -10  -1  -2  723.86   20.53
 -10  -1  -2  682.83   20.30
 -10   2   7  179.39   14.16
 -10  -2   7  247.21   18.30
 -10   2   6   48.39   12.51
 -10   2   5   37.08   13.15
 -10  -2   5   41.32   10.74
 -10  -2   5   42.67    6.78
 -10   2   4  228.32   16.05
 -10  -2   4  217.36   15.42
 -10  -2   4  199.62   11.35
 -10   2   3  156.98   14.20
 -10  -2   3  189.70   20.78
 -10  -2   3  180.99   12.28
 -10   2   2 1070.83   32.08
 -10  -2   2 1019.13   31.47
 -10  -2   2  954.98   29.26
 -10   2   1  312.81   16.57
 -10  -2   1  195.41   12.48
 -10  -2   1  199.83   12.51
 -10   2   0   10.49   12.04
 -10  -2   0   12.21    8.34
 -10  -2   0   10.46    7.90
 -10   2  -1    3.02    8.94
 -10  -2  -1    7.67    6.68
 -10   3   6  386.22   18.89
 -10  -3   6  377.53   19.00
 -10  -3   6  288.59   15.22
 -10   3   5  367.69   17.24
 -10  -3   5  420.24   17.03
 -10  -3   5  388.63   15.85
 -10   3   4  478.59   20.70
 -10  -3   4  472.52   17.52
 -10  -3   4  438.04   15.29
 -10   3   3  108.25   15.79
 -10  -3   3  100.70   12.68
 -10  -3   3  111.31   13.76
 -10   3   2    5.37    9.63
 -10  -3   2   12.77    9.19
 -10  -3   2    6.96    6.70
 -10   3   1   38.39   11.98
 -10  -3   1   57.34    9.13
 -10  -3   1   50.33    9.35
 -10   3   0  409.48   19.37
 -10  -3   0  468.54   15.47
 -10  -3   0  472.49   16.03
 -10   4   3  147.03   13.65
 -10  -4   3   73.40   11.05
 -10  -4   3   71.00   10.28
 -10   4   2  518.17   21.65
 -10  -4   2  530.89   19.14
 -10  -4   2  552.68   20.71
;
_shelx_hkl_checksum              25828
loop_
_space_group_symop_id
_space_group_symop_operation_xyz
1 +X,+Y,+Z
2 -X,1/2+Y,-Z
loop_
_atom_site_label
_atom_site_type_symbol
_atom_site_fract_x
_atom_site_fract_y
_atom_site_fract_z
_atom_site_U_iso_or_equiv
_atom_site_adp_type
_atom_site_occupancy
_atom_site_site_symmetry_order
_atom_site_calc_flag
_atom_site_refinement_flags_posn
_atom_site_refinement_flags_adp
Br1 Br 0.13197(4) 0.28012(7) -0.08948(3) 0.02268(16) Uani 1 1 d . .
O1 O 1.0204(3) 0.2528(4) 0.4164(3) 0.0214(7) Uani 1 1 d . .
O2 O 0.9977(4) 0.3574(4) 0.6031(3) 0.0245(6) Uani 1 1 d . .
C1 C 0.9116(5) 0.2061(5) 0.2978(4) 0.0177(7) Uani 1 1 d . .
H1 H 0.9555 0.1086 0.2613 0.021 Uiso 1 1 calc R U
C2 C 0.9003(5) 0.3470(5) 0.2048(4) 0.0196(8) Uani 1 1 d . .
H2A H 0.8647 0.4454 0.2438 0.024 Uiso 1 1 calc R U
H2B H 1.0091 0.3680 0.1846 0.024 Uiso 1 1 calc R U
C3 C 0.7778(5) 0.3058(5) 0.0834(4) 0.0193(8) Uani 1 1 d . .
H3A H 0.7648 0.3996 0.0252 0.023 Uiso 1 1 calc R U
H3B H 0.8201 0.2146 0.0400 0.023 Uiso 1 1 calc R U
C4 C 0.6131(4) 0.2611(6) 0.1118(3) 0.0164(7) Uani 1 1 d . .
C5 C 0.4712(4) 0.2885(6) 0.0191(3) 0.0172(6) Uani 1 1 d . .
H5 H 0.4787 0.3425 -0.0576 0.021 Uiso 1 1 calc R U
C6 C 0.3202(5) 0.2373(4) 0.0388(4) 0.0174(8) Uani 1 1 d . .
C7 C 0.3069(5) 0.1545(5) 0.1488(4) 0.0179(7) Uani 1 1 d . .
H7 H 0.2039 0.1149 0.1599 0.022 Uiso 1 1 calc R U
C8 C 0.4460(5) 0.1304(4) 0.2421(4) 0.0170(7) Uani 1 1 d . .
H8 H 0.4368 0.0753 0.3180 0.020 Uiso 1 1 calc R U
C9 C 0.6005(5) 0.1856(5) 0.2270(4) 0.0153(7) Uani 1 1 d . .
C10 C 0.7474(4) 0.1665(4) 0.3345(3) 0.0142(7) Uani 1 1 d . .
H10 H 0.7511 0.0529 0.3659 0.017 Uiso 1 1 calc R U
C11 C 0.7493(4) 0.2820(6) 0.4492(3) 0.0143(6) Uani 1 1 d . .
H11 H 0.7031 0.3882 0.4155 0.017 Uiso 1 1 calc R U
C12 C 0.9329(4) 0.3033(5) 0.5016(4) 0.0175(8) Uani 1 1 d . .
C13 C 0.6577(5) 0.2261(5) 0.5490(4) 0.0156(7) Uani 1 1 d . .
C14 C 0.7292(5) 0.1272(5) 0.6488(4) 0.0184(7) Uani 1 1 d . .
H14 H 0.8391 0.0928 0.6551 0.022 Uiso 1 1 calc R U
C15 C 0.6428(6) 0.0777(5) 0.7396(4) 0.0212(8) Uani 1 1 d . .
H15 H 0.6938 0.0110 0.8082 0.025 Uiso 1 1 calc R U
C16 C 0.4807(5) 0.1260(5) 0.7298(4) 0.0207(8) Uani 1 1 d . .
H16 H 0.4208 0.0913 0.7915 0.025 Uiso 1 1 calc R U
C17 C 0.4070(5) 0.2240(5) 0.6309(4) 0.0206(8) Uani 1 1 d . .
H17 H 0.2961 0.2556 0.6242 0.025 Uiso 1 1 calc R U
C18 C 0.4950(4) 0.2771(6) 0.5404(3) 0.0169(6) Uani 1 1 d . .
H18 H 0.4452 0.3470 0.4736 0.020 Uiso 1 1 calc R U
loop_
_atom_site_aniso_label
_atom_site_aniso_U_11
_atom_site_aniso_U_22
_atom_site_aniso_U_33
_atom_site_aniso_U_23
_atom_site_aniso_U_13
_atom_site_aniso_U_12
Br1 0.0208(2) 0.0283(2) 0.0170(2) -0.00122(18) -0.00101(13) 0.00413(18)
O1 0.0148(11) 0.0283(18) 0.0201(12) 0.0010(12) 0.0010(9) -0.0002(11)
O2 0.0245(15) 0.0263(15) 0.0201(15) -0.0027(12) -0.0019(12) -0.0068(12)
C1 0.0177(18) 0.0197(17) 0.0164(18) -0.0012(15) 0.0053(14) -0.0008(15)
C2 0.0175(18) 0.0206(17) 0.022(2) 0.0017(15) 0.0072(15) -0.0011(15)
C3 0.0203(16) 0.022(2) 0.0164(15) 0.0031(14) 0.0056(13) -0.0007(15)
C4 0.0181(15) 0.0190(19) 0.0126(14) -0.0010(15) 0.0039(11) -0.0017(16)
C5 0.0205(15) 0.0181(15) 0.0128(13) 0.0010(18) 0.0030(11) 0.0018(18)
C6 0.0201(18) 0.018(2) 0.0135(15) -0.0046(12) 0.0028(13) 0.0033(13)
C7 0.0170(17) 0.0173(18) 0.0208(18) -0.0044(14) 0.0069(15) -0.0012(14)
C8 0.0217(19) 0.0145(16) 0.0160(17) -0.0006(13) 0.0063(14) -0.0006(14)
C9 0.0167(17) 0.0162(18) 0.0134(17) 0.0002(13) 0.0035(14) 0.0021(14)
C10 0.0149(16) 0.0153(16) 0.0123(15) -0.0001(13) 0.0027(13) 0.0019(13)
C11 0.0160(14) 0.0134(13) 0.0128(12) -0.0006(19) 0.0011(11) -0.0020(19)
C12 0.0162(15) 0.017(2) 0.0188(16) 0.0032(14) 0.0018(12) -0.0017(14)
C13 0.0168(17) 0.0139(15) 0.0156(16) -0.0009(13) 0.0020(13) -0.0008(13)
C14 0.0186(18) 0.0172(17) 0.0193(18) 0.0003(14) 0.0036(15) 0.0021(14)
C15 0.028(2) 0.0178(18) 0.0171(17) 0.0024(14) 0.0037(16) -0.0001(16)
C16 0.026(2) 0.0186(17) 0.0194(19) -0.0049(15) 0.0098(16) -0.0052(15)
C17 0.0204(19) 0.0220(18) 0.0207(19) -0.0057(15) 0.0070(16) -0.0028(14)
C18 0.0175(14) 0.0176(14) 0.0153(13) -0.0001(19) 0.0023(11) -0.001(2)
loop_
_atom_type_symbol
_atom_type_description
_atom_type_scat_dispersion_real
_atom_type_scat_dispersion_imag
_atom_type_scat_source
C C 0.0033 0.0016
;
International Tables for Crystallography
(Vol. C, Tables 4.2.6.8 and 6.1.1.4)
;
H H 0.0000 0.0000
;
International Tables for Crystallography
(Vol. C, Table 6.1.1.4)
;
Br Br -0.2901 2.4595
;
International Tables for Crystallography
(Vol. C, Tables 4.2.6.8 and 6.1.1.4)
;
O O 0.0106 0.0060
;
International Tables for Crystallography
(Vol. C, Tables 4.2.6.8 and 6.1.1.4)
;
loop_
_geom_angle_atom_site_label_1
_geom_angle_atom_site_label_2
_geom_angle_atom_site_label_3
_geom_angle
C12 O1 C1 110.3(3)
O1 C1 C2 108.2(3)
O1 C1 C10 105.3(3)
C2 C1 C10 113.0(3)
O1 C1 H1 110.1
C2 C1 H1 110.1
C10 C1 H1 110.1
C3 C2 C1 109.2(3)
C3 C2 H2A 109.8
C1 C2 H2A 109.8
C3 C2 H2B 109.8
C1 C2 H2B 109.8
H2A C2 H2B 108.3
C4 C3 C2 111.3(3)
C4 C3 H3A 109.4
C2 C3 H3A 109.4
C4 C3 H3B 109.4
C2 C3 H3B 109.4
H3A C3 H3B 108.0
C5 C4 C9 119.5(3)
C5 C4 C3 119.3(3)
C9 C4 C3 121.2(3)
C6 C5 C4 120.4(3)
C6 C5 H5 119.8
C4 C5 H5 119.8
C5 C6 C7 120.8(4)
C5 C6 Br1 118.5(3)
C7 C6 Br1 120.8(3)
C8 C7 C6 119.1(4)
C8 C7 H7 120.4
C6 C7 H7 120.4
C7 C8 C9 121.5(4)
C7 C8 H8 119.2
C9 C8 H8 119.2
C8 C9 C4 118.5(3)
C8 C9 C10 119.9(3)
C4 C9 C10 121.5(3)
C9 C10 C1 114.2(3)
C9 C10 C11 114.5(3)
C1 C10 C11 101.7(3)
C9 C10 H10 108.7
C1 C10 H10 108.7
C11 C10 H10 108.7
C13 C11 C12 112.8(3)
C13 C11 C10 116.5(3)
C12 C11 C10 102.2(3)
C13 C11 H11 108.3
C12 C11 H11 108.3
C10 C11 H11 108.3
O2 C12 O1 121.7(4)
O2 C12 C11 127.6(3)
O1 C12 C11 110.7(3)
C14 C13 C18 119.2(4)
C14 C13 C11 122.0(4)
C18 C13 C11 118.8(4)
C15 C14 C13 121.0(4)
C15 C14 H14 119.5
C13 C14 H14 119.5
C14 C15 C16 119.7(4)
C14 C15 H15 120.1
C16 C15 H15 120.1
C17 C16 C15 120.2(4)
C17 C16 H16 119.9
C15 C16 H16 119.9
C16 C17 C18 120.2(4)
C16 C17 H17 119.9
C18 C17 H17 119.9
C17 C18 C13 119.6(4)
C17 C18 H18 120.2
C13 C18 H18 120.2
loop_
_geom_bond_atom_site_label_1
_geom_bond_atom_site_label_2
_geom_bond_distance
Br1 C6 1.901(4)
O1 C12 1.346(5)
O1 C1 1.458(4)
O2 C12 1.201(5)
C1 C2 1.527(6)
C1 C10 1.534(5)
C1 H1 1.0000
C2 C3 1.523(5)
C2 H2A 0.9900
C2 H2B 0.9900
C3 C4 1.512(5)
C3 H3A 0.9900
C3 H3B 0.9900
C4 C5 1.402(5)
C4 C9 1.408(5)
C5 C6 1.385(5)
C5 H5 0.9500
C6 C7 1.388(5)
C7 C8 1.386(6)
C7 H7 0.9500
C8 C9 1.407(5)
C8 H8 0.9500
C9 C10 1.512(5)
C10 C11 1.557(5)
C10 H10 1.0000
C11 C13 1.507(5)
C11 C12 1.531(5)
C11 H11 1.0000
C13 C14 1.385(6)
C13 C18 1.407(5)
C14 C15 1.385(6)
C14 H14 0.9500
C15 C16 1.394(6)
C15 H15 0.9500
C16 C17 1.379(6)
C16 H16 0.9500
C17 C18 1.401(5)
C17 H17 0.9500
C18 H18 0.9500
loop_
_geom_torsion_atom_site_label_1
_geom_torsion_atom_site_label_2
_geom_torsion_atom_site_label_3
_geom_torsion_atom_site_label_4
_geom_torsion
C12 O1 C1 C2 98.1(3)
C12 O1 C1 C10 -22.9(4)
O1 C1 C2 C3 -176.0(3)
C10 C1 C2 C3 -59.8(4)
C1 C2 C3 C4 55.4(4)
C2 C3 C4 C5 151.9(4)
C2 C3 C4 C9 -31.2(5)
C9 C4 C5 C6 -2.0(6)
C3 C4 C5 C6 175.0(4)
C4 C5 C6 C7 -1.7(6)
C4 C5 C6 Br1 179.3(3)
C5 C6 C7 C8 3.2(6)
Br1 C6 C7 C8 -177.8(3)
C6 C7 C8 C9 -1.0(6)
C7 C8 C9 C4 -2.6(6)
C7 C8 C9 C10 176.0(3)
C5 C4 C9 C8 4.0(6)
C3 C4 C9 C8 -172.9(4)
C5 C4 C9 C10 -174.5(4)
C3 C4 C9 C10 8.6(6)
C8 C9 C10 C1 170.5(3)
C4 C9 C10 C1 -11.0(5)
C8 C9 C10 C11 -72.7(5)
C4 C9 C10 C11 105.8(4)
O1 C1 C10 C9 154.7(3)
C2 C1 C10 C9 36.8(5)
O1 C1 C10 C11 30.7(4)
C2 C1 C10 C11 -87.1(4)
C9 C10 C11 C13 85.7(4)
C1 C10 C11 C13 -150.5(3)
C9 C10 C11 C12 -150.9(3)
C1 C10 C11 C12 -27.1(4)
C1 O1 C12 O2 -175.1(4)
C1 O1 C12 C11 4.5(4)
C13 C11 C12 O2 -39.3(6)
C10 C11 C12 O2 -165.2(4)
C13 C11 C12 O1 141.0(4)
C10 C11 C12 O1 15.2(4)
C12 C11 C13 C14 -32.0(5)
C10 C11 C13 C14 85.8(4)
C12 C11 C13 C18 147.7(4)
C10 C11 C13 C18 -94.6(5)
C18 C13 C14 C15 0.2(6)
C11 C13 C14 C15 179.8(4)
C13 C14 C15 C16 0.9(6)
C14 C15 C16 C17 -0.6(6)
C15 C16 C17 C18 -0.7(6)
C16 C17 C18 C13 1.8(6)
C14 C13 C18 C17 -1.5(6)
C11 C13 C18 C17 178.8(4)
