#------------------------------------------------------------------------------
#$Date: 2019-10-31 01:42:48 +0200 (Thu, 31 Oct 2019) $
#$Revision: 220555 $
#$URL: file:///home/coder/svn-repositories/cod/cif/4/12/73/4127327.cif $
#------------------------------------------------------------------------------
#
# This file is available in the Crystallography Open Database (COD),
# http://www.crystallography.net/
#
# All data on this site have been placed in the public domain by the
# contributors.
#
data_4127327
loop_
_publ_author_name
'Reiers\/olmoen, Ann Christin'
'Cs\'ok\'as, D\'aniel'
'P\'apai, Imre'
'Fiksdahl, Anne'
'Erd\'elyi, M\'at\'e'
_publ_section_title
;
 Mechanism of Au(III)-Mediated Alkoxycyclization of a 1,6-Enyne.
;
_journal_name_full               'Journal of the American Chemical Society'
_journal_paper_doi               10.1021/jacs.9b09108
_journal_year                    2019
_chemical_formula_sum            'C12 H16 Au Cl2 N3 O4'
_chemical_formula_weight         534.14
_space_group_crystal_system      monoclinic
_space_group_IT_number           4
_space_group_name_Hall           'P 2yb'
_space_group_name_H-M_alt        'P 1 21 1'
_symmetry_space_group_name_Hall  'P 2yb'
_symmetry_space_group_name_H-M   'P 1 21 1'
_atom_sites_solution_hydrogens   geom
_audit_creation_method           SHELXL-2017/1
_audit_update_record
;
2019-07-05 deposited with the CCDC.    2019-07-16 downloaded from the CCDC.
;
_cell_angle_alpha                90
_cell_angle_beta                 112.840(4)
_cell_angle_gamma                90
_cell_formula_units_Z            2
_cell_length_a                   8.6725(16)
_cell_length_b                   9.1766(16)
_cell_length_c                   10.8550(18)
_cell_measurement_reflns_used    995
_cell_measurement_temperature    100(2)
_cell_measurement_theta_max      32.10
_cell_measurement_theta_min      3.37
_cell_volume                     796.1(2)
_computing_cell_refinement       'Bruker SAINT'
_computing_data_collection       'Bruker APEX2'
_computing_data_reduction        'Bruker SAINT'
_computing_structure_refinement  'SHELXL-2017/1 (Sheldrick, 2017)'
_diffrn_ambient_temperature      100(2)
_diffrn_detector                 'Bruker Photon 100 area detector'
_diffrn_detector_area_resol_mean 10.42
_diffrn_detector_type            'CMOS area detector'
_diffrn_measured_fraction_theta_full 0.998
_diffrn_measured_fraction_theta_max 0.998
_diffrn_measurement_device       'three-circle diffractometer'
_diffrn_measurement_device_type  'Bruker Photon 100 area detector'
_diffrn_measurement_method       '\w and \f shutterless scans'
_diffrn_radiation_type           MoK\a
_diffrn_radiation_wavelength     0.71073
_diffrn_reflns_av_R_equivalents  0.0466
_diffrn_reflns_av_unetI/netI     0.0551
_diffrn_reflns_Laue_measured_fraction_full 0.998
_diffrn_reflns_Laue_measured_fraction_max 0.998
_diffrn_reflns_limit_h_max       12
_diffrn_reflns_limit_h_min       -12
_diffrn_reflns_limit_k_max       13
_diffrn_reflns_limit_k_min       -13
_diffrn_reflns_limit_l_max       15
_diffrn_reflns_limit_l_min       -15
_diffrn_reflns_number            14828
_diffrn_reflns_point_group_measured_fraction_full 0.999
_diffrn_reflns_point_group_measured_fraction_max 0.999
_diffrn_reflns_theta_full        26.000
_diffrn_reflns_theta_max         30.738
_diffrn_reflns_theta_min         2.548
_diffrn_source_type              'Incoatec I\ms'
_exptl_absorpt_coefficient_mu    9.594
_exptl_absorpt_correction_T_max  0.383
_exptl_absorpt_correction_T_min  0.079
_exptl_absorpt_correction_type   multi-scan
_exptl_absorpt_process_details   SADABS
_exptl_crystal_colour            bronze
_exptl_crystal_density_diffrn    2.228
_exptl_crystal_description       block
_exptl_crystal_F_000             508
_exptl_crystal_size_max          0.650
_exptl_crystal_size_mid          0.240
_exptl_crystal_size_min          0.100
_refine_diff_density_max         2.609
_refine_diff_density_min         -2.520
_refine_diff_density_rms         0.246
_refine_ls_abs_structure_details
;
 Refined as an inversion twin.
;
_refine_ls_abs_structure_Flack   0.070(10)
_refine_ls_extinction_method     none
_refine_ls_goodness_of_fit_ref   1.051
_refine_ls_hydrogen_treatment    constr
_refine_ls_matrix_type           full
_refine_ls_number_parameters     203
_refine_ls_number_reflns         4921
_refine_ls_number_restraints     1
_refine_ls_restrained_S_all      1.051
_refine_ls_R_factor_all          0.0293
_refine_ls_R_factor_gt           0.0274
_refine_ls_shift/su_max          0.000
_refine_ls_shift/su_mean         0.000
_refine_ls_structure_factor_coef Fsqd
_refine_ls_weighting_details
'w=1/[\s^2^(Fo^2^)+(0.0239P)^2^] where P=(Fo^2^+2Fc^2^)/3'
_refine_ls_weighting_scheme      calc
_refine_ls_wR_factor_gt          0.0654
_refine_ls_wR_factor_ref         0.0661
_reflns_Friedel_coverage         0.894
_reflns_Friedel_fraction_full    1.000
_reflns_Friedel_fraction_max     1.000
_reflns_number_gt                4709
_reflns_number_total             4921
_reflns_threshold_expression     'I > 2\s(I)'
_cod_data_source_file            ja9b09108_si_006.cif
_cod_data_source_block           p2(1)_test
_cod_database_code               4127327
_shelx_shelxl_version_number     2017/1
_shelx_space_group_comment
;
The symmetry employed for this shelxl refinement is uniquely defined
by the following loop, which should always be used as a source of
symmetry information in preference to the above space-group names.
They are only intended as comments.
;
_shelx_estimated_absorpt_t_min   0.062
_shelx_estimated_absorpt_t_max   0.447
_shelx_res_file
;
TITL test1_c.res in P2(1)
    p2(1)_test.res
    created by SHELXL-2017/1 at 15:59:37 on 10-Apr-2019
REM Old TITL test1 in P2(1)
REM SHELXT solution in P2(1)
REM R1 0.120, Rweak 0.028, Alpha 0.076, Orientation as input
REM Flack x = 0.170 ( 0.016 ) from Parsons' quotients
REM Formula found by SHELXT: C20 Au Cl3 N5 O4
CELL 0.71073 8.6725 9.1766 10.855 90 112.84 90
ZERR 2 0.0016 0.0016 0.0018 0 0.004 0
LATT -1
SYMM -X,0.5+Y,-Z
SFAC C H Au Cl N O
UNIT 24 32 2 4 6 8
EQIV $1 1+X,+Y,+Z
EQIV $2 -X,0.5+Y,-Z

L.S. 10
PLAN  40
SIZE 0.1 0.24 0.65
TEMP -173.16
HTAB C1 Cl1
HTAB C12 O4_$1
HTAB C7 Cl2
HTAB C2 O3_$2
BOND $H
LIST 4
MORE -1
CONF
fmap 2
acta 52
TWIN -1 0 0 0 -1 0 0 0 -1 2
REM <olex2.extras>
REM <HklSrc "%.\\p2(1)_test.hkl">
REM </olex2.extras>

WGHT    0.023900
BASF   0.06997
FVAR       0.12494
AU1   3    0.201458    0.438100    0.194361    11.00000    0.00971    0.00977 =
         0.00889   -0.00117    0.00545    0.00076
C9    1    0.292263    0.557658    0.578566    11.00000    0.00972    0.01334 =
         0.01195   -0.00099    0.00578   -0.00290
CL2   4    0.168678    0.230086    0.293394    11.00000    0.02642    0.00998 =
         0.01791    0.00094    0.01442    0.00080
CL1   4    0.252091    0.297558    0.039636    11.00000    0.02406    0.01488 =
         0.01737   -0.00374    0.01217    0.00159
N2    5    0.164403    0.575239    0.326695    11.00000    0.01875    0.00483 =
         0.00981   -0.00214    0.01252    0.00073
C8    1   -0.027367    0.578581    0.447613    11.00000    0.01215    0.01708 =
         0.01115   -0.00329    0.00643   -0.00046
AFIX  23
H8A   2   -0.053281    0.527463    0.517591    11.00000   -1.20000
H8B   2   -0.026241    0.684943    0.463200    11.00000   -1.20000
AFIX   0
C1    1    0.258190    0.645541    0.000358    11.00000    0.02361    0.01703 =
         0.01120    0.00018    0.00950    0.00252
AFIX  43
H1    2    0.280974    0.561762   -0.041174    11.00000   -1.20000
AFIX   0
C12   1    0.445476    0.483189    0.569490    11.00000    0.01256    0.02695 =
         0.01497    0.00351    0.00759    0.00379
AFIX 137
H12A  2    0.426945    0.377681    0.560767    11.00000   -1.50000
H12B  2    0.544311    0.504061    0.650574    11.00000   -1.50000
H12C  2    0.463247    0.520155    0.491318    11.00000   -1.50000
AFIX   0
N1    5    0.216879    0.630591    0.106527    11.00000    0.01090    0.01139 =
         0.01035    0.00033    0.00486    0.00228
C11   1    0.328559    0.719047    0.609889    11.00000    0.01940    0.02051 =
         0.01911   -0.00866    0.00993   -0.00830
AFIX 137
H11A  2    0.357448    0.764493    0.539968    11.00000   -1.50000
H11B  2    0.422348    0.729701    0.696427    11.00000   -1.50000
H11C  2    0.229207    0.766674    0.613406    11.00000   -1.50000
AFIX   0
O4    6   -0.342350    0.622628    0.384508    11.00000    0.01390    0.02442 =
         0.02864   -0.00545    0.01266   -0.00262
C4    1    0.185250    0.886195    0.118288    11.00000    0.01452    0.01175 =
         0.01559    0.00146    0.00765   -0.00025
AFIX  43
H4    2    0.158186    0.967748    0.159986    11.00000   -1.20000
AFIX   0
C7    1    0.138618    0.527491    0.446252    11.00000    0.00923    0.01325 =
         0.01260   -0.00160    0.00868   -0.00161
AFIX  13
H7    2    0.129560    0.418930    0.439010    11.00000   -1.20000
AFIX   0
O2    6   -0.147819    0.540801    0.314401    11.00000    0.00591    0.02485 =
         0.01444   -0.00643    0.00506    0.00019
O1    6    0.095595    0.817083    0.338460    11.00000    0.02254    0.01265 =
         0.02057   -0.00212    0.01359    0.00286
C6    1    0.139955    0.716628    0.285010    11.00000    0.01535    0.01109 =
         0.01128    0.00012    0.00986    0.00052
N3    5   -0.313482    0.570306    0.294698    11.00000    0.01088    0.01540 =
         0.02394   -0.00323    0.01066    0.00188
O3    6   -0.410001    0.538538    0.184866    11.00000    0.01261    0.04010 =
         0.02410   -0.00954    0.00113    0.00473
C5    1    0.180331    0.746318    0.164326    11.00000    0.01283    0.01135 =
         0.00978   -0.00138    0.00569    0.00055
C2    1    0.267713    0.783217   -0.048947    11.00000    0.02588    0.01601 =
         0.01367   -0.00065    0.01312   -0.00084
AFIX  43
H2    2    0.299590    0.794308   -0.122849    11.00000   -1.20000
AFIX   0
C3    1    0.230305    0.904681    0.010529    11.00000    0.02410    0.01467 =
         0.01615    0.00119    0.00977   -0.00040
AFIX  43
H3    2    0.235664    0.999555   -0.022608    11.00000   -1.20000
AFIX   0
C10   1    0.257218    0.488949    0.693791    11.00000    0.01739    0.02500 =
         0.00936   -0.00168    0.00721   -0.00193
AFIX 137
H10A  2    0.215362    0.389472    0.669466    11.00000   -1.50000
H10B  2    0.173127    0.547039    0.711365    11.00000   -1.50000
H10C  2    0.360758    0.486408    0.774213    11.00000   -1.50000
AFIX   0
HKLF 4




REM  test1_c.res in P2(1)
REM R1 =  0.0274 for    4709 Fo > 4sig(Fo)  and  0.0293 for all    4921 data
REM    203 parameters refined using      1 restraints

END

WGHT      0.0239      0.0000

REM Highest difference peak  2.609,  deepest hole -2.520,  1-sigma level  0.246
Q1    1   0.2522  0.4393  0.2696  11.00000  0.05    2.61
Q2    1   0.1509  0.4406  0.1199  11.00000  0.05    2.60
Q3    1   0.2046  0.3531  0.1924  11.00000  0.05    1.71
Q4    1   0.2042  0.5257  0.1933  11.00000  0.05    1.67
Q5    1   0.1518  0.5033  0.2721  11.00000  0.05    1.37
Q6    1   0.1508  0.3756  0.2728  11.00000  0.05    1.27
Q7    1  -0.0055  0.9398  0.0355  11.00000  0.05    1.18
Q8    1   0.2633  0.3661  0.1283  11.00000  0.05    0.91
Q9    1   0.0605  0.4957  0.1195  11.00000  0.05    0.82
Q10   1   0.3457  0.3844  0.2637  11.00000  0.05    0.74
Q11   1   0.2437  0.5096  0.1131  11.00000  0.05    0.74
Q12   1   0.1028  0.4413  0.1660  11.00000  0.05    0.73
Q13   1   0.0435  0.2854  0.1927  11.00000  0.05    0.70
Q14   1  -0.0073  0.3376  0.1058  11.00000  0.05    0.69
Q15   1   0.0414  0.4398  0.2281  11.00000  0.05    0.68
Q16   1   0.0634  0.3827  0.1204  11.00000  0.05    0.68
Q17   1   0.4026  0.5512  0.3069  11.00000  0.05    0.66
Q18   1   0.0572  1.0065 -0.1838  11.00000  0.05    0.66
Q19   1   0.0362  0.5885  0.1882  11.00000  0.05    0.64
Q20   1   0.0120  1.0336 -0.1010  11.00000  0.05    0.64
Q21   1   0.0555  0.8844 -0.1827  11.00000  0.05    0.63
Q22   1  -0.4410  0.5431  0.1011  11.00000  0.05    0.63
Q23   1  -0.4670  0.3842  0.1858  11.00000  0.05    0.63
Q24   1  -0.4635  0.4760  0.2025  11.00000  0.05    0.62
Q25   1   0.0716  0.2266  0.2222  11.00000  0.05    0.61
Q26   1   0.0262  0.8802 -0.0233  11.00000  0.05    0.60
Q27   1   0.4984  0.8759  0.6371  11.00000  0.05    0.60
Q28   1  -0.4732  0.5433  0.0130  11.00000  0.05    0.59
Q29   1   0.4760  0.8138 -0.0129  11.00000  0.05    0.59
Q30   1   0.0269  0.7309  0.5611  11.00000  0.05    0.58
Q31   1   0.5344  0.8573  0.8015  11.00000  0.05    0.58
Q32   1   0.0293  1.0061 -0.0139  11.00000  0.05    0.58
Q33   1   0.0121  0.7643  0.0164  11.00000  0.05    0.58
Q34   1  -0.0253  0.4523  0.3859  11.00000  0.05    0.57
Q35   1  -0.0152  0.4552  0.5316  11.00000  0.05    0.57
Q36   1   0.0669  0.7510  0.4108  11.00000  0.05    0.57
Q37   1   0.5073  0.4879  0.3534  11.00000  0.05    0.56
Q38   1  -0.4599  0.4369  0.0481  11.00000  0.05    0.56
Q39   1   0.4904  0.5939  0.6224  11.00000  0.05    0.56
Q40   1  -0.1495  0.4382  0.3237  11.00000  0.05    0.55
;
_shelx_res_checksum              1316
_shelx_hkl_file
;
   1   0   0   85.65    6.39
  -2   0   0  315.02   23.25
  -3   0   0  357.56   25.90
   3   0   0  343.38   25.90
   3   0   0  355.32   25.87
   4   0   0   28.51    2.30
  -4   0   0   29.72    2.31
   4   0   0   30.97    2.27
  -5   0   0  215.76   16.16
   5   0   0  219.61   16.17
   5   0   0  220.03   16.12
   6   0   0   15.86    1.38
  -6   0   0   10.95    1.46
   7   0   0   43.57    3.25
   7   0   0   43.66    3.34
  -7   0   0   37.01    3.45
   8   0   0   52.38    4.05
  -8   0   0   51.08    4.28
   8   0   0   51.75    4.14
   9   0   0    5.75    1.02
  -9   0   0    6.48    1.44
   9   0   0    6.17    1.17
  10   0   0   28.20    2.77
  10   0   0   28.51    2.85
 -10   0   0   35.28    3.11
  11   0   0    0.18    2.13
  11   0   0    0.56    1.03
 -11   0   0    1.59    1.15
   0  -1   0    0.07    0.04
   0  -1   0    0.00    0.04
   1  -1   0  322.43   23.49
   1  -1   0  326.89   23.50
  -1  -1   0  314.51   23.50
  -1  -1   0  285.51   23.52
   1  -1   0  300.10   23.53
  -1   1   0  327.84   23.54
   1   1   0  337.05   23.51
  -1   1   0  343.84   23.50
  -1   1   0  341.51   23.49
   1   1   0  300.83   23.52
   2  -1   0  108.01    8.28
   2  -1   0  103.05    8.30
  -2  -1   0  108.90    8.31
  -2  -1   0  106.41    8.28
   2  -1   0  107.22    8.44
   2  -1   0  111.38    8.30
  -2  -1   0  117.32    8.33
  -2   1   0  123.20    8.30
   2   1   0  116.05    8.32
   2   1   0   96.24    8.34
  -2   1   0  121.90    8.30
  -2   1   0  120.69    8.28
   2   1   0  122.23    8.28
   3  -1   0  199.44   14.24
  -3  -1   0  189.62   14.24
   3  -1   0  193.84   14.22
   3  -1   0  180.21   14.18
  -3  -1   0  183.53   14.19
   3   1   0  196.07   14.19
  -3   1   0  205.84   14.23
   3   1   0  190.55   14.24
  -3   1   0  197.41   14.18
   4  -1   0  241.81   17.37
   4  -1   0  242.54   17.38
  -4  -1   0  235.12   17.40
   4  -1   0  216.60   17.31
  -4   1   0  233.88   17.32
   4   1   0  240.60   17.35
  -4   1   0  246.99   17.39
   4   1   0  227.83   17.40
   5  -1   0    7.38    0.72
   5  -1   0    7.50    0.72
   5   1   0    6.87    0.66
  -5   1   0    5.01    1.00
   5   1   0    6.28    0.75
  -5   1   0    7.48    0.75
   6  -1   0  119.67    8.49
   6  -1   0  123.07    8.52
  -6   1   0  117.97    8.51
   6   1   0  106.57    8.54
   6   1   0  113.86    8.45
  -6   1   0  100.58    8.66
   7  -1   0   26.04    2.09
   7  -1   0   27.87    2.14
   7   1   0   23.34    2.04
   7   1   0   23.04    2.19
  -7   1   0   24.59    2.33
   8  -1   0   31.91    3.02
   8  -1   0   35.61    3.01
  -8   1   0   38.94    3.20
   8   1   0   36.36    3.06
   8   1   0   38.43    2.92
   9  -1   0   41.09    3.66
   9  -1   0   43.08    3.63
  -9  -1   0   39.27    3.97
  -9   1   0   51.52    3.86
   9   1   0   48.68    3.60
   9   1   0   43.32    3.73
  10  -1   0    0.46    0.80
  10  -1   0   -0.55    0.77
 -10  -1   0   -0.18    1.01
  10   1   0    0.28    0.82
 -10   1   0    0.33    0.81
  10   1   0   -0.27    0.73
  11  -1   0   30.95    3.10
 -11  -1   0   35.65    3.52
  11   1   0   27.83    3.86
 -11   1   0   38.92    3.29
  11   1   0   27.36    3.20
   0  -2   0  163.93   12.77
   0  -2   0  147.02   12.73
   0  -2   0  163.51   12.74
   0   2   0  173.09   12.73
   0   2   0  185.58   12.78
   0   2   0  191.31   12.78
   0   2   0  189.12   12.75
   1  -2   0   19.49    1.53
  -1  -2   0   20.13    1.47
   1  -2   0   18.97    1.45
  -1  -2   0   20.72    1.50
   1   2   0   16.87    1.43
   2  -2   0  116.16    7.97
  -2  -2   0  108.66    8.04
   2  -2   0  124.13    7.95
  -2   2   0  101.93    7.94
  -2   2   0   96.95    8.03
   2   2   0   99.02    7.98
  -3  -2   0  161.90   12.01
  -3  -2   0  144.77   12.24
   3  -2   0  174.89   12.06
   3  -2   0  174.43   12.02
   3   2   0  163.47   12.01
   3   2   0  159.83   12.09
  -4  -2   0   35.16    3.24
   4  -2   0   44.55    2.99
   4  -2   0   43.05    3.04
  -4   2   0   39.88    3.04
   4   2   0   37.34    3.08
   4   2   0   39.03    2.99
   5  -2   0  159.24   12.46
   5   2   0  178.07   12.49
   5   2   0  170.11   12.61
  -6   2   0    5.74    1.27
  -6   2   0    8.19    0.87
   6   2   0    7.55    0.73
   6   2   0    6.44    0.94
   7  -2   0   83.72    5.93
  -7  -2   0   68.70    6.28
   7  -2   0   80.33    5.79
   7  -2   0   83.09    6.16
   7   2   0   72.69    5.99
  -7   2   0   80.07    5.96
  -7   2   0   75.79    6.14
   8  -2   0   46.81    3.80
  -8  -2   0   37.98    5.04
   8  -2   0   47.70    3.83
   8   2   0   47.32    3.91
  -8   2   0   53.20    4.06
   8   2   0   50.38    3.79
   9  -2   0   16.76    1.79
   9  -2   0   17.23    1.83
   9   2   0   15.30    1.93
   9   2   0   15.54    1.67
  -9   2   0   19.16    2.01
  10  -2   0   54.66    4.44
  10  -2   0   56.86    4.59
 -10  -2   0   57.34    4.97
  10   2   0   53.11    4.34
  10   2   0   48.53    4.74
 -11  -2   0    5.13    1.69
  11  -2   0    3.96    1.16
 -11   2   0    5.25    1.16
   0  -3   0    0.19    0.13
   0  -3   0    0.01    0.10
   0  -3   0    0.08    0.08
   0  -3   0    0.35    0.09
   0   3   0    0.07    0.14
   0   3   0    0.05    0.13
   0   3   0    0.17    0.09
   1  -3   0  190.34   13.70
  -1  -3   0  187.44   13.69
  -1  -3   0  178.74   13.75
   1  -3   0  164.25   13.69
  -1   3   0  191.57   13.76
   1   3   0  203.35   13.69
  -1   3   0  194.93   13.71
   1   3   0  178.55   13.72
   2  -3   0   30.88    2.19
   2  -3   0   27.00    2.20
  -2  -3   0   30.09    2.16
  -2  -3   0   28.01    2.28
  -3  -3   0   14.91    1.40
   3  -3   0   17.38    1.24
   3  -3   0   16.75    1.27
   3   3   0   15.29    1.30
  -3   3   0   14.19    1.41
   4  -3   0   88.71    6.49
   4  -3   0   85.33    6.53
   4   3   0   97.04    6.47
   4   3   0   94.35    6.65
  -4   3   0   71.89    6.69
   5  -3   0    2.56    0.44
   5  -3   0    2.46    0.34
  -5  -3   0    1.41    0.71
   5   3   0    2.05    0.36
   5   3   0    1.72    0.45
  -5   3   0    1.31    0.78
   6  -3   0  100.34    7.46
   6  -3   0  101.53    7.36
  -6  -3   0   93.90    7.87
   6   3   0   97.42    7.53
   6   3   0  102.40    7.37
   7  -3   0   39.46    3.20
   7  -3   0   40.66    3.37
  -7  -3   0   37.59    3.90
  -7   3   0   42.64    3.71
   7   3   0   47.00    3.25
   7   3   0   45.07    3.48
  -8  -3   0   37.55    3.90
   8  -3   0   40.78    3.31
   8  -3   0   38.14    3.07
   8   3   0   39.54    3.41
  -8   3   0   44.89    3.63
   8   3   0   40.96    3.16
   9  -3   0   62.47    4.93
   9  -3   0   58.49    4.85
  -9  -3   0   49.99    5.55
   9   3   0   64.02    4.77
   9   3   0   62.08    5.05
  -9   3   0   71.37    5.15
 -10  -3   0    4.20    1.62
  10  -3   0    3.95    1.07
  10   3   0    3.13    1.18
 -10   3   0    5.78    1.17
  11  -3   0   39.05    4.05
 -11  -3   0   40.04    4.24
  11   3   0   35.02    3.67
   0  -4   0   95.77    6.84
   0  -4   0   82.86    6.74
   0  -4   0   95.52    6.76
   1  -4   0   13.15    1.15
  -1  -4   0   14.63    1.14
   1  -4   0   16.71    1.20
   1   4   0   14.91    1.20
  -2  -4   0  101.80    8.17
   2  -4   0  111.61    8.08
   2  -4   0  103.66    8.11
  -2  -4   0  108.53    8.05
   2   4   0  113.30    8.13
  -2   4   0  116.12    8.18
  -3  -4   0  153.93   11.89
  -3  -4   0  147.19   12.07
   3  -4   0  145.29   11.95
   3  -4   0  163.83   11.94
   3   4   0  169.91   11.91
  -3   4   0  174.62   12.09
   3   4   0  177.16   12.02
  -4  -4   0   15.79    1.69
   4  -4   0   17.80    1.27
   4   4   0   12.77    1.43
   5  -4   0  180.02   13.13
   5  -4   0  177.94   13.20
  -5  -4   0  182.40   13.94
   5   4   0  171.20   13.25
   6  -4   0   16.99    1.67
   6  -4   0   18.26    1.53
  -6  -4   0   18.85    2.28
   6   4   0   20.33    1.79
   6   4   0   19.23    1.48
   7  -4   0   98.39    6.93
  -7  -4   0   94.17    7.63
   7  -4   0  100.71    7.07
   7   4   0   85.83    6.90
   7   4   0   85.23    7.13
   8  -4   0   57.80    4.38
  -8  -4   0   52.41    5.06
   8  -4   0   53.77    4.16
  -8   4   0   56.97    4.73
   8   4   0   54.31    4.48
   8   4   0   52.68    4.20
   9  -4   0   12.39    2.37
  -9  -4   0   13.87    2.69
  -9   4   0   14.54    2.47
  10  -4   0   49.13    4.10
 -10  -4   0   49.06    4.87
 -10   4   0   51.30    4.26
  10   4   0   40.72    4.18
   0  -5   0    0.07    0.15
   1  -5   0  189.25   15.36
  -1  -5   0  205.68   15.36
   1  -5   0  205.06   15.38
  -1  -5   0  198.85   15.47
   1   5   0  222.28   15.42
  -1   5   0  230.70   15.49
  -2  -5   0  109.73    8.04
  -2  -5   0  107.08    8.11
   2  -5   0  114.63    8.00
   2  -5   0  106.18    8.00
   2   5   0  103.28    8.05
  -2   5   0  105.80    8.10
  -3  -5   0   42.81    3.27
   3  -5   0   44.86    3.33
   3  -5   0   40.65    3.34
  -3   5   0   47.71    3.74
   4  -5   0  167.06   12.79
   4  -5   0  184.59   12.76
  -4  -5   0  166.70   13.00
  -4   5   0  172.03   12.97
   4   5   0  171.90   12.86
   5  -5   0    3.99    0.58
  -5  -5   0    3.24    0.97
   5  -5   0    3.92    0.73
   5   5   0    4.55    0.89
  -5   5   0    3.94    1.01
   6  -5   0  105.13    7.30
   6  -5   0  101.48    7.39
  -6  -5   0   92.35    7.83
  -6   5   0   82.56    7.67
   6   5   0  105.77    7.50
   7  -5   0   26.89    2.04
  -7  -5   0   25.75    3.06
   7  -5   0   26.60    2.26
   7   5   0   24.17    2.40
  -7   5   0   20.33    2.83
   8  -5   0   20.10    1.79
   8  -5   0   21.88    2.16
  -8  -5   0   21.75    3.12
   8   5   0   21.15    2.76
  -8   5   0   21.04    2.74
  -9  -5   0   61.86    5.59
   9  -5   0   61.17    4.63
   9   5   0   48.80    4.71
  -9   5   0   53.80    4.89
  10  -5   0    0.69    1.10
 -10  -5   0    1.25    1.85
 -10   5   0    3.69    1.26
  10   5   0    2.57    1.32
   0  -6   0  204.27   15.33
   0  -6   0  211.06   15.35
   0   6   0  208.79   15.38
   1  -6   0   20.05    1.49
  -1  -6   0   20.27    1.47
  -1  -6   0   19.51    1.77
   1  -6   0   18.60    1.56
   1   6   0   17.11    1.55
   1   6   0   15.18    1.77
  -2  -6   0  152.92   11.23
  -2  -6   0  145.35   11.40
   2  -6   0  155.02   11.27
   2  -6   0  150.48   11.27
   2   6   0  153.84   11.34
  -2   6   0  155.61   11.41
  -3  -6   0   75.63    5.93
   3  -6   0   82.33    5.75
   3  -6   0   81.30    5.77
  -3  -6   0   82.59    5.69
  -3   6   0   68.16    5.89
   3   6   0   69.38    5.83
   4  -6   0   46.53    3.58
   4  -6   0   43.71    3.62
  -4  -6   0   40.73    3.82
  -4  -6   0   43.99    3.52
  -4   6   0   53.36    3.90
   4   6   0   53.16    3.77
  -5  -6   0  114.88    8.74
   5  -6   0  116.95    8.41
   5  -6   0  120.19    8.34
  -5   6   0  100.16    8.63
   5   6   0  106.10    8.48
   6  -6   0   33.31    2.66
  -6  -6   0   28.14    3.20
   6  -6   0   31.30    2.48
   7  -6   0   66.40    4.98
   7  -6   0   66.79    5.22
  -7  -6   0   62.28    5.84
  -7   6   0   58.22    5.60
   7   6   0   71.87    5.29
   8  -6   0   40.71    3.04
  -8  -6   0   40.79    4.49
   8  -6   0   39.10    3.36
   8   6   0   31.55    3.55
   9  -6   0    9.92    1.42
  -9  -6   0    7.48    2.44
   9  -6   0   10.49    1.55
  -9   6   0   13.91    2.48
   9   6   0   13.08    2.18
  10  -6   0   39.19    3.64
 -10  -6   0   42.16    5.06
 -10   6   0   40.28    3.91
  10   6   0   32.73    3.90
   0  -7   0    0.41    0.27
   0  -7   0    0.64    0.47
   0   7   0    0.69    0.42
   0   7   0    0.26    0.51
  -1  -7   0  122.61    9.26
   1  -7   0  119.43    9.27
  -1  -7   0  121.77    9.22
  -1  -7   0  114.64    9.41
   1  -7   0  120.64    9.27
   1   7   0  126.46    9.45
   1   7   0  143.51    9.37
  -1   7   0  130.40    9.45
  -2  -7   0   29.29    2.51
   2  -7   0   30.90    2.42
  -2  -7   0   28.93    2.60
   2   7   0   32.17    2.58
  -2   7   0   32.35    2.66
   3  -7   0   55.84    4.42
  -3  -7   0   51.53    4.59
  -3  -7   0   55.54    4.32
   3  -7   0   56.02    4.39
  -3   7   0   62.36    4.63
   3   7   0   65.54    4.56
  -4  -7   0   79.65    6.98
   4  -7   0   83.67    6.76
   4  -7   0   84.19    6.71
  -4  -7   0   85.95    6.63
   4   7   0  101.78    6.92
  -4   7   0  102.68    7.05
   5  -7   0    3.72    0.72
  -5  -7   0    3.42    1.04
   5  -7   0    3.64    0.60
  -5   7   0    5.33    1.23
   5   7   0    4.84    0.96
   6  -7   0   68.60    5.48
  -6  -7   0   68.28    6.02
   6  -7   0   68.51    5.36
   6   7   0   76.40    5.67
  -6   7   0   70.62    5.92
   7  -7   0   11.73    1.24
  -7  -7   0    8.87    2.06
   7  -7   0   11.52    1.62
   7   7   0   12.68    1.93
  -7   7   0    9.67    1.96
  -8  -7   0   21.17    3.89
   8  -7   0   25.21    2.13
   8  -7   0   27.10    2.52
   8   7   0   24.92    2.78
  -8   7   0   19.32    3.22
   9  -7   0   33.90    3.09
   9  -7   0   28.01    2.69
  -9  -7   0   31.81    4.65
   9   7   0   33.67    3.44
  -9   7   0   28.81    3.64
   0  -8   0  119.32    9.18
   0  -8   0  121.81    9.01
   0  -8   0  122.20    8.99
   0   8   0  128.82    9.08
   0   8   0  112.65    9.19
   1  -8   0   12.48    1.25
  -1  -8   0   14.09    1.53
   1  -8   0   12.44    1.25
  -1  -8   0   14.01    1.23
   1   8   0   16.24    1.56
   1   8   0   13.97    1.61
  -1   8   0   15.38    1.63
   2  -8   0   73.56    5.26
  -2  -8   0   67.68    5.45
   2  -8   0   71.54    5.24
  -2  -8   0   71.58    5.19
   2   8   0   58.85    5.45
   2   8   0   73.18    5.47
  -2   8   0   67.31    5.46
  -3  -8   0   40.64    3.14
  -3  -8   0   38.65    3.48
   3  -8   0   38.35    3.21
   3  -8   0   39.39    3.25
  -3   8   0   44.39    3.57
   3   8   0   46.04    3.50
  -4  -8   0   19.08    1.49
  -4  -8   0   18.98    2.09
   4  -8   0   18.65    1.64
   4  -8   0   18.93    1.77
   4   8   0   15.03    2.00
  -4   8   0   18.15    2.20
  -5  -8   0   49.68    3.86
  -5  -8   0   49.79    5.09
   5  -8   0   49.90    4.00
   5  -8   0   51.66    4.13
   5   8   0   53.19    4.31
  -5   8   0   55.21    4.57
  -6  -8   0    3.28    1.61
   6  -8   0    5.87    1.04
   6  -8   0    6.19    1.04
  -6   8   0    8.85    1.78
   6   8   0    9.71    1.80
   7  -8   0   29.91    2.55
   7  -8   0   30.99    2.83
  -7  -8   0   30.41    3.85
  -7   8   0   27.47    3.68
   7   8   0   30.57    3.13
   8  -8   0   16.97    1.83
  -8  -8   0   16.00    3.18
   8  -8   0   18.99    2.34
   8   8   0   21.91    2.69
  -8   8   0   19.87    3.32
   9  -8   0    5.20    1.40
   9  -8   0    4.27    0.95
  -9  -8   0    3.30    2.85
  -9   8   0    2.47    1.84
   9   8   0    3.95    1.60
   0  -9   0    0.42    0.49
   0  -9   0    0.59    0.41
   0   9   0    1.53    0.82
   0   9   0    1.12    0.75
   1  -9   0  101.15    7.34
  -1  -9   0   96.07    7.55
  -1  -9   0   99.76    7.31
   1  -9   0   98.18    7.33
   1   9   0  102.74    7.49
   1   9   0   90.63    7.57
  -1   9   0   94.10    7.57
  -2  -9   0   36.31    3.25
  -2  -9   0   36.38    2.89
   2  -9   0   34.88    2.94
   2  -9   0   35.16    3.01
   2   9   0   37.69    3.35
  -2   9   0   39.53    3.34
   2   9   0   40.72    3.30
  -3  -9   0   51.04    3.86
   3  -9   0   52.69    3.94
  -3  -9   0   49.85    4.27
   3  -9   0   52.45    4.02
  -3   9   0   49.01    4.31
   3   9   0   47.78    4.26
   4  -9   0   75.11    5.82
  -4  -9   0   69.17    6.10
  -4  -9   0   73.38    5.60
   4  -9   0   72.30    5.71
  -4   9   0   84.38    6.16
   5  -9   0    2.76    0.93
   5  -9   0    4.15    0.73
  -5  -9   0    4.82    1.44
  -5   9   0    3.43    1.50
   5   9   0    2.02    1.23
  -6  -9   0   60.42    5.46
   6  -9   0   53.93    4.62
   6  -9   0   55.92    4.82
  -6   9   0   57.35    5.33
   6   9   0   60.08    4.99
   7  -9   0   18.94    1.94
  -7  -9   0   17.44    3.72
   7  -9   0   22.15    2.44
  -7   9   0   20.26    3.41
   7   9   0   18.94    2.79
   8  -9   0   13.02    1.54
   8  -9   0   11.90    1.77
  -8  -9   0   13.42    3.16
  -8   9   0    8.56    2.42
   8   9   0   10.08    2.02
   0 -10   0   78.95    6.38
   0 -10   0   93.27    6.33
   0  10   0   80.76    6.43
   0  10   0   79.15    6.60
   1 -10   0   11.82    1.49
  -1 -10   0   14.11    1.85
  -1 -10   0   12.64    1.27
   1 -10   0   13.18    1.31
  -1  10   0   10.97    1.91
   1  10   0   11.92    1.89
   1  10   0   12.23    1.89
  -2 -10   0   50.35    3.75
   2 -10   0   48.65    3.80
   2 -10   0   52.23    3.91
  -2 -10   0   48.58    4.21
  -2  10   0   46.81    4.25
   2  10   0   48.52    4.73
   2  10   0   42.84    4.20
  -3 -10   0   65.77    5.48
  -3 -10   0   66.49    4.96
   3 -10   0   63.89    5.04
   3 -10   0   70.70    5.18
  -3  10   0   64.15    5.50
   3  10   0   68.38    5.47
   3  10   0   57.22    5.46
   4 -10   0    0.68    0.89
  -4 -10   0    1.92    1.28
  -4 -10   0   -0.07    0.46
   4 -10   0    0.98    0.63
   4  10   0    2.70    1.44
  -5 -10   0   62.86    6.08
   5 -10   0   59.92    4.96
   5 -10   0   66.46    5.52
   5  10   0   67.62    5.56
  -5  10   0   62.21    5.66
   6 -10   0   11.46    1.47
   6 -10   0   10.35    1.63
  -6 -10   0   12.82    2.53
   6  10   0   11.65    2.09
  -6  10   0   10.70    2.38
   7 -10   0   28.16    3.04
   7 -10   0   25.30    2.39
  -7 -10   0   26.28    4.50
   7  10   0   23.15    3.53
  -7  10   0   22.07    3.86
   0 -11   0    0.49    0.57
   1 -11   0   34.72    3.63
  -1 -11   0   44.11    3.16
   1  11   0   39.83    3.64
   1  11   0   38.40    3.80
  -1  11   0   35.43    4.32
  -2 -11   0   23.72    1.97
   2 -11   0   23.64    2.05
   2 -11   0   24.34    2.33
  -2 -11   0   24.88    2.82
   2  11   0   17.50    2.91
   2  11   0   18.75    2.75
  -2  11   0   21.61    2.85
   3 -11   0   14.95    2.03
   3 -11   0   12.69    1.74
  -3 -11   0   15.14    2.50
  -3 -11   0   11.70    1.37
   3  11   0   12.69    2.49
   3  11   0   16.25    2.81
  -3  11   0   17.10    2.59
  -4 -11   0   36.16    2.94
  -4 -11   0   39.49    4.04
   4 -11   0   41.15    3.46
   4 -11   0   37.70    3.08
   4  11   0   35.88    3.99
  -4  11   0   36.99    4.01
   4  11   0   28.34    3.94
   5 -11   0    1.68    1.29
   5 -11   0    1.56    0.83
  -5 -11   0    2.55    1.92
  -5  11   0    3.91    1.97
   5  11   0    2.40    1.94
   6 -11   0   40.39    3.83
  -6 -11   0   41.51    5.05
   6 -11   0   36.27    3.33
  -6  11   0   37.62    4.72
   6  11   0   42.47    4.59
   0 -12   0   14.83    1.72
   0  12   0   19.77    2.76
  -1 -12   0    1.19    0.70
   1 -12   0    3.42    0.80
  -1  12   0    3.07    1.62
   1  12   0    2.66    1.55
   2 -12   0   14.70    1.77
  -2 -12   0   14.87    2.75
  -2 -12   0   14.35    1.67
  -2  12   0   21.65    2.97
   2  12   0   20.51    2.91
   2  12   0   19.77    3.29
   3 -12   0   16.94    1.89
  -3 -12   0   20.07    3.14
  -3 -12   0   17.93    1.80
   3  12   0   17.15    3.52
  -3  12   0   21.64    3.19
   3  12   0   17.02    3.06
   4 -12   0    4.55    1.53
  -4 -12   0    3.14    1.95
   4 -12   0    3.25    0.99
   4  12   0    6.42    2.29
  -4  12   0    3.15    2.10
   4  12   0    2.29    1.93
   0 -13   0   -1.17    0.74
   0  13   0    1.29    1.78
  -1 -13   0   36.99    3.05
   1 -13   0   34.92    3.08
   1  13   0   33.91    4.12
  -1  13   0   36.25    4.20
 -11   0   1   56.37    4.88
 -10   0   1    4.39    1.17
  10   0  -1    4.23    0.89
  10   0  -1    3.44    0.91
   9   0  -1   45.70    3.79
  -9   0   1   53.22    4.10
   9   0  -1   45.02    3.88
   8   0  -1   44.57    3.55
  -8   0   1   46.81    3.81
   8   0  -1   44.55    3.62
   7   0  -1    3.79    0.56
  -7   0   1    3.77    0.85
   7   0  -1    3.64    0.63
   6   0  -1   85.18    6.06
  -6   0   1   72.00    6.24
   6   0  -1   85.00    6.10
   5   0  -1   34.28    2.62
   5   0  -1   33.40    2.58
   4   0  -1  116.20    8.78
   4   0  -1  121.41    8.81
   3   0  -1  239.87   19.62
   3   0  -1  263.43   19.60
  -3   0   1  270.82   19.58
  -3   0   1  291.25   19.60
   2   0  -1   89.82    6.84
   2   0  -1   92.39    6.85
  -2   0   1   91.73    6.84
   2   0  -1  100.34    7.07
  -2   0   1   95.40    6.83
  -2   0   1  101.97    6.86
   2   0  -1   79.31    6.84
   1   0  -1  320.55   22.98
   1   0  -1  299.62   23.03
  -1   0   1  318.76   22.98
  -1   0  -1  282.69   20.26
   1   0   1  287.05   20.26
  -1   0  -1  257.12   20.28
  -1   0  -1  258.66   20.24
   1   0   1  286.21   20.28
   1   0   1  283.21   20.34
  -2   0  -1  882.22   68.26
  -2   0  -1  907.47   68.23
   2   0   1 1000.00   68.27
   3   0   1   20.26    1.50
  -3   0  -1   18.33    1.55
   4   0   1  555.92   40.68
  -4   0  -1  551.31   40.73
   5   0   1   58.98    4.48
   5   0   1   60.77    4.55
  -5   0  -1   58.49    4.54
  -6   0  -1  203.55   15.57
   6   0   1  213.49   15.52
   6   0   1  211.84   15.59
   7   0   1  105.96    7.93
  -7   0  -1  103.62    7.90
   7   0   1  102.86    7.83
   8   0   1   19.33    1.88
   8   0   1   18.54    1.75
  -8   0  -1   16.47    2.01
   9   0   1   58.06    4.60
  -9   0  -1   59.91    4.90
   9   0   1   56.19    4.73
  10   0   1    8.15    1.31
 -10   0  -1   10.37    1.93
  10   0   1    9.49    1.65
  11   0   1   17.64    2.63
  11   0   1   21.64    2.63
 -11   0  -1   25.55    2.79
  11  -1  -1    3.12    0.98
  11  -1  -1    3.34    1.06
 -11  -1   1    5.96    1.47
  11   1  -1    5.89    1.03
  11   1  -1    3.46    1.15
 -10  -1   1   45.57    3.77
  10  -1  -1   36.54    3.33
  10  -1  -1   39.75    3.34
  10   1  -1   36.10    3.41
  10   1  -1   38.89    3.68
   9  -1  -1   22.33    2.18
  -9  -1   1   22.31    2.65
   9  -1  -1   22.02    2.20
   9   1  -1   28.10    2.13
   9   1  -1   25.61    2.29
   8  -1  -1   19.30    1.85
   8  -1  -1   21.68    1.83
  -8  -1   1   17.62    2.13
  -8   1   1   22.82    2.08
   8   1  -1   19.36    1.91
   8   1  -1   20.14    1.75
   7  -1  -1   81.79    6.76
   7  -1  -1   82.10    6.66
   7   1  -1   93.60    6.75
  -7   1   1   97.32    6.91
   6  -1  -1    2.38    0.51
   6  -1  -1    2.50    0.53
  -6   1   1    3.98    0.81
   6   1  -1    3.46    0.47
   5  -1  -1  191.77   13.02
   5  -1  -1  179.38   13.01
   5  -1  -1  160.77   12.95
   5   1  -1  181.65   12.99
   5   1  -1  177.90   13.05
  -5   1   1  164.19   13.25
  -4   1   1   25.04    1.84
   4   1  -1   26.16    1.87
  -4   1   1   20.66    2.11
   4   1  -1   25.93    1.98
   3  -1  -1   75.29    5.52
   3  -1  -1   73.47    5.50
  -3  -1   1   81.40    5.50
   3   1  -1   73.72    5.50
   3   1  -1   70.76    5.54
  -3   1   1   72.43    5.49
  -2  -1   1  323.13   22.18
   2  -1  -1  297.53   22.20
  -2  -1   1  325.89   22.24
   2  -1  -1  290.27   22.18
  -2   1   1  310.38   22.18
  -2   1   1  290.61   22.29
   2   1  -1  288.65   22.21
   2   1  -1  290.96   22.18
  -1  -1   1    1.35    0.17
   1  -1  -1    1.10    0.14
  -1  -1   1    1.17    0.15
  -1  -1   1    1.31    0.13
   1  -1  -1    1.46    0.20
   1   1  -1    0.86    0.17
   1   1  -1    1.48    0.13
  -1   1   1    1.01    0.18
  -1   1   1    0.92    0.12
   0  -1   1  352.14   28.22
   0  -1   1  401.76   28.23
   0  -1  -1  372.99   28.22
   0  -1  -1  365.09   28.23
   0  -1   1  327.39   28.21
   0   1  -1  444.39   28.24
   0   1  -1  396.40   28.22
   0   1   1  409.23   28.22
   0   1   1  417.94   28.23
   0   1  -1  357.92   28.21
   1  -1   1   88.22    6.67
  -1  -1  -1   78.01    6.68
   1  -1   1   91.07    6.72
   1  -1   1   86.10    6.68
  -1  -1  -1   90.98    6.71
   1   1   1   92.66    6.68
  -1   1  -1  101.36    6.68
   1   1   1   90.70    6.71
  -1   1  -1  101.58    6.69
  -1   1  -1   99.15    6.72
  -1   1  -1   77.47    6.73
  -2  -1  -1  116.95    8.66
   2  -1   1  109.85    8.81
  -2  -1  -1  124.87    8.71
   2  -1   1  134.02    8.68
   2  -1   1  105.89    8.74
  -2   1  -1  108.84    8.69
  -2   1  -1  121.98    8.64
   2   1   1  116.82    8.65
   3  -1   1  240.25   17.92
   3  -1   1  244.41   17.96
  -3  -1  -1  238.09   17.99
   3   1   1  244.22   17.94
   3   1   1  259.90   18.01
  -3   1  -1  236.26   17.98
   4  -1   1    9.68    0.79
   4  -1   1    8.13    0.67
  -4  -1  -1    7.35    0.84
  -4   1  -1    8.66    0.94
   4   1   1    8.84    0.75
   4   1   1    7.87    0.83
  -5  -1  -1  177.30   13.63
   5  -1   1  184.06   13.55
   5   1   1  185.59   13.61
   5   1   1  183.43   13.51
  -5   1  -1  183.28   13.56
  -6  -1  -1   63.61    5.19
   6  -1   1   69.69    5.21
   6  -1   1   66.04    5.13
  -6   1  -1   59.27    5.29
   6   1   1   73.82    5.24
  -6   1  -1   73.06    5.26
   7  -1   1   41.87    3.02
  -7  -1  -1   35.93    3.36
   7   1   1   38.03    2.98
   7   1   1   37.34    3.11
  -7   1  -1   38.22    3.09
  -7   1  -1   33.18    3.18
  -8  -1  -1   66.20    6.18
   8  -1   1   79.80    5.97
   8  -1   1   77.16    5.89
  -8   1  -1   75.49    6.15
   8   1   1   77.18    5.85
   8   1   1   79.62    6.03
  -8   1  -1   80.91    5.97
   9  -1   1    1.07    0.73
   9  -1   1    0.88    0.78
  -9  -1  -1    0.14    0.97
   9   1   1    1.00    0.66
   9   1   1    1.24    0.82
  -9   1  -1    1.38    0.85
  10  -1   1   41.39    3.73
 -10  -1  -1   45.94    4.11
  10  -1   1   42.82    3.63
  10   1   1   40.15    3.79
  10   1   1   42.33    3.62
 -11  -1  -1    5.36    1.61
  11  -1   1    4.21    1.30
  11  -1   1    4.26    1.32
  11   1   1    2.93    1.17
 -11   1  -1    5.68    1.43
  11   1   1    3.24    1.28
 -11  -2   1   51.73    4.77
  11  -2  -1   46.64    4.20
 -11   2   1   57.08    4.36
  11   2  -1   45.56    4.40
 -10  -2   1   18.63    2.59
  10  -2  -1   18.14    2.09
  10  -2  -1   16.07    1.97
  10   2  -1   21.21    1.86
  10   2  -1   20.86    2.17
  -9  -2   1   39.96    3.95
   9  -2  -1   45.25    3.51
   9  -2  -1   43.78    3.47
   9   2  -1   39.22    3.59
  -9   2   1   47.79    3.73
   9   2  -1   40.51    3.39
   8  -2  -1  116.21    9.09
   8  -2  -1  112.81    9.10
  -8   2   1  134.25    9.36
   8   2  -1  122.82    9.04
   8   2  -1  119.88    9.19
   7  -2  -1    5.70    0.88
   7  -2  -1    7.13    0.82
   7  -2  -1    6.30    0.62
  -7   2   1    6.74    1.32
   6  -2  -1  200.93   14.87
   6  -2  -1  212.64   14.85
   6   2  -1  207.69   14.82
  -6   2   1  183.70   15.09
   6   2  -1  198.94   14.92
   5  -2  -1   41.82    3.26
   5  -2  -1   42.95    3.32
   5   2  -1   46.08    3.38
  -4  -2   1   90.48    6.62
   4  -2  -1   87.37    6.65
   4  -2  -1   86.64    6.61
  -4   2   1   79.87    6.83
   4   2  -1  102.52    6.70
   3  -2  -1  139.73   10.33
   3  -2  -1  138.76   10.30
  -3  -2   1  126.36   10.45
  -3   2   1  140.77   10.46
   3   2  -1  153.58   10.36
   2  -2  -1    8.80    0.72
  -2  -2   1    9.32    0.69
  -2  -2   1    8.85    0.80
   2  -2  -1    8.81    0.70
   1  -2  -1  279.19   17.58
   1  -2  -1  264.65   17.58
  -1  -2   1  274.68   17.62
  -1  -2   1  256.72   17.60
   1   2  -1  221.97   17.57
  -1   2   1  209.76   17.57
   1   2  -1  211.21   17.60
   1   2  -1  208.33   17.59
  -1   2   1  226.52   17.61
   0  -2  -1  119.55    7.66
   0  -2   1  119.07    7.67
   0  -2   1  110.97    7.68
   0  -2  -1  121.45    7.71
   0  -2   1  108.29    7.65
   0  -2   1  114.90    7.68
   0   2  -1   93.02    7.68
   0   2   1   96.35    7.66
   0   2  -1   90.51    7.65
   0   2  -1   96.98    7.66
   0   2  -1   99.96    7.67
   0   2   1   95.17    7.68
   0   2   1   99.08    7.66
   0   2  -1   90.80    7.68
   1  -2   1  132.21    8.89
   1  -2   1  128.31    8.80
  -1  -2  -1  134.28    8.78
  -1  -2  -1  130.44    8.87
   1   2   1  104.72    8.78
  -1   2  -1  118.38    8.82
  -1   2  -1  105.09    8.78
   1   2   1  104.52    8.81
  -1   2  -1  100.30    8.79
   1   2   1  135.72    8.84
  -2  -2  -1  109.74    7.60
  -2  -2  -1  112.87    7.48
   2   2   1   93.63    7.47
  -2   2  -1   93.61    7.52
   2   2   1   97.10    7.53
   2   2   1  101.37    7.49
  -3  -2  -1   27.92    2.27
   3  -2   1   29.16    2.23
  -3  -2  -1   23.96    2.37
   3  -2   1   29.85    2.19
   3   2   1   31.43    2.29
  -3   2  -1   30.18    2.26
   3   2   1   30.73    2.19
  -4  -2  -1   87.43    6.90
   4  -2   1  102.45    6.62
  -4  -2  -1   95.01    6.73
   4  -2   1   97.31    6.68
   4   2   1   83.23    6.62
  -4   2  -1   80.69    6.68
   4   2   1   79.54    6.71
   5  -2   1   13.26    1.18
  -5  -2  -1   12.71    1.57
  -5  -2  -1   12.79    1.26
   5  -2   1   13.24    1.04
  -5   2  -1   12.80    1.21
   5   2   1   12.90    1.09
   5   2   1   12.97    1.26
   6  -2   1   63.22    4.73
   6  -2   1   59.32    4.61
  -6  -2  -1   53.44    5.02
   6  -2   1   56.57    4.69
   6   2   1   64.71    4.80
  -6   2  -1   69.28    4.76
   6   2   1   67.21    4.65
  -6   2  -1   57.12    4.93
  -7  -2  -1   59.67    5.66
   7  -2   1   67.54    5.32
   7  -2   1   64.22    5.29
   7   2   1   72.46    5.42
   7   2   1   73.12    5.24
  -7   2  -1   69.73    5.52
  -7   2  -1   75.71    5.36
  -8  -2  -1   13.35    2.16
   8  -2   1   15.22    1.61
   8  -2   1   13.75    1.60
  -8   2  -1   17.21    1.85
   8   2   1   14.15    1.74
   8   2   1   13.08    1.47
  -8   2  -1   16.37    1.70
   9  -2   1   60.03    5.18
  -9  -2  -1   61.21    6.04
   9  -2   1   65.15    5.24
  -9   2  -1   75.73    5.38
   9   2   1   66.43    5.09
   9   2   1   63.90    5.34
  10  -2   1    2.40    0.95
  10  -2   1    2.48    0.99
 -10  -2  -1    1.93    1.36
  10   2   1    4.20    0.96
 -10   2  -1    4.52    1.04
  10   2   1    3.41    1.16
 -11  -2  -1   35.18    3.72
  11  -2   1   27.65    3.09
  11   2   1   28.59    3.29
 -11  -3   1    2.82    1.55
  11  -3  -1    1.97    1.03
  11   3  -1    2.72    1.26
 -11   3   1    4.59    1.17
 -10  -3   1   62.56    6.02
  10  -3  -1   73.15    5.52
  10   3  -1   70.83    5.64
   9  -3  -1   56.01    4.12
  -9  -3   1   43.58    4.62
   9   3  -1   50.39    3.92
  -9   3   1   51.92    5.44
   9   3  -1   51.03    4.20
   8  -3  -1   29.21    2.49
   8  -3  -1   26.85    2.29
   8   3  -1   28.63    2.58
  -8   3   1   30.94    3.74
   8   3  -1   29.88    2.37
   7  -3  -1  141.80   10.06
   7  -3  -1  136.00    9.94
  -7  -3   1  113.38   10.43
   7   3  -1  141.49    9.96
   7   3  -1  139.93   10.13
  -7   3   1  131.94   10.33
  -6  -3   1    2.72    0.94
   6  -3  -1    3.59    0.67
   6  -3  -1    4.10    0.46
  -6   3   1    3.16    1.01
   6   3  -1    3.81    0.67
   6   3  -1    3.76    0.46
   5  -3  -1  171.56   12.60
  -5  -3   1  144.13   12.86
   5  -3  -1  172.48   12.55
   5   3  -1  180.67   12.67
   5   3  -1  180.64   12.53
  -4  -3   1  105.03    8.42
   4  -3  -1  122.96    8.19
   4  -3  -1  118.49    8.22
   4   3  -1   95.71    8.24
   3  -3  -1   95.06    7.24
  -3  -3   1   98.70    7.21
  -3  -3   1   89.21    7.37
   3  -3  -1   93.36    7.26
  -3   3   1  107.74    7.40
   3   3  -1  103.28    7.30
   2  -3  -1  151.64   11.21
  -2  -3   1  146.30   11.27
  -2  -3   1  158.54   11.18
   2  -3  -1  158.61   11.20
  -2   3   1  162.36   11.29
   2   3  -1  143.08   11.23
   2   3  -1  143.21   11.18
   1  -3  -1   52.76    4.22
  -1  -3   1   58.44    4.21
  -1  -3   1   59.28    4.27
   1  -3  -1   59.05    4.22
  -1   3   1   57.06    4.28
   1   3  -1   54.46    4.25
   0  -3  -1   72.32    5.24
   0  -3   1   69.11    5.18
   0  -3   1   68.78    5.22
   0  -3  -1   68.53    5.18
   0  -3  -1   71.23    5.18
  -1  -3  -1   37.45    2.49
   1  -3   1   34.24    2.51
   1  -3   1   37.65    2.51
  -1  -3  -1   37.54    2.59
   1   3   1   31.24    2.49
  -1   3  -1   32.97    2.53
   1   3   1   32.01    2.54
   1   3   1   28.63    2.49
  -1   3  -1   29.21    2.55
  -2  -3  -1   18.56    1.77
  -2  -3  -1   21.02    1.61
   2  -3   1   22.25    1.65
   2  -3   1   20.57    1.67
  -2   3  -1   22.06    1.76
   2   3   1   22.12    1.71
   2   3   1   21.76    1.62
   2   3   1   22.75    1.62
   2   3   1   22.78    1.65
  -3  -3  -1  107.11    9.54
   3  -3   1  124.52    9.44
   3  -3   1  143.99    9.45
   3   3   1  137.65    9.49
   3   3   1  123.78    9.38
  -3   3  -1  133.32    9.46
   3   3   1  128.76    9.46
  -3   3  -1  119.57    9.56
   4  -3   1    5.07    0.63
  -4  -3  -1    4.85    0.92
   4  -3   1    5.20    0.50
   4   3   1    4.76    0.51
  -4   3  -1    5.15    0.68
   4   3   1    5.59    0.71
   5  -3   1   68.63    5.00
  -5  -3  -1   62.82    5.41
   5  -3   1   64.60    5.08
   5   3   1   66.23    5.16
  -5   3  -1   72.11    5.09
   6  -3   1   18.84    1.53
   6  -3   1   17.61    1.71
  -6  -3  -1   19.29    2.25
  -6   3  -1   23.07    2.19
   7  -3   1   33.19    2.77
   7  -3   1   34.09    2.57
  -7  -3  -1   36.99    3.40
   7  -3   1   37.40    2.77
  -7   3  -1   31.90    2.78
   7   3   1   27.69    2.86
   8  -3   1   42.75    3.78
   8  -3   1   41.17    3.83
  -8  -3  -1   42.45    4.38
   8   3   1   48.40    3.99
  -8   3  -1   52.77    4.11
  -8   3  -1   54.07    3.87
   8   3   1   48.87    3.70
   9  -3   1    0.35    1.10
  -9  -3  -1    2.16    1.42
   9   3   1    0.24    0.66
  10  -3   1   36.72    3.38
 -10  -3  -1   34.93    4.00
  10   3   1   37.54    3.57
  11  -4  -1   37.04    3.59
 -11  -4   1   32.91    4.26
 -11   4   1   45.26    3.65
  11   4  -1   35.00    3.78
  10  -4  -1   15.35    2.09
 -10  -4   1   12.46    2.85
 -10   4   1   21.00    2.46
  10   4  -1   18.47    2.34
   9  -4  -1   38.77    3.00
   9  -4  -1   36.01    3.26
  -9   4   1   40.25    3.83
   9   4  -1   36.84    3.40
   8  -4  -1   55.42    3.78
  -8  -4   1   46.49    4.57
   8  -4  -1   54.13    3.92
  -8   4   1   46.86    4.32
   8   4  -1   41.49    3.77
   8   4  -1   46.88    3.98
   7  -4  -1   11.68    1.05
   7  -4  -1   10.79    1.27
  -7  -4   1   11.29    2.05
  -7   4   1    8.96    1.93
   7   4  -1   13.47    1.43
  -6  -4   1  128.45   11.18
   6  -4  -1  153.14   10.74
   6  -4  -1  150.88   10.81
   6   4  -1  146.25   10.87
   5  -4  -1   18.89    1.63
  -5  -4   1   18.00    2.03
   5  -4  -1   20.87    1.56
   4  -4  -1  161.03   11.84
   4  -4  -1  167.89   11.80
  -4  -4   1  154.21   12.09
   4   4  -1  161.40   11.95
  -4   4   1  153.64   12.06
  -3  -4   1  164.44   12.23
   3  -4  -1  160.57   12.10
  -3  -4   1  171.46   12.05
   3  -4  -1  180.72   12.10
  -3   4   1  156.08   12.21
   3   4  -1  149.32   12.14
   2  -4  -1   35.24    2.69
  -2  -4   1   32.74    2.66
  -2  -4   1   31.71    2.76
   2   4  -1   37.48    2.74
  -2   4   1   41.46    2.82
   1  -4  -1  408.35   27.89
   1  -4  -1  356.73   27.79
  -1  -4   1  363.77   27.78
  -1  -4   1  366.08   27.86
  -1   4   1  403.95   27.95
   1   4  -1  370.76   27.82
   0  -4   1   33.87    2.57
   0  -4  -1   36.57    2.59
   0  -4  -1   38.31    2.59
   0  -4   1   37.14    2.60
   0  -4   1   38.09    2.66
   0   4   1   32.26    2.60
   0   4  -1   31.69    2.62
   0   4  -1   30.87    2.57
   0   4  -1   31.21    2.65
   1  -4   1  126.90   10.33
  -1  -4  -1  135.30   10.31
  -1  -4  -1  145.28   10.31
   1  -4   1  137.43   10.33
  -1  -4  -1  134.53   10.42
   1   4   1  144.49   10.37
  -1   4  -1  134.67   10.46
   1   4   1  140.50   10.31
  -1   4  -1  160.80   10.36
   2  -4   1  104.09    7.58
   2  -4   1   93.78    7.59
  -2  -4  -1   94.19    7.68
  -2  -4  -1  101.10    7.54
  -2   4  -1  106.89    7.69
   2   4   1  114.03    7.65
   3  -4   1   15.08    1.19
   3  -4   1   14.49    1.23
  -3  -4  -1   14.31    1.39
   4  -4   1  135.96   10.01
  -4  -4  -1  124.68   10.21
   4  -4   1  144.28    9.97
   4   4   1  142.83   10.08
  -4   4  -1  118.50   10.60
   4   4   1  139.17    9.93
  -5  -4  -1   18.96    2.15
   5  -4   1   19.84    1.69
   5  -4   1   19.00    1.75
  -5   4  -1   16.77    2.18
   5   4   1   24.30    1.89
   5   4   1   23.26    1.63
   6  -4   1   43.76    3.39
  -6  -4  -1   43.79    4.03
   6  -4   1   44.00    3.52
   6   4   1   44.63    3.63
   6   4   1   46.07    3.38
   7  -4   1   65.21    5.29
   7  -4   1   67.25    5.45
  -7  -4  -1   71.91    6.05
   7   4   1   74.87    5.30
   7   4   1   75.78    5.61
  -7   4  -1   67.81    5.75
   8  -4   1    1.48    0.43
   8  -4   1    2.84    0.83
  -8  -4  -1    0.66    1.31
   8   4   1    0.60    0.79
   8   4   1    1.01    0.55
  -8   4  -1    1.77    1.04
  -9  -4  -1   61.75    5.55
   9  -4   1   57.00    4.77
  -9   4  -1   61.36    4.92
   9   4   1   53.71    4.91
  10  -4   1    3.91    1.23
 -10  -4  -1    3.10    1.80
  10   4   1    4.56    1.32
 -10   4  -1    6.35    1.31
  10  -5  -1   29.30    4.09
 -10  -5   1   28.70    4.04
  10   5  -1   34.29    3.32
   9  -5  -1   29.72    2.70
   9  -5  -1   28.08    2.36
  -9  -5   1   23.31    3.56
   9   5  -1   29.50    2.87
  -9   5   1   30.47    3.19
   8  -5  -1   22.35    1.78
   8  -5  -1   23.70    2.09
  -8  -5   1   18.93    2.91
  -8   5   1   16.83    2.66
   8   5  -1   20.25    2.21
   7  -5  -1  112.62    8.26
   7  -5  -1  112.10    8.14
   7   5  -1  102.34    8.33
  -6  -5   1    2.09    0.99
   6  -5  -1    1.64    0.50
   6  -5  -1    1.98    0.41
  -6   5   1    3.24    1.08
   6   5  -1    2.22    0.66
  -5  -5   1  112.97    8.77
   5  -5  -1  121.87    8.42
   5  -5  -1  112.33    8.46
   5   5  -1  114.07    8.54
  -5   5   1  103.88    8.67
  -4  -5   1   54.51    4.71
   4  -5  -1   61.01    4.49
  -4  -5   1   55.53    4.42
   4  -5  -1   54.45    4.51
  -4   5   1   66.09    4.74
   4   5  -1   66.74    4.62
   3  -5  -1   53.25    4.06
   3  -5  -1   60.55    4.06
  -3  -5   1   57.98    4.01
  -3  -5   1   51.92    4.21
   3   5  -1   49.49    4.11
  -3   5   1   48.31    4.55
  -2  -5   1  154.59   11.54
   2  -5  -1  156.73   11.57
  -2  -5   1  147.29   11.66
   2  -5  -1  141.35   11.56
   2   5  -1  167.12   11.63
  -2   5   1  172.54   11.71
   1  -5  -1    6.19    0.60
  -1  -5   1    6.91    0.72
  -1   5   1    7.37    0.82
   0  -5   1  213.85   15.65
   0  -5   1  203.84   15.62
   0  -5  -1  220.96   15.64
   0  -5  -1  218.91   15.75
   0  -5   1  222.85   15.74
   0  -5  -1  219.01   15.64
   0   5   1  203.62   15.75
   0   5   1  199.16   15.65
   0   5  -1  204.98   15.73
   0   5  -1  216.18   15.68
  -1  -5  -1  100.95    7.82
   1  -5   1   94.85    7.66
  -1  -5  -1  102.28    7.63
  -1  -5  -1   96.01    7.63
  -1   5  -1  104.54    7.75
   1   5   1  108.93    7.70
  -1   5  -1  115.40    7.69
   2  -5   1  106.16    8.15
   2  -5   1  114.02    8.15
  -2  -5  -1  113.11    8.12
  -2  -5  -1  108.39    8.28
  -2   5  -1  107.30    8.26
   2   5   1  109.94    8.21
  -3  -5  -1  123.43   10.38
   3  -5   1  139.45   10.35
  -3  -5  -1  138.32   10.16
   3   5   1  150.99   10.41
   4  -5   1    1.39    0.32
  -4  -5  -1   -0.15    0.55
   4  -5   1    0.89    0.39
  -4   5  -1    1.11    0.72
   4   5   1    0.63    0.45
   5  -5   1   93.02    6.76
   5  -5   1   92.35    6.84
  -5  -5  -1   82.70    7.14
  -5   5  -1   85.75    7.11
   5   5   1   97.82    6.94
   6  -5   1   36.59    2.86
  -6  -5  -1   35.52    3.42
   6  -5   1   35.98    2.68
   6   5   1   34.48    2.95
  -6   5  -1   27.64    3.25
   7  -5   1   40.55    3.10
   7  -5   1   36.43    3.83
  -7  -5  -1   40.33    4.05
   7   5   1   45.01    3.48
  -7   5  -1   35.07    3.78
   8  -5   1   64.78    4.84
  -8  -5  -1   67.02    6.35
  -8   5  -1   60.86    5.38
   8   5   1   61.78    5.50
  -9  -5  -1    1.39    1.78
   9  -5   1    0.57    0.97
   9   5   1   -0.04    1.06
  -9   5  -1    0.75    1.12
  10  -5   1   42.54    4.04
 -10  -5  -1   48.42    5.13
  10   5   1   35.95    4.17
 -10   5  -1   50.75    4.09
  10  -6  -1    5.52    1.29
 -10  -6   1    2.98    2.31
  10   6  -1    5.35    1.47
 -10   6   1    6.95    1.63
   9  -6  -1   27.21    2.37
  -9  -6   1   22.86    3.91
   9  -6  -1   26.38    2.75
   9   6  -1   31.83    3.02
  -9   6   1   30.16    3.37
  -8  -6   1   30.86    4.06
   8  -6  -1   30.65    2.55
   8  -6  -1   33.58    2.87
   8   6  -1   33.40    3.09
  -8   6   1   27.94    3.46
   7  -6  -1    7.27    1.19
  -7  -6   1    4.83    1.65
   7  -6  -1    5.69    0.83
   7   6  -1    4.77    1.09
  -7   6   1    2.77    1.37
  -6  -6   1   80.86    6.67
   6  -6  -1   82.84    6.09
   6  -6  -1   83.96    6.19
   6   6  -1   82.31    6.32
  -6   6   1   74.16    6.50
   5  -6  -1   17.15    1.65
   5  -6  -1   17.93    1.55
  -5  -6   1   17.03    2.04
   5   6  -1   20.77    1.83
  -5   6   1   19.42    2.09
  -4  -6   1  107.09    8.42
  -4  -6   1  113.22    8.12
   4  -6  -1  114.93    8.19
   4  -6  -1  104.11    8.21
  -3  -6   1  137.18    9.53
  -3  -6   1  122.56    9.72
   3  -6  -1  135.19    9.57
   3  -6  -1  126.33    9.59
  -3   6   1  129.23    9.74
   3   6  -1  122.66    9.65
  -2  -6   1   36.56    2.87
   2  -6  -1   34.01    2.73
  -2  -6   1   39.30    2.70
   2  -6  -1   38.35    2.73
   2   6  -1   29.24    2.80
   1  -6  -1  202.84   14.67
  -1  -6   1  197.60   14.63
  -1  -6   1  203.99   14.67
  -1  -6   1  197.62   14.86
   1   6  -1  180.29   14.62
   1   6  -1  188.33   14.87
  -1   6   1  203.16   14.82
   1   6  -1  216.69   14.74
   0  -6  -1   50.76    4.10
   0  -6   1   46.66    3.83
   0  -6   1   50.39    3.97
   0  -6  -1   49.94    3.84
   0  -6  -1   48.38    3.84
   0   6  -1   58.44    4.02
   0   6   1   54.43    4.14
  -1  -6  -1  124.01    8.54
  -1  -6  -1  119.30    8.55
   1  -6   1  120.09    8.58
  -1  -6  -1  116.06    8.71
   1  -6   1  115.68    8.56
   1   6   1  109.36    8.61
  -1   6  -1  103.43    8.64
  -2  -6  -1  148.42   10.96
   2  -6   1  145.87   11.01
  -2  -6  -1  140.10   11.16
   2  -6   1  140.01   11.01
   2   6   1  162.97   11.11
  -2   6  -1  154.24   11.15
   3  -6   1    7.72    0.89
   3  -6   1    8.20    0.81
  -3  -6  -1    6.94    0.66
  -3  -6  -1    7.14    1.06
  -3   6  -1    8.79    1.19
   3   6   1    8.40    1.08
   4  -6   1  164.50   12.06
  -4  -6  -1  148.45   12.26
   4  -6   1  169.09   12.02
  -4  -6  -1  162.86   11.95
   4   6   1  164.53   12.14
  -4   6  -1  162.02   12.25
   5  -6   1   13.31    1.42
  -5  -6  -1   12.77    1.87
   5  -6   1   13.68    1.29
   6  -6   1   71.95    5.29
   6  -6   1   75.57    5.70
  -6  -6  -1   70.46    5.96
  -6   6  -1   60.17    5.78
   6   6   1   70.44    5.54
   7  -6   1   45.08    3.40
  -7  -6  -1   47.83    4.72
   7  -6   1   45.92    3.62
   7   6   1   35.66    3.73
   8  -6   1   10.36    1.79
   8  -6   1   12.50    1.31
  -8  -6  -1    9.96    2.41
  -8   6  -1   13.08    2.54
   8   6   1   14.21    2.09
   9  -6   1   43.69    4.06
  -9  -6  -1   52.36    5.36
  -9   6  -1   46.28    4.40
   9   6   1   43.66    4.23
  10  -7  -1   26.68    3.10
 -10  -7   1   20.70    4.57
 -10   7   1   31.64    3.48
  10   7  -1   26.13    3.49
  -9  -7   1   12.63    2.89
   9  -7  -1   19.06    2.20
   9  -7  -1   15.29    1.68
  -9   7   1   14.57    2.93
   9   7  -1   16.58    2.46
   8  -7  -1   13.59    1.80
   8  -7  -1   12.76    1.38
  -8  -7   1    9.83    2.39
  -8   7   1   11.99    2.24
   8   7  -1   13.51    2.01
   7  -7  -1   53.62    4.23
  -7  -7   1   52.72    5.16
   7  -7  -1   54.91    4.85
  -7   7   1   53.05    4.96
   7   7  -1   58.59    4.67
   6  -7  -1    3.71    0.77
   6  -7  -1    4.10    0.61
  -6  -7   1    2.32    1.21
  -6   7   1    3.84    1.32
   6   7  -1    2.31    0.89
   5  -7  -1   54.34    4.48
   5  -7  -1   56.24    4.40
  -5  -7   1   53.68    4.80
  -5  -7   1   55.47    4.29
  -5   7   1   62.93    4.83
   5   7  -1   63.32    4.64
   4  -7  -1   73.42    5.54
   4  -7  -1   70.82    5.58
  -4  -7   1   70.91    5.46
  -4  -7   1   68.43    5.79
  -4   7   1   79.82    5.84
   4   7  -1   77.18    5.71
   3  -7  -1   29.22    2.18
  -3  -7   1   28.66    2.17
  -3  -7   1   27.81    2.40
   3  -7  -1   27.99    2.22
  -3   7   1   24.47    2.45
   3   7  -1   24.19    2.35
  -2  -7   1  152.26   11.48
  -2  -7   1  142.96   11.63
   2  -7  -1  151.47   11.50
  -2   7   1  159.57   11.68
   2   7  -1  169.57   11.61
   1  -7  -1   14.89    1.28
  -1  -7   1   14.48    1.47
  -1  -7   1   15.08    1.27
   1  -7  -1   13.15    1.28
   1   7  -1   16.49    1.55
   1   7  -1   16.41    1.47
  -1   7   1   15.41    1.54
   0  -7   1  122.76    9.14
   0  -7   1  132.49    9.15
   0  -7  -1  123.28    9.29
   0  -7  -1  133.87    9.14
   0  -7   1  122.53    9.27
   0  -7  -1  125.48    9.13
   0   7   1  115.66    9.45
   0   7  -1  113.64    9.28
   0   7   1  119.75    9.17
   0   7  -1  120.40    9.18
  -1  -7  -1   61.78    5.14
  -1  -7  -1   66.23    4.94
   1  -7   1   61.54    4.97
  -1  -7  -1   62.81    4.95
   1  -7   1   59.56    4.98
  -1   7  -1   71.81    5.18
   1   7   1   70.09    5.20
   1   7   1   76.51    5.08
  -2  -7  -1   32.54    2.67
   2  -7   1   31.91    2.61
   2  -7   1   32.68    2.59
  -2  -7  -1   31.37    2.79
   2   7   1   35.07    2.75
  -2   7  -1   34.76    2.83
   3  -7   1   89.51    6.72
  -3  -7  -1   89.33    6.65
  -3  -7  -1   84.19    6.95
   3  -7   1   86.36    6.75
  -3   7  -1   93.96    6.94
   3   7   1   94.25    6.87
   4  -7   1    1.38    0.44
  -4  -7  -1    1.67    0.82
   4  -7   1    1.39    0.56
  -4  -7  -1    1.75    0.27
  -4   7  -1    1.92    0.92
   4   7   1    1.50    0.71
   5  -7   1   82.50    6.14
   5  -7   1   78.10    6.22
  -5  -7  -1   76.93    6.58
   5   7   1   84.89    6.36
  -5   7  -1   83.12    6.55
   6  -7   1   18.25    1.98
   6  -7   1   18.51    1.71
  -6  -7  -1   17.23    2.69
  -6   7  -1   19.30    2.76
   6   7   1   22.05    2.18
  -7  -7  -1   15.92    3.43
   7  -7   1   21.82    2.93
   7  -7   1   21.99    1.92
  -7   7  -1   19.27    2.99
   7   7   1   26.60    2.76
   8  -7   1   32.78    3.06
   8  -7   1   30.39    2.64
  -8  -7  -1   34.70    4.36
  -8   7  -1   26.62    3.60
   8   7   1   33.61    3.34
   9  -7   1    0.77    1.16
  -9  -7  -1    0.69    2.39
  -9   7  -1    1.09    1.52
   9   7   1    2.55    1.45
  -9  -8   1   10.63    3.15
   9  -8  -1   14.11    2.35
   9  -8  -1   15.19    1.65
  -9   8   1   12.84    2.50
   9   8  -1   13.98    2.59
   8  -8  -1   34.50    2.94
   8  -8  -1   38.18    3.24
  -8  -8   1   40.07    4.63
  -8   8   1   27.30    3.98
   8   8  -1   29.99    3.43
   7  -8  -1    0.22    0.56
   7  -8  -1    0.55    0.89
  -7  -8   1    0.39    1.60
  -7   8   1    1.74    1.62
   7   8  -1    1.60    1.09
   6  -8  -1   51.45    4.00
   6  -8  -1   50.67    4.14
  -6  -8   1   47.24    4.68
   6   8  -1   53.71    4.38
  -6   8   1   52.50    4.69
   5  -8  -1   23.33    2.13
  -5  -8   1   22.10    1.95
   5  -8  -1   25.93    1.99
  -5  -8   1   26.41    2.59
   5   8  -1   19.33    2.42
  -5   8   1   19.45    2.58
   4  -8  -1   38.25    3.21
   4  -8  -1   40.90    3.13
  -4  -8   1   40.53    3.04
  -4  -8   1   38.68    3.46
  -3  -8   1   58.24    4.89
  -3  -8   1   63.09    4.62
   3  -8  -1   61.02    4.71
   3  -8  -1   63.44    4.67
  -3   8   1   58.77    4.94
   3   8  -1   62.20    4.88
  -2  -8   1   15.78    1.66
  -2  -8   1   16.47    1.36
   2  -8  -1   15.61    1.40
   2  -8  -1   14.85    1.46
   1  -8  -1   72.95    5.82
  -1  -8   1   73.48    5.99
  -1  -8   1   76.11    5.81
   1  -8  -1   73.90    5.81
   1   8  -1   84.61    6.06
  -1   8   1   83.30    6.05
   0  -8  -1   26.60    2.05
   0  -8  -1   27.56    2.06
   0  -8   1   25.68    2.03
   0  -8  -1   26.90    2.33
   0  -8   1   26.71    2.08
   0   8   1   20.75    2.16
  -1  -8  -1   70.19    5.77
  -1  -8  -1   74.12    5.52
   1  -8   1   71.36    5.57
   1  -8   1   69.53    5.60
  -1  -8  -1   71.12    5.53
   1   8   1   83.27    5.72
  -1   8  -1   78.37    5.80
   1   8   1   72.95    5.80
  -2  -8  -1   63.24    5.24
   2  -8   1   65.68    5.05
  -2  -8  -1   64.78    4.96
   2  -8   1   62.83    5.02
   2   8   1   72.84    5.20
  -2   8  -1   67.47    5.27
   3  -8   1   10.00    1.16
  -3  -8  -1   10.24    0.89
  -3  -8  -1    8.56    1.42
   3  -8   1    9.90    1.04
   3   8   1    7.89    1.48
  -3   8  -1    8.96    1.59
   4  -8   1   70.74    5.62
  -4  -8  -1   68.31    5.91
   4  -8   1   72.11    5.55
  -4  -8  -1   72.18    5.45
  -4   8  -1   75.83    5.92
   4   8   1   78.01    5.81
   5  -8   1    2.20    0.61
  -5  -8  -1    1.69    1.36
   5  -8   1    2.03    0.77
   5   8   1    4.51    1.14
  -5   8  -1    5.08    1.49
   6  -8   1   53.70    3.90
   6  -8   1   46.82    3.66
  -6   8  -1   40.01    4.42
   6   8   1   43.27    4.09
  -7  -8  -1   19.40    3.48
   7  -8   1   16.67    1.83
   7  -8   1   21.56    2.28
  -7   8  -1   15.47    3.15
   7   8   1   22.31    2.68
   8  -8   1   14.22    2.25
   8  -8   1   15.03    1.66
  -8  -8  -1   20.93    4.04
  -8   8  -1   12.17    2.49
   8   8   1   12.91    2.68
  -8  -9   1   11.80    2.94
   8  -9  -1   14.30    2.24
   8  -9  -1   13.40    1.65
  -8   9   1   12.55    2.56
   8   9  -1   15.94    2.75
   7  -9  -1   37.56    3.29
  -7  -9   1   40.71    4.68
   7  -9  -1   41.57    3.63
  -7   9   1   41.44    4.47
   7   9  -1   40.80    4.12
  -6  -9   1    0.89    1.44
   6  -9  -1    2.15    1.31
  -6   9   1    1.42    1.56
   6   9  -1    1.10    1.49
   5  -9  -1   65.16    5.20
   5  -9  -1   66.19    5.35
  -5  -9   1   66.64    5.75
  -5  -9   1   64.07    5.08
   5   9  -1   73.41    5.61
  -5   9   1   71.48    5.79
   4  -9  -1   33.26    2.66
  -4  -9   1   32.07    2.54
  -4  -9   1   33.29    3.12
   4  -9  -1   32.79    2.82
  -4   9   1   30.76    3.19
   4   9  -1   32.07    3.14
  -3  -9   1   35.48    2.88
   3  -9  -1   34.95    2.94
  -3  -9   1   35.12    3.28
   3  -9  -1   36.63    3.06
  -3   9   1   43.44    3.46
  -2  -9   1  105.28    7.64
  -2  -9   1  101.06    7.90
   2  -9  -1  103.15    7.71
   2  -9  -1  102.42    7.66
   2   9  -1  109.24    7.89
  -2   9   1  101.95    7.94
   2   9  -1   91.17    7.90
   1  -9  -1    9.52    1.00
   1  -9  -1    7.23    1.10
  -1  -9   1    8.52    1.00
  -1  -9   1    9.62    1.42
  -1   9   1    9.29    1.49
   1   9  -1    9.59    1.50
   1   9  -1    8.73    1.50
   0  -9  -1  123.57    8.43
   0  -9  -1  109.94    8.67
   0  -9   1  110.65    8.44
   0  -9   1  110.36    8.44
   0  -9  -1  111.93    8.42
   0   9  -1  119.77    8.55
   0   9   1  106.09    8.68
   0   9  -1  109.56    8.66
  -1  -9  -1   43.50    3.26
   1  -9   1   43.33    3.35
  -1  -9  -1   44.03    3.29
  -1  -9  -1   43.61    3.65
   1  -9   1   43.33    3.34
   1   9   1   37.96    3.63
   1   9   1   42.19    3.57
  -1   9  -1   41.64    3.65
   2  -9   1   35.46    2.82
  -2  -9  -1   33.04    3.14
  -2  -9  -1   34.25    2.73
   2  -9   1   37.41    2.89
  -2   9  -1   35.92    3.22
   2   9   1   31.40    3.17
   2   9   1   37.88    3.16
   3  -9   1   95.89    7.16
   3  -9   1   90.96    7.10
  -3  -9  -1   91.70    7.43
  -3  -9  -1   94.08    7.01
   3   9   1   96.60    7.36
  -3   9  -1   94.53    7.41
   4  -9   1    0.64    0.54
  -4  -9  -1    0.39    1.04
   4  -9   1    0.04    0.75
  -4  -9  -1    0.69    0.35
   4   9   1   -0.50    1.07
  -4   9  -1    0.52    1.25
  -5  -9  -1   72.06    7.81
   5  -9   1   76.02    5.83
   5  -9   1   80.09    5.99
   5   9   1   73.82    6.19
  -5   9  -1   75.97    6.40
  -6  -9  -1   18.35    3.38
   6  -9   1   23.65    2.48
   6  -9   1   20.97    2.06
  -6   9  -1   21.39    3.37
   6   9   1   26.29    2.94
   7  -9   1   16.45    2.25
   7  -9   1   11.55    1.63
  -7  -9  -1   19.49    3.77
  -7   9  -1   11.90    2.53
   7   9   1   14.90    2.69
  -8  -9  -1   38.70    5.47
   8  -9   1   34.27    3.18
   8  -9   1   38.21    3.64
  -8   9  -1   36.53    4.45
   8   9   1   39.72    4.12
  -7 -10   1    4.82    2.44
   7 -10  -1    2.99    0.84
   7 -10  -1    3.82    1.35
  -7  10   1    5.28    2.15
   7  10  -1    2.33    1.76
  -6 -10   1   56.56    5.36
   6 -10  -1   46.45    4.22
   6 -10  -1   47.47    4.49
   6  10  -1   63.25    5.05
  -6  10   1   56.05    5.24
  -5 -10   1   10.30    2.44
   5 -10  -1    9.66    1.82
   5 -10  -1   10.14    1.33
  -5  10   1   11.30    2.65
   5  10  -1   10.26    2.36
  -4 -10   1   47.43    3.88
   4 -10  -1   46.68    4.16
   4  10  -1   59.01    4.58
  -3 -10   1   49.70    4.39
  -3 -10   1   49.56    3.87
   3 -10  -1   51.17    4.11
   3 -10  -1   49.68    3.94
   3  10  -1   54.41    4.50
  -3  10   1   56.49    4.90
   3  10  -1   41.90    4.36
   2 -10  -1   23.87    2.08
   2 -10  -1   24.38    2.26
  -2 -10   1   25.39    2.60
  -2 -10   1   25.63    2.05
  -2  10   1   24.20    2.67
   2  10  -1   21.85    2.58
   2  10  -1   23.68    2.67
   1 -10  -1   89.28    6.53
  -1 -10   1   90.16    6.84
  -1 -10   1   90.10    6.53
   1 -10  -1   94.16    6.57
  -1  10   1   81.61    6.85
   1  10  -1   78.02    6.82
   1  10  -1   78.91    6.95
   0 -10  -1    4.98    0.81
   0 -10   1    3.67    0.66
   0  10   1    2.85    1.01
   0  10  -1    2.83    1.09
   0  10   1    3.13    1.10
   0  10  -1    3.01    1.01
   1 -10   1   68.22    5.08
   1 -10   1   70.04    5.11
  -1 -10  -1   69.16    5.03
  -1 -10  -1   67.40    5.42
   1  10   1   57.16    5.41
  -1  10  -1   63.02    5.42
   1  10   1   65.78    5.33
   2 -10   1   43.38    3.53
  -2 -10  -1   47.48    4.03
   2 -10   1   47.68    3.64
  -2 -10  -1   48.21    3.45
  -2  10  -1   38.54    3.95
   2  10   1   40.09    3.94
  -3 -10  -1    8.51    1.01
  -3 -10  -1    6.78    1.80
   3 -10   1    9.40    1.27
   3 -10   1    9.67    1.54
   3  10   1    8.94    1.65
  -3  10  -1   13.37    2.20
   3  10   1    8.58    1.90
  -4 -10  -1   71.99    5.35
   4 -10   1   68.61    5.48
  -4 -10  -1   71.42    6.07
   4 -10   1   72.93    5.64
   4  10   1   68.89    5.97
   5 -10   1    7.76    1.29
   5 -10   1    7.76    1.38
  -5 -10  -1    7.03    1.96
   5  10   1    7.44    2.34
  -5  10  -1    6.55    1.98
   6 -10   1   28.60    2.60
  -6 -10  -1   28.51    4.18
   6 -10   1   29.76    3.05
  -6  10  -1   26.93    3.96
   6  10   1   30.49    3.55
  -7 -10  -1   31.13    4.95
   7 -10   1   27.90    2.67
   7 -10   1   30.71    3.31
   7  10   1   29.95    3.70
  -7  10  -1   25.69    4.18
   6 -11  -1    6.16    1.06
   6 -11  -1    4.74    1.45
  -6 -11   1    4.82    2.34
  -6  11   1    5.29    2.18
   6  11  -1    5.21    2.10
   5 -11  -1   53.20    4.39
   5 -11  -1   45.30    3.97
  -5 -11   1   55.82    5.07
  -5  11   1   43.27    4.94
   5  11  -1   50.14    4.92
  -4 -11   1   25.89    4.16
   4 -11  -1   30.63    2.93
  -4 -11   1   25.12    2.28
   4 -11  -1   24.55    2.41
  -4  11   1   32.95    3.46
   4  11  -1   22.09    3.35
   4  11  -1   33.79    3.60
   3 -11  -1   23.15    2.14
  -3 -11   1   25.60    2.09
   3 -11  -1   27.82    2.58
  -3 -11   1   26.88    2.99
   3  11  -1   19.25    3.10
   3  11  -1   19.03    2.89
  -3  11   1   23.42    3.06
  -2 -11   1   47.52    4.34
  -2 -11   1   49.36    3.81
   2 -11  -1   52.12    4.02
   2 -11  -1   47.03    3.85
   2  11  -1   51.82    4.42
  -2  11   1   51.54    4.46
   2  11  -1   40.13    4.36
  -1 -11   1    1.61    0.65
   1  11  -1    1.49    1.25
  -1  11   1    1.99    1.29
   0 -11   1   53.76    4.11
   0 -11  -1   57.29    4.00
   0  11   1   51.22    4.54
   0  11  -1   42.98    4.29
   0  11  -1   46.43    5.51
  -1 -11  -1   19.02    2.47
   1 -11   1   17.81    1.76
  -1 -11  -1   17.48    1.66
   1  11   1   17.76    2.51
   1  11   1   18.57    2.52
  -2 -11  -1   19.37    1.65
   2 -11   1   18.49    1.79
   2 -11   1   19.72    2.40
  -2 -11  -1   17.62    2.61
   2  11   1   13.63    2.78
   2  11   1   15.72    2.56
  -2  11  -1   18.76    2.68
  -3 -11  -1   45.37    4.52
   3 -11   1   45.04    3.80
   3 -11   1   52.12    4.08
  -3 -11  -1   44.91    3.67
   3  11   1   41.70    4.46
   3  11   1   53.42    4.61
  -3  11  -1   49.13    4.52
   4 -11   1    0.76    0.76
  -4 -11  -1   -0.82    1.62
   4  11   1   -0.19    1.66
  -4  11  -1    1.86    1.83
   4  11   1    1.97    1.87
   5 -11   1   33.53    3.41
   5 -11   1   31.59    2.90
  -5 -11  -1   34.03    4.27
  -5  11  -1   34.26    4.25
   5  11   1   32.74    4.02
  -6 -11  -1   11.37    2.86
  -6  11  -1   10.02    2.57
   5 -12  -1    9.65    1.57
  -5 -12   1    9.73    2.51
  -5  12   1   12.40    2.57
   5  12  -1   10.65    2.53
   4 -12  -1   19.99    1.97
  -4 -12   1   23.13    3.39
   4  12  -1   15.20    2.82
  -4  12   1   20.30    3.46
   4  12  -1   13.14    3.23
  -3 -12   1   32.73    2.82
   3 -12  -1   32.22    2.77
  -3 -12   1   34.11    3.75
   3  12  -1   27.50    3.69
  -3  12   1   32.54    3.80
   3  12  -1   32.00    3.90
   2 -12  -1    3.86    0.85
  -2 -12   1    1.96    0.74
  -2 -12   1    4.20    1.57
   2  12  -1    3.19    2.00
   2  12  -1    0.33    1.52
  -2  12   1    2.45    1.72
  -1 -12   1   34.10    2.82
   1 -12  -1   33.47    2.80
   1  12  -1   31.92    3.59
   1  12  -1   31.72    3.79
  -1  12   1   33.15    3.70
   0 -12  -1    7.12    1.20
   0 -12   1    8.00    1.30
   0  12   1    9.10    1.81
   0  12  -1    7.34    1.81
  -1 -12  -1   21.20    1.93
   1 -12   1   20.46    2.04
  -1  12  -1   21.06    3.02
  -2 -12  -1   10.92    1.36
  -2 -12  -1    8.74    1.98
   2 -12   1    9.35    1.48
   2  12   1   14.63    2.68
   2  12   1   12.07    2.29
  -2  12  -1   15.53    2.80
  -3 -12  -1    7.30    1.22
  -3 -12  -1    7.35    2.02
   3 -12   1    5.36    1.04
  -3  12  -1    8.07    2.09
   3  12   1    7.45    2.31
   3  12   1    6.46    2.00
   4 -12   1   26.10    3.09
   4 -12   1   19.17    2.29
  -4 -12  -1   21.62    3.81
   4  12   1   29.95    4.04
  -4  12  -1   26.01    3.89
   4  12   1   24.41    3.66
   2 -13  -1   32.46    2.94
  -2 -13   1   35.46    2.96
  -2  13   1   35.88    4.24
   2  13  -1   31.63    4.07
  -1 -13   1    2.04    0.86
   1 -13  -1    1.28    0.88
  -1  13   1    3.63    1.93
   1  13  -1    1.02    1.80
   0 -13   1   35.71    3.20
   0 -13  -1   38.41    3.14
   0  13   1   34.14    4.24
   0  13  -1   39.81    4.28
  -1 -13  -1   16.48    1.86
   1 -13   1   17.64    1.97
  -1  13  -1   17.97    3.35
   1  13   1   20.91    4.07
  12   0  -2   35.71    3.62
 -12   0   2   44.90    3.90
  11   0  -2   11.21    1.94
  11   0  -2   12.57    1.75
 -11   0   2   14.29    2.01
 -10   0   2   34.65    3.46
  10   0  -2   31.44    2.73
  10   0  -2   29.72    2.84
   9   0  -2   41.04    3.38
  -9   0   2   47.01    3.63
   9   0  -2   37.68    3.39
   8   0  -2    6.82    1.03
  -8   0   2    8.18    1.25
   8   0  -2    7.33    0.94
   7   0  -2  141.07   10.64
  -7   0   2  145.24   10.85
   6   0  -2    4.35    0.78
   6   0  -2    4.70    0.59
  -6   0   2    4.24    0.90
   5   0  -2  107.18    7.43
  -5   0   2   92.71    7.60
  -4   0   2   22.00    1.53
   4   0  -2   20.42    1.55
  -4   0   2   17.85    1.51
   4   0  -2   19.64    1.53
  -3   0   2   13.09    0.96
   3   0  -2   12.28    0.97
  -3   0   2   11.95    0.95
   3   0  -2   12.90    1.05
  -3   0   2   11.77    1.01
  -3   0   2   12.29    0.96
  -2   0   2  111.72    9.90
  -2   0   2  133.56    9.90
   2   0  -2  149.04   10.08
  -2   0   2  132.23    9.90
  -2   0   2  132.00    9.91
   2   0  -2  142.10    9.91
   2   0  -2  141.40    9.91
  -1   0   2  138.97    9.30
   1   0  -2  134.91    9.30
   1   0  -2  105.23    9.30
   0   0  -2  177.44   12.23
   0   0  -2  175.84   12.26
   0   0   2  158.43   12.21
   0   0  -2  152.78   12.21
   1   0   2  411.88   30.63
  -1   0  -2  425.74   30.69
   1   0   2  436.07   30.64
  -1   0  -2  430.19   30.64
  -1   0  -2  382.27   30.63
   1   0   2  416.92   30.68
   2   0   2   33.66    2.51
   2   0   2   34.92    2.54
  -2   0  -2   32.32    2.60
  -2   0  -2   33.80    2.52
   4   0   2   92.89    6.82
  -4   0  -2   89.93    6.89
   6   0   2  166.01   12.72
  -6   0  -2  169.19   12.76
   6   0   2  176.76   12.79
  -7   0  -2    1.98    0.80
   7   0   2    2.45    0.72
  -7   0  -2    2.30    0.75
   7   0   2    1.83    0.60
   8   0   2  125.97    9.27
  -8   0  -2  109.70    9.47
   8   0   2  128.47    9.40
  -8   0  -2  127.12    9.38
   9   0   2    8.14    1.47
   9   0   2    8.24    1.64
  10   0   2   42.48    3.96
  10   0   2   42.60    3.74
 -10   0  -2   44.62    4.07
 -11  -1   2   54.58    4.57
  11  -1  -2   44.62    4.16
  11   1  -2   44.55    4.09
 -11   1   2   58.49    4.39
 -10  -1   2   34.40    3.50
  10  -1  -2   31.13    2.90
  10  -1  -2   30.52    2.93
  10   1  -2   36.05    3.04
  10   1  -2   37.36    2.87
   9  -1  -2   15.04    1.50
   9  -1  -2   14.48    1.50
  -9  -1   2   16.58    1.91
  -9   1   2   17.07    2.40
   9   1  -2   13.20    1.41
   9   1  -2   12.15    1.57
   8  -1  -2   95.55    7.49
  -8  -1   2   93.71    7.75
   8  -1  -2   96.39    7.50
   8   1  -2  106.84    7.46
   8   1  -2  104.75    7.57
   7  -1  -2    4.15    0.69
   7  -1  -2    3.93    0.75
   7   1  -2    5.17    0.83
  -7   1   2    6.98    1.16
   7   1  -2    6.00    0.65
   6  -1  -2   93.85    6.62
   6  -1  -2   76.47    6.55
   6  -1  -2   83.60    6.65
  -6   1   2   93.34    6.86
   6   1  -2   92.59    6.59
   6   1  -2   91.50    6.66
   5  -1  -2   86.22    7.13
   5  -1  -2   88.09    7.12
  -5   1   2   97.01    7.36
   5   1  -2  104.35    7.12
   5   1  -2  104.43    7.18
   4  -1  -2   30.96    2.00
   4   1  -2   22.59    1.97
   4   1  -2   23.38    1.92
   3  -1  -2  244.21   19.16
  -3  -1   2  257.97   19.15
   3  -1  -2  250.90   19.17
  -3  -1   2  271.94   19.17
   3   1  -2  278.68   19.16
   3   1  -2  256.15   19.19
  -3   1   2  274.97   19.16
   3   1  -2  250.84   19.16
  -2  -1   2    0.37    0.12
  -2  -1   2    0.59    0.10
  -2  -1   2    0.37    0.19
   2  -1  -2    0.16    0.25
   2   1  -2    0.96    0.16
  -2   1   2    0.68    0.13
   2   1  -2    0.60    0.23
   2   1  -2    0.60    0.15
   2   1  -2    0.60    0.12
  -2   1   2    0.70    0.24
   1  -1  -2  175.84   11.61
   1  -1  -2  180.18   11.61
  -1  -1   2  180.97   11.62
  -1  -1   2  162.93   11.60
   1  -1  -2  164.29   11.60
  -1  -1   2  161.01   11.59
  -1   1   2  136.92   11.60
   1   1  -2  140.18   11.61
  -1   1   2  140.70   11.60
   1   1  -2  133.29   11.59
   0  -1  -2  143.44    9.52
   0  -1  -2  113.35    9.53
   0  -1   2  122.87    9.51
   0  -1  -2  144.81    9.52
   0  -1  -2  126.81    9.51
   0  -1   2  129.26    9.51
   0   1   2  146.19    9.52
   0   1   2  111.93    9.50
   0   1   2  124.38    9.53
   0   1   2  141.20    9.51
   0   1  -2  122.56    9.50
   0   1  -2  122.04    9.50
  -1  -1  -2   92.84    7.25
   1  -1   2  108.15    7.29
  -1  -1  -2   92.86    7.26
   1  -1   2   95.74    7.23
   1  -1   2   99.86    7.22
   1   1   2   93.28    7.22
  -1   1  -2  101.10    7.29
  -1   1  -2   96.27    7.23
  -1   1  -2   97.87    7.24
   1   1   2  101.26    7.27
   1   1   2   96.82    7.25
  -2  -1  -2  222.69   17.17
   2  -1   2  232.44   17.10
   2  -1   2  232.99   17.13
  -2   1  -2  232.29   17.10
   2   1   2  243.12   17.12
  -2   1  -2  232.11   17.18
  -3  -1  -2    8.10    0.83
   3  -1   2    8.68    0.68
   3  -1   2    7.95    0.75
   3   1   2    8.42    0.73
  -3   1  -2    8.02    1.10
   4  -1   2  207.05   14.71
  -4  -1  -2  174.62   14.93
   4  -1   2  212.58   14.79
  -4  -1  -2  201.47   14.84
   4   1   2  201.32   14.76
  -4   1  -2  202.57   14.84
  -5  -1  -2   45.17    3.63
  -5  -1  -2   40.23    3.77
   5  -1   2   43.47    3.55
   5   1   2   50.69    3.67
  -5   1  -2   46.88    3.70
   5   1   2   49.98    3.53
   6  -1   2  113.26    8.70
  -6  -1  -2  113.81    8.78
  -6  -1  -2  107.02    8.94
   6   1   2  118.50    8.68
  -6   1  -2  122.99    8.78
   6   1   2  120.89    8.81
   7  -1   2   98.94    7.35
  -7  -1  -2   96.47    7.35
   7  -1   2   96.40    7.26
  -7  -1  -2   90.13    7.54
   7   1   2   96.37    7.39
  -7   1  -2   98.54    7.34
   7   1   2   92.81    7.22
   8  -1   2    0.88    0.65
  -8  -1  -2    1.84    1.03
   8  -1   2    1.66    0.79
  -8   1  -2    1.92    0.84
   8   1   2    1.69    0.65
  -8   1  -2    1.54    0.76
   8   1   2    0.49    0.80
   9  -1   2   57.00    4.54
   9  -1   2   57.45    4.46
   9   1   2   54.67    4.64
   9   1   2   49.79    4.38
  10  -1   2   16.97    2.82
  10  -1   2   15.90    2.29
 -10  -1  -2   16.48    2.66
  10   1   2   15.90    2.37
 -10   1  -2   20.60    2.37
  11  -2  -2    9.34    1.55
 -11  -2   2    9.46    1.88
  11   2  -2   13.51    2.00
  10  -2  -2   47.72    3.77
 -10  -2   2   51.20    4.27
  10  -2  -2   41.94    3.70
 -10   2   2   51.90    3.96
  10   2  -2   39.62    3.84
  10   2  -2   41.13    3.60
  -9  -2   2   68.20    5.84
   9  -2  -2   68.03    5.39
   9   2  -2   67.65    5.50
  -9   2   2   81.20    5.68
   9   2  -2   64.24    5.30
   8  -2  -2    8.86    0.74
  -8  -2   2    6.36    1.30
   8  -2  -2    8.03    1.04
   8   2  -2    5.91    1.12
   8   2  -2    5.33    0.93
  -8   2   2    8.29    1.42
   7  -2  -2  150.52   10.84
   7  -2  -2  140.41   10.74
  -7   2   2  153.13   11.09
   7   2  -2  142.52   10.76
   7   2  -2  140.38   10.88
   6  -2  -2   43.75    3.27
   6  -2  -2   45.85    3.36
  -6   2   2   39.88    3.65
   6   2  -2   44.17    3.40
   5  -2  -2   74.94    5.88
   5  -2  -2   79.99    5.91
   5   2  -2   79.93    5.85
   5   2  -2   81.03    5.95
  -4  -2   2  250.89   21.51
   4  -2  -2  303.73   21.35
   4  -2  -2  294.49   21.31
   4   2  -2  301.20   21.30
   4   2  -2  298.59   21.38
   3  -2  -2    2.57    0.28
  -3  -2   2    3.32    0.30
   3  -2  -2    2.30    0.32
  -3  -2   2    2.75    0.51
  -2  -2   2  378.96   29.50
   2  -2  -2  383.03   29.46
  -2  -2   2  390.86   29.45
   2  -2  -2  370.27   29.44
  -2   2   2  450.93   29.53
   2   2  -2  431.86   29.49
  -1  -2   2   82.26    6.65
   1  -2  -2   90.64    6.73
   1  -2  -2   83.90    6.65
  -1  -2   2   80.20    6.64
  -1  -2   2   86.07    6.66
   1  -2  -2   89.34    6.66
  -1  -2   2   82.31    6.67
  -1  -2   2   92.87    6.65
   1   2  -2  100.98    6.68
  -1   2   2   95.68    6.70
   1   2  -2   92.98    6.64
  -1   2   2  102.44    6.67
   1   2  -2   91.65    6.65
  -1   2   2   90.39    6.66
   0  -2   2  122.19    9.29
   0  -2   2  109.45    9.27
   0  -2  -2  123.99    9.28
   0  -2   2  112.95    9.28
   0  -2  -2  118.63    9.30
   0  -2  -2  122.40    9.31
   0  -2  -2  121.52    9.27
   0   2  -2  144.32    9.32
   0   2  -2  126.98    9.27
   0   2   2  138.62    9.30
   0   2  -2  145.54    9.32
   0   2  -2  121.77    9.29
   0   2  -2  128.75    9.29
  -1  -2  -2  159.14   10.65
   1  -2   2  151.84   10.75
  -1  -2  -2  141.79   10.69
   1  -2   2  142.55   10.71
   1  -2   2  147.11   10.65
   1  -2   2  146.91   10.64
  -1  -2  -2  149.28   10.69
  -1  -2  -2  152.17   10.63
   1   2   2  123.03   10.62
  -1   2  -2  128.51   10.68
   1   2   2  132.42   10.63
  -1   2  -2  158.61   10.71
  -2  -2  -2    9.24    0.85
  -2  -2  -2    8.24    0.86
   2  -2   2    9.40    0.79
   2  -2   2    9.57    0.75
   3  -2   2  128.07    8.72
  -3  -2  -2  121.50    8.76
  -3  -2  -2  109.08    8.83
   3  -2   2  128.27    8.67
   3   2   2  116.61    8.76
  -3   2  -2  110.36    8.76
   3   2   2  107.03    8.66
   4  -2   2   38.06    2.46
  -4  -2  -2   36.17    2.81
  -4  -2  -2   38.01    2.72
  -4   2  -2   27.47    2.58
   4   2   2   27.70    2.65
   4   2   2   28.28    2.48
   5  -2   2   76.44    5.43
  -5  -2  -2   68.96    5.59
   5  -2   2   73.54    5.53
  -5  -2  -2   72.58    5.82
   5   2   2   71.58    5.47
   5   2   2   71.27    5.61
  -5   2  -2   76.07    5.58
   6  -2   2   50.70    3.39
  -6  -2  -2   51.81    3.67
   6  -2   2   52.02    3.57
  -6   2  -2   39.51    3.60
   6   2   2   37.90    3.64
   6   2   2   38.27    3.46
   7  -2   2   11.07    1.37
   7  -2   2   11.07    1.30
  -7  -2  -2   12.57    1.89
  -7  -2  -2   10.68    1.44
  -7   2  -2   10.91    1.43
   7   2   2    9.00    1.15
   7   2   2    9.97    1.45
  -7   2  -2   10.09    1.48
   8  -2   2   45.18    3.68
   8  -2   2   41.60    3.62
  -8  -2  -2   47.66    4.16
  -8   2  -2   43.31    3.73
   8   2   2   41.76    3.82
   8   2   2   44.66    3.54
  -8   2  -2   44.39    3.75
   9  -2   2    3.76    0.97
  -9  -2  -2    3.84    1.41
   9   2   2    3.09    0.83
  -9   2  -2    4.10    1.15
  -9   2  -2    3.82    1.27
  10  -2   2   20.48    2.59
 -10  -2  -2   25.42    3.21
 -10   2  -2   27.65    2.61
  10   2   2   23.14    2.51
  10   2   2   21.29    2.78
 -11  -3   2   39.49    4.03
  11  -3  -2   35.88    3.45
  11   3  -2   34.22    3.59
 -11   3   2   42.91    3.56
 -10  -3   2   27.85    3.31
 -10   3   2   34.30    3.01
  10   3  -2   24.94    2.90
   9  -3  -2   13.00    1.59
  -9  -3   2   10.10    1.99
   9  -3  -2   14.98    1.29
  -9   3   2   14.99    2.01
   9   3  -2   13.74    1.34
   9   3  -2   14.15    1.75
   8  -3  -2  134.56   10.05
   8  -3  -2  134.10   10.08
   8   3  -2  132.19   10.16
  -8   3   2  140.30   10.37
   8   3  -2  130.71    9.96
   7  -3  -2   13.19    1.29
   7  -3  -2   13.56    1.11
   7   3  -2   13.63    1.41
   7   3  -2   12.03    1.09
  -7   3   2   12.88    1.81
   6  -3  -2  185.68   13.76
   6  -3  -2  186.98   13.69
   6   3  -2  185.03   13.82
   6   3  -2  184.57   13.68
   5  -3  -2  129.91    9.59
   5  -3  -2  138.96    9.49
  -5   3   2  115.08    9.82
   4  -3  -2   70.03    5.00
  -4  -3   2   70.97    5.21
   4  -3  -2   72.06    4.97
   4   3  -2   60.78    5.03
  -4   3   2   59.66    5.15
   3  -3  -2  303.58   23.61
   3  -3  -2  338.95   23.69
  -3  -3   2  327.30   23.59
   3   3  -2  303.91   23.64
  -3   3   2  331.45   23.73
  -2  -3   2   13.31    1.03
   2  -3  -2   12.96    1.05
   2  -3  -2   13.48    1.03
  -2  -3   2   13.26    1.09
  -2   3   2   12.46    1.12
   1  -3  -2  316.33   22.99
  -1  -3   2  324.82   23.04
  -1  -3   2  298.14   22.98
   1  -3  -2  323.93   23.01
  -1  -3   2  316.03   23.00
   1   3  -2  329.98   23.04
  -1   3   2  320.42   23.06
   1   3  -2  273.96   22.97
   0  -3  -2  161.54   11.01
   0  -3   2  139.87   10.93
   0  -3   2  153.22   10.95
   0  -3  -2  164.16   10.95
   0  -3  -2  152.41   10.93
   0   3  -2  139.50   11.01
   0   3  -2  133.21   10.93
   0   3  -2  137.89   10.97
   0   3   2  144.23   10.94
   0   3   2  153.93   10.96
   0   3  -2  152.99   10.98
  -1  -3  -2  154.01   11.40
   1  -3   2  137.51   11.36
  -1  -3  -2  156.04   11.35
  -1  -3  -2  146.39   11.42
   1  -3   2  153.49   11.36
  -1  -3  -2  153.15   11.33
   1   3   2  165.24   11.36
  -1   3  -2  152.89   11.40
   1   3   2  167.17   11.40
  -2  -3  -2  145.23   11.60
   2  -3   2  149.54   11.52
  -2  -3  -2  164.66   11.48
   2  -3   2  166.24   11.60
  -2  -3  -2  153.23   11.57
   2   3   2  160.71   11.57
   2   3   2  157.30   11.49
  -2   3  -2  148.57   11.60
   2   3   2  154.10   11.49
  -2   3  -2  159.90   11.58
  -3  -3  -2   17.71    1.48
  -3  -3  -2   16.47    1.55
   3  -3   2   18.15    1.42
   3  -3   2   19.44    1.36
   3   3   2   18.17    1.49
  -3   3  -2   13.75    1.59
  -3   3  -2   16.99    1.54
   3   3   2   16.27    1.34
   4  -3   2   79.06    5.98
   4  -3   2   78.80    6.05
  -4  -3  -2   71.82    6.09
  -4   3  -2   85.50    6.09
   4   3   2   86.70    6.13
  -5  -3  -2   30.02    2.50
   5  -3   2   29.23    2.41
  -5  -3  -2   30.71    2.80
   5  -3   2   30.09    2.28
   5   3   2   29.07    2.52
   5   3   2   28.88    2.31
  -5   3  -2   30.14    2.46
  -6   3  -2   19.58    1.72
  -6   3  -2   13.49    1.90
   6   3   2   16.04    1.44
   6   3   2   17.72    1.74
   7  -3   2   39.30    3.30
  -7  -3  -2   43.60    3.87
   7  -3   2   38.52    3.07
  -7   3  -2   38.48    3.49
   7   3   2   38.77    3.17
   7   3   2   40.71    3.47
  -7   3  -2   43.68    3.37
  -8  -3  -2   -0.99    1.15
   8  -3   2    0.23    0.71
   8  -3   2   -0.32    0.66
  -8   3  -2    0.54    0.81
   8   3   2   -0.01    0.85
  -8   3  -2    0.12    0.85
   8   3   2    0.20    0.60
   9  -3   2   37.90    3.48
   9  -3   2   37.77    3.45
  -9  -3  -2   44.55    4.17
  -9   3  -2   41.82    3.54
   9   3   2   37.01    3.68
   9   3   2   34.55    3.27
  -9   3  -2   44.18    3.57
 -10  -3  -2    7.81    2.01
  10  -3   2    6.76    1.40
 -10   3  -2   10.91    1.73
  10   3   2   10.68    1.79
  11  -4  -2    7.00    1.31
 -11  -4   2    4.35    1.85
  11   4  -2    5.94    1.44
  10  -4  -2   17.90    2.19
 -10   4   2   22.89    2.54
  10   4  -2   17.18    2.35
   9  -4  -2   58.89    4.29
   9  -4  -2   59.68    4.51
  -9   4   2   54.23    4.81
   9   4  -2   50.32    4.59
   8  -4  -2    0.58    0.42
  -8  -4   2    0.52    1.13
   8  -4  -2    1.06    0.63
   8   4  -2    0.82    0.68
  -8   4   2    1.25    1.09
  -7  -4   2   68.07    6.76
   7  -4  -2   87.54    6.33
   7  -4  -2   89.09    6.23
   7   4  -2   86.29    6.42
   6  -4  -2   37.71    2.95
   6  -4  -2   39.55    2.88
  -6  -4   2   38.86    3.46
   6   4  -2   34.03    3.03
  -5  -4   2   85.76    6.68
   5  -4  -2   89.11    6.34
   5  -4  -2   82.07    6.38
   5   4  -2   89.03    6.45
  -5   4   2   79.05    6.60
  -4  -4   2  221.81   15.28
  -4  -4   2  202.63   15.49
   4  -4  -2  205.92   15.33
   4  -4  -2  213.61   15.30
  -4   4   2  205.06   15.50
   4   4  -2  195.43   15.37
   3  -4  -2   30.94    2.69
   3  -4  -2   34.14    2.68
  -3  -4   2   34.68    2.80
  -3  -4   2   37.17    2.66
  -3   4   2   37.44    2.84
   3   4  -2   38.05    2.77
   2  -4  -2  289.97   21.24
  -2  -4   2  272.90   21.33
  -2  -4   2  279.42   21.19
   2  -4  -2  276.54   21.19
  -2   4   2  314.49   21.30
   2   4  -2  295.37   21.25
   1  -4  -2   34.56    2.56
  -1  -4   2   33.69    2.52
  -1  -4   2   33.62    2.66
  -1  -4   2   36.70    2.61
   1  -4  -2   36.91    2.55
  -1   4   2   26.97    2.61
   0  -4  -2  175.45   13.47
   0  -4  -2  165.82   13.38
   0  -4  -2  179.26   13.39
   0  -4   2  162.99   13.43
   0  -4   2  156.92   13.38
   0  -4   2  168.02   13.40
   0   4   2  206.67   13.43
   0   4   2  200.67   13.50
   0   4  -2  207.79   13.45
   0   4  -2  194.44   13.46
   1  -4   2  161.74   12.34
  -1  -4  -2  174.15   12.33
  -1  -4  -2  162.11   12.31
   1  -4   2  156.32   12.34
  -1  -4  -2  167.25   12.43
   1   4   2  172.85   12.39
  -1   4  -2  158.51   12.41
  -1   4  -2  185.04   12.39
   2  -4   2   27.87    2.37
  -2  -4  -2   30.41    2.31
   2  -4   2   29.58    2.36
  -2  -4  -2   30.84    2.35
  -2  -4  -2   26.98    2.46
  -2   4  -2   32.37    2.49
   2   4   2   33.26    2.44
   2   4   2   32.00    2.33
  -2   4  -2   34.47    2.46
  -3  -4  -2  109.00    9.39
   3  -4   2  119.86    9.30
   3  -4   2  120.01    9.23
   3   4   2  139.91    9.38
  -3   4  -2  125.53    9.41
   3   4   2  133.76    9.23
   4  -4   2    7.90    0.75
   4  -4   2    6.83    0.90
  -4  -4  -2    6.83    1.46
   4   4   2    7.74    0.71
  -4   4  -2    6.68    1.34
   4   4   2    8.86    1.01
  -4   4  -2    7.91    0.97
   5  -4   2   68.81    5.60
  -5  -4  -2   69.50    6.00
   5  -4   2   69.21    5.69
   5   4   2   85.71    5.69
   5   4   2   80.79    5.81
  -6  -4  -2   62.51    5.15
   6  -4   2   60.14    4.53
   6  -4   2   58.75    4.67
  -6   4  -2   63.63    4.84
   6   4   2   63.32    4.83
   6   4   2   60.53    4.53
  -6   4  -2   51.02    4.95
   7  -4   2    5.22    0.94
   7  -4   2    7.56    1.27
  -7  -4  -2    6.09    1.54
  -7   4  -2    7.25    1.38
  -7   4  -2    8.48    1.34
   7   4   2    6.23    0.97
   7   4   2    7.20    1.42
   8  -4   2   60.69    4.74
   8  -4   2   55.22    4.74
  -8  -4  -2   63.96    5.41
   8  -4   2   50.46    4.47
   8   4   2   56.03    4.61
  -8   4  -2   60.81    4.86
   8   4   2   55.67    4.93
  -8   4  -2   62.81    4.70
   9  -4   2   10.99    1.95
  -9  -4  -2   10.48    2.18
   9   4   2    9.71    2.09
  10  -4   2   17.79    2.63
 -10  -4  -2   21.57    3.51
 -10   4  -2   22.58    2.43
  10   4   2   16.60    2.83
 -11  -5   2   14.53    3.36
  11  -5  -2   16.39    2.37
  11   5  -2   17.96    2.64
  10  -5  -2   23.28    2.40
 -10  -5   2   14.55    3.22
 -10   5   2   21.38    2.72
  10   5  -2   19.15    2.53
   9  -5  -2    9.98    2.07
  -9  -5   2    7.08    2.28
   9  -5  -2   11.41    1.21
  -9   5   2   11.58    2.40
   8  -5  -2   47.97    3.81
   8  -5  -2   48.10    3.63
  -8   5   2   39.42    4.75
   8   5  -2   49.57    3.95
   7  -5  -2    1.20    0.40
   7  -5  -2    0.91    0.56
  -7  -5   2    1.43    1.11
  -7   5   2    0.52    1.04
   7   5  -2    0.58    0.66
   6  -5  -2   80.78    5.62
  -6  -5   2   76.03    6.13
   6  -5  -2   77.55    5.69
  -6   5   2   65.18    5.97
   6   5  -2   73.28    5.77
   5  -5  -2   50.52    3.67
  -5  -5   2   50.69    3.99
   5  -5  -2   51.87    3.61
  -5   5   2   42.37    3.89
   5   5  -2   41.24    3.71
  -4  -5   2   48.34    3.39
   4  -5  -2   48.63    3.41
  -4  -5   2   48.06    3.65
   4  -5  -2   44.73    3.45
  -4   5   2   40.77    3.61
   4   5  -2   38.43    3.49
  -3  -5   2  176.36   13.77
   3  -5  -2  183.30   13.67
   3  -5  -2  187.28   13.67
  -3  -5   2  191.27   13.63
   3   5  -2  186.28   13.73
  -2  -5   2   11.20    0.90
   2  -5  -2    9.30    0.94
   2  -5  -2   10.15    0.94
  -2  -5   2    9.91    1.02
   2   5  -2   12.42    1.07
  -2   5   2   13.04    1.12
  -1  -5   2  283.54   20.90
  -1  -5   2  270.31   20.79
  -1  -5   2  284.94   20.83
   1  -5  -2  285.54   20.82
  -1   5   2  287.30   20.94
   1   5  -2  295.07   20.89
   1   5  -2  274.00   20.91
   0  -5   2   48.16    4.03
   0  -5  -2   54.27    4.00
   0  -5  -2   52.06    3.87
   0  -5   2   51.06    3.89
   0  -5   2   50.09    3.87
   0  -5  -2   55.13    3.89
   1  -5   2   87.60    6.71
  -1  -5  -2   97.84    6.69
   1  -5   2   89.56    6.71
  -1  -5  -2   92.52    6.67
  -1  -5  -2   88.31    6.82
   1   5   2   91.00    6.76
  -1   5  -2   84.18    6.78
  -2  -5  -2  164.92   11.78
   2  -5   2  150.81   11.82
  -2   5  -2  155.25   11.91
   2   5   2  170.09   11.89
   2   5   2  157.26   11.76
   3  -5   2    3.44    0.64
   3  -5   2    4.01    0.58
  -3  -5  -2    3.50    0.38
  -3  -5  -2    3.60    0.78
   3   5   2    2.95    0.43
  -3   5  -2    4.22    0.85
   3   5   2    3.76    0.75
   4  -5   2  133.40    9.78
   4  -5   2  142.05    9.73
  -4  -5  -2  123.99    9.98
   4   5   2  124.94    9.66
  -4   5  -2  126.24    9.97
   4   5   2  134.44    9.86
  -5  -5  -2   49.20    4.30
   5  -5   2   51.02    3.94
   5  -5   2   50.16    3.84
  -5   5  -2   45.36    4.26
   5   5   2   54.51    4.07
  -6  -5  -2   26.90    2.92
   6  -5   2   27.18    2.11
   6  -5   2   29.61    2.38
   6   5   2   24.97    2.46
   6   5   2   23.23    2.06
   7  -5   2   60.83    4.88
   7  -5   2   67.72    5.11
  -7  -5  -2   71.91    5.81
   7   5   2   65.37    5.25
  -7   5  -2   57.19    5.40
  -8  -5  -2   -0.26    1.50
   8  -5   2    0.07    0.47
   8  -5   2    0.25    0.86
   8   5   2    0.64    1.03
  -8   5  -2    0.20    1.20
  -9  -5  -2   50.70    5.12
   9  -5   2   42.37    4.08
  -9   5  -2   49.83    4.19
   9   5   2   45.49    4.37
  10  -6  -2   18.99    2.65
  10   6  -2   23.11    2.78
 -10   6   2   28.95    3.21
  -9  -6   2   33.60    4.48
   9  -6  -2   40.79    3.21
   9  -6  -2   44.60    3.69
   9   6  -2   40.77    3.63
  -9   6   2   36.63    4.03
   8  -6  -2    4.94    0.85
  -8  -6   2    1.92    1.57
   8  -6  -2    5.18    0.96
  -8   6   2    5.28    1.62
   8   6  -2    3.88    1.04
   7  -6  -2   75.41    5.67
   7  -6  -2   77.76    5.80
  -7  -6   2   73.68    6.40
  -7   6   2   68.78    6.22
   7   6  -2   77.97    5.91
   6  -6  -2   12.41    1.41
  -6  -6   2   13.74    2.03
   6  -6  -2   13.49    1.25
   6   6  -2   14.89    1.60
   5  -6  -2   58.27    4.42
  -5  -6   2   61.05    4.27
  -5  -6   2   57.67    4.71
   5  -6  -2   59.50    4.35
  -5   6   2   52.96    4.67
   5   6  -2   53.36    4.50
  -4  -6   2   80.81    6.27
  -4  -6   2   75.45    6.50
   4  -6  -2   81.46    6.32
   4  -6  -2   76.13    6.34
  -4   6   2   96.60    6.57
   4   6  -2   96.66    6.48
  -3  -6   2   24.20    1.68
   3  -6  -2   23.19    1.72
   3  -6  -2   20.46    1.76
  -3  -6   2   22.26    1.90
  -3   6   2   19.76    1.95
   3   6  -2   17.36    1.86
   2  -6  -2  141.01    9.85
  -2  -6   2  140.10    9.83
   2  -6  -2  138.59    9.86
   2   6  -2  123.47    9.95
  -2   6   2  120.44    9.96
   1  -6  -2   31.22    2.68
   1  -6  -2   33.83    2.65
  -1  -6   2   32.45    2.59
  -1  -6   2   31.69    2.65
  -1  -6   2   34.53    2.75
   1   6  -2   34.87    2.78
   1   6  -2   38.37    2.75
  -1   6   2   39.27    2.84
   0  -6   2   90.39    6.36
   0  -6   2   89.51    6.36
   0  -6  -2   96.16    6.38
   0  -6  -2   92.69    6.33
   0  -6  -2   93.93    6.50
   0   6   2   73.09    6.37
   0   6  -2   71.07    6.43
   0   6  -2   74.48    6.38
   1  -6   2  121.42    9.73
  -1  -6  -2  127.08    9.71
   1  -6   2  121.79    9.74
  -1  -6  -2  124.82    9.88
  -1  -6  -2  139.45    9.72
   1   6   2  143.42    9.81
  -1   6  -2  129.99    9.88
  -1   6  -2  142.91    9.80
  -2  -6  -2   14.40    1.45
  -2  -6  -2   14.93    1.12
   2   6   2   11.87    1.37
  -2   6  -2   14.14    1.36
   3  -6   2  129.78    9.47
  -3  -6  -2  133.20    9.36
   3  -6   2  133.85    9.44
  -3  -6  -2  121.72    9.64
  -3   6  -2  120.27    9.60
   3   6   2  121.60    9.54
  -4  -6  -2   18.95    2.07
   4  -6   2   19.47    1.83
   4  -6   2   20.86    1.72
  -4   6  -2   22.96    2.20
  -5  -6  -2   52.98    4.73
   5  -6   2   60.16    4.40
   5  -6   2   57.84    4.27
   5   6   2   56.75    4.53
  -5   6  -2   50.04    4.72
   6  -6   2   73.27    5.58
   6  -6   2   70.37    5.42
  -6  -6  -2   72.53    6.09
   6   6   2   69.62    5.70
   7  -6   2    8.87    1.70
   7  -6   2    8.52    1.12
  -7  -6  -2    8.86    2.01
  -7   6  -2   11.19    1.96
   7   6   2   12.05    2.19
   8  -6   2   64.13    5.24
  -8  -6  -2   74.22    6.25
   8  -6   2   60.58    4.93
   8   6   2   64.91    5.46
  -8   6  -2   59.92    5.51
   9  -6   2    5.32    1.41
  -9  -6  -2    8.35    2.46
  -9   6  -2    6.02    1.52
   9   6   2    2.48    1.49
 -10  -7   2   16.20    3.57
  10  -7  -2   30.64    2.85
  10   7  -2   23.82    3.15
 -10   7   2   23.14    3.33
   9  -7  -2   14.95    2.06
   9  -7  -2   12.68    1.63
   9   7  -2   12.17    2.32
  -9   7   2   13.05    2.94
   8  -7  -2   58.73    4.35
   8  -7  -2   55.37    4.11
  -8  -7   2   52.45    5.26
   8   7  -2   51.53    4.51
  -8   7   2   42.90    4.94
   7  -7  -2    1.65    0.54
   7  -7  -2    1.61    0.73
  -7  -7   2    2.65    1.42
   7   7  -2    0.42    0.91
   6  -7  -2   74.64    5.54
   6  -7  -2   74.61    5.65
  -6  -7   2   71.75    6.22
  -6   7   2   71.86    6.02
   6   7  -2   71.44    5.79
   5  -7  -2   42.24    3.26
  -5  -7   2   39.24    3.55
  -5  -7   2   41.09    3.06
   5  -7  -2   41.18    3.16
   5   7  -2   39.63    3.42
  -5   7   2   38.19    3.56
   4  -7  -2   29.61    2.50
   4  -7  -2   30.45    2.42
  -4  -7   2   29.39    2.40
  -4  -7   2   31.31    2.71
  -4   7   2   30.66    2.76
   4   7  -2   31.38    2.67
  -3  -7   2   93.30    7.27
   3  -7  -2   91.35    7.33
  -3  -7   2   87.88    7.53
   3  -7  -2   92.95    7.29
  -3   7   2  108.19    7.54
   3   7  -2  112.76    7.47
  -2  -7   2   11.46    0.99
   2  -7  -2   10.17    0.98
  -2  -7   2    9.70    1.19
  -2   7   2   11.92    1.31
   2   7  -2    9.87    1.31
  -1  -7   2   79.94    6.34
   1  -7  -2   82.40    6.34
  -1  -7   2   81.07    6.46
   1  -7  -2   83.13    6.33
  -1  -7   2   77.15    6.28
   1   7  -2   90.47    6.59
   1   7  -2   91.72    6.52
  -1   7   2   93.00    6.54
   0  -7   2   84.38    6.81
   0  -7  -2   84.36    6.82
   0  -7   2   82.70    6.85
   0  -7  -2   92.36    6.83
   0  -7  -2   85.61    7.00
   0   7   2  100.04    6.89
   0   7  -2   95.49    7.01
   0   7  -2  102.62    6.93
   0   7   2   97.81    7.05
   1  -7   2   23.27    1.69
  -1  -7  -2   20.67    1.91
  -1  -7  -2   22.29    1.63
   1  -7   2   21.85    1.69
  -1  -7  -2   21.53    1.62
  -1   7  -2   15.86    1.78
   1   7   2   16.32    1.81
  -2  -7  -2  131.88   10.52
   2  -7   2  130.22   10.35
   2  -7   2  132.01   10.34
  -2   7  -2  144.98   10.39
   2   7   2  149.53   10.46
  -2   7  -2  145.35   10.51
  -3  -7  -2   12.90    1.08
  -3  -7  -2   12.96    1.60
   3  -7   2   12.83    1.38
   3  -7   2   12.25    1.23
  -3   7  -2   13.77    1.69
   3   7   2   14.37    1.56
  -4  -7  -2   78.64    5.69
  -4  -7  -2   72.88    6.14
   4  -7   2   77.50    5.89
   4  -7   2   78.96    5.81
  -4   7  -2   74.88    6.14
   4   7   2   76.19    6.00
  -5  -7  -2   25.54    2.91
   5  -7   2   26.10    2.28
   5  -7   2   25.69    2.49
  -5   7  -2   27.85    3.07
   5   7   2   33.35    2.72
  -6  -7  -2   20.56    2.79
   6  -7   2   20.68    2.09
   6  -7   2   21.51    1.75
   6   7   2   16.22    2.26
  -6   7  -2   13.63    2.78
   7  -7   2   48.16    3.83
  -7  -7  -2   50.76    5.00
   7  -7   2   48.26    4.10
   7   7   2   47.53    4.32
  -8  -7  -2   -1.35    1.96
   8  -7   2    1.05    0.81
   8  -7   2    0.12    1.10
  -8   7  -2   -0.05    1.46
   8   7   2    1.10    1.29
  -9  -7  -2   25.90    4.58
   9   7   2   21.62    3.25
  -9   7  -2   28.84    3.29
   9  -8  -2   39.69    3.35
  -9  -8   2   29.50    4.81
   9  -8  -2   34.66    2.89
  -9   8   2   30.88    4.11
   9   8  -2   30.14    3.60
   8  -8  -2   10.50    1.82
  -8  -8   2   10.21    2.53
   8  -8  -2    6.29    1.42
   8   8  -2    8.92    1.68
  -8   8   2    8.28    2.13
  -7  -8   2   52.32    6.23
   7  -8  -2   62.27    4.38
  -7   8   2   50.07    5.37
   7   8  -2   55.35    5.12
   6  -8  -2    8.84    1.08
  -6  -8   2    8.79    2.00
   6  -8  -2    8.17    1.40
   6   8  -2    6.67    1.33
  -6   8   2    9.67    2.13
  -5  -8   2   37.59    2.83
   5  -8  -2   37.19    2.94
  -5  -8   2   38.00    3.41
   5  -8  -2   35.08    3.06
  -5   8   2   36.94    3.44
   5   8  -2   35.00    3.31
   4  -8  -2   46.14    3.57
  -4  -8   2   43.58    3.76
   4  -8  -2   43.58    3.45
  -4  -8   2   44.59    3.39
  -4   8   2   42.14    3.79
   4   8  -2   45.39    3.75
   3  -8  -2    5.45    0.99
  -3  -8   2    6.24    1.15
  -3  -8   2    6.31    0.93
   3  -8  -2    6.16    0.79
  -2  -8   2   78.66    6.12
   2  -8  -2   77.04    6.12
   2  -8  -2   78.02    6.16
  -2  -8   2   76.34    6.29
   2   8  -2   81.42    6.35
   2   8  -2   92.06    6.32
  -2   8   2   87.16    6.38
  -1  -8   2   19.78    1.64
   1  -8  -2   21.84    1.71
   1  -8  -2   21.49    1.81
  -1  -8   2   22.08    1.74
  -1  -8   2   21.52    1.95
   1   8  -2   16.96    1.97
   0  -8   2   53.47    4.36
   0  -8  -2   59.11    4.39
   0  -8  -2   54.07    4.61
   0  -8  -2   55.43    4.38
   0  -8   2   54.59    4.41
   0   8   2   71.79    4.73
   1  -8   2   56.40    4.49
  -1  -8  -2   54.66    4.70
   1  -8   2   59.24    4.54
  -1  -8  -2   59.77    4.43
  -1  -8  -2   56.98    4.43
   1   8   2   65.23    4.64
   1   8   2   59.03    4.74
  -1   8  -2   58.88    4.71
  -2  -8  -2   20.67    2.17
   2  -8   2   22.44    1.93
  -2  -8  -2   22.08    1.75
   2  -8   2   21.88    1.86
  -3  -8  -2   91.11    6.85
   3  -8   2   87.04    6.99
  -3  -8  -2   89.05    7.24
   3  -8   2   89.37    6.95
  -3   8  -2  104.53    7.27
  -4  -8  -2   16.12    1.35
   4  -8   2   14.37    1.72
  -4  -8  -2   16.87    2.08
   4  -8   2   14.91    1.46
  -4   8  -2   11.06    2.20
   4   8   2   14.19    1.95
   5  -8   2   38.54    3.19
  -5  -8  -2   40.87    4.67
   5  -8   2   39.45    3.39
   5   8   2   39.01    3.61
  -5   8  -2   41.90    3.97
   6  -8   2   28.76    3.34
   6  -8   2   32.90    2.70
  -6  -8  -2   32.87    3.78
  -6   8  -2   29.70    3.62
   6   8   2   35.03    3.33
   7  -8   2    5.88    1.34
   7  -8   2    6.17    0.94
  -7  -8  -2    6.67    2.30
   7   8   2    4.33    1.47
  -7   8  -2    5.60    1.91
  -8  -8  -2   39.53    4.98
   8  -8   2   36.61    3.36
   8  -8   2   31.59    2.81
   8   8   2   29.42    3.67
  -8   8  -2   27.30    3.74
   8  -9  -2   49.06    4.07
  -8  -9   2   53.54    5.68
   8  -9  -2   55.04    4.42
   8   9  -2   45.42    4.74
  -7  -9   2    3.00    2.36
  -7   9   2    2.47    1.84
   7   9  -2    1.52    1.52
  -6  -9   2   49.95    5.69
   6  -9  -2   55.30    4.41
  -6   9   2   53.75    4.94
  -5  -9   2   26.19    2.19
  -5  -9   2   25.81    2.93
   5  -9  -2   27.32    2.31
   5  -9  -2   27.65    2.57
   5   9  -2   29.21    2.94
  -5   9   2   27.15    3.05
  -4  -9   2   31.37    3.12
   4  -9  -2   32.62    2.72
  -4  -9   2   32.34    2.65
   4  -9  -2   33.06    2.91
  -4   9   2   39.30    3.42
  -3  -9   2   68.12    5.69
   3  -9  -2   78.17    5.53
   3  -9  -2   72.11    5.43
  -3  -9   2   76.33    5.40
   3   9  -2   73.94    5.72
   3   9  -2   59.75    5.75
  -3   9   2   69.92    5.77
  -2  -9   2    7.99    0.93
   2  -9  -2    6.46    1.13
   2  -9  -2    7.90    0.90
  -2  -9   2    8.28    1.37
   2   9  -2    6.29    1.21
   2   9  -2    5.70    1.15
  -2   9   2    5.41    1.21
   1  -9  -2   67.95    5.29
  -1  -9   2   69.99    5.53
  -1  -9   2   65.85    5.30
   1  -9  -2   68.48    5.32
   1   9  -2   75.95    5.51
   1   9  -2   70.88    5.58
  -1   9   2   69.73    5.59
   0  -9  -2   41.95    3.04
   0  -9   2   40.82    3.03
   0  -9  -2   40.86    3.40
   0  -9   2   39.21    3.08
   0  -9  -2   45.07    3.06
   0   9   2   31.66    3.35
   0   9  -2   31.01    3.25
  -1  -9  -2   20.43    2.19
   1  -9   2   19.66    1.83
   1  -9   2   20.02    1.79
  -1  -9  -2   20.84    1.69
  -2  -9  -2   71.04    5.57
   2  -9   2   76.67    5.72
  -2  -9  -2   68.64    5.95
   2  -9   2   67.21    5.65
   2   9   2   83.87    5.93
   2   9   2   73.92    6.01
  -2   9  -2   78.69    5.98
   3  -9   2    2.29    0.59
   3  -9   2    2.30    0.77
  -3  -9  -2    1.13    1.04
  -3  -9  -2    1.75    0.41
   3   9   2    2.16    1.09
  -3   9  -2    2.48    1.23
  -4  -9  -2   61.77    5.66
   4  -9   2   65.01    5.17
  -4  -9  -2   65.84    5.02
   4  -9   2   65.66    5.30
   4   9   2   73.31    5.58
  -4   9  -2   70.29    5.71
  -5  -9  -2   24.54    3.22
   5  -9   2   23.93    2.54
   5   9   2   20.86    3.85
  -5   9  -2   26.32    3.24
   6  -9   2   26.85    2.68
  -6  -9  -2   21.41    3.55
   6  -9   2   21.74    2.17
  -6   9  -2   21.92    3.41
   6   9   2   25.18    3.14
   7  -9   2   52.28    4.34
  -7  -9  -2   56.14    5.66
   7  -9   2   46.44    3.91
  -7   9  -2   40.06    4.92
   7   9   2   47.21    4.73
   7 -10  -2   38.89    3.39
   7 -10  -2   41.04    3.84
  -7 -10   2   42.68    4.97
   7  10  -2   43.21    4.29
  -7  10   2   38.85    4.66
   6 -10  -2   10.14    1.38
  -6 -10   2   10.75    2.24
   6 -10  -2    8.82    1.49
  -6  10   2   11.78    2.22
   6  10  -2   10.27    1.91
  -5 -10   2   48.44    4.61
  -5 -10   2   48.44    3.81
   5 -10  -2   48.22    3.92
   5 -10  -2   52.53    4.21
  -5  10   2   49.31    4.68
   4 -10  -2   47.94    3.94
  -4 -10   2   43.55    4.19
  -4 -10   2   44.78    3.64
   4  10  -2   44.77    4.31
   4  10  -2   53.05    4.34
   3 -10  -2    7.10    1.20
  -3 -10   2    7.42    1.77
   3 -10  -2    7.52    1.10
  -3 -10   2   10.39    1.12
   3  10  -2    9.72    2.09
  -3  10   2   10.76    2.01
   3  10  -2    9.52    1.90
   2 -10  -2   77.75    6.35
   2 -10  -2   81.31    6.43
  -2 -10   2   82.25    6.36
  -2 -10   2   80.08    6.65
  -2  10   2   90.22    6.78
   2  10  -2   82.89    6.71
   2  10  -2   93.34    6.68
   1 -10  -2    5.82    0.90
   1 -10  -2    4.72    0.88
  -1  10   2    8.38    1.67
   1  10  -2    6.10    1.27
   1  10  -2    6.61    1.28
   0 -10  -2   57.76    5.35
   0 -10   2   72.58    5.39
   0 -10  -2   75.09    5.34
   0  10  -2   74.13    5.74
   0  10  -2   70.99    5.60
   0  10   2   71.29    5.76
   1 -10   2   49.17    4.04
   1 -10   2   53.47    4.06
  -1 -10  -2   51.31    4.44
  -1 -10  -2   52.53    3.95
   1  10   2   49.06    4.44
   1  10   2   51.12    4.37
  -1  10  -2   52.01    4.44
   2 -10   2   11.49    1.33
  -2 -10  -2   10.18    1.14
   2 -10   2   11.86    1.55
  -2 -10  -2   11.27    2.02
   2  10   2   12.22    2.14
  -2  10  -2   12.21    2.14
   2  10   2    9.63    2.10
   3 -10   2   83.33    6.35
  -3 -10  -2   85.73    6.11
  -3 -10  -2   81.78    7.05
   3 -10   2   70.08    6.25
  -3  10  -2   83.86    6.71
   3  10   2   89.39    6.69
   3  10   2   73.75    6.91
  -4 -10  -2    3.92    1.60
   4 -10   2    5.11    1.16
   4 -10   2    3.67    0.84
  -4  10  -2    3.97    2.76
   4  10   2    4.90    1.56
  -5 -10  -2   31.56    4.16
   5 -10   2   35.95    3.40
   5 -10   2   32.81    2.98
  -5  10  -2   39.23    4.03
   5  10   2   35.98    3.82
  -6 -10  -2   29.05    4.30
   6 -10   2   28.28    3.11
   6 -10   2   27.01    2.58
  -6  10  -2   27.19    3.89
   6  10   2   29.75    3.62
   6 -11  -2   34.82    3.33
   6 -11  -2   42.12    3.86
  -6 -11   2   44.95    4.79
  -6  11   2   36.68    4.60
   6  11  -2   42.50    4.55
   5 -11  -2   39.25    3.42
  -5 -11   2   42.31    4.41
   5 -11  -2   47.97    3.91
   5  11  -2   34.94    4.49
  -5  11   2   43.25    4.50
   5  11  -2   42.68    4.44
   4 -11  -2   15.08    2.15
   4 -11  -2   12.80    1.52
  -4 -11   2   15.81    2.57
  -4 -11   2   15.14    1.46
   4  11  -2   12.61    2.76
  -4  11   2   14.08    2.70
   4  11  -2    9.39    2.08
   3 -11  -2   71.36    5.27
  -3 -11   2   67.05    5.56
   3 -11  -2   66.62    5.05
  -3 -11   2   67.15    5.04
   3  11  -2   62.09    5.59
  -3  11   2   65.50    5.67
   3  11  -2   54.91    5.53
   2 -11  -2    4.56    0.83
  -2 -11   2    4.81    0.84
   2 -11  -2    5.38    1.06
  -2 -11   2    4.94    1.67
  -2  11   2    5.78    1.53
   2  11  -2    4.88    1.90
   2  11  -2    5.14    1.54
   1  11  -2   45.75    4.80
   1  11  -2   46.73    4.25
  -1  11   2   50.63    4.39
   0 -11  -2   22.46    1.96
   0 -11   2   19.21    2.22
   0  11   2   24.56    2.74
   0  11  -2   23.82    3.34
   0  11  -2   21.87    2.67
  -1 -11  -2   22.52    2.65
  -1 -11  -2   20.42    1.79
   1 -11   2   21.34    1.93
   1  11   2   15.62    2.70
   1  11   2   17.55    2.62
   2 -11   2   39.69    3.46
   2 -11   2   34.96    3.21
  -2 -11  -2   36.37    3.09
  -2 -11  -2   39.63    4.49
  -2  11  -2   44.55    3.98
   2  11   2   39.38    3.91
   2  11   2   39.55    4.07
  -3 -11  -2    1.13    1.52
   3 -11   2    0.16    0.73
   3 -11   2    2.51    1.15
  -3 -11  -2    1.59    0.58
   3  11   2    1.50    1.76
   3  11   2    1.51    1.57
  -3  11  -2    0.04    1.63
   4 -11   2   28.56    2.79
  -4 -11  -2   32.33    3.96
   4 -11   2   37.16    3.28
   4  11   2   34.45    4.01
  -4  11  -2   30.49    3.91
   4  11   2   28.09    3.93
   5 -11   2   16.69    2.56
  -5 -11  -2   12.99    2.68
   5 -11   2    8.59    1.65
   5  11   2   16.38    3.33
  -5  11  -2   11.80    2.49
   5 -12  -2   25.20    2.51
  -5 -12   2   29.46    4.00
   5 -12  -2   28.63    3.31
   5  12  -2   29.29    4.12
   5  12  -2   22.39    3.97
  -5  12   2   29.56    4.79
   4 -12  -2   57.21    4.64
  -4 -12   2   59.92    4.58
  -4 -12   2   61.52    5.51
   4 -12  -2   66.38    5.08
   4  12  -2   55.55    5.57
   4  12  -2   48.01    5.44
  -4  12   2   58.51    5.59
  -3 -12   2    0.90    1.53
  -3 -12   2    2.76    0.78
   3 -12  -2    2.87    0.82
   3  12  -2    2.88    1.90
  -3  12   2    2.52    1.77
   3  12  -2    2.49    1.68
   2 -12  -2   64.21    4.52
  -2 -12   2   65.11    4.54
  -2  12   2   55.41    5.26
   2  12  -2   48.64    5.14
   2  12  -2   48.89    5.15
   1 -12  -2    9.90    1.37
  -1 -12   2   11.02    1.48
   1  12  -2    8.02    1.93
  -1  12   2   14.57    2.63
   1  12  -2   10.69    2.02
   0 -12  -2   25.52    2.08
   0 -12   2   24.44    2.20
   0  12  -2   20.46    3.14
   0  12   2   17.17    2.99
   1 -12   2   19.28    2.19
  -1 -12  -2   22.01    2.07
   1  12   2   28.93    3.22
  -1  12  -2   23.72    3.22
   2 -12   2    4.51    0.95
  -2 -12  -2    3.94    0.80
  -2 -12  -2    4.17    1.71
   2  12   2    1.53    2.24
   2  12   2    1.77    1.68
  -2  12  -2    1.06    1.76
   3 -12   2   20.53    2.30
  -3 -12  -2   21.49    3.65
   3  12   2   25.71    3.91
   3  12   2   24.99    3.55
  -3  12  -2   26.22    3.64
   1 -13  -2   30.98    2.76
  -1 -13   2   33.21    2.83
   1  13  -2   29.12    3.95
  -1  13   2   30.05    3.90
   0 -13   2   16.65    1.99
   0 -13  -2   18.47    1.86
   0  13  -2   18.78    3.35
   0  13   2   14.17    3.18
  12   0  -3   17.86    2.34
 -12   0   3   22.70    2.56
  11   0  -3   19.49    2.05
  11   0  -3   17.91    2.12
  10   0  -3   82.89    6.83
  10   0  -3   84.98    6.89
 -10   0   3  101.80    7.40
  -9   0   3    1.24    0.72
   9   0  -3    1.30    0.57
   9   0  -3    0.94    0.49
   8   0  -3  125.08   10.05
  -8   0   3  152.85   10.31
   8   0  -3  127.17   10.11
   7   0  -3   10.94    1.16
  -7   0   3   14.51    1.45
   7   0  -3   12.00    1.17
   6   0  -3   66.79    5.64
  -6   0   3   77.29    5.84
  -6   0   3   86.50    5.58
   6   0  -3   70.28    5.65
  -5   0   3  179.85   13.65
  -5   0   3  198.68   13.46
   5   0  -3  181.06   13.49
   5   0  -3  171.22   13.49
   4   0  -3    4.63    0.45
  -4   0   3    3.84    0.66
  -4   0   3    4.69    0.40
   4   0  -3    4.09    0.45
   3   0  -3  150.42   10.41
  -3   0   3  129.91   10.39
  -3   0   3  135.44   10.40
   3   0  -3  148.26   10.42
  -2   0   3    0.65    0.29
   2   0  -3    1.40    0.23
  -2   0   3    1.37    0.21
   2   0  -3    0.73    0.21
   2   0  -3    1.25    0.21
  -2   0   3    0.84    0.19
  -2   0   3    1.12    0.24
   2   0  -3    1.18    0.35
   1   0  -3   98.11    7.62
   1   0  -3  105.63    7.66
  -1   0   3  105.74    7.62
   0   0  -3   21.09    1.54
   0   0   3   19.31    1.44
   0   0   3   16.01    1.43
  -1   0  -3   33.81    2.67
   1   0   3   32.17    2.55
   1   0   3   35.56    2.57
  -1   0  -3   34.31    2.56
   2   0   3   44.90    3.31
  -2   0  -3   42.20    3.32
  -2   0  -3   45.98    3.51
  -3   0  -3   33.65    2.62
  -3   0  -3   28.86    2.48
   3   0   3   34.25    2.45
   3   0   3   33.30    2.51
  -4   0  -3   52.63    4.66
  -4   0  -3   63.91    4.99
   4   0   3   65.00    4.58
  -5   0  -3  176.14   12.36
  -5   0  -3  148.49   12.37
   5   0   3  169.57   12.25
   6   0   3    5.02    0.93
   6   0   3    5.73    1.21
  -6   0  -3    5.25    1.18
  -6   0  -3    6.38    1.24
  -7   0  -3  148.48   10.82
   7   0   3  149.15   10.84
   7   0   3  136.44   10.68
  -7   0  -3  135.94   10.89
   8   0   3   20.28    2.10
  -8   0  -3   19.31    2.35
   8   0   3   19.58    2.34
  -8   0  -3   22.62    2.30
   9   0   3   34.68    3.61
  -9   0  -3   38.22    3.54
  -9   0  -3   35.67    4.02
 -10   0  -3   48.20    4.29
  10   0   3   44.02    3.89
  10   0   3   41.10    4.19
 -12  -1   3   34.47    3.35
  12  -1  -3   20.91    3.85
 -12   1   3   31.87    3.07
 -11  -1   3   39.85    3.59
  11   1  -3   31.91    3.13
 -11   1   3   38.33    3.36
  10  -1  -3   11.53    1.50
  10  -1  -3    9.52    1.68
 -10  -1   3   15.15    2.74
  10   1  -3   11.39    1.40
 -10   1   3   16.27    2.59
  10   1  -3   12.59    1.81
   9  -1  -3   84.32    6.63
  -9  -1   3  101.76    6.98
   9  -1  -3   84.22    6.63
   9   1  -3   82.33    6.58
   9   1  -3   83.54    6.69
   8  -1  -3    1.88    0.58
   8  -1  -3    2.37    0.53
  -8  -1   3    2.60    0.82
   8   1  -3    3.54    0.54
   8   1  -3    3.00    0.62
   7  -1  -3   81.22    7.16
  -7  -1   3   94.08    7.43
   7  -1  -3   97.16    7.21
   7  -1  -3   96.83    7.20
   7   1  -3   97.88    7.18
  -7   1   3  111.09    7.48
  -7   1   3   95.51    7.13
   7   1  -3   96.85    7.26
   6  -1  -3   48.67    4.29
   6   1  -3   61.12    4.29
   6   1  -3   61.11    4.35
   5  -1  -3   61.25    4.78
   5  -1  -3   69.51    4.81
   5   1  -3   63.10    4.82
  -5   1   3   57.81    5.00
   5   1  -3   68.53    4.80
   4  -1  -3  127.59   10.33
   4   1  -3  166.08   10.38
  -4   1   3  125.86   10.59
   3  -1  -3   26.88    2.15
  -3  -1   3   28.13    2.19
  -3  -1   3   28.66    2.13
   3  -1  -3   29.23    2.16
   3   1  -3   28.47    2.17
   2  -1  -3  210.57   14.44
   2  -1  -3  211.39   14.41
   2  -1  -3  187.98   14.40
  -2  -1   3  207.82   14.38
  -2  -1   3  185.64   14.45
   2   1  -3  166.42   14.39
  -2   1   3  212.05   14.45
  -2   1   3  181.81   14.38
   1  -1  -3  151.47   12.00
   1  -1  -3  168.11   11.97
   1  -1  -3  142.10   11.99
  -1  -1   3  150.35   11.96
   1  -1  -3  171.22   11.98
  -1  -1   3  174.69   12.06
  -1   1   3  179.22   11.96
  -1   1   3  150.59   11.98
   1   1  -3  148.41   12.01
   1   1  -3  188.68   11.99
   0  -1  -3   64.57    4.56
   0  -1   3   58.45    4.55
   0  -1  -3   54.13    4.57
   0  -1  -3   50.45    4.65
   0  -1  -3   68.16    4.55
   0  -1   3   55.60    4.56
   0   1   3   62.27    4.54
   0   1  -3   70.05    4.63
   0   1   3   59.01    4.59
   0   1   3   68.62    4.54
  -1  -1  -3  153.69   11.62
   1  -1   3  161.51   11.56
   1  -1   3  168.60   11.57
  -1  -1  -3  157.78   11.58
   1  -1   3  136.73   11.58
   1   1   3  132.66   11.53
   1   1   3  166.61   11.56
  -1   1  -3  176.44   11.66
  -2  -1  -3    8.76    0.89
   2  -1   3    9.87    0.83
  -2  -1  -3   10.00    0.94
   2  -1   3    9.52    0.78
   2   1   3    9.86    0.82
   2   1   3    9.01    0.75
  -3  -1  -3  141.46   10.91
   3  -1   3  152.02   10.84
   3  -1   3  151.73   10.78
  -3  -1  -3  133.47   10.94
  -3   1  -3  148.26   10.91
   3   1   3  149.88   10.82
  -4  -1  -3   59.13    4.69
  -4  -1  -3   56.75    4.74
   4  -1   3   55.36    4.64
   4  -1   3   62.33    4.50
   4   1   3   62.71    4.57
  -4   1  -3   66.21    4.71
  -5  -1  -3   45.22    3.35
   5  -1   3   43.35    3.06
   5  -1   3   42.56    3.21
  -5  -1  -3   45.95    3.48
   5   1   3   33.81    3.16
  -5   1  -3   33.77    3.30
  -6  -1  -3   98.44    7.30
   6  -1   3   90.34    7.02
  -6  -1  -3   97.56    7.14
  -6   1  -3   93.35    7.13
   6   1   3   81.81    7.05
   6   1   3   94.10    7.15
   7  -1   3    4.83    0.84
  -7  -1  -3    4.64    1.02
  -7  -1  -3    5.82    1.22
   7  -1   3    5.16    1.01
   7   1   3    6.52    1.14
   7   1   3    5.11    0.84
  -7   1  -3    6.17    1.09
  -7   1  -3    4.55    0.94
   8  -1   3   99.68    7.87
   8  -1   3  101.55    7.72
  -8  -1  -3  102.63    7.74
  -8  -1  -3  107.59    7.99
  -8   1  -3   86.57    7.71
  -8   1  -3   99.88    7.71
   8   1   3   97.28    7.77
   8   1   3   98.56    7.85
   9  -1   3   19.12    2.36
   9  -1   3   19.12    2.21
  -9  -1  -3   19.94    2.65
   9   1   3   19.59    2.46
   9   1   3   17.71    2.41
  -9   1  -3   17.67    2.29
  -9   1  -3   20.88    2.39
  10  -1   3   22.61    2.58
  10  -1   3   23.44    2.78
 -10   1  -3   24.66    2.74
  10   1   3   22.13    2.91
  10   1   3   19.11    2.48
 -12  -2   3   11.24    1.93
  12  -2  -3   11.66    1.97
  12   2  -3    6.87    1.55
 -12   2   3    8.87    1.72
 -11  -2   3   38.43    3.74
  11  -2  -3   31.86    3.29
 -11   2   3   41.93    3.45
  10  -2  -3   56.06    4.26
  10   2  -3   49.39    4.33
 -10   2   3   56.95    4.61
  10   2  -3   48.58    4.13
  -9  -2   3    7.39    1.37
   9  -2  -3    6.39    1.09
   9   2  -3    5.02    0.91
   9   2  -3    5.62    1.30
  -9   2   3    5.02    0.59
  -8  -2   3  123.20   10.26
   8  -2  -3  131.74    9.87
   8  -2  -3  146.14    9.97
   8   2  -3  127.55   10.01
   8   2  -3  120.34    9.92
  -8   2   3  148.82   10.22
   7  -2  -3   29.42    2.36
   7  -2  -3   28.79    2.46
   7   2  -3   30.21    2.54
   7   2  -3   31.69    2.38
  -7   2   3   33.39    2.84
   6  -2  -3  124.68    8.51
   6  -2  -3  122.79    8.45
   6   2  -3  104.06    8.47
   6   2  -3  104.25    8.53
   5  -2  -3  234.19   17.04
   5  -2  -3  222.13   17.00
   5   2  -3  236.15   17.07
   4  -2  -3   30.23    2.50
   4  -2  -3   33.62    2.42
  -4  -2   3   30.80    2.37
  -4  -2   3   29.49    2.58
  -4  -2   3   35.67    2.42
   4   2  -3   32.00    2.39
   4   2  -3   28.67    2.44
   3  -2  -3  266.83   20.42
  -3  -2   3  274.67   20.39
  -3  -2   3  277.35   20.47
  -3  -2   3  283.73   20.34
   3  -2  -3  266.69   20.36
  -3   2   3  276.39   20.48
   3   2  -3  289.55   20.36
   3   2  -3  279.91   20.41
   2  -2  -3   99.26    7.25
  -2  -2   3  102.22    7.21
  -2  -2   3   95.52    7.25
   2  -2  -3   95.34    7.22
  -2  -2   3   95.09    7.21
  -2  -2   3   89.06    7.25
   2   2  -3   95.98    7.22
  -2   2   3  106.25    7.29
   2   2  -3  100.79    7.27
   1  -2  -3   62.25    4.61
  -1  -2   3   57.29    4.60
  -1  -2   3   66.19    4.60
   1  -2  -3   66.49    4.63
   1  -2  -3   62.61    4.63
  -1  -2   3   55.80    4.62
   1   2  -3   64.79    4.65
  -1   2   3   65.15    4.63
   1   2  -3   60.51    4.60
  -1   2   3   61.39    4.62
  -1   2   3   59.45    4.62
   0  -2   3  292.15   20.97
   0  -2   3  268.98   20.98
   0  -2  -3  293.40   20.98
   0  -2  -3  250.57   21.01
   0  -2  -3  288.95   21.00
   0  -2  -3  297.97   20.99
   0  -2   3  263.84   20.99
   0   2  -3  294.02   20.97
   0   2  -3  293.26   20.98
   0   2   3  309.19   21.00
  -1  -2  -3    2.06    0.35
   1  -2   3    1.66    0.29
   1  -2   3    2.21    0.33
  -1  -2  -3    1.89    0.29
  -1  -2  -3    2.01    0.35
   2  -2   3  184.99   13.13
   2  -2   3  183.95   13.16
  -2  -2  -3  171.98   13.21
  -2  -2  -3  182.09   13.22
   2   2   3  167.56   13.12
  -2   2  -3  177.29   13.31
  -3  -2  -3   29.48    2.42
  -3  -2  -3   30.94    2.40
   3  -2   3   30.90    2.32
   3   2   3   28.12    2.26
  -3   2  -3   27.21    2.40
  -4  -2  -3   64.24    4.97
   4  -2   3   63.38    4.78
   4  -2   3   63.54    4.69
  -4  -2  -3   58.56    4.85
   4   2   3   59.85    4.72
   4   2   3   65.33    4.88
  -4   2  -3   64.67    4.87
  -5  -2  -3   59.72    4.47
   5  -2   3   55.69    4.01
  -5  -2  -3   53.85    4.24
   5  -2   3   52.61    4.14
   5   2   3   48.20    4.23
  -5   2  -3   50.73    4.23
  -6  -2  -3    9.67    1.63
  -6  -2  -3    8.40    1.35
   6  -2   3    8.11    0.77
   6  -2   3    7.39    1.16
  -6   2  -3   10.41    1.37
  -7  -2  -3   60.28    4.77
  -7  -2  -3   52.87    4.46
   7  -2   3   49.05    4.31
   7   2   3   52.42    4.50
  -7   2  -3   60.17    4.45
   7   2   3   51.06    4.22
   8  -2   3    7.72    1.26
   8  -2   3    7.07    1.10
  -8  -2  -3    7.65    1.57
  -8   2  -3    6.05    1.37
   8   2   3    5.08    0.95
   8   2   3    4.95    1.24
  -8   2  -3    5.27    1.09
   9  -2   3   28.39    2.89
  -9  -2  -3   33.94    3.47
   9  -2   3   29.50    3.01
  -9   2  -3   29.02    3.00
   9   2   3   26.56    3.43
  -9   2  -3   29.97    2.85
   9   2   3   28.11    3.15
  10  -2   3   15.71    2.69
 -10  -2  -3   20.53    3.11
 -10   2  -3   22.84    2.46
  10   2   3   20.61    2.87
 -11  -3   3   24.69    3.07
  11  -3  -3   22.20    2.48
  11   3  -3   19.73    2.55
 -11   3   3   26.11    2.56
  10  -3  -3   12.03    1.73
 -10  -3   3   10.00    2.16
  10   3  -3    9.84    1.75
 -10   3   3   15.05    2.06
  -9  -3   3   80.05    7.12
   9  -3  -3   93.93    6.57
   9  -3  -3   96.15    6.71
  -9   3   3   94.60    6.99
   9   3  -3   81.43    6.76
   9   3  -3   76.47    6.60
  -8  -3   3    2.42    1.05
   8  -3  -3    2.44    0.45
   8  -3  -3    2.75    0.65
   8   3  -3    1.92    0.68
  -8   3   3    3.25    1.07
   8   3  -3    1.85    0.39
   7  -3  -3  114.61    8.00
   7   3  -3  112.35    8.06
  -7   3   3   91.39    8.26
   6  -3  -3  126.06    8.94
   6  -3  -3  122.86    9.00
   6   3  -3  121.79    8.92
   6   3  -3  111.19    9.03
  -5  -3   3   34.14    2.31
   5  -3  -3   27.96    2.43
   5  -3  -3   29.11    2.32
  -5  -3   3   29.89    2.68
  -4  -3   3  393.68   27.04
   4  -3  -3  363.69   27.04
   4  -3  -3  364.71   27.07
  -4  -3   3  371.86   27.22
   4   3  -3  358.46   27.10
  -4   3   3  353.71   27.20
  -3  -3   3   29.15    2.38
  -3  -3   3   30.17    2.30
   3  -3  -3   29.81    2.29
   3  -3  -3   28.73    2.31
  -3   3   3   32.98    2.43
   3   3  -3   30.23    2.36
  -2  -3   3  306.17   21.47
  -2  -3   3  286.11   21.47
  -2  -3   3  279.90   21.52
  -2  -3   3  278.88   21.50
   2  -3  -3  290.01   21.51
  -2   3   3  312.13   21.57
   1  -3  -3  183.23   13.55
  -1  -3   3  182.10   13.57
  -1  -3   3  159.53   13.54
   1  -3  -3  192.92   13.57
   1  -3  -3  183.83   13.60
  -1  -3   3  172.23   13.57
  -1   3   3  204.09   13.62
   1   3  -3  201.95   13.61
   1   3  -3  176.04   13.57
   0  -3  -3  122.18    9.19
   0  -3  -3  126.59    9.21
   0  -3  -3  127.74    9.15
   0  -3   3  110.31    9.15
   0  -3  -3  128.94    9.17
   0   3  -3  127.74    9.18
   0   3  -3  123.95    9.17
  -1  -3  -3  267.79   18.45
   1  -3   3  242.06   18.45
  -1  -3  -3  242.82   18.57
  -1  -3  -3  249.07   18.51
  -1  -3  -3  267.60   18.43
  -1   3  -3  264.20   18.52
  -1   3  -3  232.05   18.48
   1   3   3  238.40   18.43
   2  -3   3    4.79    0.52
  -2  -3  -3    5.54    0.68
  -2  -3  -3    5.96    0.53
   2  -3   3    5.70    0.60
  -2  -3  -3    5.56    0.65
   2   3   3    5.59    0.49
  -2   3  -3    4.11    0.76
   2   3   3    3.92    0.51
  -2   3  -3    4.73    0.79
   2   3   3    4.67    0.65
  -3  -3  -3  132.10   10.72
   3  -3   3  146.60   10.58
   3   3   3  157.08   10.59
  -3   3  -3  120.94   10.74
  -3   3  -3  157.82   10.73
  -4  -3  -3   68.69    5.27
  -4  -3  -3   65.35    5.14
   4  -3   3   69.11    5.07
   4  -3   3   70.21    4.98
   4   3   3   64.05    5.15
  -4   3  -3   65.50    5.13
   4   3   3   62.41    4.98
  -5  -3  -3   48.49    3.98
  -5  -3  -3   45.30    3.76
   5  -3   3   47.34    3.53
   5  -3   3   47.05    3.67
  -5   3  -3   50.77    3.79
   5   3   3   47.34    3.80
  -5   3  -3   39.99    3.87
   5   3   3   45.94    3.57
  -6  -3  -3   83.40    6.12
   6  -3   3   82.03    6.01
  -6   3  -3   67.28    6.12
   6   3   3   78.83    6.15
  -6   3  -3   83.02    6.10
   6   3   3   74.53    5.90
   7  -3   3    0.19    0.70
   7  -3   3    0.33    0.36
  -7  -3  -3    0.09    1.01
  -7   3  -3    0.42    0.73
  -7   3  -3    0.31    0.81
   7   3   3    0.25    0.82
   7   3   3    0.11    0.54
   8  -3   3   30.61    3.02
  -8  -3  -3   33.99    3.60
   8   3   3   33.48    2.84
  -8   3  -3   35.56    3.08
  -8   3  -3   32.21    3.02
   9  -3   3    9.66    1.90
   9  -3   3    8.36    1.40
  -9  -3  -3   13.18    2.62
  -9   3  -3    6.93    1.61
   9   3   3    6.49    1.59
  -9   3  -3    8.49    1.51
   9   3   3    6.65    1.71
  10  -3   3    5.97    1.39
 -10  -3  -3    6.30    1.96
  10   3   3    3.91    1.62
 -10   3  -3    7.92    1.66
  11  -4  -3   14.38    2.09
 -11  -4   3   13.08    2.74
  11   4  -3   13.37    2.22
  10  -4  -3   47.89    3.88
 -10  -4   3   38.03    4.41
  10   4  -3   41.58    3.97
 -10   4   3   54.04    4.20
   9  -4  -3   -0.02    0.65
  -9  -4   3   -0.54    1.17
   9  -4  -3    0.69    0.47
  -9   4   3    1.19    1.10
   9   4  -3    0.95    0.78
   8  -4  -3   76.37    5.79
   8  -4  -3   76.87    5.65
   8   4  -3   76.36    5.85
  -8   4   3   69.24    6.13
   7  -4  -3   27.01    2.13
   7  -4  -3   27.39    2.00
  -7  -4   3   22.08    2.67
  -7   4   3   20.13    2.63
   7   4  -3   24.90    2.21
  -6  -4   3   44.50    3.79
   6  -4  -3   47.10    3.29
   6  -4  -3   44.01    3.36
   6   4  -3   41.13    3.41
  -6   4   3   37.23    3.69
   5  -4  -3   72.85    5.48
  -5  -4   3   82.68    5.40
  -5  -4   3   72.19    5.74
   5   4  -3   70.12    5.53
  -5   4   3   64.14    5.68
  -4  -4   3   17.53    1.62
   4  -4  -3   14.80    1.48
   4  -4  -3   15.02    1.39
  -4  -4   3   20.23    1.39
   4   4  -3   17.51    1.71
  -4   4   3   20.86    1.70
   3  -4  -3  206.16   15.41
   3  -4  -3  206.53   15.38
  -3  -4   3  202.45   15.47
  -3  -4   3  222.68   15.50
   3   4  -3  206.68   15.45
  -3   4   3  207.86   15.50
  -2  -4   3   60.82    4.60
   2  -4  -3   65.07    4.59
   2  -4  -3   63.73    4.61
  -2  -4   3   64.33    4.65
   2   4  -3   54.98    4.65
  -2   4   3   59.73    4.68
  -1  -4   3  196.16   15.44
   1  -4  -3  207.32   15.53
   1  -4  -3  209.87   15.51
   1  -4  -3  201.04   15.45
  -1  -4   3  201.13   15.47
  -1  -4   3  206.94   15.50
   1   4  -3  212.94   15.51
   1   4  -3  232.21   15.53
  -1   4   3  221.23   15.55
   0  -4  -3  227.97   15.84
   0  -4   3  203.79   15.81
   0  -4  -3  208.75   15.78
   0  -4  -3  224.61   15.80
   0  -4   3  197.59   15.79
   0  -4  -3  215.97   15.88
   0   4   3  223.68   15.83
   0   4  -3  196.24   15.83
   0   4   3  217.46   15.88
   0   4  -3  227.37   15.86
  -1  -4  -3   21.76    1.78
   1  -4   3   21.96    1.71
  -1  -4  -3   22.51    1.71
   1  -4   3   20.70    1.72
  -1  -4  -3   21.96    1.66
  -1  -4  -3   21.36    1.79
  -2  -4  -3  238.96   16.74
   2  -4   3  225.65   16.78
  -2  -4  -3  211.46   16.88
  -2  -4  -3  216.71   16.84
   2  -4   3  211.63   16.79
  -2   4  -3  230.32   16.88
   2   4   3  238.00   16.87
   2   4   3  234.56   16.75
  -2   4  -3  239.28   16.87
   3  -4   3   31.66    2.24
   3  -4   3   30.45    2.32
  -3  -4  -3   30.98    2.40
  -3  -4  -3   28.86    2.63
  -3   4  -3   25.94    2.40
   3   4   3   27.96    2.39
   3   4   3   29.07    2.25
  -3   4  -3   23.74    2.45
   4  -4   3   92.43    6.90
  -4  -4  -3   85.68    7.08
   4  -4   3   89.52    6.83
  -4  -4  -3   83.31    6.95
   4   4   3   94.81    6.80
  -4   4  -3   79.72    7.10
  -4   4  -3  102.25    6.98
   4   4   3  102.82    7.02
  -5  -4  -3   62.28    5.19
   5  -4   3   60.66    4.90
   5  -4   3   61.07    4.78
  -5  -4  -3   58.07    4.97
   5   4   3   65.90    5.03
  -5   4  -3   70.78    5.00
   5   4   3   65.00    4.79
   6  -4   3    5.73    0.75
  -6  -4  -3    6.20    1.37
   6  -4   3    6.76    1.19
   6   4   3    6.44    1.34
   6   4   3    6.11    0.92
  -6   4  -3    6.33    1.05
  -6   4  -3    5.73    1.24
   7  -4   3   58.75    5.53
  -7  -4  -3   67.50    6.03
  -7   4  -3   80.26    5.64
  -7   4  -3   67.19    5.69
   7   4   3   76.55    5.63
   7   4   3   74.16    5.77
  -8  -4  -3    2.65    1.93
   8  -4   3    4.66    1.11
   8  -4   3    6.04    1.10
  -8   4  -3    5.61    1.24
  -8   4  -3    6.54    1.22
   8   4   3    3.12    1.18
   8   4   3    5.26    1.32
  -9  -4  -3   24.55    3.66
   9   4   3   24.29    3.11
  -9   4  -3   28.16    2.69
  11  -5  -3   19.25    2.50
 -11  -5   3   16.38    3.23
  11   5  -3   20.08    2.79
  10  -5  -3    1.78    0.98
 -10  -5   3   -0.29    1.52
  10   5  -3    3.15    1.18
 -10   5   3    3.88    1.42
   9  -5  -3   45.82    3.86
   9  -5  -3   46.56    4.49
   9   5  -3   56.25    4.25
   8  -5  -3    8.57    1.26
  -8  -5   3    5.30    1.53
  -8   5   3    7.06    1.83
   8   5  -3    7.79    1.41
   7  -5  -3   49.82    3.91
   7  -5  -3   47.20    3.69
  -7  -5   3   41.71    4.29
  -7   5   3   54.91    4.92
   6  -5  -3   73.11    5.37
  -6  -5   3   72.76    5.75
   6  -5  -3   72.65    5.28
  -6   5   3   60.61    5.63
   6   5  -3   70.98    5.45
   5  -5  -3   18.99    1.77
  -5  -5   3   22.39    1.72
   5  -5  -3   19.64    1.85
  -5  -5   3   21.37    2.14
   5   5  -3   25.09    1.98
  -5   5   3   26.01    2.21
   4  -5  -3  133.95    9.71
   4  -5  -3  127.75    9.75
  -4  -5   3  140.53    9.70
  -4  -5   3  126.06    9.89
   4   5  -3  128.50    9.81
  -4   5   3  128.54    9.89
  -3  -5   3    6.80    0.75
  -3  -5   3    6.42    0.61
   3  -5  -3    5.18    0.68
   3  -5  -3    5.39    0.67
   2  -5  -3   69.76    5.20
   2  -5  -3   73.19    5.18
  -2  -5   3   73.44    5.19
  -2  -5   3   72.33    5.26
  -2   5   3   63.25    5.28
   2   5  -3   63.93    5.25
   1  -5  -3   48.42    3.46
   1  -5  -3   45.43    3.33
  -1  -5   3   42.85    3.32
  -1  -5   3   47.09    3.41
   1  -5  -3   47.82    3.36
  -1  -5   3   43.43    3.35
  -1   5   3   42.62    3.45
   1   5  -3   39.86    3.41
   1   5  -3   40.28    3.40
   0  -5  -3   41.41    2.87
   0  -5  -3   42.55    3.03
   0  -5   3   40.89    2.92
   0  -5   3   39.28    3.03
   0   5  -3   37.21    2.98
   0   5   3   36.07    2.94
   0   5   3   33.48    2.99
   0   5  -3   33.77    2.95
  -1  -5  -3  177.85   12.09
   1  -5   3  156.97   12.10
  -1  -5  -3  167.02   12.06
  -1  -5  -3  160.47   12.21
   1   5   3  163.45   12.15
  -1   5  -3  155.28   12.16
  -1   5  -3  163.09   12.16
  -2  -5  -3   24.62    1.93
  -2  -5  -3   24.43    1.87
  -2  -5  -3   21.54    2.10
   2  -5   3   22.42    1.94
  -2   5  -3   25.36    2.11
  -2   5  -3   26.49    2.10
   2   5   3   26.13    1.89
  -3  -5  -3  176.93   11.51
   3  -5   3  159.35   11.61
   3  -5   3  161.13   11.57
  -3  -5  -3  145.19   11.74
   3   5   3  149.28   11.67
  -3   5  -3  149.82   12.16
  -3   5  -3  148.88   11.66
  -4  -5  -3   33.38    3.33
   4  -5   3   35.77    3.03
   4  -5   3   35.08    3.13
   4   5   3   43.82    2.99
  -4   5  -3   41.06    3.49
  -4   5  -3   45.44    3.30
  -5  -5  -3   50.77    4.54
   5  -5   3   55.77    4.11
   5  -5   3   53.88    3.95
  -5   5  -3   54.88    4.13
   5   5   3   52.07    4.21
  -5   5  -3   43.33    4.37
   5   5   3   49.14    3.90
  -6  -5  -3   91.98    7.23
   6  -5   3   83.81    6.79
   6  -5   3   79.67    6.61
   6   5   3   88.53    6.95
  -6   5  -3   97.00    6.82
   7  -5   3    0.56    0.85
   7  -5   3    0.58    0.48
  -7  -5  -3    0.80    1.35
   7   5   3   -0.29    0.94
  -7   5  -3    0.94    0.95
  -7   5  -3    1.03    1.05
   8  -5   3   49.23    4.37
  -8  -5  -3   60.38    5.22
  -8   5  -3   51.50    4.72
   8   5   3   47.71    4.60
  -9  -5  -3   20.87    3.64
   9  -5   3   16.57    2.59
  -9   5  -3   23.83    2.46
   9   5   3   15.62    2.85
  10  -6  -3   41.70    3.74
  10  -6  -3   42.28    3.40
  10   6  -3   40.08    3.92
 -10   6   3   40.54    4.20
  -9  -6   3   -0.32    1.52
   9  -6  -3    1.25    0.60
   9  -6  -3    0.86    0.84
   9   6  -3    1.61    1.07
  -9   6   3    2.80    1.54
   8  -6  -3   65.70    4.99
  -8  -6   3   54.94    5.65
   8  -6  -3   63.54    4.81
  -8   6   3   65.37    5.56
   7  -6  -3   17.85    1.53
   7  -6  -3   17.09    1.73
  -7  -6   3   17.27    2.49
   7   6  -3   16.67    1.97
  -7   6   3   15.43    2.45
  -6  -6   3   64.35    5.62
   6  -6  -3   63.98    5.17
   6  -6  -3   63.96    5.25
  -6  -6   3   66.15    5.08
   6   6  -3   77.09    5.41
  -6   6   3   75.18    5.65
   5  -6  -3   75.25    5.75
  -5  -6   3   76.05    6.05
   5  -6  -3   74.26    5.81
  -5  -6   3   77.27    5.70
   5   6  -3   78.70    5.93
  -5   6   3   77.23    6.05
   4  -6  -3    8.60    0.87
   4  -6  -3    6.61    0.97
  -4  -6   3    9.28    0.83
  -4  -6   3    8.71    1.16
  -4   6   3   10.50    1.32
   4   6  -3    9.79    1.21
   3  -6  -3  128.76    9.98
  -3  -6   3  137.15    9.98
  -3  -6   3  126.98   10.10
   3  -6  -3  132.85   10.02
   3   6  -3  141.30   10.11
  -3   6   3  140.65   10.16
   2  -6  -3   21.55    1.79
   2  -6  -3   21.67    1.84
  -2  -6   3   21.17    1.96
   2   6  -3   27.17    2.02
   1  -6  -3  106.45    7.89
   1  -6  -3  111.71    7.92
  -1  -6   3  106.54    7.92
  -1  -6   3  111.95    7.99
  -1  -6   3  106.51    7.87
   1   6  -3  102.04    8.00
   1   6  -3  105.36    7.99
  -1   6   3   99.67    8.03
   0  -6   3   88.72    7.05
   0  -6  -3   93.85    7.18
   0  -6  -3   98.94    7.05
   0  -6  -3   87.57    7.09
   0  -6   3   89.16    7.03
   0   6  -3   91.28    7.13
   0   6   3  104.45    7.09
   0   6  -3  101.01    7.14
   0   6   3   95.40    7.20
  -1  -6  -3   13.87    1.45
  -1  -6  -3   14.07    1.05
   1  -6   3   13.73    1.15
   1  -6   3   13.43    1.17
  -1  -6  -3   13.15    1.15
  -1   6  -3   10.07    1.28
  -1   6  -3   10.10    1.30
  -2  -6  -3  121.52    8.56
   2  -6   3  112.28    8.64
  -2  -6  -3  115.73    8.79
   2  -6   3  113.13    8.61
  -2   6  -3  113.85    8.69
   2   6   3  118.88    8.72
  -2   6  -3  112.99    8.74
  -3  -6  -3   30.76    3.08
  -3  -6  -3   35.82    2.76
   3  -6   3   32.56    2.85
   3  -6   3   36.18    2.95
  -3   6  -3   41.62    3.06
  -3   6  -3   42.94    3.24
   4  -6   3   53.22    3.61
  -4  -6  -3   49.74    3.98
   4   6   3   47.57    3.81
  -4   6  -3   39.77    4.46
   4   6   3   42.45    3.50
  -4   6  -3   43.68    3.99
   5  -6   3   64.96    5.19
   5  -6   3   64.94    5.05
  -5  -6  -3   65.78    5.57
   5   6   3   64.08    4.98
  -5   6  -3   73.29    5.23
  -5   6  -3   59.25    5.55
   5   6   3   71.75    5.37
   6  -6   3    8.70    0.98
  -6  -6  -3   10.52    2.14
  -6   6  -3    6.95    1.30
   6   6   3    4.62    1.19
  -6   6  -3    5.38    1.55
   7  -6   3   59.56    4.65
   7  -6   3   60.12    4.93
  -7  -6  -3   70.96    6.94
  -7   6  -3   54.02    5.20
   7   6   3   61.39    5.15
   8  -6   3    6.84    1.24
   8  -6   3    5.56    1.36
  -8  -6  -3   10.01    2.33
  -8   6  -3   10.68    2.18
   8   6   3    8.30    1.64
   9  -6   3   24.48    2.86
  -9  -6  -3   20.35    4.04
   9   6   3   21.59    3.18
  -9   6  -3   23.81    2.69
  10  -7  -3   16.82    2.43
  10  -7  -3   17.82    1.93
 -10   7   3   18.53    3.11
  10   7  -3   15.92    2.73
  -9  -7   3   74.69    7.71
   9  -7  -3   87.25    6.59
   9  -7  -3   86.93    6.35
   9   7  -3   89.17    6.78
  -9   7   3   73.53    7.07
   8  -7  -3    2.41    0.64
   8  -7  -3    1.65    0.92
   8   7  -3    2.80    1.14
  -8   7   3    5.56    1.75
  -7  -7   3   78.28    6.54
   7  -7  -3   75.76    5.95
   7  -7  -3   74.41    5.81
   7   7  -3   81.31    6.13
  -7   7   3   72.31    6.39
  -6  -7   3   37.67    3.07
   6  -7  -3   37.33    3.31
   6  -7  -3   38.96    3.18
  -6  -7   3   39.13    3.70
  -6   7   3   47.04    3.79
   6   7  -3   44.42    3.54
  -5  -7   3   16.50    1.93
  -5  -7   3   15.71    1.52
   5  -7  -3   16.80    1.51
   5  -7  -3   15.93    1.64
   5   7  -3   18.38    1.93
  -5   7   3   20.19    2.11
   4  -7  -3   93.77    7.11
  -4  -7   3   87.61    7.23
  -4  -7   3   93.58    7.01
   4  -7  -3   91.85    7.04
  -4   7   3   97.28    7.29
   4   7  -3   99.58    7.23
   3  -7  -3    8.68    0.84
  -3  -7   3    7.85    1.06
   3  -7  -3    8.03    1.00
  -3  -7   3    8.85    0.86
   3   7  -3    6.32    1.24
  -3   7   3    6.75    1.24
   2  -7  -3  114.03    8.08
  -2  -7   3  111.95    8.21
   2  -7  -3  115.70    8.12
  -2  -7   3  109.99    8.09
   2   7  -3  106.74    8.20
   2   7  -3   97.36    8.21
  -2   7   3  102.74    8.24
   1  -7  -3   72.08    5.54
  -1  -7   3   71.37    5.51
  -1  -7   3   66.96    5.57
   1  -7  -3   79.34    5.58
  -1  -7   3   74.19    5.68
   1   7  -3   79.49    5.70
  -1   7   3   76.87    5.76
   1   7  -3   72.13    5.70
   0  -7  -3   22.66    1.69
   0  -7   3   23.04    1.71
   0  -7  -3   23.04    1.99
   0  -7  -3   24.18    1.73
   0  -7   3   22.42    1.76
   0   7   3   18.07    1.80
   0   7  -3   19.01    1.94
   0   7   3   17.78    1.94
   0   7  -3   18.50    1.91
  -1  -7  -3  104.01    8.27
  -1  -7  -3  111.68    8.06
   1  -7   3   97.09    8.09
  -1  -7  -3  104.15    8.04
   1   7   3  119.49    8.21
   1   7   3  109.95    8.30
  -1   7  -3  112.14    8.24
  -2  -7  -3    6.69    1.17
  -2  -7  -3    5.48    0.80
   2  -7   3    6.25    0.85
  -2  -7  -3    6.56    0.69
   2  -7   3    6.91    0.98
  -2   7  -3    7.40    1.55
  -2   7  -3    7.74    1.32
   2   7   3    6.71    0.72
   2   7   3    8.37    1.22
  -3  -7  -3   66.95    4.75
  -3  -7  -3   60.26    5.12
   3  -7   3   64.94    4.85
   3  -7   3   64.70    4.92
   3   7   3   62.35    5.03
  -3   7  -3   60.70    5.11
  -4  -7  -3   51.76    3.86
   4  -7   3   51.99    4.13
  -4  -7  -3   44.06    4.35
   4  -7   3   49.11    3.99
  -4   7  -3   56.07    4.46
   4   7   3   55.97    4.27
   5  -7   3   12.18    1.57
   5  -7   3   10.94    1.19
  -5  -7  -3   11.17    2.05
  -5   7  -3    7.92    1.79
   5   7   3    7.77    1.71
   6  -7   3   58.54    4.56
  -6  -7  -3   63.60    5.41
   6  -7   3   62.32    5.36
  -6   7  -3   51.43    5.20
   7  -7   3    1.61    0.70
  -7  -7  -3   -0.36    1.71
   7  -7   3    1.65    1.10
   7   7   3    1.39    1.30
  -7   7  -3    2.02    1.63
   8  -7   3   35.99    3.21
   8  -7   3   31.18    3.42
  -8   7  -3   35.32    3.77
   8   7   3   34.33    3.78
  -9  -8   3    4.58    2.38
   9  -8  -3    3.19    1.23
   9  -8  -3    4.42    0.92
   9   8  -3    2.98    1.53
  -9   8   3    5.81    1.99
   8  -8  -3   56.80    4.55
  -8  -8   3   54.29    5.48
   8  -8  -3   54.89    4.37
   8   8  -3   49.99    4.77
   7  -8  -3   12.87    2.40
  -7  -8   3   15.31    2.73
   7  -8  -3   14.21    1.53
  -7   8   3   16.80    3.10
  -6  -8   3   56.86    4.06
   6  -8  -3   55.79    4.17
  -6  -8   3   56.34    4.75
   6  -8  -3   56.89    4.34
   6   8  -3   48.12    4.49
  -6   8   3   45.52    4.69
  -5  -8   3   86.46    6.31
   5  -8  -3   85.01    6.48
  -5  -8   3   84.73    6.72
   5  -8  -3   85.94    6.37
  -5   8   3   78.93    6.72
   5   8  -3   83.13    6.62
  -4  -8   3    4.19    0.94
   4  -8  -3    5.45    0.78
  -4  -8   3    5.27    0.74
   4  -8  -3    3.24    0.79
   4   8  -3    4.33    1.03
  -4   8   3    4.37    1.09
  -3  -8   3   91.32    6.83
   3  -8  -3   93.39    6.84
  -3  -8   3   89.88    7.03
   3  -8  -3   95.56    6.91
   3   8  -3   91.06    7.04
  -3   8   3   84.62    7.07
  -2  -8   3   10.94    1.37
  -2  -8   3   12.27    1.14
   2  -8  -3   12.22    1.09
   2  -8  -3   13.06    1.25
  -2   8   3   11.00    1.48
   2   8  -3    9.16    1.51
   2   8  -3    9.67    1.44
   1  -8  -3   40.38    3.47
  -1  -8   3   43.22    3.33
   1  -8  -3   38.74    3.32
  -1  -8   3   42.31    3.55
  -1  -8   3   37.48    3.36
   1   8  -3   51.08    3.63
  -1   8   3   50.70    3.66
   0  -8   3   57.53    4.51
   0  -8  -3   62.75    4.49
   0  -8  -3   59.13    4.74
   0  -8  -3   58.90    4.46
   0  -8   3   59.94    4.48
   0   8  -3   55.91    4.70
   0   8  -3   56.26    4.66
   0   8   3   62.71    4.59
   0   8   3   56.65    4.74
  -1  -8  -3    9.52    1.01
  -1  -8  -3    8.64    0.93
  -1  -8  -3    8.45    1.42
   1  -8   3   10.12    1.08
   1  -8   3    8.95    1.14
   1   8   3   12.21    1.50
  -1   8  -3   12.69    1.47
   2  -8   3   77.73    6.31
  -2  -8  -3   75.17    6.52
  -2  -8  -3   79.49    6.20
   2  -8   3   76.01    6.28
  -2   8  -3   93.05    6.46
  -2   8  -3   97.28    6.57
  -3  -8  -3    9.05    1.61
  -3  -8  -3    8.80    0.84
   3  -8   3    8.53    1.07
   3  -8   3    8.52    1.30
  -3   8  -3    8.03    1.79
   3   8   3    8.21    1.59
  -3   8  -3    6.10    1.21
   4  -8   3   42.28    3.34
  -4  -8  -3   41.58    3.18
  -4  -8  -3   39.65    3.83
   4  -8   3   42.50    3.51
  -5  -8  -3   38.84    4.00
   5  -8   3   38.79    3.54
   5  -8   3   40.08    3.31
   5   8   3   43.47    3.81
  -5   8  -3   43.42    4.07
   6  -8   3    5.08    1.27
  -6  -8  -3    7.16    1.91
   6  -8   3    6.04    1.13
  -6   8  -3    6.70    2.71
   6   8   3    6.30    1.51
   7  -8   3   42.66    3.71
   7  -8   3   36.00    3.25
  -7  -8  -3   43.28    4.76
  -7   8  -3   32.20    4.15
   7   8   3   42.73    4.01
   9  -9  -3   27.37    2.58
  -9  -9   3   25.92    4.77
   9  -9  -3   30.27    3.15
   9   9  -3   27.25    3.60
  -9   9   3   24.66    3.98
   8  -9  -3    3.82    1.26
   8  -9  -3    4.68    0.90
  -8  -9   3    2.94    2.26
   8   9  -3    3.42    1.59
  -8   9   3    5.00    2.06
   7  -9  -3   48.12    3.58
   7  -9  -3   47.71    3.88
  -7  -9   3   49.31    4.66
   7   9  -3   37.89    4.14
  -7   9   3   35.49    4.53
   6  -9  -3   30.32    2.78
  -6  -9   3   29.74    3.68
  -6   9   3   26.64    3.34
   5  -9  -3   25.62    2.13
   5  -9  -3   23.65    2.42
  -5  -9   3   27.07    2.05
  -5  -9   3   25.47    2.72
  -5   9   3   19.37    2.77
   5   9  -3   22.84    2.76
   4  -9  -3   78.36    5.86
   4  -9  -3   77.47    5.74
  -4  -9   3   73.64    6.03
  -4  -9   3   80.43    5.71
  -4   9   3   67.76    6.08
   4   9  -3   72.65    6.05
  -3  -9   3    3.01    0.90
   3  -9  -3    1.87    0.69
   3  -9  -3    1.42    0.53
  -3  -9   3    2.60    0.55
   3   9  -3    1.12    1.01
  -3   9   3    1.36    1.00
   3   9  -3    0.02    0.91
  -2  -9   3   98.83    7.64
   2  -9  -3  100.57    7.48
   2  -9  -3  100.30    7.42
  -2  -9   3  102.01    7.45
   2   9  -3   97.97    7.64
   2   9  -3   94.08    7.67
  -2   9   3   97.86    7.71
  -1  -9   3   37.66    3.04
   1  -9  -3   42.25    3.07
   1  -9  -3   41.33    2.99
  -1  -9   3   37.39    2.92
   1   9  -3   36.38    3.29
  -1   9   3   36.13    3.35
   1   9  -3   34.38    3.30
   0  -9   3   33.23    2.86
   0  -9  -3   32.48    2.78
   0  -9  -3   31.25    2.90
   0  -9  -3   29.58    3.35
   0   9  -3   41.34    3.17
   0   9   3   39.52    3.26
   0   9  -3   42.13    3.24
  -1  -9  -3   85.58    6.27
  -1  -9  -3   84.57    6.65
   1  -9   3   79.84    6.35
   1  -9   3   86.98    6.38
   1   9   3   80.72    6.64
  -1   9  -3   78.48    6.50
   1   9   3   87.47    6.53
  -1   9  -3   84.99    6.61
  -2  -9  -3   16.81    2.07
  -2  -9  -3   15.51    1.36
   2  -9   3   16.52    1.77
   2  -9   3   14.40    1.54
   2   9   3   17.13    2.12
  -2   9  -3   14.85    2.09
   2   9   3   12.55    2.05
  -2   9  -3   15.67    2.02
  -3  -9  -3   50.83    4.00
  -3  -9  -3   47.24    4.56
   3  -9   3   50.37    4.15
   3  -9   3   52.70    4.29
  -3   9  -3   63.52    4.70
   4  -9   3   21.11    2.20
   4  -9   3   20.58    1.93
  -4   9  -3   16.48    2.83
   4   9   3   18.32    2.60
   5  -9   3   10.53    1.51
  -5  -9  -3   11.27    2.25
   5  -9   3   11.73    2.01
  -5   9  -3   14.38    3.00
   5   9   3   15.82    2.50
  -6  -9  -3   34.21    4.27
   6  -9   3   37.37    3.51
   6  -9   3   34.36    3.03
   6   9   3   35.38    3.84
  -6   9  -3   34.39    4.10
   7  -9   3    0.83    0.88
  -7  -9  -3    1.26    2.41
   7  -9   3    3.43    1.45
   7   9   3    0.80    1.72
  -7   9  -3    2.54    1.96
  -8 -10   3   27.00    4.69
   8 -10  -3   32.26    2.72
   8 -10  -3   30.34    3.27
   8  10  -3   29.46    3.79
  -8  10   3   23.99    4.19
  -7 -10   3   11.96    2.54
   7 -10  -3    9.11    1.51
   7 -10  -3   12.36    2.27
  -7  10   3   14.99    3.33
  -6 -10   3   14.85    2.79
   6 -10  -3   12.97    1.62
   6 -10  -3   14.99    2.24
  -6  10   3   13.49    2.98
   6  10  -3   18.49    2.89
  -5 -10   3   40.10    3.38
   5 -10  -3   40.44    3.45
   5 -10  -3   41.26    3.73
  -5 -10   3   39.31    4.08
   5  10  -3   50.13    4.60
  -5  10   3   49.35    4.28
   4 -10  -3   -0.27    0.87
  -4 -10   3    0.56    0.56
   4 -10  -3    0.98    0.68
  -4 -10   3    1.90    1.14
  -4  10   3    0.49    2.03
   4  10  -3    0.93    1.28
   4  10  -3    1.17    1.37
   3 -10  -3   77.81    6.02
   3 -10  -3   75.24    5.89
  -3 -10   3   74.38    6.21
  -3 -10   3   77.52    5.89
   3  10  -3   73.48    6.27
  -3  10   3   81.65    6.37
   3  10  -3   80.49    6.28
   2 -10  -3   17.01    1.60
  -2 -10   3   17.52    2.09
  -2 -10   3   15.89    1.66
   2 -10  -3   16.86    1.79
   2  10  -3   17.29    2.24
   2  10  -3   15.03    2.22
  -2  10   3   18.96    2.36
   1 -10  -3   49.80    3.81
   1 -10  -3   46.16    3.71
  -1 -10   3   46.42    3.78
   1  10  -3   45.59    4.11
   1  10  -3   48.49    4.14
  -1  10   3   48.88    4.20
   0 -10   3   53.41    4.50
   0 -10  -3   55.33    4.41
   0  10  -3   62.46    4.88
   0  10  -3   59.53    4.76
  -1 -10  -3   13.77    2.15
  -1 -10  -3   14.45    1.32
   1 -10   3   12.01    1.50
   1 -10   3   14.29    1.66
  -1  10  -3   15.30    2.17
  -1  10  -3   14.25    2.07
   1  10   3   13.40    2.16
   1  10   3   11.12    2.12
  -2 -10  -3   78.85    6.24
   2 -10   3   80.73    6.45
  -2  10  -3   87.72    6.75
   2  10   3   84.79    6.71
   3 -10   3    3.28    1.04
   3 -10   3    3.00    0.76
  -3 -10  -3    2.88    1.46
  -3 -10  -3    4.07    0.62
   3  10   3    2.89    1.57
  -3  10  -3    1.60    1.52
   3  10   3    2.18    1.48
   4 -10   3   40.38    3.40
  -4 -10  -3   37.95    4.23
   4  10   3   41.07    4.32
  -4  10  -3   43.56    4.48
   5 -10   3   36.26    3.16
  -5 -10  -3   37.11    4.40
   5 -10   3   42.02    3.60
   5  10   3   36.38    4.06
  -5  10  -3   30.50    4.22
  -6 -10  -3    8.02    2.53
   6 -10   3    5.46    1.16
   6 -10   3    7.90    1.64
  -6  10  -3    5.80    2.29
   6  10   3    3.92    1.97
   6 -11  -3   31.59    2.95
  -6 -11   3   35.10    4.26
   6 -11  -3   39.07    3.56
  -6  11   3   32.53    4.29
   6  11  -3   32.73    4.17
  -5 -11   3   12.40    2.71
   5 -11  -3   10.19    1.65
  -5 -11   3    8.93    1.41
   5 -11  -3    8.86    1.26
  -5  11   3   11.11    2.20
   5  11  -3    9.86    2.25
   5  11  -3   10.23    2.13
  -4 -11   3   71.63    6.11
   4 -11  -3   69.26    5.56
  -4 -11   3   72.45    5.55
   4 -11  -3   79.53    5.87
   4  11  -3   75.96    6.23
  -4  11   3   71.94    6.20
   4  11  -3   62.96    6.15
   3 -11  -3    8.31    1.21
  -3 -11   3    6.94    1.25
  -3 -11   3    8.84    1.64
   3 -11  -3    5.98    1.28
   3  11  -3    7.73    1.74
   3  11  -3    6.66    2.14
  -3  11   3    9.42    1.82
   2 -11  -3   58.60    4.55
   2 -11  -3   56.66    4.73
  -2 -11   3   60.42    4.66
   2  11  -3   56.47    5.06
  -2  11   3   59.21    5.17
  -1 -11   3   31.91    3.06
   1 -11  -3   32.26    3.14
   1  11  -3   35.70    3.54
   1  11  -3   35.20    3.62
  -1  11   3   40.30    3.62
   0 -11   3   16.89    1.65
   0 -11  -3   16.06    1.48
   0  11   3   12.96    2.41
   0  11  -3   13.02    2.53
   0  11  -3   11.09    2.36
  -1 -11  -3   69.31    5.90
   1 -11   3   68.07    5.39
  -1 -11  -3   72.04    5.27
   1  11   3   63.05    5.77
   1  11   3   71.59    6.24
  -2 -11  -3    2.67    1.59
   2 -11   3    3.38    0.85
  -2 -11  -3    2.30    0.66
   2 -11   3    4.14    1.16
   2  11   3    3.90    1.79
  -2  11  -3    5.69    1.72
   2  11   3    2.83    1.61
  -3 -11  -3   42.66    4.44
   3 -11   3   48.34    3.92
   3 -11   3   39.31    3.54
  -3  11  -3   42.90    4.41
   3  11   3   39.82    4.35
   4 -11   3   15.35    1.85
  -4 -11  -3   12.27    2.58
   4 -11   3   14.71    2.03
   4  11   3   18.20    3.35
  -4  11  -3   15.70    2.65
   4  11   3   14.88    3.30
  -5 -11  -3    9.87    2.65
  -5  11  -3   10.79    2.53
   5  11   3    8.55    2.35
  -5 -12   3   45.95    4.62
   5 -12  -3   40.32    3.42
   5 -12  -3   49.98    4.14
   5  12  -3   30.20    4.61
  -5  12   3   38.83    4.66
   5  12  -3   36.25    4.67
   4 -12  -3    2.34    1.44
  -4 -12   3    1.94    1.74
   4 -12  -3    0.64    0.81
  -4 -12   3    1.92    0.85
   4  12  -3    0.59    2.01
   4  12  -3    2.46    1.89
  -4  12   3    1.61    1.85
   3 -12  -3   65.38    5.09
  -3 -12   3   69.22    5.12
  -3 -12   3   71.42    5.71
  -3  12   3   65.04    5.85
   3  12  -3   58.12    5.79
   3  12  -3   57.40    5.83
   2 -12  -3   22.14    2.11
  -2 -12   3   23.51    2.22
  -2  12   3   20.41    3.21
   2  12  -3   22.65    3.15
   1 -12  -3   28.56    2.39
  -1 -12   3   30.53    2.56
   1  12  -3   22.07    3.44
  -1  12   3   25.87    3.36
   1  12  -3   24.33    3.36
   0 -12   3   58.44    4.82
   0 -12  -3   63.11    4.71
   0  12   3   59.44    5.49
   0  12  -3   59.43    5.45
  -1 -12  -3    1.67    0.69
   1 -12   3    0.72    0.85
   1  12   3   -0.95    1.63
  -1  12  -3   -0.98    1.69
   2 -12   3   45.34    3.98
  -2 -12  -3   48.75    4.85
  -2 -12  -3   53.09    3.82
   2  12   3   44.77    4.77
  -2  12  -3   45.65    4.82
  -3 -12  -3    7.72    2.99
   3  12   3    6.48    2.53
   3  12   3    6.36    2.72
  -3  12  -3    6.45    2.29
  12   0  -4   10.60    1.88
 -12   0   4   12.43    2.00
  11   0  -4   59.36    4.98
  11   0  -4   63.99    4.93
 -10   0   4    1.56    0.83
  10   0  -4    1.21    0.69
  10   0  -4    0.88    0.63
   9   0  -4   65.23    5.13
   9   0  -4   66.98    5.09
   8   0  -4   64.38    4.84
   8   0  -4   62.15    4.87
  -7   0   4   43.11    3.11
   7   0  -4   33.65    2.86
   7   0  -4   33.65    2.89
   6   0  -4  155.01   11.74
  -6   0   4  162.04   11.89
   6   0  -4  153.15   11.62
   5   0  -4   13.03    1.08
   5   0  -4   11.03    1.13
  -5   0   4   14.25    1.02
  -5   0   4   12.72    1.27
  -4   0   4  260.79   18.59
  -4   0   4  231.08   18.70
   4   0  -4  263.73   18.62
   4   0  -4  254.23   18.61
   3   0  -4   69.74    5.09
  -3   0   4   57.94    5.06
   3   0  -4   73.46    5.28
   3   0  -4   71.71    5.11
   2   0  -4  173.36   12.46
   2   0  -4  154.10   12.45
   2   0  -4  179.02   12.49
   1   0  -4   76.84    5.83
   1   0  -4   79.73    5.88
   0   0   4    9.01    0.83
   0   0   4   10.06    0.83
   0   0  -4    9.79    0.99
   0   0  -4   11.40    0.88
   1   0   4  129.26    9.28
  -1   0  -4  127.19    9.42
   1   0   4  132.57    9.31
  -1   0  -4  113.04    9.28
   2   0   4   21.46    1.72
   2   0   4   23.42    1.77
  -2   0  -4   21.85    1.91
   3   0   4  114.41    8.53
  -3   0  -4  121.54    8.68
  -3   0  -4  102.58    8.58
   3   0   4  119.69    8.47
  -4   0  -4   47.82    3.75
   4   0   4   48.06    3.46
   4   0   4   44.52    3.58
  -4   0  -4   44.25    3.66
  -5   0  -4    2.00    0.68
  -5   0  -4    2.91    0.79
   5   0   4    1.03    0.51
  -6   0  -4   58.80    4.72
  -6   0  -4   62.58    4.77
   6   0   4   53.74    4.54
   7   0   4   19.79    2.24
   7   0   4   17.66    1.93
  -7   0  -4   18.66    2.22
  -7   0  -4   19.26    2.14
   8   0   4   25.13    2.81
  -8   0  -4   27.98    2.84
  -8   0  -4   28.15    2.81
   8   0   4   24.74    2.54
   9   0   4   38.29    3.57
  -9   0  -4   37.91    3.82
  -9   0  -4   46.32    3.93
   9   0   4   36.81    3.83
  12  -1  -4   25.58    2.92
 -12  -1   4   33.45    3.19
 -12   1   4   28.69    2.93
  11  -1  -4    2.76    1.49
 -11  -1   4    3.72    1.19
  11   1  -4    4.18    1.09
 -11   1   4    6.27    1.42
  11   1  -4    4.78    0.96
  10  -1  -4   80.96    6.14
 -10   1   4   93.63    6.35
  10   1  -4   69.73    6.06
  10   1  -4   73.28    6.18
   9  -1  -4   10.51    1.22
  -9  -1   4   11.73    1.55
  -9   1   4   12.45    1.50
   9   1  -4    8.38    1.13
   9   1  -4    7.19    1.28
   8  -1  -4   71.33    5.68
   8  -1  -4   74.32    5.71
  -8   1   4   86.30    5.96
   8   1  -4   68.56    5.74
   8   1  -4   68.49    5.66
  -8   1   4   81.44    5.58
  -7  -1   4  102.51    7.87
   7  -1  -4   97.10    7.65
  -7   1   4  102.75    7.56
   7   1  -4   99.13    7.62
  -7   1   4  115.52    7.89
   7   1  -4   96.13    7.68
   6  -1  -4   19.75    1.53
   6  -1  -4   20.46    1.50
  -6  -1   4   16.86    1.84
   6  -1  -4   17.80    1.44
  -6   1   4   16.58    1.77
   6   1  -4   14.89    1.45
   6   1  -4   16.82    1.40
  -6   1   4   15.30    1.34
   5  -1  -4  146.55   12.87
   5  -1  -4  177.53   12.89
  -5   1   4  168.18   12.84
  -5   1   4  169.73   13.06
   5   1  -4  193.04   12.93
   5   1  -4  190.08   12.91
   4  -1  -4   14.59    1.11
  -4   1   4   11.51    1.51
   3  -1  -4  130.79   10.01
  -3   1   4  142.22    9.97
  -3   1   4  116.43    9.96
   3   1  -4  150.38   10.02
   2  -1  -4   65.09    5.08
  -2  -1   4   63.17    5.03
   2  -1  -4   60.90    5.04
   2  -1  -4   66.25    5.06
  -2   1   4   78.01    5.08
  -2   1   4   73.09    5.04
   1  -1  -4   98.63    7.60
  -1  -1   4  103.20    7.55
   1  -1  -4   99.08    7.62
   1  -1  -4  112.63    7.58
  -1  -1   4   94.11    7.58
   1   1  -4  106.22    7.62
  -1   1   4  106.54    7.53
  -1   1   4  101.93    7.53
   1   1  -4   95.44    7.56
   0  -1   4  166.42   12.75
   0  -1  -4  176.58   12.77
   0  -1  -4  149.53   12.83
   0  -1  -4  179.72   12.74
   0  -1   4  158.19   12.76
   0   1   4  180.61   12.75
   0   1  -4  198.96   12.86
  -1  -1  -4    7.15    0.73
   1  -1   4    9.03    0.74
  -1  -1  -4    7.89    0.88
   1  -1   4    8.06    0.75
  -1   1  -4    9.42    0.96
  -1   1  -4    7.12    0.75
   1   1   4    8.84    0.68
  -2  -1  -4  105.96    8.08
   2  -1   4  110.88    7.97
   2  -1   4  112.44    7.94
  -2  -1  -4  104.62    8.00
  -2   1  -4  106.96    8.09
   2   1   4  101.23    7.91
   2   1   4  107.04    7.95
   3  -1   4   62.84    4.88
  -3  -1  -4   58.44    4.89
   3   1   4   67.02    4.81
  -3   1  -4   66.72    4.96
   3   1   4   63.47    4.77
  -4  -1  -4   26.86    2.41
   4  -1   4   25.64    2.23
  -4  -1  -4   28.15    2.36
   4  -1   4   27.53    2.09
  -4   1  -4   30.31    2.46
   4   1   4   27.73    2.21
  -4   1  -4   24.00    2.24
  -5  -1  -4  123.64    9.13
  -5  -1  -4  117.55    9.06
   5  -1   4  111.25    8.92
   5  -1   4  116.10    8.79
  -5   1  -4  104.77    8.98
   5   1   4  122.92    8.92
  -5   1  -4  136.60    9.10
   6  -1   4    0.36    0.61
  -6  -1  -4    0.51    0.74
  -6  -1  -4    0.56    0.77
  -6   1  -4    0.72    0.85
   6   1   4   -0.04    0.55
   6   1   4   -0.09    0.75
  -6   1  -4    1.83    0.64
   7  -1   4   66.68    5.30
  -7  -1  -4   72.35    5.50
  -7   1  -4   69.82    5.48
   7   1   4   68.18    5.51
  -7   1  -4   63.30    5.39
   7   1   4   64.98    5.25
   8  -1   4   22.62    2.45
   8  -1   4   18.48    2.15
  -8  -1  -4   23.73    2.56
  -8   1  -4   17.48    2.37
   8   1   4   18.52    3.19
  -8   1  -4   19.39    2.22
   8   1   4   15.53    2.05
  -9  -1  -4   20.56    2.65
   9  -1   4   18.88    2.26
  -9  -1  -4   19.46    2.60
   9  -1   4   18.94    2.57
  -9   1  -4   14.50    2.26
   9   1   4   13.61    2.13
  -9   1  -4   14.69    2.46
   9   1   4   13.91    2.50
  12  -2  -4   18.56    2.32
 -12  -2   4   20.01    2.62
  12   2  -4   13.68    2.42
 -12   2   4   17.04    2.15
  11  -2  -4   55.21    4.81
 -11  -2   4   65.35    5.25
 -11   2   4   58.47    4.95
 -10  -2   4    2.61    1.18
  10  -2  -4    2.34    0.75
  10   2  -4    2.01    0.84
  10   2  -4    2.25    0.67
   9  -2  -4   92.21    7.06
  -9  -2   4  106.26    7.50
   9  -2  -4   94.74    7.11
  -9   2   4   90.64    6.94
  -9   2   4  107.02    7.38
   9   2  -4   80.86    7.15
   9   2  -4   83.23    7.02
   8  -2  -4   14.71    1.52
   8  -2  -4   17.88    1.52
  -8  -2   4   16.29    1.95
  -8   2   4   19.07    1.96
   8   2  -4   14.65    1.63
   8   2  -4   14.68    1.40
  -8   2   4   14.67    1.32
   7  -2  -4  100.50    7.23
   7  -2  -4   95.14    7.17
   7   2  -4   93.43    7.27
   7   2  -4   96.67    7.17
  -7   2   4   94.29    7.49
  -6  -2   4  120.26    9.43
   6  -2  -4  131.21    9.44
   6  -2  -4  138.34    9.49
   6   2  -4  119.28    9.52
  -5  -2   4   13.40    1.16
   5  -2  -4   13.51    1.14
   5  -2  -4   14.15    1.20
   5   2  -4   14.28    1.25
  -5   2   4   10.88    1.51
   5   2  -4   16.26    1.17
  -4  -2   4  209.88   16.50
   4  -2  -4  247.17   16.51
   4  -2  -4  228.39   16.47
   4   2  -4  230.63   16.47
   4   2  -4  228.67   16.53
  -4   2   4  195.80   16.60
   3  -2  -4  111.21    8.60
  -3  -2   4  102.66    8.63
  -3  -2   4  121.21    8.67
   3  -2  -4  120.47    8.63
  -3  -2   4  106.51    8.58
   3   2  -4  126.60    8.66
  -3   2   4  121.49    8.70
   3   2  -4  119.27    8.60
  -2  -2   4  226.08   16.76
   2  -2  -4  219.09   16.80
   2  -2  -4  229.63   16.83
  -2  -2   4  208.36   16.80
  -2  -2   4  218.61   16.75
  -2   2   4  246.90   16.81
   2   2  -4  249.19   16.84
   2   2  -4  222.96   16.77
  -1  -2   4  319.45   24.62
  -1  -2   4  312.27   24.66
   1  -2  -4  363.38   24.65
   1  -2  -4  342.81   24.65
  -1   2   4  350.47   24.63
  -1   2   4  347.68   24.64
  -1   2   4  307.69   24.62
   0  -2   4    9.36    0.83
   0  -2  -4    8.76    0.92
   0  -2  -4    9.45    0.86
   0  -2  -4   10.12    0.84
   0   2  -4    9.47    1.31
   0   2   4    9.56    0.86
   1  -2   4  236.59   18.87
  -1  -2  -4  219.60   18.93
   1  -2   4  245.46   18.88
  -1  -2  -4  245.83   18.90
  -1  -2  -4  276.09   18.94
  -1   2  -4  284.12   18.99
   1   2   4  285.51   18.90
   2  -2   4   77.08    6.24
   2  -2   4   78.72    6.28
  -2  -2  -4   74.39    6.35
   2   2   4   96.73    6.27
  -2   2  -4   95.29    6.43
   2   2   4   81.52    6.21
  -3  -2  -4   66.18    5.37
   3  -2   4   68.97    5.19
   3  -2   4   68.01    5.27
  -3  -2  -4   66.35    5.34
  -3   2  -4   72.38    5.39
   3   2   4   74.87    5.23
   4  -2   4  102.74    7.26
  -4  -2  -4  103.25    7.55
  -4  -2  -4   92.01    7.45
   4  -2   4   94.89    7.36
   4   2   4   89.76    7.49
  -4   2  -4  102.33    7.48
  -5  -2  -4    3.26    0.84
   5  -2   4    3.09    0.48
  -5  -2  -4    4.35    0.94
   5  -2   4    3.30    0.66
   5   2   4    1.38    0.75
  -5   2  -4    1.68    0.83
   5   2   4    1.95    0.59
  -6  -2  -4   96.60    6.84
   6  -2   4   82.50    6.51
  -6  -2  -4   83.45    6.65
   6  -2   4   81.43    6.32
  -6   2  -4   84.36    6.64
   6   2   4   81.84    6.45
   6   2   4   84.71    6.69
  -7  -2  -4    9.30    1.40
  -7  -2  -4    9.16    1.86
   7  -2   4    7.18    1.10
   7   2   4    4.80    1.02
   7   2   4    7.45    1.40
  -7   2  -4    6.34    1.31
  -7   2  -4    5.72    1.26
   8  -2   4   24.67    2.69
  -8  -2  -4   30.22    3.12
   8  -2   4   24.40    2.78
  -8  -2  -4   25.43    2.90
   8   2   4   30.76    3.00
  -8   2  -4   26.96    2.61
   8   2   4   24.50    2.52
  -8   2  -4   28.98    2.87
   9  -2   4   18.56    2.23
  -9   2  -4   14.89    2.39
   9   2   4   12.29    2.56
  -9   2  -4   13.71    2.02
 -12  -3   4   21.24    3.03
  12  -3  -4   18.63    2.63
 -12   3   4   26.37    2.60
  12   3  -4   20.32    2.80
  11  -3  -4   23.01    2.43
 -11  -3   4   22.75    2.90
 -11   3   4   25.79    2.53
  11   3  -4   17.02    2.50
 -10  -3   4   54.33    5.75
  10  -3  -4   60.73    4.71
  10   3  -4   57.55    4.78
  -9  -3   4    0.69    0.98
   9  -3  -4    0.68    0.61
   9  -3  -4    0.13    0.49
   9   3  -4    1.31    0.74
   8  -3  -4   69.88    4.78
   8   3  -4   59.33    4.74
  -8   3   4   61.86    5.22
   8   3  -4   59.61    4.92
   7  -3  -4   42.90    3.12
   7  -3  -4   44.05    3.21
   7   3  -4   39.26    3.27
  -7   3   4   34.31    3.58
  -6  -3   4   29.80    2.89
   6  -3  -4   35.49    2.55
   6   3  -4   31.68    2.46
   6   3  -4   29.75    2.60
   5  -3  -4  173.66   12.52
  -5  -3   4  169.40   12.72
   5  -3  -4  171.21   12.47
  -5  -3   4  180.85   12.49
   5   3  -4  165.99   12.46
   5   3  -4  151.19   12.61
  -4  -3   4   17.69    1.54
  -4  -3   4   20.42    1.63
   4  -3  -4   16.53    1.36
   4  -3  -4   16.89    1.42
   4   3  -4   15.76    1.36
   4   3  -4   16.41    1.48
  -4   3   4   17.78    1.60
  -3  -3   4  235.36   16.91
  -3  -3   4  226.99   16.90
   3  -3  -4  230.18   16.85
  -3  -3   4  236.69   16.84
   3  -3  -4  236.63   16.89
  -3  -3   4  239.18   16.83
  -3   3   4  231.66   16.95
   3   3  -4  224.62   16.91
   3   3  -4  197.19   16.84
   2  -3  -4  289.01   20.86
  -2  -3   4  266.52   20.87
   2  -3  -4  279.21   20.84
  -2  -3   4  276.41   20.83
  -2  -3   4  272.39   20.85
  -2   3   4  298.84   20.90
   2   3  -4  299.37   20.91
  -1  -3   4   34.68    2.63
   1  -3  -4   36.71    2.64
   1  -3  -4   32.64    2.64
  -1  -3   4   38.06    2.59
  -1  -3   4   35.31    2.61
   1  -3  -4   38.09    2.60
   1   3  -4   32.29    2.67
   1   3  -4   30.75    2.59
  -1   3   4   29.11    2.62
   0  -3  -4  321.58   25.42
   0  -3   4  338.43   25.39
   0  -3  -4  344.49   25.46
   0  -3  -4  367.10   25.42
   0   3  -4  378.59   25.45
   0   3  -4  325.36   25.36
   0   3  -4  337.97   25.37
   1  -3   4   22.59    1.89
   1  -3   4   23.03    1.91
  -1  -3  -4   27.06    1.97
  -1  -3  -4   24.83    1.89
  -1  -3  -4   24.20    1.99
   1   3   4   23.78    1.86
  -1   3  -4   22.16    1.96
   1   3   4   24.08    1.86
  -1   3  -4   25.34    2.03
  -2  -3  -4  273.35   20.62
   2  -3   4  273.85   20.53
   2  -3   4  295.57   20.58
  -2  -3  -4  270.88   20.63
   2   3   4  289.63   20.52
  -2   3  -4  260.66   20.65
  -2   3  -4  286.18   20.66
   3  -3   4  116.28    8.27
  -3  -3  -4  109.53    8.41
  -3  -3  -4  107.11    8.40
   3  -3   4  112.68    8.34
   3   3   4  109.00    8.26
  -3   3  -4  112.14    8.46
  -4  -3  -4   51.33    4.28
  -4  -3  -4   47.36    4.22
   4  -3   4   49.23    4.12
   4  -3   4   53.70    4.02
   4   3   4   53.35    4.10
  -4   3  -4   59.21    4.28
   4   3   4   56.92    4.26
   5  -3   4  102.07    7.80
  -5  -3  -4   99.55    8.03
   5  -3   4   93.50    7.91
  -5  -3  -4  110.71    8.18
   5   3   4  109.49    8.07
  -5   3  -4  114.13    8.12
   5   3   4  104.06    7.84
   6  -3   4    6.67    1.02
  -6  -3  -4    9.09    1.71
  -6  -3  -4    6.41    1.15
   6  -3   4    6.88    0.79
  -6   3  -4    5.68    1.20
   6   3   4    5.45    1.22
  -6   3  -4    4.95    1.03
   6   3   4    7.00    1.08
  -7  -3  -4   52.32    4.53
   7  -3   4   49.35    4.36
  -7  -3  -4   62.93    4.83
   7  -3   4   48.76    4.07
  -7   3  -4   47.61    4.34
   7   3   4   55.81    4.74
   7   3   4   52.40    4.19
  -7   3  -4   59.32    4.51
   8  -3   4   28.81    2.58
  -8  -3  -4   31.67    4.26
   8   3   4   22.82    2.81
  -8   3  -4   22.33    2.68
   8   3   4   21.08    2.26
  -8   3  -4   19.25    2.33
   9  -3   4    7.22    1.48
   9  -3   4    5.75    1.44
  -9  -3  -4    7.29    1.90
  -9   3  -4    9.54    1.77
   9   3   4    9.39    1.81
  -9   3  -4    8.10    1.68
 -11  -4   4   38.93    4.20
  11  -4  -4   42.68    3.69
  11   4  -4   40.16    3.81
  10  -4  -4    3.14    0.79
 -10  -4   4    2.36    1.37
  10  -4  -4    2.14    0.89
 -10   4   4    2.48    1.19
   9  -4  -4   66.07    5.07
   9  -4  -4   62.98    4.90
  -9   4   4   66.37    5.46
   9   4  -4   60.67    5.14
   8  -4  -4   20.81    1.83
   8  -4  -4   22.86    2.01
  -8   4   4   20.17    2.63
   8   4  -4   22.67    2.13
   7  -4  -4   24.43    1.82
   7  -4  -4   22.60    1.94
  -7  -4   4   18.34    2.41
  -7   4   4   19.70    2.49
   7   4  -4   22.94    2.06
  -6  -4   4  138.81    8.99
  -6  -4   4  113.69    9.30
   6  -4  -4  124.33    8.96
   6  -4  -4  124.15    9.02
   6   4  -4  118.37    9.08
  -6   4   4  102.41    9.24
  -5  -4   4    2.75    0.88
  -5  -4   4    2.81    0.46
   5  -4  -4    1.83    0.46
   5  -4  -4    3.17    0.50
  -5   4   4    3.33    0.81
   5   4  -4    2.63    0.59
  -4  -4   4  125.29    8.81
  -4  -4   4  128.61    8.68
   4  -4  -4  113.92    8.75
   4   4  -4  104.24    8.74
  -4   4   4  111.63    8.83
  -3  -4   4   32.23    2.40
   3  -4  -4   29.61    2.36
   3  -4  -4   31.03    2.41
  -3  -4   4   30.47    2.43
  -3   4   4   31.90    2.52
   3   4  -4   29.94    2.47
  -2  -4   4   66.30    5.14
  -2  -4   4   69.46    5.20
  -2  -4   4   65.73    5.19
   2  -4  -4   66.42    5.15
   2  -4  -4   65.44    5.18
   2   4  -4   81.74    5.27
  -1  -4   4  143.51   10.81
  -1  -4   4  136.34   10.79
   1  -4  -4  146.08   10.86
   1  -4  -4  153.28   10.82
   1  -4  -4  147.12   10.79
  -1  -4   4  135.24   10.82
   1   4  -4  146.91   10.82
   1   4  -4  154.67   10.88
  -1   4   4  150.91   10.88
   0  -4  -4    9.98    1.15
   0  -4   4   10.58    0.97
   0  -4  -4   10.80    0.90
   0  -4  -4   10.79    1.01
   0  -4  -4   10.12    0.95
   0  -4   4   10.26    0.97
   0   4   4   13.35    1.06
  -1  -4  -4  199.26   15.23
  -1  -4  -4  213.40   15.16
   1  -4   4  193.54   15.17
   1  -4   4  190.41   15.16
  -1  -4  -4  216.57   15.13
  -1  -4  -4  193.29   15.22
  -1   4  -4  204.33   15.20
   1   4   4  208.40   15.22
   1   4   4  209.71   15.13
  -1   4  -4  222.58   15.26
  -2  -4  -4   23.07    1.92
   2  -4   4   22.31    1.89
  -2  -4  -4   18.82    1.91
  -2  -4  -4   17.66    2.18
   2   4   4   24.46    1.75
  -2   4  -4   24.39    2.02
   2   4   4   20.91    2.31
  -2   4  -4   23.69    1.97
  -3  -4  -4   87.90    7.28
   3  -4   4   95.70    7.22
  -3  -4  -4   88.25    7.31
   3  -4   4   95.92    7.15
  -3   4  -4   96.80    7.38
   3   4   4  104.19    7.13
   3   4   4  105.35    7.32
   3   4   4   91.27    7.08
  -4  -4  -4   80.99    6.58
   4  -4   4   85.02    6.40
   4  -4   4   84.01    6.50
  -4  -4  -4   82.68    6.66
   4   4   4   87.15    6.39
   4   4   4   86.82    6.61
  -4   4  -4   90.50    6.62
  -5  -4  -4   19.38    2.14
  -5  -4  -4   15.08    1.95
   5  -4   4   18.03    1.55
   5  -4   4   18.43    1.82
   5   4   4   17.87    2.05
  -5   4  -4   20.96    2.02
   5   4   4   18.46    1.58
  -5   4  -4   15.14    2.02
   6  -4   4   81.08    6.90
  -6  -4  -4   94.76    7.26
  -6  -4  -4   83.79    7.02
   6  -4   4   86.58    6.71
   6   4   4   92.87    7.24
  -6   4  -4   80.59    7.00
   6   4   4   95.40    6.78
  -6   4  -4  100.85    7.00
  -7  -4  -4    6.11    1.54
   7  -4   4    4.74    0.67
   7   4   4    3.32    0.79
  -7   4  -4    3.26    1.14
  -7   4  -4    4.94    1.05
   8  -4   4   23.89    2.98
  -8  -4  -4   36.79    3.66
   8   4   4   27.75    3.32
  -8   4  -4   32.53    3.54
   9  -4   4   25.00    3.02
   9   4   4   26.14    3.38
  -9   4  -4   27.44    2.74
 -11  -5   4    0.46    1.63
  11  -5  -4    1.44    1.10
  11   5  -4    1.02    1.29
 -11   5   4    3.67    1.36
  10  -5  -4   35.64    3.56
  10  -5  -4   36.41    3.59
  10   5  -4   43.45    3.75
 -10   5   4   46.50    4.08
   9  -5  -4    5.14    1.00
   9  -5  -4    4.71    0.74
   9   5  -4    3.99    1.05
  -9   5   4    4.79    2.07
   8  -5  -4   38.41    3.32
   8  -5  -4   40.88    3.31
   8   5  -4   44.45    3.49
  -8   5   4   36.03    3.90
   7  -5  -4   31.10    2.68
  -7  -5   4   28.81    3.06
   7  -5  -4   30.74    2.43
  -7   5   4   30.43    3.10
   6  -5  -4   18.00    1.59
  -6  -5   4   20.48    1.52
  -6  -5   4   17.39    2.08
   6  -5  -4   17.27    1.70
  -6   5   4   18.32    2.19
   6   5  -4   21.16    1.89
   5  -5  -4   62.15    4.88
   5  -5  -4   61.16    4.94
  -5  -5   4   65.65    4.86
  -5  -5   4   62.67    5.13
  -5   5   4   68.64    5.19
   5   5  -4   68.55    5.04
   4  -5  -4   19.53    1.52
   4  -5  -4   19.84    1.61
  -4  -5   4   16.04    1.95
  -4  -5   4   20.86    1.53
  -4   5   4   18.09    1.79
   4   5  -4   16.44    1.71
  -3  -5   4   79.33    6.57
   3  -5  -4   80.58    6.47
  -3  -5   4   81.95    6.49
   3   5  -4   96.93    6.61
  -3   5   4   96.17    6.76
   2  -5  -4  111.64    8.79
  -2  -5   4  111.38    8.66
  -2  -5   4  118.48    8.72
  -2  -5   4  121.54    8.75
   2  -5  -4  117.69    8.72
  -2   5   4  120.82    8.81
   2   5  -4  118.68    8.87
  -1  -5   4   37.68    3.12
   1  -5  -4   42.65    3.37
   1  -5  -4   38.07    3.11
  -1  -5   4   35.82    3.09
   1  -5  -4   35.50    3.07
  -1   5   4   45.02    3.23
   1   5  -4   45.89    3.18
   1   5  -4   45.82    3.24
   0  -5  -4  135.75    9.22
   0  -5  -4  123.41    9.25
   0  -5   4  116.53    9.15
   0  -5  -4  125.27    9.12
   0  -5   4  115.68    9.17
   0  -5  -4  130.71    9.16
   0   5   4  122.71    9.25
   0   5  -4  124.37    9.24
   0   5  -4  114.01    9.19
   0   5   4  123.92    9.20
   1  -5   4    2.20    0.39
   1  -5   4    1.21    0.40
  -1  -5  -4    2.14    0.49
  -1  -5  -4    1.08    0.24
   1   5   4    0.64    0.42
  -1   5  -4    0.48    0.54
  -1   5  -4    0.24    0.42
  -2  -5  -4   96.52    7.80
  -2  -5  -4  106.15    7.62
   2  -5   4   96.59    7.67
   2  -5   4  100.48    7.71
  -2  -5  -4  106.97    7.67
  -2  -5  -4   97.78    7.77
  -2   5  -4  108.16    7.83
   2   5   4  103.65    7.62
   2   5   4  104.38    7.78
  -2   5  -4  105.42    7.80
  -3  -5  -4   29.18    2.61
   3  -5   4   29.92    2.37
  -3  -5  -4   30.14    2.58
   3  -5   4   28.46    2.47
  -3  -5  -4   30.36    2.30
   3   5   4   29.88    2.61
   3   5   4   30.84    2.32
  -3   5  -4   28.52    2.68
   3   5   4   30.38    2.28
  -3   5  -4   27.10    2.86
   4  -5   4   33.56    2.55
  -4  -5  -4   34.65    2.92
   4  -5   4   35.30    2.72
  -4  -5  -4   34.26    2.83
  -4   5  -4   29.10    2.85
   4   5   4   27.64    2.49
   4   5   4   29.03    2.81
  -5  -5  -4   77.98    5.89
   5  -5   4   75.90    5.61
   5  -5   4   76.62    5.44
   5   5   4   65.25    5.68
  -5   5  -4   69.99    5.65
   5   5   4   64.44    5.40
  -6  -5  -4    3.17    1.31
   6  -5   4    3.12    0.95
   6  -5   4    1.99    0.55
  -6   5  -4    3.03    1.17
   6   5   4    2.45    0.69
  -6   5  -4    3.01    1.02
   6   5   4    2.94    1.11
   7  -5   4   59.82    5.05
   7  -5   4   61.98    4.79
  -7  -5  -4   73.22    5.90
  -7   5  -4   66.07    5.12
   7   5   4   56.97    5.25
  -7   5  -4   53.74    5.07
   8  -5   4   13.83    2.38
  -8  -5  -4   21.68    3.23
   8   5   4   20.71    2.81
  -8   5  -4   14.87    3.16
  -8   5  -4   19.60    2.21
  11  -6  -4   39.90    3.73
 -11  -6   4   30.95    4.57
  11   6  -4   35.92    3.95
 -11   6   4   44.35    4.07
 -10  -6   4   -0.91    1.74
  10  -6  -4    1.81    1.00
  10  -6  -4    0.16    0.75
 -10   6   4    3.52    1.61
  10   6  -4   -0.33    1.21
   9  -6  -4   80.71    5.85
   9  -6  -4   83.36    6.06
  -9   6   4   63.94    6.50
   9   6  -4   75.28    6.19
  -8  -6   4   24.13    3.11
   8  -6  -4   28.26    2.36
   8  -6  -4   26.88    2.12
  -8   6   4   19.11    3.02
   8   6  -4   21.52    2.61
   7  -6  -4   37.11    3.29
   7  -6  -4   40.81    3.16
  -7  -6   4   40.65    3.82
  -7   6   4   38.46    3.83
   7   6  -4   43.30    3.51
   6  -6  -4   95.58    7.48
  -6  -6   4  102.18    7.34
  -6  -6   4   94.37    7.75
   6  -6  -4   98.42    7.40
  -6   6   4  100.79    7.76
   6   6  -4  100.00    7.58
   5  -6  -4    2.45    0.48
   5  -6  -4    2.07    0.59
  -5  -6   4    3.30    0.82
  -5  -6   4    4.21    0.58
  -5   6   4    4.90    1.00
   5   6  -4    3.94    0.84
  -4  -6   4  136.18   11.01
   4  -6  -4  138.53   10.86
  -4  -6   4  138.38   10.93
   4  -6  -4  139.47   10.92
   4   6  -4  164.57   11.03
  -4   6   4  161.95   11.09
  -3  -6   4   23.97    2.09
   3  -6  -4   22.88    1.93
  -3  -6   4   22.72    1.97
   3  -6  -4   23.54    2.01
   3   6  -4   26.10    2.17
  -3   6   4   27.45    2.21
  -2  -6   4   53.05    4.43
  -2  -6   4   55.43    4.51
  -2  -6   4   56.64    4.55
   2  -6  -4   53.52    4.46
  -2   6   4   64.46    4.66
   2   6  -4   67.87    4.64
   2   6  -4   65.62    4.61
   1  -6  -4   98.06    7.09
  -1  -6   4   87.08    7.09
   1  -6  -4   93.72    7.20
   1  -6  -4   90.85    7.04
  -1  -6   4   80.76    7.11
  -1  -6   4   91.95    7.12
   1   6  -4  104.75    7.20
   1   6  -4   99.60    7.16
  -1   6   4  105.01    7.23
   0  -6  -4    5.01    0.67
   0  -6  -4    4.76    0.87
   0  -6  -4    4.65    0.55
   0  -6   4    4.32    0.70
   0   6  -4    4.39    0.80
   0   6   4    5.30    0.81
   0   6   4    3.55    0.72
   0   6  -4    3.99    0.82
   1  -6   4   99.36    7.81
  -1  -6  -4  103.04    7.73
   1  -6   4   98.33    7.75
  -1  -6  -4  103.28    7.90
  -1  -6  -4  109.08    7.74
  -1   6  -4  110.33    8.00
   1   6   4   99.12    8.12
  -1   6  -4  105.83    7.84
  -2  -6  -4   11.50    1.07
   2  -6   4   10.23    1.08
  -2  -6  -4    9.32    1.33
  -2  -6  -4   11.23    0.93
   2  -6   4   10.46    1.23
   2   6   4   10.40    0.95
  -2   6  -4   10.55    1.45
   2   6   4   12.43    1.89
  -2   6  -4    9.05    1.48
  -3  -6  -4   45.60    3.28
   3  -6   4   47.35    3.50
   3  -6   4   43.50    3.37
  -3  -6  -4   42.98    3.64
   3   6   4   40.57    3.57
   3   6   4   40.57    3.29
  -3   6  -4   43.57    3.71
  -3   6  -4   40.85    3.62
  -4  -6  -4   52.23    4.32
   4  -6   4   50.82    4.01
   4  -6   4   51.61    4.12
   4   6   4   49.04    3.88
  -4   6  -4   47.40    4.41
   4   6   4   53.07    4.24
  -4   6  -4   52.81    4.25
   5  -6   4    5.56    0.77
  -5  -6  -4    6.17    1.34
   5  -6   4    6.16    1.04
   5   6   4    4.11    1.12
  -5   6  -4    3.95    1.07
  -5   6  -4    4.40    1.43
  -6  -6  -4   54.47    4.74
   6  -6   4   49.54    4.52
   6  -6   4   52.12    3.99
  -6   6  -4   53.68    4.30
   6   6   4   48.87    4.75
  -6   6  -4   46.15    4.55
  -7  -6  -4    9.88    2.09
   7  -6   4    8.12    1.27
   7  -6   4    7.95    1.46
  -7   6  -4    8.90    2.19
  -7   6  -4   11.38    2.11
   7   6   4   10.46    1.83
   8   6   4   19.53    3.02
  -8   6  -4   21.48    2.51
  10  -7  -4   58.74    4.56
  10  -7  -4   57.61    4.88
 -10   7   4   53.43    5.39
  10   7  -4   56.67    5.15
   9  -7  -4    4.46    1.13
  -9  -7   4    1.74    1.80
   9  -7  -4    3.98    0.87
  -9   7   4    4.97    1.94
   9   7  -4    4.68    1.38
   8  -7  -4   82.68    6.31
   8  -7  -4   80.14    6.01
  -8  -7   4   73.78    6.85
   8   7  -4   81.90    6.45
  -8   7   4   73.06    6.84
   7  -7  -4   81.09    6.05
  -7  -7   4   78.66    6.65
   7  -7  -4   80.64    6.19
   7   7  -4   79.99    6.34
  -7   7   4   76.59    6.59
   6  -7  -4   33.02    2.91
   6  -7  -4   33.63    2.76
  -6  -7   4   32.81    3.21
  -6  -7   4   34.81    2.68
  -6   7   4   34.30    3.32
   6   7  -4   36.96    3.16
   5  -7  -4  179.49   13.39
   5  -7  -4  186.80   13.38
  -5  -7   4  183.87   13.28
  -5  -7   4  175.12   13.55
   5   7  -4  181.52   13.50
  -5   7   4  168.93   13.56
  -4  -7   4    2.32    0.49
   4  -7  -4    1.85    0.59
   4  -7  -4    1.97    0.44
  -4  -7   4    1.16    0.64
  -4   7   4    3.94    0.90
   4   7  -4    3.32    0.86
  -3  -7   4  124.95    9.33
   3  -7  -4  126.41    9.37
   3  -7  -4  122.47    9.30
  -3  -7   4  122.13    9.44
  -3   7   4  124.01    9.50
   3   7  -4  130.11    9.47
   2  -7  -4   35.56    2.71
  -2  -7   4   34.56    2.76
  -2  -7   4   34.39    2.84
   2  -7  -4   34.75    2.78
   1  -7  -4   29.20    2.44
  -1  -7   4   30.99    2.60
  -1  -7   4   28.11    2.51
  -1  -7   4   29.25    2.44
   1  -7  -4   28.30    2.57
   1   7  -4   37.06    2.84
  -1   7   4   34.95    2.74
   1   7  -4   35.03    2.68
   0  -7  -4   97.66    7.35
   0  -7  -4   92.17    7.52
   0  -7   4   89.95    7.34
   0  -7  -4   91.66    7.30
   0  -7   4   87.01    7.36
   0   7  -4  100.75    7.48
   0   7  -4  105.34    7.50
   0   7   4  106.43    7.56
   0   7   4  112.64    7.44
  -1  -7  -4   11.77    1.12
   1  -7   4   10.18    1.27
  -1  -7  -4   10.87    1.41
  -1  -7  -4   11.24    1.01
   1  -7   4    8.61    1.12
  -1   7  -4   11.83    1.48
   1   7   4   12.81    1.47
   1   7   4   12.66    1.46
  -1   7  -4   10.80    1.52
  -2  -7  -4   49.27    3.82
  -2  -7  -4   46.10    4.07
  -2  -7  -4   50.01    3.76
   2  -7   4   45.77    3.85
   2  -7   4   50.06    3.95
   2   7   4   49.21    3.76
  -2   7  -4   48.67    4.05
   2   7   4   55.56    4.07
  -2   7  -4   52.32    4.25
   3  -7   4   50.92    4.11
   3  -7   4   50.84    3.99
  -3  -7  -4   49.64    4.30
   3   7   4   51.44    4.22
  -3   7  -4   48.02    4.23
  -3   7  -4   55.84    4.36
   4   7   4    7.57    1.04
  -4   7  -4   10.05    1.69
  -4   7  -4    9.45    1.79
   4   7   4    9.96    1.74
  -5  -7  -4   63.68    5.21
   5  -7   4   61.33    4.62
   5  -7   4   63.18    4.83
   5   7   4   54.10    4.97
  -5   7  -4   53.29    5.19
  -5   7  -4   58.91    4.88
   6  -7   4    2.82    0.77
   6  -7   4    3.14    1.15
  -6  -7  -4    3.59    1.67
  -6   7  -4    4.76    1.67
   6   7   4    5.23    1.39
   7  -7   4   29.51    2.92
   7  -7   4   25.64    2.90
  -7   7  -4   23.08    3.14
   7   7   4   25.53    3.16
   8  -7   4   14.01    2.68
  -8  -7  -4   21.92    3.91
   8   7   4   13.31    3.02
  -8   7  -4   20.84    2.77
  -9  -8   4   50.96    5.73
   9  -8  -4   57.21    4.46
   9  -8  -4   62.13    4.81
  -9   8   4   50.62    5.40
   9   8  -4   56.05    5.04
   8  -8  -4   18.73    1.82
  -8  -8   4   16.54    3.19
   8  -8  -4   17.12    2.19
   8   8  -4   18.56    2.58
  -8   8   4   15.96    3.28
   7  -8  -4   65.21    5.09
  -7  -8   4   66.36    5.79
  -6  -8   4   62.45    4.82
   6  -8  -4   64.84    5.06
  -6  -8   4   64.84    5.39
   6  -8  -4   63.90    4.91
   6   8  -4   65.25    5.27
  -6   8   4   60.08    5.41
   5  -8  -4   15.58    1.47
  -5  -8   4   16.97    1.95
   5  -8  -4   14.53    1.70
  -5  -8   4   16.07    1.44
   5   8  -4   15.72    2.02
  -5   8   4   12.23    2.10
   4  -8  -4  136.93    9.85
  -4  -8   4  133.11   10.16
  -4  -8   4  137.36    9.84
   4  -8  -4  141.51    9.94
   4   8  -4  125.98   10.04
  -4   8   4  116.17   10.07
  -3  -8   4   18.02    1.93
   3  -8  -4   19.64    1.68
   3  -8  -4   20.97    1.82
  -3  -8   4   19.14    1.74
  -3   8   4   20.61    2.17
   3   8  -4   18.90    2.08
   3   8  -4   20.32    2.10
  -2  -8   4   80.08    5.58
   2  -8  -4   76.97    5.47
   2  -8  -4   78.65    5.40
  -2  -8   4   77.39    5.45
   2   8  -4   61.21    5.57
   2   8  -4   62.70    5.58
  -2   8   4   61.86    5.61
   1  -8  -4   80.57    5.69
   1  -8  -4   85.57    5.77
  -1  -8   4   79.30    5.68
  -1  -8   4   73.16    5.75
   1   8  -4   67.21    5.88
   1   8  -4   71.90    5.89
  -1   8   4   70.85    5.94
   0  -8   4    6.56    1.00
   0  -8  -4    7.62    1.02
   0  -8  -4    6.39    1.35
   0  -8  -4    7.94    0.83
   0  -8   4    8.47    1.00
   0   8  -4    7.07    1.44
   0   8  -4    6.60    1.37
   0   8   4    9.02    1.46
   0   8   4    7.11    1.38
  -1  -8  -4   71.78    5.85
   1  -8   4   67.60    5.60
  -1  -8  -4   75.52    5.58
   1  -8   4   72.02    5.64
  -1  -8  -4   74.28    5.52
  -1   8  -4   75.08    5.82
   1   8   4   74.46    5.88
  -1   8  -4   71.58    5.77
   1   8   4   79.50    5.80
   2  -8   4   10.86    1.17
   2  -8   4   11.76    1.39
  -2  -8  -4   12.23    1.73
  -2  -8  -4   10.35    1.15
   2   8   4    8.54    1.70
   2   8   4    8.09    1.70
  -2   8  -4    8.14    1.65
   2   8   4    7.34    0.94
  -2   8  -4    7.28    1.64
  -3  -8  -4   29.73    2.48
   3  -8   4   32.59    2.83
   3  -8   4   31.10    2.64
  -3  -8  -4   30.00    3.09
  -3   8  -4   36.81    3.04
   4  -8   4   44.19    3.81
   4  -8   4   44.03    3.59
  -4  -8  -4   42.70    4.14
   4   8   4   43.48    4.03
  -4   8  -4   49.05    4.27
   5  -8   4    4.51    0.90
  -5  -8  -4    4.71    1.80
   5   8   4    6.64    1.76
  -5   8  -4    8.36    1.87
   6  -8   4   43.46    4.21
   6  -8   4   44.64    3.82
  -6  -8  -4   46.14    4.85
  -6   8  -4   52.34    5.31
   6   8   4   50.78    4.52
   7  -8   4    9.57    1.45
  -7  -8  -4    8.38    2.56
   7  -8   4    8.89    1.72
   7   8   4    5.35    1.81
  -7   8  -4    7.84    1.96
  -9  -9   4    4.37    2.61
   9  -9  -4    5.23    1.04
   9  -9  -4    7.63    1.55
   9   9  -4    5.03    1.86
  -9   9   4    5.73    2.18
   8  -9  -4   37.05    2.97
   8  -9  -4   38.14    3.40
  -8  -9   4   37.64    4.39
  -8   9   4   27.04    4.15
   8   9  -4   28.51    3.76
   7  -9  -4   39.37    3.58
   7  -9  -4   37.75    3.23
  -7  -9   4   40.36    4.20
  -7   9   4   36.95    4.30
   7   9  -4   41.63    3.95
   6  -9  -4   10.36    1.67
   6  -9  -4    6.27    1.08
  -6  -9   4    9.73    1.10
  -6  -9   4    9.69    1.96
  -6   9   4    6.43    1.82
   6   9  -4    5.00    1.78
   5  -9  -4   70.50    5.41
  -5  -9   4   74.63    5.39
  -5  -9   4   69.10    5.93
   5  -9  -4   74.69    5.63
   5   9  -4   69.56    5.81
  -5   9   4   64.13    5.87
   4  -9  -4    4.44    0.95
  -4  -9   4    4.95    0.75
   4  -9  -4    3.92    0.70
  -4  -9   4    3.68    1.06
  -4   9   4    6.20    1.31
   4   9  -4    5.97    1.32
  -3  -9   4   67.24    4.74
   3  -9  -4   64.93    4.76
   3  -9  -4   66.47    4.67
  -3  -9   4   65.90    4.93
   3   9  -4   53.68    4.94
   3   9  -4   50.68    4.96
  -3   9   4   54.22    5.00
  -2  -9   4   30.43    2.70
   2  -9  -4   30.51    2.39
   2  -9  -4   31.51    2.53
  -2  -9   4   29.71    2.47
  -2   9   4   27.37    2.81
   2   9  -4   27.19    2.76
   2   9  -4   27.99    2.83
  -1  -9   4   19.41    1.63
  -1  -9   4   19.79    1.77
   1  -9  -4   21.24    1.65
   1  -9  -4   19.77    1.79
   1   9  -4   15.75    2.20
  -1   9   4   16.59    2.12
   1   9  -4   17.61    2.09
   0  -9  -4   78.13    5.52
   0  -9   4   73.81    5.52
   0  -9   4   70.57    5.54
   0  -9  -4   74.25    5.83
   0  -9  -4   75.51    5.45
   0   9  -4   68.13    5.74
   0   9   4   71.41    5.65
   0   9  -4   66.15    5.71
   0   9   4   69.75    5.82
  -1  -9  -4    0.27    0.39
  -1  -9  -4    1.39    0.70
   1  -9   4    0.29    0.56
   1  -9   4    1.07    0.73
  -1  -9  -4    1.02    0.99
   1   9   4    1.23    1.06
   1   9   4    1.79    1.01
  -1   9  -4    0.61    0.99
  -1   9  -4    0.86    1.04
   2  -9   4   43.79    3.88
  -2  -9  -4   43.03    4.17
  -2  -9  -4   46.15    3.62
   2  -9   4   41.67    3.75
  -2   9  -4   43.88    4.05
  -2   9  -4   55.49    4.23
   2   9   4   54.04    4.20
   2   9   4   50.98    4.24
  -3  -9  -4   29.08    3.02
  -3  -9  -4   28.37    2.20
   3  -9   4   27.35    2.41
   3  -9   4   30.93    2.71
   3   9   4   23.63    2.99
  -3   9  -4   23.14    3.09
   4  -9   4   15.52    1.75
   4  -9   4   16.64    2.24
  -4  -9  -4   13.05    2.66
   4   9   4   18.38    2.59
  -5  -9  -4   41.47    4.28
   5  -9   4   36.66    3.66
   5  -9   4   36.29    3.23
  -5   9  -4   46.79    6.12
   5   9   4   34.42    3.91
   6  -9   4    4.14    1.54
  -6  -9  -4    3.68    2.12
   6  -9   4    3.05    0.95
  -6   9  -4    4.40    2.03
   6   9   4    1.62    1.66
   8 -10  -4    8.92    1.58
  -8 -10   4    8.57    2.65
   8 -10  -4    8.98    1.70
  -8  10   4    8.24    2.34
   8  10  -4   10.78    2.27
  -7 -10   4   15.27    3.27
   7 -10  -4   15.54    1.82
   7 -10  -4   14.26    2.51
   7  10  -4   19.36    3.13
  -7  10   4   20.36    3.43
   6 -10  -4   33.36    2.85
   6 -10  -4   32.13    3.23
  -6 -10   4   33.94    3.74
   6  10  -4   34.34    3.73
  -6  10   4   32.73    3.93
  -5 -10   4    1.67    0.66
   5 -10  -4    1.38    0.63
   5 -10  -4    0.34    1.01
  -5  10   4    1.17    1.64
   5  10  -4    0.40    1.42
   4 -10  -4   52.83    4.02
  -4 -10   4   52.61    4.02
   4 -10  -4   54.14    4.22
  -4 -10   4   52.82    4.45
   4  10  -4   48.39    4.54
  -4  10   4   48.61    4.60
   4  10  -4   44.84    4.50
  -3 -10   4    9.53    1.37
   3 -10  -4   10.68    1.27
   3 -10  -4   10.45    1.63
  -3 -10   4   11.07    1.90
  -3  10   4   15.14    2.29
   3  10  -4   13.14    2.22
   3  10  -4   12.35    2.06
  -2 -10   4   32.38    2.79
   2 -10  -4   33.31    2.69
   2 -10  -4   34.29    2.87
  -2 -10   4   34.02    3.13
   2  10  -4   33.71    3.23
   2  10  -4   32.52    3.26
  -2  10   4   30.49    3.25
   1 -10  -4   48.32    4.05
  -1 -10   4   43.68    4.03
   1 -10  -4   50.08    3.95
  -1  10   4   58.42    4.51
   1  10  -4   51.81    4.42
   1  10  -4   53.96    4.41
   0 -10   4    3.07    0.74
   0 -10  -4    1.65    0.77
   0 -10  -4    2.41    0.58
   0  10   4    0.63    1.18
   0  10  -4    3.52    1.21
   0  10  -4    1.64    1.18
  -1 -10  -4   62.25    5.84
   1 -10   4   67.58    5.32
  -1 -10  -4   65.96    5.12
  -1  10  -4   62.20    5.52
  -1  10  -4   75.00    5.64
   1  10   4   72.86    5.59
   1  10   4   65.08    6.16
  -2 -10  -4   15.13    1.48
   2 -10   4   15.26    1.75
   2 -10   4   11.21    2.03
  -2 -10  -4   15.11    2.52
   2  10   4   20.95    2.68
  -2  10  -4   19.40    2.65
   2  10   4   19.15    2.56
  -2  10  -4   16.16    2.40
  -3 -10  -4   35.75    3.88
   3 -10   4   37.64    3.77
   3 -10   4   38.06    3.19
   3  10   4   35.88    3.94
   3  10   4   37.64    3.94
  -3  10  -4   37.89    3.96
  -4 -10  -4   37.60    4.36
   4 -10   4   41.74    3.86
   4 -10   4   40.57    3.48
   4  10   4   42.87    4.33
  -4  10  -4   43.35    4.41
   5 -10   4    3.63    1.57
  -5 -10  -4    3.77    2.15
   5 -10   4    3.82    1.00
  -5  10  -4    4.34    2.17
   5  10   4    1.63    1.94
   6 -11  -4    9.03    1.60
   6 -11  -4    4.87    1.03
  -6 -11   4    6.25    2.08
   6  11  -4    7.70    2.08
  -6  11   4    9.01    2.31
  -5 -11   4   36.51    4.02
  -5 -11   4   35.77    3.19
   5 -11  -4   34.07    3.19
   5 -11  -4   41.53    3.67
  -5  11   4   45.82    4.35
   5  11  -4   38.92    4.25
  -4 -11   4    4.76    0.91
  -4 -11   4    4.21    1.51
   4 -11  -4    4.43    1.22
   4 -11  -4    3.12    0.81
   4  11  -4    2.13    1.70
  -4  11   4    3.30    1.69
   4  11  -4    2.74    1.61
  -3 -11   4   35.79    3.54
   3 -11  -4   34.13    2.95
   3 -11  -4   31.01    3.20
   3  11  -4   36.69    3.82
  -3  11   4   40.60    3.82
   2 -11  -4   41.50    3.49
   2 -11  -4   43.36    3.27
  -2 -11   4   40.50    3.38
   2  11  -4   37.19    4.76
  -2  11   4   42.35    4.06
   2  11  -4   33.83    3.92
   1 -11  -4    6.36    1.08
  -1 -11   4    6.86    1.03
  -1  11   4    4.64    1.56
   1  11  -4    6.47    1.63
   1  11  -4    5.69    1.65
   0 -11   4   66.82    5.15
   0  11  -4   58.08    5.50
   0  11   4   68.82    5.66
   0  11  -4   65.70    5.65
  -1 -11  -4    1.51    0.61
   1 -11   4    0.89    0.82
  -1 -11  -4    3.36    1.54
   1  11   4    2.01    1.62
  -1  11  -4    3.13    1.52
   1  11   4    2.16    2.02
   2 -11   4   54.20    4.39
  -2 -11  -4   51.70    3.90
  -2 -11  -4   48.55    4.86
   2 -11   4   48.14    4.09
   2  11   4   44.63    4.83
  -2  11  -4   51.73    4.82
   2  11   4   48.97    4.91
  -3 -11  -4   26.89    3.70
   3 -11   4   27.60    3.23
   3 -11   4   24.93    2.57
  -3  11  -4   27.79    3.72
   3  11   4   28.24    3.67
   3  11   4   28.46    3.71
   4 -11   4   12.70    1.96
   4 -11   4   11.17    1.74
  -4 -11  -4    9.71    2.41
   4  11   4   10.54    2.43
   4  11   4    6.79    2.38
  -4  11  -4   14.98    3.31
  -5 -12   4    0.55    1.89
  -5  12   4    1.84    2.12
   5  12  -4    1.49    2.11
   4 -12  -4   47.09    3.90
  -4 -12   4   46.67    4.68
  -4 -12   4   52.45    3.98
   4 -12  -4   50.00    4.37
   4  12  -4   45.15    4.96
   4  12  -4   43.64    4.80
  -4  12   4   46.79    4.90
   3 -12  -4   15.45    1.65
  -3 -12   4   15.94    1.84
   3  12  -4   12.81    2.93
   3  12  -4    9.94    2.30
  -3  12   4   11.06    2.33
  -2 -12   4   32.81    2.82
   2 -12  -4   28.55    2.63
   2  12  -4   30.88    3.59
   2  12  -4   27.37    3.83
  -2  12   4   32.03    3.77
  -1 -12   4   60.57    4.89
   1 -12  -4   65.89    4.77
   1  12  -4   55.54    5.45
  -1  12   4   59.29    5.51
   0 -12   4    1.03    0.95
   0 -12  -4    1.90    0.75
   0  12   4    0.18    1.66
   0  12  -4    0.18    1.75
  -1 -12  -4   68.39    4.93
   1 -12   4   62.89    5.09
  -1  12  -4   61.97    5.77
   1  12   4   57.65    5.80
  -2 -12  -4   19.29    1.89
  -2 -12  -4   20.03    3.47
   2 -12   4   18.29    2.23
  -2  12  -4   22.53    3.56
  12   0  -5   57.42    5.43
 -12   0   5   78.24    5.72
 -11   0   5    3.23    1.01
  11   0  -5    2.30    0.85
  11   0  -5    2.55    0.91
  10   0  -5   77.70    6.24
  10   0  -5   83.75    6.23
   9   0  -5   81.20    6.37
   9   0  -5   85.34    6.35
  -8   0   5   38.48    2.93
   8   0  -5   29.31    2.70
   7   0  -5  204.54   17.16
  -7   0   5  267.28   17.10
   7   0  -5  206.32   17.14
  -7   0   5  249.50   17.31
   6   0  -5    9.95    0.97
  -6   0   5   12.72    1.39
   6   0  -5    8.66    0.98
  -6   0   5   11.12    0.87
   5   0  -5  145.15   11.29
  -5   0   5  159.55   11.24
   5   0  -5  149.74   11.28
  -5   0   5  154.30   11.38
  -4   0   5   96.22    7.07
   4   0  -5   95.56    7.10
   4   0  -5   96.98    7.12
  -4   0   5   92.03    7.16
   3   0  -5   33.19    2.34
   3   0  -5   32.68    2.40
  -3   0   5   24.93    2.24
  -3   0   5   27.44    2.32
  -2   0   5  106.80    7.93
   1   0  -5    6.81    0.90
  -1   0   5    3.83    0.50
   1   0  -5    5.15    0.57
  -1   0   5    5.18    0.51
   0   0  -5  150.60   10.78
   0   0   5  141.89   10.75
   0   0  -5  143.70   10.87
   0   0   5  144.62   10.74
  -1   0  -5    2.01    0.33
   2   0   5   59.43    4.34
  -2   0  -5   53.83    4.33
  -2   0  -5   56.26    4.58
   2   0   5   58.82    4.29
  -3   0  -5   29.92    2.51
   3   0   5   28.91    2.15
   3   0   5   25.98    2.24
  -3   0  -5   26.43    2.25
  -4   0  -5   14.90    1.73
   4   0   5   13.75    1.16
   4   0   5   12.72    1.60
  -4   0  -5   14.12    1.40
  -5   0  -5   88.26    6.82
  -5   0  -5   88.04    6.72
   5   0   5   83.65    6.60
   6   0   5    4.17    0.88
  -6   0  -5    6.19    1.28
  -6   0  -5    4.47    1.19
  -7   0  -5   30.08    2.67
   7   0   5   22.04    2.44
   7   0   5   25.49    2.82
  -7   0  -5   23.85    2.80
  -8   0  -5   39.99    3.51
  -8   0  -5   34.23    3.55
   8   0   5   33.31    3.23
   8   0   5   33.62    3.60
   9   0   5    3.06    1.52
  -9   0  -5    2.88    1.58
  -9   0  -5    2.05    1.29
   9   0   5    0.92    1.20
  12  -1  -5    4.46    1.17
 -12  -1   5    5.69    1.41
  12   1  -5    5.90    1.41
 -12   1   5    6.27    1.26
 -11  -1   5   74.90    5.42
  11  -1  -5   57.37    5.26
  11   1  -5   60.09    5.16
  11   1  -5   61.84    5.15
 -10  -1   5   11.88    1.66
  10  -1  -5   10.07    1.36
  10  -1  -5    9.04    1.32
  10   1  -5    7.28    1.24
 -10   1   5   10.87    1.55
  10   1  -5    7.88    1.45
   9  -1  -5   55.32    4.88
  -9  -1   5   72.66    5.20
   9  -1  -5   58.34    4.92
   9   1  -5   66.62    4.89
   9   1  -5   65.35    4.99
   8  -1  -5   95.79    7.20
   8  -1  -5   91.74    7.17
  -8  -1   5  111.67    7.43
  -8   1   5  101.90    7.39
   8   1  -5   85.87    7.38
  -8   1   5   97.46    7.07
   8   1  -5   83.01    7.15
   7  -1  -5   26.61    2.37
   7  -1  -5   26.84    2.40
  -7  -1   5   32.84    2.32
  -7  -1   5   30.18    2.61
   7   1  -5   33.59    2.40
   7   1  -5   29.67    2.45
  -6  -1   5  166.63   10.98
   6  -1  -5  149.60   11.06
   6  -1  -5  131.83   11.01
  -6  -1   5  171.09   11.31
   6   1  -5  140.27   11.03
  -6   1   5  138.71   10.94
  -6   1   5  144.29   11.27
   6   1  -5  143.55   10.99
   5  -1  -5   13.83    1.13
  -5  -1   5   11.18    1.19
  -5  -1   5   11.86    1.02
   5   1  -5   12.42    1.06
   5   1  -5   12.44    1.12
  -5   1   5   11.62    1.33
  -5   1   5   11.91    0.98
   4  -1  -5  163.67   10.98
   4  -1  -5  137.48   10.98
   4   1  -5  157.22   11.00
   4   1  -5  140.64   11.00
  -4   1   5  139.98   10.92
   3  -1  -5   92.06    7.54
  -3  -1   5   88.86    7.51
   3  -1  -5  108.30    7.53
   3  -1  -5  105.73    7.55
  -3   1   5  109.50    7.49
   2  -1  -5   89.35    5.83
  -2  -1   5   86.29    5.79
   2  -1  -5   82.17    5.88
   2  -1  -5   88.90    5.78
  -2   1   5   65.54    5.78
   2   1  -5   79.19    5.93
  -2   1   5   65.14    5.77
   2   1  -5   74.07    5.81
  -2   1   5   69.39    5.75
   1  -1  -5  126.59   10.93
  -1  -1   5  129.84   10.88
   1  -1  -5  144.58   10.87
  -1   1   5  159.72   10.81
   1   1  -5  150.67   10.96
  -1   1   5  150.55   10.82
   1   1  -5  164.69   10.96
   0  -1   5   20.41    1.70
   0  -1  -5   21.05    1.63
   0  -1  -5   22.97    1.72
   0  -1  -5   20.78    1.87
   0  -1   5   19.89    1.68
   0   1   5   22.34    1.69
   1  -1   5  177.29   13.41
   1  -1   5  183.24   13.29
  -1  -1  -5  164.12   13.40
  -1  -1  -5  179.01   13.28
   1   1   5  188.46   13.28
  -1   1  -5  185.87   13.44
   2  -1   5   72.67    5.64
  -2  -1  -5   66.91    5.68
  -2   1  -5   72.47    5.67
   2   1   5   90.33    5.69
   3  -1   5   27.66    2.27
  -3  -1  -5   27.02    2.49
  -3  -1  -5   29.57    2.30
   3  -1   5   29.26    2.15
  -3   1  -5   26.68    2.48
   3   1   5   30.69    2.17
  -3   1  -5   24.34    2.21
   3   1   5   25.03    2.23
   4  -1   5   74.89    5.95
  -4  -1  -5   76.91    6.13
   4  -1   5   82.74    5.84
   4   1   5   79.69    5.93
  -4   1  -5   79.45    6.20
  -4   1  -5   74.85    5.97
   5  -1   5    4.66    0.83
   5  -1   5    4.64    0.62
  -5  -1  -5    5.16    1.08
  -5  -1  -5    4.31    0.94
   5   1   5    5.52    1.03
  -5   1  -5    5.70    1.02
  -6  -1  -5   51.65    3.89
  -6  -1  -5   44.55    3.91
   6  -1   5   40.05    3.62
  -6   1  -5   43.62    3.90
  -6   1  -5   43.15    3.66
   6   1   5   41.90    3.59
  -7  -1  -5   29.74    3.26
   7  -1   5   26.62    2.94
  -7  -1  -5   34.34    3.20
   7   1   5   31.72    2.90
  -7   1  -5   33.72    3.13
  -7   1  -5   35.75    3.29
   7   1   5   38.00    3.34
  -8  -1  -5    8.99    2.20
   8  -1   5    7.98    1.38
   8  -1   5   12.67    2.17
  -8  -1  -5    9.43    1.69
   8   1   5    7.08    1.65
  -8   1  -5    8.05    1.72
  -8   1  -5    6.06    1.58
   9  -1   5   37.54    3.79
  -9  -1  -5   47.54    4.13
  -9  -1  -5   35.95    4.08
   9  -1   5   38.28    4.03
  -9   1  -5   44.27    3.87
  -9   1  -5   36.89    4.00
   9   1   5   39.24    3.68
   9   1   5   39.67    4.10
  12  -2  -5   46.22    4.38
 -12  -2   5   57.60    4.77
  12   2  -5   43.87    4.54
 -12   2   5   59.16    4.50
  11  -2  -5    1.29    0.83
 -11  -2   5    1.48    1.13
 -11   2   5    2.18    1.73
  11   2  -5    2.25    1.09
 -10  -2   5   77.24    5.79
  10  -2  -5   68.44    5.44
  10   2  -5   67.01    5.34
  10   2  -5   64.61    5.51
   9  -2  -5   25.76    2.18
   9  -2  -5   27.48    2.21
  -9  -2   5   29.74    2.59
  -9   2   5   23.92    1.91
  -9   2   5   26.25    2.53
   9   2  -5   19.45    2.24
   9   2  -5   20.33    2.06
  -8  -2   5   46.99    3.99
   8  -2  -5   40.66    3.65
   8  -2  -5   45.69    3.69
  -8   2   5   51.37    3.55
   8   2  -5   45.78    3.88
   8   2  -5   49.51    3.78
  -7  -2   5   84.14    7.48
   7  -2  -5   93.77    7.28
   7  -2  -5  102.12    7.30
   7   2  -5  104.08    7.25
  -7   2   5   92.42    7.19
   7   2  -5   97.22    7.33
  -7   2   5  103.53    7.58
   6  -2  -5    5.10    0.66
   6  -2  -5    4.54    0.67
  -6  -2   5    3.26    0.58
   6   2  -5    4.07    0.79
  -6   2   5    4.31    0.47
   6   2  -5    4.51    0.61
  -6   2   5    4.00    1.00
   5  -2  -5  217.24   14.55
  -5  -2   5  183.09   14.68
  -5  -2   5  164.30   14.54
  -5   2   5  169.75   14.69
   5   2  -5  225.41   14.61
  -5   2   5  188.31   14.49
   5   2  -5  227.62   14.55
   4  -2  -5   43.30    3.13
   4   2  -5   40.10    3.11
   4   2  -5   38.99    3.17
   3  -2  -5  217.78   15.02
   3  -2  -5  209.99   15.01
  -3  -2   5  181.85   15.03
  -3  -2   5  228.85   15.01
   3   2  -5  189.51   14.99
  -3   2   5  189.94   15.04
   3   2  -5  202.87   15.04
  -2  -2   5  164.09   11.23
   2  -2  -5  137.62   11.30
   2  -2  -5  166.19   11.28
   2   2  -5  134.25   11.24
  -2   2   5  150.36   11.25
   2   2  -5  159.28   11.31
   1  -2  -5   13.10    1.01
  -1  -2   5   11.79    1.04
  -1  -2   5   12.19    1.04
   1  -2  -5   13.09    1.06
   1  -2  -5    9.84    1.14
   1   2  -5   11.84    1.14
  -1   2   5    9.60    0.93
  -1   2   5   11.16    0.95
  -1   2   5   11.04    0.99
   0  -2  -5  233.24   15.96
   0  -2  -5  227.97   15.93
   0  -2   5  217.63   15.94
   0  -2  -5  184.80   16.01
   0  -2   5  217.95   15.96
   0   2  -5  232.69   16.04
   0   2   5  196.25   16.00
  -1  -2  -5   61.18    4.09
  -1  -2  -5   56.67    4.06
  -1  -2  -5   50.95    4.18
   1  -2   5   55.02    4.07
   1  -2   5   54.41    4.06
  -1   2  -5   47.11    4.07
   1   2   5   45.84    3.99
   1   2   5   55.91    4.03
  -1   2  -5   54.28    4.20
  -2  -2  -5   81.06    6.41
   2  -2   5   83.75    6.28
  -2  -2  -5   84.39    6.29
   2  -2   5   85.01    6.24
   2   2   5   82.47    6.24
  -3  -2  -5  144.57   11.32
   3  -2   5  148.17   10.95
   3  -2   5  143.29   11.02
  -3  -2  -5  144.40   11.07
   3   2   5  162.36   10.92
  -3   2  -5  124.48   11.01
  -3   2  -5  155.07   11.18
   3   2   5  159.58   10.99
  -4  -2  -5    3.03    0.85
   4  -2   5    3.51    0.56
   4  -2   5    2.41    0.64
  -4   2  -5    1.26    0.82
  -4   2  -5    1.68    0.58
   4   2   5    2.10    0.55
   5  -2   5  104.99    8.38
  -5  -2  -5  114.97    8.55
   5  -2   5  106.50    8.36
  -5  -2  -5  108.36    8.54
  -5   2  -5  124.16    8.58
   5   2   5  115.08    8.32
  -5   2  -5  100.81    8.38
   6  -2   5   15.14    1.78
  -6  -2  -5   15.09    2.10
   6  -2   5   14.04    1.51
  -6  -2  -5   15.92    2.00
   6   2   5   14.97    1.68
  -6   2  -5   17.63    2.12
  -6   2  -5   13.48    1.63
   6   2   5   15.27    2.09
   7  -2   5   27.37    2.60
  -7  -2  -5   29.59    3.61
  -7   2  -5   25.91    2.88
   7   2   5   26.23    3.31
  -7   2  -5   23.26    2.52
   7   2   5   24.86    2.42
  -8  -2  -5   49.08    4.35
  -8  -2  -5   41.98    4.13
   8  -2   5   44.18    4.04
   8  -2   5   39.80    3.86
  -8   2  -5   42.70    4.05
  -8   2  -5   42.30    3.83
   8   2   5   44.16    4.24
   8   2   5   41.83    3.69
  -9  -2  -5    0.94    1.45
   9  -2   5    1.37    1.36
   9  -2   5    2.54    1.28
   9   2   5    1.54    1.56
  -9   2  -5    2.00    1.09
  -9   2  -5    3.14    1.52
   9   2   5    0.26    1.20
 -12  -3   5   15.22    2.57
  12  -3  -5   12.32    2.15
 -12   3   5   13.46    2.05
  11  -3  -5   56.47    4.90
 -11  -3   5   63.90    5.30
  11   3  -5   58.53    5.03
 -10  -3   5    1.20    1.34
  10  -3  -5    2.29    0.96
  10  -3  -5    2.00    0.84
  10   3  -5    2.59    0.94
  -9  -3   5   68.61    6.05
   9  -3  -5   71.40    5.63
   9  -3  -5   75.14    5.72
   9   3  -5   70.41    5.79
  -9   3   5   82.74    6.05
  -9   3   5   72.45    5.51
   8  -3  -5   43.07    3.69
   8  -3  -5   46.56    3.79
   8   3  -5   49.82    3.88
   8   3  -5   47.05    3.67
  -8   3   5   52.38    4.21
   7  -3  -5   46.63    3.54
   7  -3  -5   46.00    3.60
  -7  -3   5   46.86    3.50
   7   3  -5   46.60    3.67
   7   3  -5   48.83    3.54
  -7   3   5   38.55    3.96
   6  -3  -5  147.85    9.90
  -6  -3   5  140.05    9.85
  -6  -3   5  122.37   10.10
   6  -3  -5  135.42    9.84
   6   3  -5  127.34    9.93
   6   3  -5  120.94    9.83
   5  -3  -5    1.45    0.38
  -5  -3   5    2.04    0.59
  -5  -3   5    1.36    0.35
   5  -3  -5    2.11    0.46
  -4  -3   5  146.00   10.46
  -4  -3   5  156.01   10.50
   4  -3  -5  143.78   10.39
   4  -3  -5  130.80   10.49
  -4   3   5  136.45   10.52
   4   3  -5  142.49   10.47
   4   3  -5  126.17   10.39
  -3  -3   5   74.98    5.57
   3  -3  -5   75.02    5.61
  -3  -3   5   77.78    5.60
   3  -3  -5   76.88    5.59
  -3  -3   5   71.41    5.64
  -3   3   5   78.41    5.67
   3   3  -5   78.12    5.67
   3   3  -5   64.84    5.58
   2  -3  -5   40.74    2.95
  -2  -3   5   35.68    2.97
  -2  -3   5   37.41    2.91
  -2  -3   5   40.79    2.89
   2  -3  -5   39.98    2.92
  -2   3   5   35.42    2.94
   2   3  -5   37.04    3.01
   1  -3  -5  255.38   16.97
   1  -3  -5  247.05   16.96
   1  -3  -5  256.60   16.96
  -1  -3   5  220.60   16.95
   1  -3  -5  193.32   16.97
  -1  -3   5  227.42   17.02
   1   3  -5  204.12   16.90
   1   3  -5  253.22   17.04
  -1   3   5  203.57   16.91
   1   3  -5  229.83   16.90
  -1   3   5  234.22   16.96
   0  -3  -5   30.27    2.25
   0  -3   5   25.79    2.25
   0  -3  -5   24.74    2.31
   0  -3  -5   30.34    2.25
   0  -3   5   26.39    2.24
   0  -3  -5   29.47    2.25
   0   3   5   29.32    2.20
   0   3  -5   30.96    2.23
  -1  -3  -5  133.31    9.38
  -1  -3  -5  131.29    9.38
   1  -3   5  120.29    9.37
   1  -3   5  124.13    9.38
  -1  -3  -5  131.60    9.41
  -1   3  -5  123.13    9.52
  -1   3  -5  123.52    9.48
   1   3   5  120.22    9.33
   2  -3   5  100.23    7.30
  -2  -3  -5  100.17    7.33
  -2  -3  -5   96.95    7.41
   2  -3   5   97.45    7.30
   2   3   5   85.79    7.18
  -2   3  -5   88.05    7.40
   2   3   5  107.31    7.24
  -2   3  -5  100.25    7.46
   3  -3   5   17.53    1.47
  -3  -3  -5   17.65    1.77
   3  -3   5   17.77    1.59
   3   3   5   14.21    1.64
  -3   3  -5   12.83    1.59
  -3   3  -5   17.16    1.88
  -4  -3  -5  185.23   13.77
   4  -3   5  190.02   13.57
  -4  -3  -5  179.60   13.78
   4  -3   5  179.78   13.67
   4   3   5  180.92   13.59
  -4   3  -5  183.04   13.78
  -5  -3  -5    8.82    1.54
   5  -3   5    8.66    0.95
   5  -3   5    8.17    1.35
  -5  -3  -5    8.95    1.60
  -5   3  -5    7.79    1.62
   5   3   5    9.39    1.60
  -5   3  -5    7.83    1.24
   5   3   5    8.83    1.14
   6  -3   5   95.46    7.22
   6  -3   5   89.33    7.43
  -6  -3  -5   95.35    7.62
  -6  -3  -5  105.09    7.70
   6   3   5   92.17    7.67
   6   3   5   95.19    7.33
  -6   3  -5  103.16    7.59
  -7  -3  -5   42.05    3.83
   7  -3   5   39.04    3.59
  -7  -3  -5   47.41    3.94
   7   3   5   38.66    3.37
   7   3   5   42.37    3.94
  -7   3  -5   41.65    3.77
  -7   3  -5   33.96    3.41
  -8  -3  -5   14.30    2.60
  -8  -3  -5   16.48    2.77
   8  -3   5   11.98    1.88
   8   3   5   16.24    2.10
  -8   3  -5   19.15    3.19
   8   3   5   15.89    2.72
  -9  -3  -5   50.68    4.53
   9  -3   5   41.58    4.03
   9  -3   5   42.01    4.14
   9   3   5   37.96    4.44
  -9   3  -5   39.00    3.79
  11  -4  -5   -0.01    0.99
 -11  -4   5   -0.24    1.33
  11   4  -5    3.07    1.22
 -11   4   5    4.09    1.27
  10  -4  -5   54.05    4.42
  10  -4  -5   52.96    4.28
 -10  -4   5   50.28    4.86
  10   4  -5   57.28    5.51
   9  -4  -5   23.45    2.23
   9  -4  -5   22.61    2.05
   8  -4  -5   41.35    3.13
   8  -4  -5   42.01    3.29
   8   4  -5   39.79    3.37
  -8   4   5   34.33    3.74
  -7  -4   5   81.67    5.60
   7  -4  -5   72.72    5.63
   7  -4  -5   75.77    5.73
  -7  -4   5   63.30    6.01
   7   4  -5   81.82    5.82
  -7   4   5   71.29    6.08
  -6  -4   5    5.09    0.66
   6  -4  -5    4.43    0.65
  -6  -4   5    5.45    1.24
   6  -4  -5    4.93    0.82
  -6   4   5    5.26    1.16
   6   4  -5    3.40    0.77
  -5  -4   5   95.25    7.01
   5  -4  -5   85.31    6.78
  -5  -4   5   93.04    6.78
   5  -4  -5   87.74    6.74
   5   4  -5   91.92    6.86
  -5   4   5   88.07    6.98
   4  -4  -5   51.69    3.99
   4  -4  -5   49.34    3.94
  -4  -4   5   51.33    4.03
  -4  -4   5   53.72    4.00
  -4   4   5   54.09    4.14
   4   4  -5   52.34    4.06
  -3  -4   5   50.06    3.61
  -3  -4   5   50.53    3.68
   3  -4  -5   45.05    3.68
  -3   4   5   49.34    3.72
   3   4  -5   42.47    3.83
  -2  -4   5  125.77    9.47
   2  -4  -5  134.21    9.42
  -2  -4   5  133.54    9.42
   2  -4  -5  135.64    9.46
  -2  -4   5  128.79    9.42
   2   4  -5  117.18    9.50
  -2   4   5  113.55    9.46
  -1  -4   5    3.80    0.59
   1  -4  -5    3.14    0.55
   1  -4  -5    3.38    0.66
  -1  -4   5    2.92    0.56
   1  -4  -5    3.01    0.45
   1  -4  -5    2.80    0.54
  -1   4   5    2.78    0.53
   1   4  -5    3.10    0.60
   1   4  -5    2.89    0.64
   0  -4  -5  148.09   11.69
   0  -4  -5  167.75   11.64
   0  -4  -5  160.24   11.68
   0  -4   5  156.87   11.64
   0  -4  -5  168.50   11.61
   0   4   5  153.80   11.67
   0   4  -5  143.14   11.61
   0   4  -5  155.70   11.72
  -1  -4  -5   43.06    3.21
  -1  -4  -5   44.29    3.12
   1  -4   5   39.81    3.14
  -1  -4  -5   40.83    3.26
  -1  -4  -5   45.56    3.15
   1   4   5   37.76    3.09
   1   4   5   35.83    3.07
  -1   4  -5   36.82    3.18
   2  -4   5   75.06    5.44
  -2  -4  -5   63.56    5.52
   2  -4   5   70.68    5.37
  -2  -4  -5   72.87    5.35
  -2  -4  -5   66.43    5.50
   2   4   5   74.27    5.32
  -2   4  -5   76.53    5.53
  -2   4  -5   77.15    5.58
   2   4   5   62.03    5.28
   3  -4   5   99.43    7.03
  -3  -4  -5   94.92    7.21
  -3  -4  -5   97.97    7.19
   3  -4   5  100.08    7.12
   3   4   5   83.09    6.91
   3   4   5   93.13    7.20
  -3   4  -5   80.75    7.18
   3   4   5   97.01    7.01
  -3   4  -5   95.02    7.25
   4  -4   5    0.39    0.43
  -4  -4  -5    0.55    0.81
  -4  -4  -5    0.72    0.68
   4  -4   5    0.67    0.68
   4   4   5    0.98    0.76
  -4   4  -5    1.94    0.91
   4   4   5    1.55    0.50
  -4   4  -5    1.72    0.86
   5  -4   5   80.43    5.93
   5  -4   5   73.85    6.10
  -5  -4  -5   82.37    6.31
  -5  -4  -5   78.19    6.26
   5   4   5   82.78    5.97
  -5   4  -5   66.34    6.14
  -5   4  -5   83.20    6.24
   5   4   5   80.76    6.29
  -6  -4  -5   15.81    2.19
  -6  -4  -5   15.03    2.22
   6  -4   5   15.22    1.42
   6  -4   5   13.21    2.04
   6   4   5   13.33    2.23
  -6   4  -5   13.88    2.07
   6   4   5   15.41    1.62
  -7  -4  -5   41.57    4.04
   7  -4   5   42.61    3.87
  -7  -4  -5   48.84    4.19
  -7   4  -5   52.14    4.67
   7   4   5   42.88    3.58
   7   4   5   43.95    4.15
  -7   4  -5   36.13    3.67
   8  -4   5   28.98    3.51
  -8  -4  -5   41.04    3.98
  -8   4  -5   30.41    4.06
   8   4   5   38.04    3.95
  -8   4  -5   41.88    4.48
  11  -5  -5   52.14    4.32
 -11  -5   5   44.30    4.81
  11   5  -5   44.83    4.46
 -11   5   5   53.27    4.57
 -10  -5   5    2.86    1.49
  10  -5  -5    4.12    0.95
  10  -5  -5    4.27    1.10
  10   5  -5    6.52    1.34
   9  -5  -5   33.25    2.65
   9  -5  -5   36.91    2.94
   9   5  -5   28.13    3.01
  -9   5   5   27.60    3.45
   8  -5  -5   35.14    2.95
  -8  -5   5   29.55    3.39
   8  -5  -5   33.70    2.78
  -8   5   5   40.18    3.67
  -7  -5   5    2.18    1.01
   7  -5  -5    3.18    0.70
   7  -5  -5    2.66    0.51
  -7  -5   5    2.69    0.47
   7   5  -5    0.97    0.77
  -6  -5   5   98.09    7.14
   6  -5  -5   89.67    7.22
   6  -5  -5   86.94    7.15
  -6  -5   5   88.54    7.44
   6   5  -5  108.47    7.36
  -6   5   5  101.62    7.53
   5  -5  -5   14.99    1.42
   5  -5  -5   14.83    1.34
  -5  -5   5   14.46    1.58
  -5  -5   5   16.47    1.38
   5   5  -5   16.22    1.62
  -5   5   5   16.13    1.83
   4  -5  -5   89.42    7.07
  -4  -5   5   91.76    7.12
   4  -5  -5   85.74    7.01
   4   5  -5  101.41    7.17
  -4   5   5  101.94    7.22
  -3  -5   5   52.17    3.97
  -3  -5   5   52.63    4.06
   3  -5  -5   53.59    3.99
   3  -5  -5   52.08    4.04
  -3  -5   5   54.55    4.05
   3   5  -5   49.87    4.13
  -3   5   5   53.80    4.15
  -2  -5   5   18.93    1.50
  -2  -5   5   17.21    1.57
   2  -5  -5   17.55    1.46
  -2  -5   5   17.91    1.50
  -1  -5   5   79.44    6.36
   1  -5  -5   82.02    6.43
   1  -5  -5   93.77    6.46
   1  -5  -5   81.65    6.32
   1  -5  -5   86.55    6.38
  -1  -5   5   74.58    6.38
  -1   5   5   90.39    6.45
  -1   5   5   88.08    6.40
   1   5  -5   89.40    6.48
   1   5  -5   81.94    6.40
   0  -5  -5   15.86    1.23
   0  -5  -5   14.77    1.44
   0  -5  -5   15.44    1.41
   0  -5   5   14.54    1.30
   0  -5   5   15.59    1.32
   0   5  -5   11.40    1.51
   0   5   5   12.33    1.52
   0   5   5   11.48    1.32
   1  -5   5   38.81    3.45
   1  -5   5   43.55    3.52
  -1  -5  -5   41.25    3.59
  -1  -5  -5   42.67    3.56
  -1  -5  -5   45.43    3.40
  -1  -5  -5   44.76    3.46
  -1   5  -5   49.97    3.54
   1   5   5   45.55    3.57
   1   5   5   48.46    3.40
   2  -5   5   43.47    3.19
  -2  -5  -5   45.36    3.13
  -2  -5  -5   45.56    3.36
  -2  -5  -5   45.18    3.40
   2  -5   5   46.71    3.29
   2   5   5   35.50    3.10
   2   5   5   35.12    3.07
   2   5   5   36.14    3.32
  -2   5  -5   36.18    3.39
  -2   5  -5   36.36    3.32
   3  -5   5   17.04    1.59
  -3  -5  -5   16.69    1.91
   3  -5   5   19.50    1.79
  -3  -5  -5   16.24    1.85
   3   5   5   17.73    1.91
  -3   5  -5   19.59    2.15
   3   5   5   17.27    1.41
   3   5   5   18.28    1.57
  -3   5  -5   17.98    2.22
   4  -5   5   79.28    5.90
  -4  -5  -5   78.96    6.19
   4  -5   5   78.23    6.05
  -4  -5  -5   72.75    6.14
  -4   5  -5   81.30    6.18
   4   5   5   76.59    5.87
   4   5   5   77.10    6.17
  -5  -5  -5    1.16    0.97
  -5  -5  -5    0.73    0.98
   5  -5   5    1.16    0.88
   5  -5   5    1.01    0.52
   5   5   5    1.40    1.01
   5   5   5    1.21    0.58
  -5   5  -5    2.07    1.08
  -5   5  -5    1.70    1.04
   6  -5   5   56.86    4.21
  -6  -5  -5   60.47    4.82
  -6   5  -5   45.12    4.48
   6   5   5   52.88    4.24
  -6   5  -5   55.07    4.59
   7  -5   5   11.56    2.23
  -7  -5  -5   17.21    2.66
   7  -5   5   13.80    1.50
  -7   5  -5   12.96    1.85
  -7   5  -5   15.50    2.91
   7   5   5   10.98    2.04
  -8  -5  -5   15.57    3.03
   8  -5   5   13.36    2.35
   8   5   5   11.08    2.13
  -8   5  -5   12.48    1.96
 -11  -6   5   -1.10    1.74
  11  -6  -5    2.24    1.23
 -11   6   5    0.69    1.52
  11   6  -5    0.65    1.50
  10  -6  -5   44.82    3.52
  10  -6  -5   43.83    3.23
 -10  -6   5   29.28    4.16
  10   6  -5   34.31    3.71
 -10   6   5   33.66    3.97
   9  -6  -5   18.16    1.79
   9  -6  -5   21.72    2.15
  -9   6   5   15.00    2.98
   9   6  -5   16.23    2.37
  -8  -6   5   32.61    3.58
   8  -6  -5   36.26    3.00
   8  -6  -5   35.92    2.81
   8   6  -5   35.40    3.47
  -8   6   5   29.29    3.67
   7  -6  -5   99.36    6.97
   7  -6  -5   99.25    7.09
  -7  -6   5   96.53    7.45
   7   6  -5   86.34    7.19
  -7   6   5   78.84    7.38
   6  -6  -5    9.14    1.30
   6  -6  -5   10.04    1.11
  -6  -6   5   10.81    1.61
  -6  -6   5   11.81    1.13
   6   6  -5   12.65    1.61
  -6   6   5   11.04    1.84
  -5  -6   5  123.84   10.00
   5  -6  -5  124.51    9.85
  -5  -6   5  137.68    9.83
   5  -6  -5  127.21    9.79
   5   6  -5  139.10    9.97
  -5   6   5  136.34   10.05
   4  -6  -5   38.98    2.97
  -4  -6   5   37.91    3.02
   4  -6  -5   38.27    2.88
  -4  -6   5   39.23    2.94
  -4   6   5   35.13    3.13
   4   6  -5   31.67    3.07
   3  -6  -5   89.55    7.62
  -3  -6   5   92.67    7.63
   3  -6  -5   93.60    7.57
   3   6  -5  115.60    7.76
  -3   6   5  117.04    7.79
  -2  -6   5  140.19   10.70
   2  -6  -5  135.53   10.63
   2  -6  -5  143.19   10.69
  -2  -6   5  135.81   10.70
  -2  -6   5  140.78   10.69
   2   6  -5  149.45   10.73
  -2   6   5  148.76   10.79
   2   6  -5  153.92   10.80
  -1  -6   5    6.03    0.90
   1  -6  -5    6.32    0.90
   1  -6  -5    6.48    0.74
  -1  -6   5    6.78    0.87
  -1   6   5    7.78    1.06
   1   6  -5    8.09    1.17
   0  -6  -5  134.32   10.52
   0  -6  -5  131.56   10.68
   0  -6   5  124.43   10.59
   0  -6  -5  143.80   10.66
   0  -6   5  130.93   10.64
   0   6  -5  147.67   10.64
   0   6   5  157.41   10.73
   0   6   5  154.65   10.65
   0   6  -5  153.44   10.72
   1  -6   5   30.10    2.65
  -1  -6  -5   33.48    2.55
   1  -6   5   30.98    2.73
  -1  -6  -5   33.46    2.72
  -1  -6  -5   34.32    2.85
  -1  -6  -5   33.81    2.81
   1   6   5   33.97    2.79
   1   6   5   32.16    2.63
  -1   6  -5   32.26    2.74
  -1   6  -5   33.58    2.90
  -2  -6  -5   44.30    3.76
  -2  -6  -5   41.69    3.77
   2  -6   5   43.17    3.57
   2  -6   5   42.71    3.65
  -2   6  -5   45.88    3.82
  -2   6  -5   50.33    3.95
   2   6   5   51.96    3.57
   2   6   5   44.82    3.75
   3  -6   5   57.35    4.76
  -3  -6  -5   61.14    5.02
   3  -6   5   63.96    4.91
  -3  -6  -5   60.02    4.98
  -3  -6  -5   63.71    4.70
   3   6   5   60.96    4.65
   3   6   5   63.24    5.00
  -3   6  -5   63.38    5.16
  -3   6  -5   63.50    5.10
   3   6   5   61.58    4.71
  -4  -6  -5    4.34    1.12
   4  -6   5    3.86    0.67
   4  -6   5    3.52    0.93
  -4   6  -5    2.76    1.10
  -4   6  -5    3.22    1.30
   4   6   5    2.54    0.97
   4   6   5    1.97    0.57
  -5  -6  -5   47.65    4.33
   5  -6   5   49.83    4.13
   5  -6   5   49.88    3.82
  -5   6  -5   43.51    4.28
   5   6   5   47.57    4.26
   5   6   5   47.30    3.78
  -5   6  -5   51.23    4.17
   6  -6   5    9.47    1.58
  -6  -6  -5    9.01    1.96
   6  -6   5    9.61    1.32
   6   6   5   11.78    2.29
  -6   6  -5   10.53    2.03
  -6   6  -5   10.36    2.04
  -7  -6  -5   24.06    3.20
   7  -6   5   22.11    1.98
   7  -6   5   18.20    2.56
  -7   6  -5   18.71    3.04
   7   6   5   13.50    2.89
  -8   6  -5   20.30    2.47
  10  -7  -5    6.77    1.41
 -10  -7   5    4.68    2.17
  10  -7  -5    6.50    1.11
 -10   7   5    5.59    1.98
  10   7  -5    5.00    1.63
   9  -7  -5   58.08    4.42
  -9  -7   5   44.88    5.09
  -9   7   5   47.13    5.03
   9   7  -5   54.18    4.66
  -8  -7   5   54.87    5.11
   8  -7  -5   56.28    4.33
   8  -7  -5   55.56    4.54
  -8   7   5   48.72    5.26
   8   7  -5   58.28    4.80
   7  -7  -5   20.99    1.85
  -7  -7   5   20.77    2.63
  -7  -7   5   21.37    1.76
   7  -7  -5   21.51    2.12
   7   7  -5   18.69    2.37
  -7   7   5   17.76    2.75
  -6  -7   5  131.38   10.32
   6  -7  -5  130.80   10.10
  -6  -7   5  135.53    9.98
   6  -7  -5  132.32   10.00
   6   7  -5  139.18   10.24
  -6   7   5  133.53   10.36
  -5  -7   5    7.75    1.01
   5  -7  -5    7.31    0.95
  -5  -7   5    7.37    1.31
   5  -7  -5    7.71    1.16
   5   7  -5    8.31    1.55
  -5   7   5    8.10    1.63
  -4  -7   5  117.38    9.25
   4  -7  -5  117.58    9.11
   4  -7  -5  120.76    9.19
  -4  -7   5  122.11    9.15
   4   7  -5  130.30    9.31
  -4   7   5  124.46    9.35
   3  -7  -5  104.83    7.72
   3  -7  -5  105.94    7.79
  -3  -7   5  104.11    7.78
  -3  -7   5  105.14    7.84
   3   7  -5   98.70    7.89
   3   7  -5   99.34    7.88
  -3   7   5  104.39    7.93
   2  -7  -5   27.53    2.20
  -2  -7   5   28.42    2.31
  -2  -7   5   24.90    2.34
  -2  -7   5   28.74    2.34
   2  -7  -5   27.73    2.31
   2   7  -5   28.19    2.51
  -2   7   5   27.52    2.48
   2   7  -5   27.11    2.40
   1  -7  -5  165.82   12.21
  -1  -7   5  159.69   12.28
   1  -7  -5  174.31   12.27
  -1  -7   5  164.06   12.23
  -1   7   5  166.50   12.41
   1   7  -5  159.05   12.32
   1   7  -5  163.72   12.38
   0  -7  -5    0.43    0.33
   0  -7  -5    0.89    0.68
   0  -7   5    0.00    0.47
   0  -7   5    1.70    0.61
   0  -7  -5    0.25    0.50
   0   7  -5    0.76    0.80
   0   7   5    1.55    0.74
   0   7   5    0.77    0.71
   0   7  -5    0.95    0.70
   1  -7   5  103.19    8.41
  -1  -7  -5  114.72    8.32
  -1  -7  -5  111.19    8.58
  -1  -7  -5  120.50    8.40
   1  -7   5  100.74    8.51
  -1   7  -5  109.40    8.56
   1   7   5  113.33    8.35
  -1   7  -5  114.31    8.53
   1   7   5  111.53    8.54
   1   7   5  118.07    8.61
   2  -7   5   34.82    3.10
  -2  -7  -5   35.91    3.24
  -2  -7  -5   36.19    2.86
   2  -7   5   35.03    2.98
  -2  -7  -5   35.49    3.00
  -2   7  -5   39.97    3.33
  -2   7  -5   36.91    3.27
   2   7   5   37.99    3.26
   2   7   5   38.23    2.88
  -3  -7  -5   14.67    1.33
   3  -7   5   14.80    1.46
   3  -7   5   12.63    1.84
  -3  -7  -5   15.16    1.95
   3   7   5   14.04    1.28
   3   7   5   12.49    1.35
  -3   7  -5   13.00    2.04
   3   7   5   14.05    1.98
  -3   7  -5   13.62    2.23
   4  -7   5   39.17    3.51
  -4  -7  -5   40.86    3.98
   4  -7   5   45.29    3.82
   4   7   5   43.97    3.44
  -4   7  -5   46.83    4.26
   4   7   5   46.44    3.99
  -4   7  -5   45.58    3.97
  -5  -7  -5    2.66    1.40
   5  -7   5    3.34    0.81
  -5   7  -5    3.20    1.30
  -5   7  -5    3.83    1.59
  -6  -7  -5   30.83    3.41
   6  -7   5   25.92    2.85
   6  -7   5   27.56    2.44
   6   7   5   24.23    3.19
  -6   7  -5   20.72    3.83
  -6   7  -5   21.54    3.07
  -7  -7  -5   24.87    3.54
   7  -7   5   19.10    2.75
   7  -7   5   19.32    2.05
   7   7   5   18.66    3.17
  -7   7  -5   18.34    2.75
  -9  -8   5   12.07    2.58
   9  -8  -5   12.98    2.20
   9  -8  -5   10.97    1.59
   9   8  -5   12.83    2.73
  -9   8   5   12.48    2.48
   8  -8  -5   23.44    2.35
  -8  -8   5   21.45    3.73
   8  -8  -5   20.89    2.52
  -8   8   5   23.44    3.46
   8   8  -5   24.83    2.95
   7  -8  -5   66.80    5.19
  -7  -8   5   65.43    5.75
   7   8  -5   69.44    5.61
  -7   8   5   63.50    6.32
  -6  -8   5    1.22    1.05
   6  -8  -5    0.64    0.77
  -6  -8   5    1.68    0.57
   6  -8  -5    1.18    0.61
  -6   8   5    2.04    1.32
   6   8  -5    0.31    1.07
   5  -8  -5  128.76    9.20
   5  -8  -5  129.17    9.31
  -5  -8   5  125.58    9.19
  -5  -8   5  122.45    9.44
  -5   8   5  111.87    9.49
   5   8  -5  117.55    9.42
  -4  -8   5   22.47    2.24
  -4  -8   5   22.47    2.05
   4  -8  -5   23.53    2.16
   4  -8  -5   23.76    1.98
   4   8  -5   22.05    2.46
  -4   8   5   25.16    2.46
  -3  -8   5   81.68    6.08
   3  -8  -5   80.83    6.00
  -3  -8   5   82.88    5.98
   3  -8  -5   81.86    5.91
   3   8  -5   72.59    6.14
   3   8  -5   71.44    6.10
  -3   8   5   75.06    6.17
   2  -8  -5  111.45    8.15
  -2  -8   5  108.49    8.22
  -2  -8   5  115.97    8.36
  -2  -8   5  112.39    8.12
   2  -8  -5  113.67    8.23
  -2   8   5  104.93    8.38
   2   8  -5  103.36    8.32
   2   8  -5  100.96    8.35
   1  -8  -5    8.96    0.92
   1  -8  -5    9.09    1.16
  -1  -8   5    8.68    1.15
  -1  -8   5    9.64    1.11
   1   8  -5    7.14    1.40
  -1   8   5    6.38    1.43
   1   8  -5    7.54    1.27
   0  -8  -5  109.49    8.00
   0  -8  -5  109.75    7.76
   0  -8  -5  109.57    7.69
   0  -8   5  106.62    7.78
   0  -8   5  101.98    7.78
   0   8   5  103.23    7.88
   0   8  -5   94.89    7.88
   0   8   5   96.65    7.96
   0   8  -5   92.35    7.97
  -1  -8  -5   17.09    1.53
  -1  -8  -5   16.35    2.06
   1  -8   5   16.41    1.91
   1  -8   5   14.75    1.69
  -1  -8  -5   18.72    1.77
  -1   8  -5   18.05    2.10
   1   8   5   20.65    2.14
  -1   8  -5   17.39    2.21
   1   8   5   20.01    2.11
   1   8   5   19.57    1.59
  -2  -8  -5   48.09    3.64
  -2  -8  -5   48.63    3.49
   2  -8   5   52.10    3.83
   2  -8   5   44.80    3.64
  -2  -8  -5   48.43    3.99
  -2   8  -5   37.27    3.88
   2   8   5   45.23    3.96
   2   8   5   39.73    3.50
   2   8   5   44.10    4.02
  -2   8  -5   45.54    4.01
  -3  -8  -5   50.20    3.84
   3  -8   5   48.41    3.98
  -3  -8  -5   52.95    4.43
   3  -8   5   50.29    4.20
   3   8   5   47.01    4.34
  -3   8  -5   42.38    4.30
  -3   8  -5   49.48    4.46
   3   8   5   56.37    3.86
   4  -8   5    7.10    1.26
  -4  -8  -5    7.43    1.65
   4  -8   5   11.29    1.92
  -4   8  -5    8.45    1.88
  -4   8  -5    7.16    1.58
   4   8   5    5.58    1.51
   5  -8   5   46.53    3.75
  -5  -8  -5   46.35    4.51
   5  -8   5   46.76    4.12
   5   8   5   44.49    4.35
  -5   8  -5   42.95    4.49
  -6  -8  -5    4.56    1.93
   6  -8   5    3.66    0.95
   6  -8   5    4.23    1.48
  -6   8  -5    4.58    2.00
   6   8   5    4.35    1.69
  -9  -9   5   19.10    4.08
   9  -9  -5   25.91    2.52
   9  -9  -5   29.37    3.10
  -9   9   5   26.66    5.34
   9   9  -5   29.65    3.58
  -8  -9   5   30.09    3.93
   8  -9  -5   30.12    3.09
   8  -9  -5   29.65    2.63
   8   9  -5   28.05    3.53
  -8   9   5   28.61    3.92
   7  -9  -5    4.27    0.86
  -7  -9   5    4.29    1.76
   7  -9  -5    4.01    1.20
  -7   9   5    6.93    1.94
   7   9  -5    3.76    1.54
  -6  -9   5   60.16    4.33
  -6  -9   5   58.06    4.91
   6  -9  -5   59.81    4.38
   6   9  -5   50.39    4.83
  -6   9   5   46.36    5.00
  -5  -9   5    9.42    1.77
   5  -9  -5    9.16    1.17
   5  -9  -5    9.28    1.58
  -5  -9   5    8.25    1.23
  -5   9   5    6.71    1.62
   5   9  -5    5.78    1.47
   4  -9  -5   40.80    3.38
  -4  -9   5   43.17    3.57
  -4  -9   5   45.27    3.29
   4  -9  -5   44.24    3.23
  -4   9   5   34.07    3.71
   4   9  -5   31.40    3.65
  -3  -9   5   46.36    3.68
   3  -9  -5   45.58    3.59
  -3  -9   5   45.89    3.86
   3  -9  -5   46.88    3.73
   3   9  -5   43.85    4.00
   3   9  -5   43.71    3.92
  -3   9   5   47.54    4.04
  -2  -9   5   21.11    1.78
   2   9  -5   14.15    2.10
   2   9  -5   13.39    1.97
  -2   9   5   13.84    2.01
   1  -9  -5   86.66    5.90
  -1  -9   5   73.89    5.89
   1  -9  -5   79.99    5.79
   1   9  -5   76.18    6.06
   1   9  -5   66.17    6.07
  -1   9   5   74.64    6.14
   0  -9   5    5.70    0.93
   0  -9   5    3.84    0.93
   0  -9  -5    6.60    1.31
   0  -9  -5    5.99    0.85
   0  -9  -5    6.26    0.92
   0   9  -5    5.18    1.31
   0   9  -5    6.50    1.26
   0   9   5    7.22    1.68
  -1  -9  -5   60.60    5.10
   1  -9   5   60.10    4.74
  -1  -9  -5   61.87    4.72
   1  -9   5   63.36    4.83
  -1  -9  -5   62.54    4.59
   1   9   5   60.38    5.01
  -1   9  -5   61.41    5.04
   1   9   5   60.19    5.09
  -1   9  -5   54.15    5.01
   1   9   5   57.08    4.60
  -2  -9  -5   36.78    3.64
   2  -9   5   35.94    3.16
   2  -9   5   38.01    3.57
  -2  -9  -5   37.92    2.97
   2   9   5   38.47    3.69
  -2   9  -5   41.20    3.71
  -2   9  -5   33.27    3.63
   2   9   5   40.55    3.66
   3  -9   5   16.72    1.83
   3  -9   5   16.34    2.27
   3   9   5   14.55    2.58
  -3   9  -5   17.45    2.78
   3   9   5   18.50    4.00
  -3   9  -5   16.12    3.18
   4  -9   5   43.34    3.78
   4  -9   5   37.79    3.34
  -4  -9  -5   38.47    4.13
   4   9   5   36.94    4.02
  -4   9  -5   40.44    4.21
  -5  -9  -5    1.15    1.85
   5  -9   5    1.24    0.90
   5  -9   5    4.87    1.50
  -5   9  -5    0.22    2.74
   5   9   5    2.06    1.66
  -6  -9  -5   21.70    3.97
  -6   9  -5   25.68    3.70
   8 -10  -5   11.95    1.92
  -8 -10   5   10.71    2.70
   8 -10  -5   10.74    1.70
   8  10  -5   15.53    3.27
  -8  10   5   16.60    3.23
  -7 -10   5   29.27    3.87
   7 -10  -5   34.24    3.26
   7 -10  -5   32.03    2.74
   7  10  -5   28.01    3.68
  -7  10   5   27.66    4.07
   6 -10  -5   -1.34    1.09
   6 -10  -5    0.77    0.70
  -6 -10   5    0.30    1.42
  -6 -10   5    1.22    0.76
   6  10  -5    0.52    1.56
  -6  10   5    0.75    1.75
  -5 -10   5   33.34    4.36
   5 -10  -5   33.94    2.80
  -5 -10   5   31.76    2.81
  -5  10   5   33.50    3.70
   5  10  -5   35.10    3.59
   5  10  -5   29.08    3.88
   4 -10  -5   15.51    2.01
  -4 -10   5   15.77    1.76
  -4 -10   5   16.86    2.26
   4 -10  -5   16.44    1.64
   4  10  -5   13.23    2.38
  -4  10   5   17.92    2.58
   4  10  -5   14.84    2.86
  -3 -10   5    7.06    1.40
   3 -10  -5    7.54    1.53
  -3 -10   5    8.52    1.38
   3 -10  -5    6.56    1.21
   3  10  -5    8.66    1.62
   3  10  -5    9.16    1.98
  -2 -10   5   48.37    3.80
   2 -10  -5   47.16    3.83
   2 -10  -5   47.94    3.65
   2  10  -5   42.97    4.23
  -2  10   5   46.02    4.42
   2  10  -5   44.10    4.08
  -1 -10   5    1.51    0.78
   1 -10  -5    1.85    0.59
   1 -10  -5    1.57    0.86
   1  10  -5    0.60    1.23
  -1  10   5    2.23    1.41
   1  10  -5    0.81    1.32
   0 -10  -5   51.95    3.82
   0 -10   5   43.30    4.07
   0  10  -5   53.83    4.37
   0  10  -5   45.43    4.37
  -1 -10  -5   12.40    2.49
   1 -10   5   13.94    2.00
   1 -10   5   10.19    1.64
   1  10   5   17.00    2.48
  -1  10  -5   16.30    3.05
  -1  10  -5   17.18    2.46
   1  10   5   16.57    2.76
   2 -10   5   25.98    2.57
  -2 -10  -5   26.23    3.25
  -2 -10  -5   27.75    2.31
   2 -10   5   30.47    2.98
   2  10   5   29.59    3.47
  -2  10  -5   23.78    3.86
   2  10   5   30.19    3.32
  -2  10  -5   28.02    3.36
   3 -10   5   30.88    3.00
  -3 -10  -5   33.01    3.79
  -3  10  -5   38.71    3.99
   4 -10   5    2.49    0.99
  -4 -10  -5    0.98    1.83
   4 -10   5    2.05    1.57
   4  10   5    1.90    1.86
  -4  10  -5    3.36    2.10
   4  10   5    2.59    1.96
   6 -11  -5   31.22    2.81
  -6 -11   5   31.58    3.92
   6 -11  -5   33.78    3.35
  -6  11   5   29.94    4.19
   6  11  -5   31.33    4.00
   6  11  -5   31.69    4.32
   5 -11  -5    3.12    0.80
   5 -11  -5    3.29    1.35
  -5 -11   5    2.22    1.58
  -5 -11   5    1.36    1.07
  -5  11   5    0.21    1.86
   5  11  -5    3.23    1.85
   5  11  -5    2.72    1.83
  -4 -11   5   23.36    3.10
  -4 -11   5   24.31    2.51
   4 -11  -5   24.09    2.39
  -4  11   5   30.63    3.50
   4  11  -5   27.95    3.48
   4  11  -5   31.75    3.37
   3 -11  -5   19.82    2.39
  -3 -11   5   19.35    2.15
  -3 -11   5   18.57    3.13
   3 -11  -5   19.39    1.95
   3  11  -5   25.12    4.36
  -3  11   5   23.56    3.19
   3  11  -5   20.08    3.07
   2 -11  -5    7.99    1.25
  -2 -11   5   10.04    1.61
   2 -11  -5    8.40    1.39
   2  11  -5   10.18    2.05
   2  11  -5    9.35    2.45
  -2  11   5   10.31    2.08
   1 -11  -5   46.31    3.78
  -1 -11   5   42.44    3.95
   1  11  -5   57.01    4.54
   1  11  -5   45.91    4.60
   0 -11   5    4.52    1.04
   0 -11  -5    5.54    0.84
   0  11   5    4.71    1.68
   0  11  -5    3.06    1.62
   0  11  -5    5.61    1.75
  -1 -11  -5   27.48    3.62
   1 -11   5   27.86    2.83
   1  11   5   36.36    3.71
  -1  11  -5   33.71    3.72
   2 -11   5   28.15    2.78
  -2 -11  -5   28.68    2.68
   2 -11   5   32.80    3.58
  -2 -11  -5   30.50    3.68
  -2  11  -5   29.36    4.36
   2  11   5   32.54    3.74
   2  11   5   23.18    3.80
   3 -11   5   16.38    2.77
  -3 -11  -5    9.98    2.32
   3 -11   5    8.57    1.45
   3  11   5   10.82    2.46
   3  11   5   10.82    2.37
  -3  11  -5   16.43    3.38
  -4 -12   5    5.25    1.82
  -4 -12   5    6.34    1.22
   4 -12  -5    3.98    1.58
   4 -12  -5    4.85    1.01
   4  12  -5    3.97    2.06
  -4  12   5    3.60    2.08
   4  12  -5    4.96    2.19
   3 -12  -5   27.65    2.33
  -3 -12   5   27.22    2.57
  -3  12   5   22.72    3.62
   3  12  -5   18.09    3.71
   3  12  -5   21.91    3.49
  -2 -12   5   32.87    3.14
   2 -12  -5   36.07    2.94
   2  12  -5   27.74    4.09
   2  12  -5   33.90    3.96
  -2  12   5   37.79    4.10
   1 -12  -5    2.34    0.84
  -1 -12   5    2.33    1.09
   1  12  -5    2.56    1.85
  -1  12   5    2.31    1.82
   1  12  -5    2.78    1.89
   0 -12  -5   55.10    4.19
   0 -12   5   48.60    4.40
   0  12   5   53.05    5.19
   0  12  -5   52.33    5.07
  -1 -12  -5   15.98    1.69
   1 -12   5   15.49    2.04
   1  12   5   10.66    2.44
  -1  12  -5   17.25    3.41
  12   0  -6    2.41    1.05
 -12   0   6    3.70    1.19
  11   0  -6   60.67    5.01
  11   0  -6   63.05    4.94
  10   0  -6   31.21    2.68
  10   0  -6   31.25    2.77
   9   0  -6   30.81    2.83
  -9   0   6   38.46    3.03
   8   0  -6   92.17    6.96
   8   0  -6   91.72    6.98
  -7   0   6    6.84    0.63
   7   0  -6    5.50    0.83
  -7   0   6    6.42    1.00
  -6   0   6  117.83    8.69
   6   0  -6  102.28    8.61
  -6   0   6  125.60    8.55
  -5   0   6  200.37   14.71
   5   0  -6  190.87   14.68
  -5   0   6  207.83   14.61
   5   0  -6  192.57   14.66
  -4   0   6   43.39    3.15
  -4   0   6   40.31    3.46
   4   0  -6   41.74    3.21
   4   0  -6   40.45    3.25
   3   0  -6  341.67   24.47
   3   0  -6  304.63   24.43
   3   0  -6  330.82   24.41
  -3   0   6  346.89   24.38
   2   0  -6    6.32    0.76
   2   0  -6    7.83    0.93
   1   0  -6  180.04   12.81
  -1   0   6  152.97   12.66
  -1   0   6  174.19   12.66
   1   0  -6  177.92   12.70
   0   0   6   83.53    6.22
   0   0   6   81.46    6.21
   0   0  -6   84.45    6.41
   1   0   6   36.92    2.63
  -1   0  -6   33.91    2.59
  -1   0  -6   29.62    3.17
  -2   0  -6   96.16    7.37
   2   0   6  104.95    7.36
   2   0   6   97.39    7.40
  -2   0  -6   95.90    7.60
  -3   0  -6    3.16    0.90
  -3   0  -6    2.23    0.48
   3   0   6    1.83    0.56
   4   0   6   60.57    4.41
  -4   0  -6   57.43    4.83
   4   0   6   56.88    4.55
   5   0   6    4.73    0.88
  -5   0  -6    3.72    0.86
  -5   0  -6    4.49    1.23
   5   0   6    4.12    0.64
   6   0   6   35.57    3.23
  -6   0  -6   37.46    3.66
  -6   0  -6   39.50    3.55
  -7   0  -6   31.37    2.90
  -7   0  -6   24.54    3.17
   8   0   6    2.30    1.56
   8   0   6    3.69    1.23
  -8   0  -6    4.01    1.85
  -8   0  -6    3.50    1.59
 -12  -1   6   53.00    4.48
  12  -1  -6   42.51    4.24
 -12   1   6   55.08    4.37
  11  -1  -6    5.37    1.23
  11   1  -6    3.74    1.02
  11   1  -6    2.09    1.02
 -11   1   6    3.56    1.01
  10  -1  -6   45.85    4.19
 -10  -1   6   59.60    4.46
  10   1  -6   54.30    4.19
  10   1  -6   50.68    4.31
   9  -1  -6   51.89    4.65
  -9  -1   6   65.52    4.53
  -9   1   6   61.25    4.82
  -9   1   6   60.20    4.49
   8  -1  -6    9.65    1.21
  -8  -1   6   11.83    1.04
  -8  -1   6   11.48    1.43
   8   1  -6   12.36    1.34
   8   1  -6   12.34    1.22
  -7  -1   6  174.73   11.66
  -7  -1   6  167.18   11.84
   7  -1  -6  144.39   11.70
   7   1  -6  149.11   11.90
  -7   1   6  165.97   11.62
   7   1  -6  148.19   11.74
  -7   1   6  149.90   12.17
  -6  -1   6   50.65    3.78
  -6  -1   6   52.66    3.94
   6  -1  -6   49.19    3.84
   6  -1  -6   51.94    3.85
   6   1  -6   50.05    3.83
   6   1  -6   43.69    3.91
   5  -1  -6  122.38    9.44
  -5  -1   6  111.44    9.39
  -5  -1   6  110.43    9.32
   5  -1  -6  115.35    9.40
  -5   1   6  120.37    9.46
   5   1  -6  142.55    9.42
  -5   1   6  140.00    9.31
   5   1  -6  141.98    9.38
   4  -1  -6  171.88   11.62
   4   1  -6  151.22   11.57
   4   1  -6  152.29   11.61
  -4   1   6  147.97   11.51
  -3   1   6   10.43    0.87
   3   1  -6   10.18    0.99
   3   1  -6   10.18    1.09
   2  -1  -6  221.49   16.18
   2  -1  -6  234.78   16.03
  -2  -1   6  226.14   15.98
  -2  -1   6  199.26   16.05
   2   1  -6  223.63   16.02
   2   1  -6  241.34   16.10
  -2   1   6  200.22   15.96
  -2   1   6  185.58   15.96
  -1  -1   6   10.40    0.98
  -1  -1   6   11.73    1.05
   1   1  -6   11.73    1.07
  -1   1   6    9.50    0.94
   1   1  -6   14.23    1.24
   0  -1   6  170.42   11.25
   0  -1  -6  149.87   11.39
   0  -1   6  161.70   11.22
   0  -1  -6  163.14   11.25
   0   1   6  127.82   11.17
   0   1   6  142.26   11.19
   0   1  -6  143.53   11.34
   1  -1   6   46.14    3.27
   1  -1   6   43.97    3.30
  -1  -1  -6   44.50    3.23
  -1  -1  -6   38.68    3.64
  -1   1  -6   40.28    3.52
   1   1   6   39.79    3.21
   2  -1   6   49.93    3.38
  -2  -1  -6   45.48    3.44
   2  -1   6   47.51    3.43
  -2  -1  -6   43.14    3.68
  -2   1  -6   37.48    3.33
   2   1   6   40.48    3.38
  -2   1  -6   41.49    3.69
   2   1   6   45.18    3.33
   3  -1   6  128.08    9.33
  -3  -1  -6  125.12    9.42
   3  -1   6  120.51    9.40
  -3  -1  -6  120.92    9.60
   3   1   6  136.08    9.31
   3   1   6  127.46    9.39
  -3   1  -6  127.19    9.61
  -3   1  -6  118.38    9.37
  -4  -1  -6    2.07    0.96
  -4  -1  -6    2.18    0.67
   4  -1   6    2.54    0.46
   4  -1   6    1.77    0.66
  -4   1  -6    3.39    1.04
  -5  -1  -6   63.31    5.49
  -5  -1  -6   70.21    5.30
   5  -1   6   68.42    5.07
   5  -1   6   60.83    5.19
  -5   1  -6   67.38    5.21
  -5   1  -6   70.45    5.49
   5   1   6   63.73    5.16
  -6  -1  -6   23.00    2.94
  -6  -1  -6   25.58    2.60
   6  -1   6   20.54    2.46
  -6   1  -6   30.26    2.83
   6   1   6   26.57    2.47
  -6   1  -6   29.09    2.97
  -7  -1  -6   13.76    2.51
  -7  -1  -6   13.59    2.13
   7  -1   6   11.63    1.93
  -7   1  -6   14.05    2.65
   7   1   6   12.92    2.48
   7   1   6   10.75    1.87
  -7   1  -6   16.39    1.90
  -8  -1  -6   34.55    4.13
  -8  -1  -6   47.46    5.19
   8  -1   6   36.85    4.05
   8  -1   6   33.86    3.76
  -8   1  -6   41.51    4.15
   8   1   6   42.56    3.74
  -8   1  -6   48.44    4.13
   8   1   6   48.39    4.23
  12  -2  -6    3.51    1.09
 -12  -2   6    0.89    1.15
  12   2  -6    0.89    1.32
 -12   2   6    1.29    0.98
  11  -2  -6   28.46    2.78
 -11  -2   6   32.51    3.10
  11   2  -6   28.89    3.05
  10  -2  -6   26.85    2.41
 -10  -2   6   29.92    2.72
  10   2  -6   21.08    2.52
 -10   2   6   24.66    2.03
 -10   2   6   27.50    2.63
  -9  -2   6   24.48    2.75
  -9   2   6   33.24    2.29
   9   2  -6   29.21    2.65
   9   2  -6   29.52    2.49
  -8  -2   6   92.12    6.51
  -8  -2   6   89.69    6.18
   8  -2  -6   88.28    6.27
   8  -2  -6   78.02    6.26
   8   2  -6   73.18    6.30
  -8   2   6   75.56    6.11
   8   2  -6   74.88    6.21
  -8   2   6   84.74    6.49
   7  -2  -6   16.23    1.54
  -7  -2   6   14.30    1.45
  -7  -2   6   14.96    1.81
   7  -2  -6   15.69    1.59
  -7   2   6   19.35    2.02
   7   2  -6   18.58    1.67
  -7   2   6   19.08    1.38
   6  -2  -6  125.66    8.74
   6  -2  -6  111.48    8.73
  -6   2   6  100.21    8.89
  -6   2   6  110.80    8.64
   6   2  -6  125.39    8.78
   6   2  -6  125.16    8.72
   5  -2  -6   25.06    2.01
  -5  -2   6   24.90    2.02
  -5   2   6   20.24    2.10
   5   2  -6   24.69    1.90
  -5   2   6   20.81    1.80
  -4  -2   6   95.81    6.75
   4  -2  -6   87.49    6.74
  -4   2   6   79.72    6.79
   4   2  -6   93.86    6.72
  -4   2   6   81.22    6.66
   4   2  -6   98.94    6.79
  -3  -2   6  161.80   11.31
   3  -2  -6  140.41   11.38
   3  -2  -6  159.63   11.35
   3  -2  -6  152.78   11.37
  -3  -2   6  167.32   11.29
  -3  -2   6  134.21   11.37
   3   2  -6  168.38   11.42
   3   2  -6  152.46   11.34
  -3   2   6  137.28   11.28
  -3   2   6  152.21   11.36
   2  -2  -6    3.37    0.66
   2  -2  -6    3.72    1.03
  -2  -2   6    4.70    0.67
  -2  -2   6    3.43    0.52
   2  -2  -6    3.96    0.69
   2   2  -6    4.43    0.82
  -2   2   6    4.53    0.46
   2   2  -6    5.43    0.65
  -2   2   6    4.88    0.56
  -1  -2   6  257.45   18.62
  -1  -2   6  273.84   18.68
   1  -2  -6  228.60   18.73
   1  -2  -6  271.53   18.65
   1   2  -6  267.04   18.77
  -1   2   6  219.36   18.58
  -1   2   6  248.42   18.58
   0  -2   6   50.07    3.79
   0  -2   6   49.78    3.82
   0  -2  -6   53.09    3.82
   0  -2  -6   43.33    3.93
   0  -2  -6   50.36    3.78
   0   2  -6   51.95    3.99
   0   2   6   48.54    3.75
  -1  -2  -6  115.28    8.11
  -1  -2  -6   99.60    8.28
   1  -2   6  116.75    8.13
   1  -2   6  108.88    8.13
  -1   2  -6  110.37    8.30
   1   2   6  100.59    8.05
   2  -2   6  127.44    9.91
  -2  -2  -6  131.56    9.75
  -2  -2  -6  128.24    9.93
   2   2   6  138.79    9.72
  -2   2  -6  139.35    9.97
   2   2   6  135.00    9.66
  -2   2  -6  113.47    9.69
   3  -2   6    5.44    0.99
  -3  -2  -6    7.49    0.94
   3  -2   6    6.39    0.81
  -3  -2  -6    6.82    1.40
  -3   2  -6    4.20    0.71
   3   2   6    6.05    0.60
  -3   2  -6    5.10    1.11
   3   2   6    5.18    0.89
   4  -2   6  117.12    8.30
   4  -2   6  108.37    8.41
  -4  -2  -6  113.90    8.47
  -4  -2  -6  112.51    8.63
   4   2   6  104.04    8.34
  -4   2  -6  110.28    8.60
   5  -2   6   25.94    2.20
  -5  -2  -6   28.51    2.88
  -5  -2  -6   26.69    2.58
   5  -2   6   25.64    2.49
  -5   2  -6   27.01    2.82
   5   2   6   28.81    2.39
  -5   2  -6   27.25    2.37
   6  -2   6   31.34    2.94
   6  -2   6   29.61    2.55
  -6  -2  -6   33.94    3.35
  -6   2  -6   32.30    2.80
   6   2   6   32.98    3.37
  -6   2  -6   33.68    3.27
   6   2   6   29.74    2.81
  -7  -2  -6   62.40    5.12
   7  -2   6   54.46    4.93
  -7  -2  -6   53.38    5.22
  -7   2  -6   63.72    4.87
   7   2   6   65.21    5.33
   7   2   6   57.13    4.83
   8  -2   6    1.02    1.26
  -8  -2  -6    3.47    1.69
   8  -2   6    1.82    1.35
  -8  -2  -6    3.34    1.39
  -8   2  -6    2.09    1.02
  -8   2  -6    3.08    1.57
   8   2   6    2.09    1.62
   8   2   6   -0.54    1.08
 -12  -3   6   54.93    5.04
  12  -3  -6   51.49    4.71
  12   3  -6   51.18    5.03
 -12   3   6   63.87    4.80
 -11  -3   6   10.52    2.12
  11  -3  -6    9.91    1.76
  11   3  -6   10.59    2.18
 -11   3   6   14.61    2.10
 -10  -3   6   68.99    5.63
  10  -3  -6   63.66    5.29
  10  -3  -6   61.54    5.27
  10   3  -6   63.50    5.41
 -10   3   6   72.89    5.02
  -9  -3   6   56.06    5.04
   9  -3  -6   57.37    4.74
   9  -3  -6   53.67    5.03
  -9   3   6   64.44    4.58
   9   3  -6   62.94    4.72
   9   3  -6   63.79    4.89
   8  -3  -6   33.74    2.62
   8  -3  -6   32.80    2.60
  -8  -3   6   28.63    2.94
  -8  -3   6   28.62    2.45
   8   3  -6   30.87    2.52
  -8   3   6   31.08    3.07
  -8   3   6   31.11    2.40
   8   3  -6   29.75    2.74
   7  -3  -6   95.43    6.92
   7  -3  -6   91.36    6.88
  -7  -3   6   79.40    6.84
   7   3  -6   99.13    6.88
  -7   3   6   90.05    6.79
   7   3  -6   97.41    7.00
  -7   3   6   84.80    7.21
  -6   3   6   10.61    1.66
  -6   3   6   10.24    0.91
   6   3  -6    9.61    1.07
   6   3  -6   10.83    1.26
   5  -3  -6  139.99   10.24
  -5  -3   6  128.89   10.27
  -5  -3   6  153.32   10.36
   5  -3  -6  146.31   10.27
  -5   3   6  122.88   10.53
  -5   3   6  122.38   10.17
   5   3  -6  148.12   10.35
  -4  -3   6   60.91    5.17
   4  -3  -6   70.47    5.14
   4  -3  -6   65.09    5.12
  -4  -3   6   73.97    5.18
   4   3  -6   68.60    5.22
  -4   3   6   66.47    5.22
   3  -3  -6   62.88    4.99
  -3  -3   6   70.97    4.77
  -3  -3   6   65.80    4.78
  -3  -3   6   64.32    4.89
  -3   3   6   62.68    4.84
   3   3  -6   53.78    4.79
   2  -3  -6  165.21   11.53
  -2  -3   6  163.29   11.49
  -2  -3   6  149.95   11.57
   2  -3  -6  162.08   11.53
  -2   3   6  136.18   11.46
  -2   3   6  148.12   11.56
   2   3  -6  159.96   11.74
   1  -3  -6    2.73    0.46
   1  -3  -6    1.34    0.54
   1  -3  -6    2.51    0.50
  -1   3   6    2.39    0.44
  -1   3   6    2.86    0.39
   0  -3  -6  146.09    9.77
   0  -3   6  135.95    9.75
   0  -3   6  130.41    9.76
   0  -3  -6  140.76    9.76
   0  -3  -6  113.14    9.82
   0   3  -6  124.05    9.84
   0   3   6  123.97    9.71
  -1  -3  -6  107.75    7.75
  -1  -3  -6  106.44    7.70
   1  -3   6  109.61    7.77
  -1  -3  -6   95.61    7.82
   1  -3   6  101.74    7.73
  -1   3  -6   98.09    7.83
   1   3   6   97.60    7.64
  -2   3  -6    8.46    1.20
   2   3   6   11.56    1.06
  -2   3  -6   11.81    1.61
   2   3   6   10.60    0.89
  -3  -3  -6  132.39    9.93
   3  -3   6  140.95    9.83
  -3  -3  -6  134.76   10.08
   3  -3   6  134.47    9.91
   3   3   6  123.90    9.73
  -3   3  -6  127.11   10.07
   3   3   6  128.14    9.82
  -4  -3  -6    8.59    1.69
   4  -3   6    7.77    1.27
  -4  -3  -6    7.53    1.32
   4  -3   6    7.80    0.97
  -4   3  -6    8.08    1.35
   4   3   6    6.59    1.09
  -4   3  -6    7.02    1.08
   5  -3   6   67.75    5.48
  -5  -3  -6   70.81    5.77
  -5  -3  -6   74.81    5.60
   5  -3   6   73.19    5.28
   5   3   6   69.32    5.71
  -5   3  -6   75.05    5.69
   5   3   6   66.68    5.45
  -5   3  -6   57.82    5.36
   6  -3   6   51.42    4.45
   6  -3   6   51.69    3.93
  -6  -3  -6   57.02    4.93
  -6  -3  -6   52.48    5.47
   6   3   6   49.03    4.10
  -6   3  -6   43.19    4.08
  -6   3  -6   53.34    4.48
   6   3   6   51.38    4.95
   7  -3   6   11.32    1.82
  -7  -3  -6    9.76    2.23
  -7  -3  -6    9.79    1.94
  -7   3  -6   12.32    1.64
   7   3   6   10.50    2.04
   7   3   6   11.58    1.77
   8  -3   6   50.92    4.78
  -8  -3  -6   47.63    5.02
  -8  -3  -6   57.52    5.04
   8   3   6   53.37    5.15
  -8   3  -6   56.67    4.53
   8   3   6   51.50    4.51
  -8   3  -6   55.77    4.96
 -11  -4   6   54.73    5.26
  11  -4  -6   58.95    4.92
 -11   4   6   69.21    5.20
  11   4  -6   53.56    5.11
  10  -4  -6   20.98    2.40
  10  -4  -6   24.04    2.46
 -10   4   6   29.37    3.03
 -10   4   6   25.18    2.03
   9  -4  -6   38.61    3.17
  -9  -4   6   31.55    3.61
   9  -4  -6   39.41    3.26
  -9   4   6   40.26    2.97
  -9   4   6   41.04    3.77
   9   4  -6   38.00    3.45
   8  -4  -6   87.25    6.69
   8  -4  -6   88.23    6.78
  -8  -4   6   85.44    6.62
  -8   4   6   92.21    7.17
   7  -4  -6    4.65    0.79
  -7  -4   6    3.65    1.01
  -7  -4   6    3.59    0.66
   7  -4  -6    3.69    0.66
   7   4  -6    2.85    0.81
  -7   4   6    2.97    1.21
   6  -4  -6  116.35    8.89
   6  -4  -6  109.62    8.83
  -6  -4   6  117.06    9.06
  -6   4   6  118.33    9.14
   6   4  -6  130.35    8.99
   5  -4  -6   45.83    3.65
  -5  -4   6   44.39    3.84
  -5  -4   6   48.67    3.58
  -5  -4   6   51.58    3.75
   5  -4  -6   44.59    3.60
   5   4  -6   45.61    3.62
  -4  -4   6   40.18    2.98
  -4  -4   6   37.97    3.06
   4  -4  -6   37.05    2.99
  -4  -4   6   39.65    2.93
   4  -4  -6   36.89    2.94
  -4   4   6   36.38    3.26
   4   4  -6   37.15    3.10
  -3  -4   6   78.07    6.04
  -3  -4   6   71.51    6.14
  -3  -4   6   90.04    6.24
   3  -4  -6   71.89    6.04
   3  -4  -6   73.66    6.09
  -3   4   6   91.32    6.16
   3   4  -6   89.09    6.20
  -2  -4   6    5.35    0.87
   2  -4  -6    6.18    0.78
  -2  -4   6    4.86    0.72
   2  -4  -6    5.12    0.67
  -2  -4   6    5.62    0.55
   2   4  -6    4.19    0.81
  -2   4   6    5.04    0.71
   2   4  -6    4.33    0.60
   1  -4  -6   72.24    5.35
   1  -4  -6   65.89    5.43
   1  -4  -6   60.07    5.37
  -1  -4   6   72.52    5.33
  -1  -4   6   64.31    5.35
  -1   4   6   74.67    5.34
   1   4  -6   75.15    5.27
   1   4  -6   79.39    5.48
  -1   4   6   67.42    5.27
   0  -4  -6   22.62    1.89
   0  -4  -6   20.83    2.05
   0  -4  -6   22.65    2.00
   0  -4   6   17.63    2.25
   0  -4   6   20.29    1.91
   0  -4  -6   22.79    1.91
   0   4  -6   24.06    1.89
   0   4  -6   24.80    2.14
   0   4   6   23.58    1.90
   0   4   6   20.89    1.89
   0   4   6   25.72    1.91
   1  -4   6   31.26    2.40
  -1  -4  -6   29.58    2.35
   1  -4   6   28.18    2.33
  -1  -4  -6   24.83    2.53
  -1  -4  -6   28.22    2.35
  -1  -4  -6   30.67    2.31
  -1   4  -6   28.35    2.58
   1   4   6   25.52    2.24
   2  -4   6   89.92    6.36
   2  -4   6   88.54    6.27
  -2  -4  -6   90.98    6.38
  -2  -4  -6   78.61    6.46
  -2   4  -6   78.57    6.48
   2   4   6   69.70    6.15
   2   4   6   83.52    6.22
   3  -4   6    0.67    0.69
  -3  -4  -6    2.06    0.92
  -3  -4  -6    1.72    0.68
   3  -4   6    1.08    0.52
   3   4   6    2.79    0.57
   3   4   6    1.92    0.29
  -3   4  -6    1.69    1.15
  -3   4  -6    1.16    0.74
   4  -4   6  108.87    8.21
   4  -4   6  111.01    8.07
  -4  -4  -6  107.48    8.37
  -4  -4  -6  108.80    8.27
  -4   4  -6  103.78    8.33
   4   4   6  107.42    8.08
   4   4   6  103.31    8.34
   5  -4   6   13.19    1.33
  -5  -4  -6   15.71    2.17
  -5  -4  -6   13.97    1.86
   5  -4   6   11.87    1.80
  -5   4  -6   10.59    1.51
  -5   4  -6   10.61    2.01
   5   4   6   13.08    2.08
   5   4   6   11.93    1.46
   6  -4   6   30.69    2.51
   6  -4   6   28.81    3.01
  -6  -4  -6   32.59    3.13
  -6  -4  -6   30.07    3.27
   6   4   6   30.31    3.36
  -6   4  -6   24.94    2.68
   6   4   6   30.21    2.73
  -6   4  -6   32.95    3.14
   7  -4   6   34.17    3.29
  -7  -4  -6   33.38    3.62
  -7  -4  -6   33.52    3.69
  -7   4  -6   29.16    2.89
   7   4   6   30.80    2.96
   7   4   6   32.37    3.66
  -8  -4  -6    2.98    1.69
   8  -4   6    0.54    1.42
  -8   4  -6    3.39    1.08
  -8   4  -6    1.51    1.60
   8   4   6    2.17    1.72
 -11  -5   6    7.42    1.89
  11  -5  -6    8.85    1.45
  11   5  -6    7.95    1.72
 -10  -5   6   33.15    3.66
  10  -5  -6   38.12    3.20
  10  -5  -6   38.83    3.08
 -10   5   6   36.76    3.73
  10   5  -6   28.76    3.44
 -10   5   6   31.81    2.72
  -9  -5   6   43.27    4.67
   9  -5  -6   59.89    4.21
  -9   5   6   50.03    4.83
   9   5  -6   55.99    4.53
  -8  -5   6   11.38    1.64
  -8  -5   6    9.74    1.97
   8  -5  -6   13.86    1.51
   8  -5  -6   11.81    1.30
   8   5  -6    9.34    1.76
  -8   5   6   12.20    2.01
   7  -5  -6   92.98    6.79
   7  -5  -6   89.75    6.69
  -7  -5   6   96.74    6.69
  -7  -5   6   87.40    7.05
   7   5  -6   75.60    6.84
   6  -5  -6    3.73    0.69
  -6  -5   6    4.78    0.70
  -6  -5   6    3.83    0.91
   6  -5  -6    3.84    0.59
   5  -5  -6   62.22    4.72
  -5  -5   6   64.62    4.80
  -5  -5   6   67.98    4.89
   5  -5  -6   63.92    4.80
   5   5  -6   56.17    4.87
  -5   5   6   57.56    4.98
   4  -5  -6   41.61    3.35
  -4  -5   6   46.16    3.37
  -4  -5   6   45.34    3.42
  -4  -5   6   42.11    3.46
   4  -5  -6   42.29    3.43
   3  -5  -6   19.51    1.78
  -3  -5   6   20.46    1.87
  -3  -5   6   21.73    1.71
   3  -5  -6   20.17    1.69
  -2  -5   6   99.10    8.21
  -2  -5   6  107.89    8.14
   2  -5  -6  109.33    8.18
   2  -5  -6  106.73    8.13
  -2  -5   6  104.08    8.15
   2   5  -6  117.56    8.24
   2   5  -6  118.59    8.31
   1  -5  -6   16.67    1.33
  -1  -5   6   14.56    1.45
   1  -5  -6   17.15    1.56
  -1  -5   6   13.19    1.45
   1  -5  -6   16.01    1.44
   1   5  -6   14.15    1.46
   1   5  -6   14.28    1.68
   0  -5   6   78.33    6.79
   0  -5  -6   84.29    6.73
   0  -5  -6   84.67    6.77
   0   5   6  102.22    6.91
   0   5   6   99.44    6.73
  -1  -5  -6   79.65    5.59
   1  -5   6   66.04    5.56
  -1  -5  -6   67.44    5.73
   1  -5   6   72.37    5.63
  -1  -5  -6   74.38    5.65
  -1  -5  -6   72.77    5.54
   1   5   6   63.64    5.67
  -1   5  -6   80.12    5.64
   1   5   6   77.59    5.50
  -1   5  -6   74.97    5.75
   1   5   6   73.42    5.49
  -2  -5  -6   15.60    1.71
   2  -5   6   16.46    1.78
  -2  -5  -6   14.84    1.93
   2  -5   6   17.17    1.58
   2   5   6   18.64    1.90
  -3  -5  -6   50.08    4.34
   3  -5   6   50.76    4.30
  -3  -5  -6   46.95    4.44
   3  -5   6   52.84    4.17
   3   5   6   51.35    4.00
   3   5   6   61.26    4.13
  -3   5  -6   53.96    4.45
  -3   5  -6   60.54    4.54
   3   5   6   51.89    4.42
   4  -5   6    9.84    1.12
   4  -5   6    9.68    1.31
  -4  -5  -6    9.01    1.59
  -4  -5  -6    7.99    1.42
   4   5   6    6.81    1.11
  -4   5  -6    6.91    1.40
  -4   5  -6    6.53    1.34
   4   5   6    6.53    1.34
   5  -5   6   26.82    2.53
   5  -5   6   32.67    2.98
  -5  -5  -6   29.45    3.03
  -5  -5  -6   29.91    3.38
  -5   5  -6   34.94    3.54
   5   5   6   33.13    2.60
   5   5   6   31.19    3.23
  -5   5  -6   26.53    2.82
  -6  -5  -6   24.37    2.77
   6  -5   6   21.14    2.72
   6  -5   6   25.26    2.02
  -6  -5  -6   24.08    2.91
   6   5   6   20.20    2.15
   6   5   6   20.40    3.16
  -6   5  -6   19.64    2.64
  -6   5  -6   16.75    2.19
  -7  -5  -6    8.65    1.93
   7  -5   6    8.69    1.70
  -7   5  -6   12.11    2.25
   7   5   6    9.34    1.96
  -7   5  -6    9.21    1.76
  11  -6  -6   47.03    3.88
 -11  -6   6   39.12    4.48
  11   6  -6   34.21    4.25
 -11   6   6   40.67    4.25
  10  -6  -6   22.69    2.41
 -10  -6   6   17.42    3.13
  10   6  -6   19.29    2.87
 -10   6   6   20.69    3.14
  -9  -6   6   15.43    3.19
   9  -6  -6   22.92    2.00
   9  -6  -6   21.84    2.25
  -9   6   6   18.88    3.08
   9   6  -6   20.03    2.59
   8  -6  -6   73.65    5.16
  -8  -6   6   63.66    5.55
   8  -6  -6   70.77    4.99
  -8   6   6   52.33    5.58
   8   6  -6   59.43    5.27
  -7  -6   6    1.57    0.58
   7  -6  -6    0.01    0.49
   7  -6  -6    0.87    0.64
  -7  -6   6    0.18    0.93
  -7   6   6    0.68    1.25
   7   6  -6    0.47    0.88
  -6  -6   6  109.15    8.04
  -6  -6   6  113.40    7.81
   6  -6  -6  105.74    7.87
   6  -6  -6  103.48    7.78
   6   6  -6   94.71    7.95
  -6   6   6   93.93    8.07
  -5  -6   6   48.23    3.67
  -5  -6   6   47.45    3.65
   5  -6  -6   47.90    3.57
   5  -6  -6   47.77    3.47
  -5   6   6   38.46    3.77
   5   6  -6   36.88    3.67
  -4  -6   6   50.91    4.11
   4  -6  -6   47.82    4.01
   4  -6  -6   47.69    4.08
  -4  -6   6   52.29    4.12
  -4   6   6   59.37    4.28
   4   6  -6   56.53    4.25
   3  -6  -6  116.18    8.86
  -3  -6   6  117.13    8.89
  -3  -6   6  124.42    8.86
   3  -6  -6  120.24    8.80
  -3  -6   6  126.49    8.97
   3   6  -6  108.95    8.95
   3   6  -6  114.30    8.88
  -3   6   6  116.33    8.95
  -2  -6   6    2.99    0.59
  -2  -6   6    3.14    0.67
   2  -6  -6    3.63    0.61
   2  -6  -6    2.75    0.62
  -2  -6   6    2.86    0.63
   2   6  -6    4.36    0.92
  -2   6   6    4.37    1.16
   1  -6  -6  131.07   10.89
  -1  -6   6  131.78   10.97
   1  -6  -6  137.60   10.95
   1  -6  -6  152.77   11.03
   1   6  -6  153.47   10.97
  -1   6   6  153.45   10.99
   1   6  -6  154.98   11.10
  -1   6   6  159.42   11.07
   0  -6   6   25.24    2.33
   0  -6   6   23.13    2.22
   0  -6  -6   28.06    2.24
   0  -6  -6   25.82    2.33
   0  -6  -6   28.28    2.45
   0  -6  -6   25.95    2.10
   0   6   6   25.01    2.36
   0   6  -6   25.53    2.22
   0   6  -6   23.07    2.47
   0   6   6   28.12    2.34
  -1  -6  -6   52.84    4.18
  -1  -6  -6   52.04    4.37
  -1  -6  -6   52.89    4.26
  -1  -6  -6   47.68    4.42
   1  -6   6   47.64    4.25
   1  -6   6   51.12    4.34
  -1   6  -6   58.47    4.57
   1   6   6   60.67    4.18
   1   6   6   64.48    4.18
   1   6   6   56.45    4.42
  -2  -6  -6   77.49    6.36
   2  -6   6   75.00    6.20
  -2  -6  -6   77.31    6.15
   2  -6   6   80.00    6.32
  -2  -6  -6   70.99    6.39
   2   6   6   89.32    6.14
   2   6   6   84.29    6.11
   2   6   6   78.16    6.38
  -2   6  -6   94.68    6.50
  -2   6  -6   85.45    6.45
  -3  -6  -6    3.15    1.00
   3  -6   6    2.80    0.70
   3  -6   6    3.26    0.97
  -3  -6  -6    2.91    1.11
   3   6   6    4.18    1.08
   3   6   6    3.47    0.57
  -3   6  -6    3.66    1.28
   3   6   6    5.22    0.95
  -3   6  -6    4.02    1.24
  -4  -6  -6   64.17    5.43
   4  -6   6   62.11    5.09
  -4  -6  -6   56.04    5.42
   4  -6   6   61.50    5.33
   4   6   6   70.48    5.50
   4   6   6   72.01    5.06
  -4   6  -6   66.00    5.47
  -4   6  -6   73.28    5.51
   5  -6   6   11.30    1.67
  -5  -6  -6   13.07    2.16
   5  -6   6   12.23    1.41
  -5   6  -6    9.01    1.99
   5   6   6    9.31    1.73
   5   6   6    9.06    1.43
  -5   6  -6   10.52    2.14
  -6  -6  -6   20.87    2.85
   6  -6   6   17.58    1.94
   6  -6   6   18.33    2.67
   6   6   6   17.23    2.97
  -6   6  -6   18.49    2.27
  -6   6  -6   18.43    2.68
  -7  -6  -6   30.44    3.65
   7  -6   6   23.91    3.17
  -7   6  -6   27.22    3.82
   7   6   6   23.36    3.63
  10  -7  -6   21.77    2.59
  10  -7  -6   23.63    2.19
 -10  -7   6   14.64    3.41
 -10   7   6   15.80    3.36
  10   7  -6   19.26    3.03
  -9  -7   6   13.13    3.01
   9  -7  -6   20.56    1.98
   9  -7  -6   21.95    2.30
  -9   7   6   18.04    3.26
   9   7  -6   18.80    2.75
   8  -7  -6    3.41    1.01
   8  -7  -6    3.70    0.83
  -8  -7   6    5.99    1.63
   8   7  -6    5.26    1.39
  -8   7   6    6.03    1.89
   7  -7  -6   83.12    6.36
   7  -7  -6   81.08    6.13
  -7  -7   6   86.58    6.10
  -7  -7   6   81.60    6.57
  -7   7   6   71.05    6.63
   7   7  -6   76.63    6.43
  -6  -7   6   15.46    1.93
  -6  -7   6   17.57    1.58
   6  -7  -6   14.50    1.71
   6  -7  -6   15.08    1.48
  -6   7   6   13.18    2.26
   6   7  -6   12.31    2.31
  -5  -7   6   86.04    6.75
   5  -7  -6   87.66    6.61
  -5  -7   6   92.38    6.58
   5  -7  -6   86.13    6.51
   5   7  -6   81.94    6.74
  -5   7   6   82.07    6.80
   4  -7  -6  100.07    7.53
  -4  -7   6  103.70    7.53
   4  -7  -6   98.87    7.44
  -4  -7   6  101.37    7.57
  -4   7   6   97.45    7.67
   4   7  -6   92.63    7.67
  -3  -7   6   41.66    3.16
   3  -7  -6   38.82    3.04
   3  -7  -6   39.26    3.17
  -3  -7   6   41.08    3.18
  -3  -7   6   41.00    3.20
   3   7  -6   36.60    3.21
  -3   7   6   36.39    3.30
   3   7  -6   34.89    3.33
  -2  -7   6  161.53   12.45
   2  -7  -6  169.25   12.42
  -2  -7   6  170.53   12.42
  -2  -7   6  165.10   12.36
   2  -7  -6  167.33   12.35
   2   7  -6  166.89   12.46
  -2   7   6  166.18   12.53
   2   7  -6  163.83   12.55
  -1  -7   6    3.04    0.77
   1  -7  -6    4.23    0.69
   1  -7  -6    3.96    0.76
  -1  -7   6    2.97    0.80
  -1   7   6    5.44    1.18
   1   7  -6    4.78    1.06
   1   7  -6    4.86    0.95
   0  -7  -6   97.28    7.61
   0  -7   6   86.64    7.47
   0  -7   6   94.07    7.49
   0  -7  -6   99.06    7.46
   0  -7  -6   94.08    7.37
   0   7  -6  104.81    7.55
   0   7   6  108.63    7.65
   0   7  -6  100.93    7.64
   0   7   6  101.05    7.57
   1  -7   6   55.45    4.63
  -1  -7  -6   55.39    4.42
   1  -7   6   49.55    4.52
  -1  -7  -6   55.41    4.63
  -1  -7  -6   55.88    4.71
  -1   7  -6   61.64    4.71
  -1   7  -6   58.65    4.80
   1   7   6   59.67    4.81
   1   7   6   60.72    4.43
   1   7   6   66.30    4.81
   2  -7   6   23.51    2.33
  -2  -7  -6   24.13    2.21
   2  -7   6   28.73    2.64
  -2  -7  -6   26.50    2.63
   2   7   6   27.27    2.22
  -2   7  -6   30.79    2.79
   2   7   6   24.39    2.67
   2   7   6   29.15    2.18
  -2   7  -6   24.15    2.78
  -3  -7  -6   82.24    6.69
  -3  -7  -6   81.93    6.33
   3  -7   6   76.15    6.39
   3  -7   6   85.04    6.61
  -3   7  -6   91.74    6.81
  -3   7  -6   83.71    6.75
   3   7   6   77.69    6.67
   3   7   6   87.76    6.34
   3   7   6   85.13    6.26
  -4  -7  -6    0.82    1.16
   4  -7   6    0.81    1.28
   4  -7   6    2.57    0.76
  -4   7  -6    2.49    1.43
  -4   7  -6    2.88    1.50
   4   7   6    2.17    1.27
   4   7   6    2.71    0.74
   5  -7   6   42.54    3.53
   5  -7   6   40.94    3.83
  -5  -7  -6   42.15    4.69
  -5   7  -6   42.85    4.06
   5   7   6   33.75    3.98
  -5   7  -6   34.83    3.83
  -6  -7  -6   19.91    3.09
   6  -7   6   15.23    2.00
   6  -7   6   15.26    2.70
  -6   7  -6   19.84    3.06
   6   7   6   15.19    3.05
  -9  -8   6    7.39    2.35
   9  -8  -6   10.86    1.66
   9  -8  -6   12.72    2.19
   9   8  -6   12.88    2.11
  -9   8   6   16.69    3.25
   8  -8  -6   44.44    3.67
   8  -8  -6   48.14    3.96
  -8  -8   6   43.77    4.48
   8   8  -6   45.16    4.28
  -8   8   6   42.47    4.70
  -7  -8   6    2.21    0.75
  -7  -8   6    0.56    1.23
   7  -8  -6    0.78    0.77
   7  -8  -6    0.60    0.95
   7   8  -6    0.34    1.24
  -7   8   6    1.30    1.63
  -6  -8   6   73.79    5.50
   6  -8  -6   68.36    5.47
  -6  -8   6   67.97    5.85
   6  -8  -6   72.56    5.64
  -6   8   6   73.52    6.02
   6   8  -6   71.02    5.83
  -5  -8   6   22.49    2.08
   5  -8  -6   21.36    1.97
   5  -8  -6   22.16    2.19
  -5  -8   6   21.19    2.29
   5   8  -6   22.55    2.55
  -5   8   6   24.72    2.63
  -4  -8   6   51.28    4.00
   4  -8  -6   49.96    3.82
  -4  -8   6   53.66    4.04
   4  -8  -6   50.84    3.96
   4   8  -6   45.06    4.16
  -4   8   6   45.44    4.17
   4   8  -6   45.25    4.10
  -3  -8   6  108.22    7.95
  -3  -8   6  106.94    7.93
   3  -8  -6  107.14    7.91
   3  -8  -6  107.30    7.82
   3   8  -6   95.88    8.05
   3   8  -6   99.52    7.99
  -3   8   6  102.80    8.07
  -2  -8   6    6.85    1.21
   2  -8  -6    6.88    0.90
  -2  -8   6    7.62    1.10
   2  -8  -6    8.66    1.21
   2   8  -6    5.43    1.26
  -2   8   6    5.89    1.21
   2   8  -6    7.93    1.45
   1  -8  -6  144.64   10.53
  -1  -8   6  141.84   10.66
  -1  -8   6  148.97   10.61
   1  -8  -6  147.12   10.61
   1   8  -6  140.76   10.70
  -1   8   6  139.07   10.78
   1   8  -6  126.60   10.75
   0  -8   6   29.14    2.57
   0  -8   6   24.37    2.45
   0  -8  -6   30.83    2.47
   0  -8  -6   28.33    2.25
   0  -8  -6   26.87    2.72
   0   8   6   27.17    2.72
   0   8  -6   25.92    2.66
   0   8  -6   26.98    2.82
   0   8   6   29.17    2.73
  -1  -8  -6   71.29    5.10
  -1  -8  -6   72.90    5.23
  -1  -8  -6   69.55    5.50
   1  -8   6   75.24    5.39
   1  -8   6   65.52    5.24
   1   8   6   60.25    5.08
  -1   8  -6   58.37    5.47
   1   8   6   67.61    5.50
   1   8   6   61.08    5.43
  -1   8  -6   67.94    5.44
   2  -8   6   52.70    4.76
   2  -8   6   64.73    5.02
  -2  -8  -6   62.84    4.65
  -2  -8  -6   63.12    5.10
  -2   8  -6   62.55    5.15
   2   8   6   65.59    4.65
   2   8   6   54.71    5.08
  -2   8  -6   52.91    5.05
   2   8   6   59.79    4.63
   2   8   6   64.27    5.15
  -3  -8  -6    4.56    1.36
  -3  -8  -6    2.54    0.94
   3  -8   6    2.99    0.87
   3  -8   6    2.56    1.28
   3   8   6    3.08    0.60
   3   8   6    1.87    1.32
  -3   8  -6    3.16    1.46
  -3   8  -6    2.70    1.58
  -4  -8  -6   44.56    4.38
   4  -8   6   45.58    4.05
   4  -8   6   43.44    3.59
   4   8   6   37.75    4.25
  -4   8  -6   42.51    4.33
  -4   8  -6   43.37    4.18
   5  -8   6   10.88    1.63
   5  -8   6   13.02    1.90
  -5  -8  -6   12.01    2.12
  -5   8  -6    7.40    2.99
  -5   8  -6    9.41    2.08
   5   8   6    7.02    1.93
   6  -8   6   19.79    2.99
   6  -8   6   18.99    2.18
  -6  -8  -6   23.50    3.48
   6   8   6   14.93    3.34
   9  -9  -6   27.65    2.69
  -9  -9   6   27.54    4.09
  -9   9   6   28.55    4.15
  -8  -9   6    1.81    1.78
   8  -9  -6    4.22    1.27
   8  -9  -6    2.81    0.90
   8   9  -6    2.63    1.66
  -8   9   6    3.31    2.05
  -7  -9   6   64.46    5.70
   7  -9  -6   62.53    5.33
   7  -9  -6   66.18    5.10
   7   9  -6   66.20    5.66
  -7   9   6   65.06    5.95
   6  -9  -6   10.10    1.84
  -6  -9   6   10.67    1.46
  -6  -9   6   10.17    2.09
   6  -9  -6   10.18    1.35
   6   9  -6    8.94    1.79
  -6   9   6   13.90    2.69
  -5  -9   6   38.71    3.16
   5  -9  -6   38.92    3.31
   5  -9  -6   33.70    3.13
  -5  -9   6   40.44    3.50
  -5   9   6   36.46    3.83
   5   9  -6   36.34    4.15
  -4  -9   6   50.12    4.05
   4  -9  -6   47.98    3.75
   4  -9  -6   45.75    3.93
  -4  -9   6   50.84    3.88
   4   9  -6   42.93    4.22
   4   9  -6   45.84    4.17
  -4   9   6   47.98    4.27
  -3  -9   6    3.47    0.99
   3  -9  -6    2.69    0.64
  -3  -9   6    3.70    0.87
   3  -9  -6    4.28    0.94
  -3   9   6    5.08    1.33
   3   9  -6    5.21    1.18
   3   9  -6    4.75    1.31
   2  -9  -6   53.42    4.08
  -2  -9   6   54.14    4.26
   2  -9  -6   55.34    4.24
   2   9  -6   45.19    4.52
   2   9  -6   52.81    4.52
  -2   9   6   53.40    4.50
   1  -9  -6    5.04    0.75
   1  -9  -6    5.50    1.01
  -1  -9   6    5.58    0.98
  -1  -9   6    3.66    0.92
  -1   9   6    5.01    1.25
   1   9  -6    4.31    1.35
   1   9  -6    5.39    1.33
   0  -9  -6   40.89    3.57
   0  -9   6   37.72    3.16
   0  -9  -6   40.96    2.95
   0  -9  -6   43.56    3.17
   0   9   6   31.98    3.45
   0   9   6   31.07    3.45
   0   9  -6   31.05    3.38
  -1  -9  -6   26.35    2.24
  -1  -9  -6   25.71    2.98
   1  -9   6   28.08    2.81
  -1  -9  -6   25.91    2.53
   1   9   6   25.90    3.04
   1   9   6   25.19    2.28
  -1   9  -6   32.17    3.05
  -1   9  -6   27.17    3.04
   1   9   6   27.69    3.06
   2  -9   6   12.31    1.57
  -2  -9  -6   11.37    1.25
   2  -9   6   13.20    2.18
  -2  -9  -6   10.63    2.42
  -2   9  -6    9.27    1.76
   2   9   6    7.91    1.74
  -2   9  -6   12.21    2.52
   2   9   6    7.51    2.00
   3  -9   6   39.28    3.37
  -3  -9  -6   39.26    3.98
  -3   9  -6   44.36    4.19
   3   9   6   44.83    4.60
   3   9   6   29.68    4.66
  -3   9  -6   35.84    4.01
  -4  -9  -6    2.07    1.70
   4  -9   6    2.81    0.99
   4  -9   6    4.27    1.59
   4   9   6    3.41    1.70
  -4   9  -6    4.17    2.04
   5  -9   6   27.69    3.42
   5  -9   6   26.39    2.70
  -5  -9  -6   31.75    3.92
   5   9   6   21.91    4.64
   7 -10  -6    2.22    0.87
  -7 -10   6    1.62    1.73
   7 -10  -6    2.01    1.32
  -7  10   6    1.78    2.07
   7  10  -6    2.50    1.82
   6 -10  -6   42.23    3.70
  -6 -10   6   45.55    4.42
  -6 -10   6   45.10    3.78
   6 -10  -6   43.59    4.03
   6  10  -6   47.35    4.54
  -6  10   6   50.27    4.78
  -5 -10   6   19.37    2.05
  -5 -10   6   21.54    2.74
   5 -10  -6   20.67    2.33
   5 -10  -6   19.49    1.86
  -5  10   6   16.88    3.00
   5  10  -6   14.27    2.79
   5  10  -6   13.91    2.83
  -4 -10   6   19.75    2.22
  -4 -10   6   23.82    2.64
   4 -10  -6   21.56    2.03
   4 -10  -6   21.28    2.41
   4  10  -6   21.17    2.78
  -4  10   6   23.28    3.00
   4  10  -6   22.60    2.94
   3 -10  -6   47.60    3.65
   3 -10  -6   47.27    3.88
  -3 -10   6   49.60    4.09
  -3 -10   6   43.35    4.11
  -3  10   6   44.38    4.25
   3  10  -6   44.60    4.13
   3  10  -6   40.03    4.40
   2 -10  -6    1.73    0.99
  -2 -10   6    1.19    1.24
   2  10  -6    1.22    1.45
  -2  10   6    0.81    1.54
   2  10  -6    0.06    1.26
   1 -10  -6   30.45    2.46
  -1 -10   6   25.32    2.71
   1 -10  -6   29.73    2.72
   1  10  -6   31.29    3.14
  -1  10   6   30.97    3.65
   1  10  -6   27.50    3.25
   0 -10  -6   16.98    1.64
   0 -10   6   15.33    1.98
   0  10   6   19.30    2.60
   0  10  -6   14.70    2.70
   0  10  -6   19.76    2.63
  -1 -10  -6    8.02    1.85
   1 -10   6    6.96    1.25
  -1 -10  -6    8.12    1.17
   1 -10   6    7.90    1.57
   1  10   6   12.36    2.42
  -1  10  -6   11.89    2.54
  -1  10  -6   11.71    1.90
   1  10   6   11.03    2.26
   2 -10   6   26.90    2.86
  -2 -10  -6   28.94    3.59
  -2 -10  -6   28.45    2.62
   2 -10   6   35.67    3.43
   2  10   6   33.36    3.84
  -2  10  -6   28.91    3.56
  -2  10  -6   35.40    3.73
   2  10   6   37.18    3.72
   3 -10   6    4.59    1.67
   3 -10   6    1.28    0.99
  -3 -10  -6    1.13    1.72
   3  10   6   -0.36    1.80
   3  10   6    1.04    1.74
   4 -10   6   36.72    3.74
   4 -10   6   26.89    2.80
  -4 -10  -6   28.29    3.85
   4  10   6   23.36    3.95
   4  10   6   27.90    4.03
   6 -11  -6    0.88    0.86
   6 -11  -6   -0.44    1.33
  -6 -11   6    0.05    1.94
  -6  11   6    3.71    2.18
   6  11  -6    2.00    2.22
   6  11  -6    1.35    1.95
  -5 -11   6   29.87    2.80
   5 -11  -6   26.52    2.61
  -5 -11   6   31.57    3.49
   5 -11  -6   28.75    3.18
   5  11  -6   28.45    3.81
  -5  11   6   31.40    3.97
   5  11  -6   28.16    3.74
   4 -11  -6   12.06    2.34
  -4 -11   6   15.27    2.08
  -4 -11   6   19.01    2.76
   4 -11  -6   15.50    1.74
  -4  11   6   18.50    3.08
   4  11  -6   13.00    2.93
   4  11  -6   16.19    3.16
  -3 -11   6    5.24    1.22
   3 -11  -6    4.87    0.91
   3 -11  -6    4.56    1.35
   3  11  -6    7.10    1.95
  -3  11   6    7.03    1.89
  -2 -11   6   26.30    2.73
   2 -11  -6   25.48    2.79
   2 -11  -6   25.27    2.40
   2  11  -6   25.18    3.52
   2  11  -6   29.93    3.38
  -2  11   6   31.94    3.50
  -1 -11   6    2.36    1.04
   1 -11  -6    0.86    0.68
   1  11  -6    0.48    1.56
   1  11  -6    2.03    1.78
  -1  11   6    1.30    1.59
   0 -11   6   19.45    2.49
   0 -11  -6   21.69    2.14
   0  11   6   28.75    3.27
   0  11  -6   28.67    3.47
  -1 -11  -6   16.23    3.06
   1 -11   6   15.12    2.11
  -1 -11  -6   14.48    1.69
   1  11   6   21.18    3.14
   2 -11   6    5.12    1.27
  -2 -11  -6    4.01    2.00
  -2  11  -6    2.75    2.46
   2  11   6    7.41    2.91
   2  11   6    7.04    2.10
  -3 -12   6   27.02    2.86
   3 -12  -6   29.32    2.53
   3  12  -6   22.36    4.03
  -3  12   6   26.22    3.85
   3  12  -6   26.75    3.87
   2 -12  -6    4.84    1.01
  -2 -12   6    5.23    1.34
   2  12  -6    4.68    2.02
   2  12  -6    4.01    2.09
  -2  12   6    5.54    2.11
  -1 -12   6   39.55    3.53
   1 -12  -6   38.61    3.15
   1  12  -6   36.53    4.23
  -1  12   6   33.59    4.24
  12   0  -7   45.05    4.45
 -12   0   7   60.77    4.62
 -11   0   7   12.56    1.73
  11   0  -7    9.39    1.63
  10   0  -7   40.89    3.56
  10   0  -7   43.08    3.48
  -9   0   7  112.56    7.68
   9   0  -7   85.15    7.74
   8   0  -7    4.26    0.75
  -8   0   7    5.02    1.02
  -8   0   7    5.22    0.60
   8   0  -7    4.12    0.79
  -7   0   7  208.95   13.57
  -7   0   7  196.11   13.71
   7   0  -7  167.33   13.64
   7   0  -7  161.06   13.68
  -6   0   7   92.16    6.62
  -6   0   7   92.90    6.51
   6   0  -7   82.86    6.63
   6   0  -7   80.60    6.59
   5   0  -7   58.99    4.80
  -5   0   7   66.81    4.74
   5   0  -7   54.88    4.96
  -5   0   7   65.87    4.67
  -4   0   7  144.79   10.00
   4   0  -7  135.08   10.10
  -4   0   7  126.83    9.99
   4   0  -7  130.90   10.05
   3   0  -7   14.44    1.53
   3   0  -7   16.29    1.42
  -2   0   7  120.85    8.85
   2   0  -7  116.77    9.04
   2   0  -7  119.28    8.91
   1   0  -7  110.13    8.01
  -1   0   7   98.67    7.82
   0   0  -7   12.93    1.63
   0   0   7   10.26    1.14
   0   0   7   11.87    1.10
   1   0   7  126.26    9.54
  -1   0  -7  129.51    9.81
  -2   0  -7    2.76    0.47
  -2   0  -7    3.70    0.98
   3   0   7   80.13    6.18
  -3   0  -7   82.84    6.14
   3   0   7   78.24    6.09
  -3   0  -7   82.61    6.49
  -4   0  -7   19.02    2.41
   4   0   7   18.28    1.56
  -4   0  -7   17.70    1.76
   4   0   7   16.31    1.81
  -5   0  -7   23.71    2.84
   5   0   7   19.78    2.25
   5   0   7   21.12    2.00
  -5   0  -7   26.31    2.26
   6   0   7   29.06    2.95
  -6   0  -7   32.90    2.97
   7   0   7    5.78    1.31
  -7   0  -7    5.29    1.81
  -7   0  -7    5.12    1.26
   8   0   7   36.14    3.65
  -8   0  -7   34.17    4.14
   8   0   7   40.57    4.14
  12  -1  -7    7.34    1.37
 -12  -1   7    7.96    1.51
 -12   1   7    9.61    1.70
  11  -1  -7   37.75    3.42
  11   1  -7   33.61    3.46
 -11   1   7   46.06    3.43
  11   1  -7   32.51    3.23
 -10  -1   7   55.84    4.28
  10  -1  -7   45.28    4.09
  10   1  -7   43.55    4.04
 -10   1   7   61.93    4.27
  10   1  -7   46.56    4.19
   9  -1  -7   16.88    1.91
  -9  -1   7   19.61    2.06
  -9  -1   7   21.78    1.72
  -9   1   7   24.16    1.65
   9   1  -7   18.25    1.87
   9   1  -7   16.65    2.02
  -9   1   7   24.11    2.10
   8  -1  -7   97.41    8.45
  -8  -1   7  120.86    8.38
  -8  -1   7  118.31    8.58
   8   1  -7  100.16    8.49
  -8   1   7  124.79    8.59
   8   1  -7  103.72    8.45
  -8   1   7  120.47    8.34
   7   1  -7    6.05    0.99
  -7   1   7    6.91    0.67
  -7   1   7    7.54    1.24
   6  -1  -7  130.16   10.34
   6  -1  -7  125.53   10.32
  -6  -1   7  135.68   10.27
  -6  -1   7  133.93   10.36
   6   1  -7  141.45   10.38
  -6   1   7  150.09   10.44
  -6   1   7  150.41   10.24
  -5  -1   7  107.93    8.16
   5  -1  -7  118.82    8.22
  -5  -1   7  106.85    8.20
   5  -1  -7  118.29    8.26
  -5   1   7  100.00    8.23
  -5   1   7  112.40    8.11
   5   1  -7  103.80    8.20
   5   1  -7  105.48    8.56
   4  -1  -7   26.60    2.54
   4  -1  -7   29.36    2.60
  -4   1   7   30.01    2.56
  -4   1   7   34.97    2.44
   4   1  -7   34.97    2.65
   4   1  -7   33.16    2.55
   3  -1  -7  232.31   17.35
   3  -1  -7  224.79   17.47
   3   1  -7  249.09   17.50
   3   1  -7  233.76   17.40
   2  -1  -7   45.37    3.27
  -2  -1   7   42.46    3.03
   2   1  -7   32.50    3.07
   2   1  -7   37.11    3.21
   1  -1  -7  104.54    8.09
  -1  -1   7   99.79    8.09
   1  -1  -7  111.84    7.95
   1   1  -7  112.92    8.15
  -1   1   7   90.59    7.89
  -1   1   7  113.62    7.88
   0  -1   7  149.35   10.24
   0  -1   7  134.89   10.19
   0  -1  -7  139.05   10.24
   0  -1  -7  135.42   10.43
   0   1   7  135.10   10.17
   0   1   7  128.99   10.16
   0   1  -7  135.77   10.39
   1  -1   7   14.46    1.29
   1  -1   7   13.03    1.31
  -1  -1  -7   13.69    1.79
  -1  -1  -7   14.49    1.18
   1   1   7   13.32    1.28
   1   1   7   13.73    1.18
  -1   1  -7   10.95    1.77
   2  -1   7  147.16   10.32
  -2  -1  -7  147.99   10.47
   2  -1   7  136.18   10.35
  -2  -1  -7  135.39   10.59
   2   1   7  130.61   10.32
  -2   1  -7  130.77   10.28
  -2   1  -7  132.66   10.59
   2   1   7  147.04   10.29
   3  -1   7    5.02    0.86
  -3  -1  -7    4.68    1.22
  -3  -1  -7    6.32    0.91
   3  -1   7    5.26    0.82
   3   1   7    6.53    0.72
   3   1   7    6.97    1.04
  -3   1  -7    7.03    1.26
  -3   1  -7    6.40    0.81
  -4  -1  -7   72.47    5.25
  -4  -1  -7   70.91    5.59
   4  -1   7   65.45    5.23
   4  -1   7   71.87    5.09
  -4   1  -7   63.27    5.55
   4   1   7   60.34    5.18
   4   1   7   63.94    5.04
  -5  -1  -7   47.86    4.47
   5  -1   7   46.18    3.99
  -5  -1  -7   48.17    4.00
   5  -1   7   48.49    3.73
  -5   1  -7   50.23    3.93
  -5   1  -7   49.71    4.37
   5   1   7   46.76    3.93
  -6  -1  -7   19.84    2.15
  -6  -1  -7   15.17    2.74
  -6   1  -7   17.26    1.96
   6   1   7   15.00    2.05
  -7  -1  -7   38.15    4.18
   7  -1   7   37.67    3.66
  -7  -1  -7   43.78    3.74
  -7   1  -7   42.68    3.62
  -7   1  -7   39.21    4.15
   7   1   7   35.39    3.60
   7   1   7   41.65    4.17
   8  -1   7   -0.16    1.48
  -8  -1  -7   -0.81    1.68
   8  -1   7   -0.88    1.31
  -8   1  -7   -0.51    1.72
   8   1   7   -0.02    1.20
   8   1   7    2.30    1.68
 -12  -2   7   33.98    3.32
  12  -2  -7   29.47    3.13
 -12   2   7   36.55    3.13
  12   2  -7   26.86    3.48
  11  -2  -7   28.45    2.86
 -11  -2   7   35.28    3.11
  11   2  -7   27.81    3.12
  10  -2  -7   15.13    1.93
 -10  -2   7   18.79    2.19
 -10   2   7   20.60    2.78
 -10   2   7   21.77    1.54
  10   2  -7   16.95    2.16
  10   2  -7   16.35    1.89
   9  -2  -7   53.09    4.43
  -9  -2   7   58.51    4.30
  -9  -2   7   57.76    4.64
   9   2  -7   52.93    4.53
   9   2  -7   53.53    4.40
  -9   2   7   59.03    4.22
  -8  -2   7    0.06    0.70
   8  -2  -7    0.19    0.63
   8  -2  -7    0.64    0.54
  -8  -2   7    0.30    0.41
   8   2  -7   -0.07    0.63
  -8   2   7    0.59    0.78
   8   2  -7    0.11    0.58
  -8   2   7    0.21    0.22
   7  -2  -7   70.60    5.69
  -7  -2   7   69.83    5.83
   7  -2  -7   63.85    5.72
  -7  -2   7   67.11    5.65
  -7   2   7   88.79    6.13
  -7   2   7   87.57    5.59
  -6  -2   7   21.71    2.00
   6  -2  -7   28.87    2.15
  -6  -2   7   25.30    2.15
   6   2  -7   22.33    2.05
  -6   2   7   23.42    1.87
   6   2  -7   25.00    2.17
  -6   2   7   21.52    2.34
   5  -2  -7   57.38    4.72
   5  -2  -7   54.49    4.75
  -5  -2   7   56.82    4.74
  -5   2   7   62.26    4.86
  -5   2   7   76.37    4.65
   4  -2  -7  113.03    7.87
   4  -2  -7  112.85    7.91
   4  -2  -7  100.14    7.95
   4   2  -7  105.68    7.94
  -4   2   7   95.77    7.76
   4   2  -7  100.37    7.85
  -3  -2   7   10.75    1.32
  -3  -2   7   13.09    1.18
   3  -2  -7   14.64    1.31
   3  -2  -7   12.71    1.45
   3  -2  -7   12.47    1.37
   3   2  -7   14.72    1.30
  -3   2   7   14.52    1.13
   3   2  -7   14.09    1.50
  -3   2   7   13.51    1.26
  -2  -2   7  172.67   12.34
  -2  -2   7  171.63   12.25
   2  -2  -7  150.91   12.39
   2  -2  -7  179.79   12.31
   2   2  -7  157.09   12.29
   2   2  -7  172.57   12.40
  -2   2   7  156.59   12.21
  -2   2   7  160.34   12.22
  -1   2   7   15.68    1.36
  -1   2   7   15.64    1.41
   1   2  -7   15.92    1.69
   0  -2   7   83.79    5.68
   0  -2   7   77.65    5.64
   0  -2  -7   74.61    5.57
   0  -2  -7   78.81    5.67
   0  -2  -7   69.54    5.85
   0   2  -7   70.50    5.82
   0   2   7   70.59    5.56
   0   2   7   69.59    5.59
  -1  -2  -7  104.51    7.95
   1  -2   7  110.55    7.73
  -1  -2  -7  106.45    7.68
   1  -2   7  117.67    7.73
   1   2   7   88.37    7.65
   1   2   7   95.85    7.66
  -1   2  -7   94.44    7.91
   2  -2   7    1.57    0.62
   2  -2   7    1.31    0.48
  -2  -2  -7    1.01    0.91
  -2  -2  -7    1.93    0.45
   2   2   7    2.04    0.35
  -2   2  -7    1.61    0.34
  -2   2  -7    0.88    0.95
   2   2   7    1.97    0.54
   3  -2   7  108.51    8.28
  -3  -2  -7  101.60    8.31
   3  -2   7  111.61    8.19
  -3  -2  -7  108.62    8.53
  -3   2  -7  111.75    8.52
   3   2   7  112.24    8.22
   3   2   7  119.91    8.13
  -3   2  -7   99.97    8.16
   4  -2   7   26.26    2.16
  -4  -2  -7   24.67    2.87
   4  -2   7   23.91    2.43
  -4  -2  -7   24.91    2.37
  -4   2  -7   26.19    2.21
   4   2   7   26.06    2.29
  -4   2  -7   26.36    2.78
   4   2   7   26.93    2.05
  -5  -2  -7   43.52    3.69
   5  -2   7   41.71    3.70
  -5  -2  -7   43.80    4.14
   5  -2   7   45.63    3.40
  -5   2  -7   43.21    3.52
   5   2   7   40.63    3.56
  -5   2  -7   43.81    4.01
   6  -2   7   56.99    4.97
  -6  -2  -7   55.53    5.35
  -6  -2  -7   61.15    5.02
  -6   2  -7   61.32    6.20
  -6   2  -7   59.85    4.94
   6   2   7   59.90    4.87
   6   2   7   68.43    5.39
   7  -2   7   -0.13    1.20
  -7  -2  -7    1.55    1.64
  -7  -2  -7    0.79    1.16
  -7   2  -7    1.86    1.57
   7   2   7    0.25    1.06
   7   2   7    0.11    1.58
  12  -3  -7    7.84    1.47
 -12  -3   7    9.60    2.14
  12   3  -7    6.35    1.81
 -12   3   7   10.65    1.91
 -11  -3   7   36.04    3.40
  11  -3  -7   32.66    3.11
 -11   3   7   38.68    3.35
  11   3  -7   26.49    3.38
 -10  -3   7   53.31    4.60
  10  -3  -7   49.34    4.42
  10  -3  -7   50.76    4.37
  10   3  -7   51.84    4.51
 -10   3   7   58.41    4.04
  -9  -3   7    2.86    1.02
   9  -3  -7    2.14    0.82
   9  -3  -7    2.94    0.80
  -9  -3   7    2.06    0.60
  -9   3   7    2.62    0.42
  -9   3   7    3.67    1.18
   9   3  -7    2.54    0.79
   9   3  -7    2.35    0.94
   8  -3  -7  119.85    9.17
  -8  -3   7  116.23    9.37
  -8  -3   7  104.59    9.05
   8  -3  -7  124.25    9.16
  -8   3   7  131.53    9.44
   8   3  -7  117.89    9.25
   8   3  -7  128.54    9.25
  -8   3   7  125.58    9.00
   7  -3  -7   29.04    2.36
   7  -3  -7   30.59    2.34
  -7  -3   7   22.70    2.53
   7   3  -7   26.35    2.33
   7   3  -7   28.79    2.48
  -7   3   7   26.18    2.14
  -7   3   7   27.48    2.80
   6  -3  -7  116.81    8.47
   6  -3  -7  108.63    8.47
  -6  -3   7  123.56    9.14
   6   3  -7  120.38    8.55
   6   3  -7  103.49    8.45
  -6   3   7  110.80    8.36
  -6   3   7  104.68    8.66
   5  -3  -7   74.83    5.45
   5  -3  -7   67.33    5.44
  -5  -3   7   79.41    5.47
  -5   3   7   63.20    5.33
   5   3  -7   78.03    5.55
   5   3  -7   70.13    5.43
  -5   3   7   64.94    5.72
   4  -3  -7   43.46    3.41
   4  -3  -7   40.68    3.42
  -4  -3   7   39.18    3.48
  -4  -3   7   46.20    3.34
  -4  -3   7   47.56    3.34
  -4   3   7   44.11    3.47
   4   3  -7   41.83    3.40
  -4   3   7   39.21    3.30
   4   3  -7   47.65    3.56
  -3  -3   7  141.25   11.64
  -3  -3   7  166.28   11.55
   3  -3  -7  152.13   11.64
   3  -3  -7  152.25   11.60
   3   3  -7  169.41   11.70
  -3   3   7  164.72   11.59
  -3   3   7  142.09   11.51
   2  -3  -7    1.68    0.53
   2  -3  -7    1.71    0.49
  -2  -3   7    1.75    0.58
   2  -3  -7    2.07    0.66
  -2  -3   7    2.12    0.45
   2   3  -7    0.96    0.66
  -1  -3   7  109.38    8.77
  -1  -3   7  116.37    8.77
   1  -3  -7  129.61    8.78
   1  -3  -7  116.69    8.76
   1   3  -7  121.15    8.87
  -1   3   7  105.59    8.67
   0  -3   7   45.73    3.50
   0  -3  -7   38.74    3.71
   0  -3  -7   43.34    3.43
   0  -3  -7   47.06    3.51
   0  -3   7   46.33    3.52
   0   3  -7   50.44    3.72
   0   3   7   39.56    3.36
  -1  -3  -7   27.99    2.82
   1  -3   7   33.39    2.54
  -1  -3  -7   34.10    2.45
   1  -3   7   32.99    2.50
  -1   3  -7   27.92    2.78
   1   3   7   25.92    2.33
   1   3   7   28.92    2.41
   2  -3   7  102.26    7.21
  -2  -3  -7   92.33    7.48
  -2  -3  -7  101.46    7.24
   2  -3   7   99.99    7.27
   2   3   7   93.35    7.17
  -2   3  -7   86.28    7.16
  -2   3  -7   92.33    7.46
   3  -3   7    2.91    0.61
  -3  -3  -7    2.69    0.72
  -3  -3  -7    2.88    1.13
   3  -3   7    2.75    0.82
   4  -3   7   60.82    4.29
  -4  -3  -7   55.49    4.82
  -4  -3  -7   58.51    4.47
   4  -3   7   57.67    4.48
   4   3   7   43.48    4.30
  -5  -3  -7   41.00    3.51
   5  -3   7   36.78    3.67
  -5  -3  -7   38.35    3.90
   5  -3   7   38.76    3.18
   5   3   7   37.53    3.36
  -5   3  -7   43.58    3.97
   5   3   7   44.95    3.86
  -5   3  -7   37.93    3.25
   6  -3   7    7.29    1.38
  -6  -3  -7    7.10    1.37
  -6  -3  -7    6.12    1.73
  -6   3  -7    6.16    1.18
   6   3   7    4.80    1.60
   6   3   7    5.26    1.13
  -7  -3  -7   61.67    5.18
   7  -3   7   53.45    4.75
  -7  -3  -7   55.83    5.12
   7   3   7   45.53    4.55
   7   3   7   52.64    5.15
  -7   3  -7   52.12    4.95
  11  -4  -7   32.11    3.17
 -11  -4   7   31.54    3.50
  11   4  -7   36.67    3.57
  10  -4  -7   17.95    2.30
  10  -4  -7   20.38    2.23
 -10  -4   7   17.70    3.56
 -10   4   7   23.42    1.76
   9  -4  -7   82.20    6.64
   9  -4  -7   80.51    6.62
  -9  -4   7   76.85    6.89
  -9   4   7   89.48    6.43
   9   4  -7   91.46    6.81
  -9   4   7   92.92    7.03
   8  -4  -7    1.47    0.67
   8  -4  -7    1.78    0.70
  -8  -4   7    1.42    0.99
  -8  -4   7    2.26    0.64
   8   4  -7    1.53    0.88
  -8   4   7    2.80    0.43
  -8   4   7    2.79    1.32
   7  -4  -7  115.26    8.80
  -7  -4   7  110.66    9.01
  -7  -4   7  101.70    8.79
   7  -4  -7  119.66    8.84
   7   4  -7  130.10    8.95
  -7   4   7  121.10    8.71
  -7   4   7  119.67    9.17
   6  -4  -7   35.06    3.05
  -6  -4   7   32.71    3.09
  -6  -4   7   37.07    2.97
   6  -4  -7   36.36    3.04
  -6  -4   7   40.24    3.21
  -6   4   7   43.98    2.94
   6   4  -7   39.43    3.07
  -5  -4   7   53.46    4.47
   5  -4  -7   56.46    4.40
  -5  -4   7   62.48    4.42
  -5  -4   7   62.68    4.33
   5  -4  -7   55.67    4.36
  -5   4   7   49.40    4.27
   5   4  -7   57.38    4.52
  -5   4   7   55.39    4.57
   4  -4  -7  128.08    9.84
   4  -4  -7  126.86    9.81
  -4  -4   7  136.85    9.79
  -4  -4   7  121.99    9.91
  -4  -4   7  139.70    9.80
  -4   4   7  134.20    9.76
  -3  -4   7   14.15    1.16
  -3  -4   7   14.37    1.32
   3  -4  -7   13.99    1.36
   3  -4  -7   13.04    1.31
  -3  -4   7   14.37    1.50
   3   4  -7   13.56    1.60
  -3   4   7   13.05    1.34
  -2  -4   7   92.93    7.65
   2  -4  -7   95.68    7.58
   2  -4  -7   97.63    7.59
  -2  -4   7  107.77    7.58
  -2   4   7   94.24    7.51
   2   4  -7  112.51    7.74
  -2   4   7  104.04    7.58
   1  -4  -7   36.58    3.08
   1  -4  -7   34.81    3.08
  -1  -4   7   35.07    3.09
  -1   4   7   41.30    3.04
   1   4  -7   43.56    3.29
  -1   4   7   39.54    2.97
   0  -4   7   43.42    3.08
   0  -4  -7   38.84    2.98
   0  -4  -7   41.91    3.05
   0  -4  -7   33.56    3.24
   0  -4  -7   39.70    3.04
   0  -4   7   39.92    3.06
   0   4  -7   33.20    3.21
   0   4   7   32.26    2.91
   0   4   7   34.93    2.96
   1  -4   7   65.24    5.04
  -1  -4  -7   68.42    5.06
   1  -4   7   69.96    5.10
  -1  -4  -7   65.73    5.06
  -1  -4  -7   59.44    5.25
   1   4   7   55.11    4.89
   1   4   7   70.23    4.97
  -1   4  -7   69.07    5.27
  -2  -4  -7    1.74    0.99
   2  -4   7    2.85    0.82
   2  -4   7    2.70    0.64
  -2  -4  -7    3.00    0.69
  -2   4  -7    1.43    1.04
  -2   4  -7    1.38    0.63
   2   4   7    2.38    0.37
   2   4   7    3.12    0.60
  -3  -4  -7   43.05    3.54
  -3  -4  -7   40.14    3.84
   3  -4   7   43.16    3.57
   3  -4   7   45.79    3.40
  -3   4  -7   37.02    3.81
   3   4   7   43.62    3.60
   4  -4   7   16.59    2.03
   4  -4   7   17.71    1.61
  -4  -4  -7   14.87    2.42
  -4  -4  -7   17.83    1.95
  -4   4  -7   15.93    2.32
  -4   4  -7   13.62    1.61
   4   4   7   15.24    2.25
   4   4   7   16.22    1.67
  -5  -4  -7   18.03    2.09
   5  -4   7   16.83    1.61
  -5   4  -7   13.38    1.64
   5   4   7   14.62    1.75
  -5   4  -7   13.77    2.33
   6  -4   7   49.00    4.44
  -6  -4  -7   49.51    4.75
  -6  -4  -7   51.88    4.45
   6  -4   7   53.07    3.97
   6   4   7   49.65    4.78
   6   4   7   45.53    4.10
   7  -4   7   -2.43    1.30
  -7  -4  -7    1.19    1.39
  -7  -4  -7   -1.45    1.68
   7   4   7   -1.71    1.64
  -7   4  -7    1.43    1.68
   7   4   7   -0.11    1.12
  11  -5  -7   55.13    4.72
  11  -5  -7   52.80    4.60
 -11  -5   7   51.67    5.38
  11   5  -7   49.97    4.93
 -11   5   7   56.78    4.90
 -10  -5   7   58.53    5.34
  10  -5  -7   64.63    4.99
  10  -5  -7   66.66    4.94
 -10   5   7   60.95    5.36
  10   5  -7   57.51    5.23
 -10   5   7   54.98    4.60
  -9  -5   7    7.36    1.62
   9  -5  -7   10.88    1.65
   9  -5  -7   10.15    1.44
  -9   5   7    8.42    0.94
   9   5  -7    8.43    1.73
  -9   5   7    7.75    1.83
  -8  -5   7   88.53    7.60
  -8  -5   7  102.33    7.24
   8  -5  -7  105.15    7.38
   8  -5  -7   98.78    7.28
   8   5  -7   92.57    7.47
  -8   5   7   85.63    7.71
   7  -5  -7   21.44    1.89
  -7  -5   7   21.26    2.23
  -7  -5   7   20.22    1.93
   7  -5  -7   19.97    1.98
  -7   5   7   19.18    2.65
   7   5  -7   22.05    2.25
  -6  -5   7   61.41    4.62
  -6  -5   7   63.66    4.73
   6  -5  -7   61.22    4.54
   6  -5  -7   59.24    4.60
  -6   5   7   52.31    4.88
   6   5  -7   54.17    4.72
   5  -5  -7   81.11    5.96
  -5  -5   7   79.60    6.08
   5  -5  -7   81.53    6.03
   5   5  -7   74.39    6.13
  -5   5   7   76.37    6.19
  -4  -5   7   14.10    1.43
  -4  -5   7   14.39    1.33
   4  -5  -7   12.76    1.42
   4  -5  -7   14.55    1.32
  -4  -5   7   15.63    1.61
  -3  -5   7  118.40    8.47
   3  -5  -7  114.09    8.50
  -3  -5   7  111.44    8.62
  -3  -5   7  122.04    8.53
   3  -5  -7  112.18    8.55
   3   5  -7  108.06    8.49
   3   5  -7  111.96    8.66
  -3   5   7  109.72    8.58
  -2  -5   7    6.78    1.22
  -2   5   7   10.32    1.20
  -2   5   7    9.50    0.91
   2   5  -7    9.44    0.99
   2   5  -7   11.07    1.47
  -1  -5   7   94.63    6.22
   1  -5  -7   85.97    6.14
   1  -5  -7   87.12    6.17
  -1  -5   7   80.97    6.22
   1  -5  -7   82.69    6.34
  -1   5   7   71.91    6.15
   1   5  -7   80.67    6.32
  -1   5   7   69.12    6.05
   1   5  -7   75.84    6.08
   0  -5  -7   31.25    2.65
   0  -5  -7   29.37    2.63
   0  -5   7   26.67    2.64
   0  -5  -7   31.13    2.60
   0  -5   7   28.85    2.72
   0  -5  -7   27.38    2.91
   0   5   7   35.75    2.69
   0   5  -7   35.16    2.77
   0   5   7   30.30    2.48
   0   5  -7   36.56    2.94
   0   5   7   33.58    2.53
  -1  -5  -7    7.66    1.16
   1  -5   7    8.32    1.11
  -1  -5  -7    7.39    1.09
  -1  -5  -7    6.39    1.19
   1  -5   7    9.45    1.40
  -1  -5  -7    6.82    1.27
   1   5   7    5.99    0.92
   1   5   7    5.89    0.75
   2  -5   7   67.02    5.06
  -2  -5  -7   54.84    5.20
   2  -5   7   62.92    4.92
  -2  -5  -7   63.25    5.00
   2   5   7   69.74    4.85
  -2   5  -7   72.65    5.29
   2   5   7   59.41    4.75
   2   5   7   55.78    5.11
   3  -5   7    6.32    1.19
  -3  -5  -7    5.60    1.36
  -3  -5  -7    6.64    1.41
   3  -5   7    7.20    0.94
  -3   5  -7    4.90    1.09
   3   5   7    6.62    1.09
   3   5   7    5.01    0.65
  -3   5  -7    5.09    1.37
   3   5   7    4.56    1.20
  -4  -5  -7   41.40    3.66
  -4  -5  -7   37.26    3.93
   4  -5   7   43.42    3.70
   4  -5   7   41.34    3.36
   4   5   7   46.59    3.38
  -4   5  -7   42.73    3.90
  -4   5  -7   36.67    3.45
   4   5   7   39.83    3.87
   5  -5   7   23.36    2.72
   5  -5   7   23.05    2.14
  -5  -5  -7   23.43    2.65
  -5  -5  -7   21.39    2.99
  -5   5  -7   24.64    2.82
   5   5   7   19.06    3.03
   5   5   7   24.45    2.27
   6  -5   7    7.77    1.68
   6  -5   7    7.04    1.13
  -6  -5  -7    6.80    1.90
   6   5   7   11.28    1.77
   6   5   7   10.39    1.98
  -6   5  -7   11.55    1.97
   7  -5   7   32.47    3.71
  -7  -5  -7   35.48    3.84
  -7   5  -7   37.79    3.96
   7   5   7   30.81    4.03
  11  -6  -7    8.23    1.62
  11  -6  -7    9.46    1.67
 -11  -6   7    8.51    2.11
 -11   6   7   13.28    2.23
  11   6  -7   10.16    2.10
 -10  -6   7   13.46    2.47
  10  -6  -7   16.30    2.15
  10  -6  -7   16.62    2.00
 -10   6   7   13.72    2.36
 -10   6   7   14.45    1.41
  10   6  -7   14.45    2.66
  -9  -6   7   42.43    4.57
   9  -6  -7   58.79    4.57
   9  -6  -7   57.10    4.05
   9   6  -7   47.14    4.39
  -9   6   7   40.92    4.67
   8  -6  -7    0.96    1.04
   8  -6  -7    1.03    0.65
  -8  -6   7    0.19    1.09
  -8  -6   7    0.36    0.65
  -8   6   7    0.92    1.45
   8   6  -7    0.75    1.07
  -7  -6   7   74.08    5.43
   7  -6  -7   71.53    5.40
  -7  -6   7   73.59    5.73
   7  -6  -7   73.27    5.52
   7   6  -7   57.71    5.61
   6  -6  -7   41.20    3.38
  -6  -6   7   41.20    3.37
  -6  -6   7   46.31    3.53
   6  -6  -7   42.07    3.28
  -6   6   7   33.46    3.70
  -5  -6   7   40.18    3.01
   5  -6  -7   35.05    2.85
  -5  -6   7   36.99    3.01
   5  -6  -7   34.13    2.95
  -5   6   7   33.85    3.19
   5   6  -7   32.62    3.14
   4  -6  -7  121.65    8.64
   4  -6  -7  116.88    8.55
  -4  -6   7  118.59    8.68
  -4  -6   7  120.71    8.56
  -4   6   7  105.79    8.71
   4   6  -7  101.01    8.71
   3  -6  -7    2.91    0.67
  -3  -6   7    3.06    0.70
   3  -6  -7    2.54    0.51
  -3  -6   7    2.31    0.52
  -3  -6   7    1.90    0.74
   3   6  -7    2.77    0.62
   3   6  -7    3.38    0.97
  -3   6   7    2.03    0.77
  -2  -6   7  120.62    9.06
  -2  -6   7  106.07    8.71
   2  -6  -7  113.85    8.66
   2  -6  -7  111.78    8.59
   2   6  -7  120.20    8.62
  -2   6   7  114.13    8.76
   2   6  -7  117.58    8.81
  -1  -6   7   41.33    3.54
   1  -6  -7   49.16    3.52
   1  -6  -7   49.07    3.84
   1  -6  -7   49.59    3.42
  -1  -6   7   43.44    3.62
  -1   6   7   40.31    3.34
   1   6  -7   38.50    3.41
  -1   6   7   42.35    3.55
   1   6  -7   37.95    3.71
   0  -6  -7   48.92    4.29
   0  -6   7   54.01    4.36
   0  -6  -7   46.59    4.15
   0  -6  -7   49.80    4.24
   0  -6  -7   47.12    4.47
   0   6   7   61.94    4.16
   0   6   7   63.88    4.15
   0   6  -7   64.38    4.55
   0   6   7   47.25    4.36
   1  -6   7  101.18    7.74
  -1  -6  -7   96.30    7.62
  -1  -6  -7   91.90    7.84
   1  -6   7   93.98    7.64
  -1  -6  -7   96.81    7.58
  -1  -6  -7   98.69    7.72
   1   6   7  111.71    7.56
  -1   6  -7  105.22    7.85
   1   6   7  106.60    7.52
  -2  -6  -7    3.43    1.25
   2  -6   7    4.19    1.11
   2  -6   7    3.39    0.80
  -2  -6  -7    4.19    0.99
  -2   6  -7    5.90    1.40
   2   6   7    4.13    0.64
   2   6   7    1.88    1.05
   2   6   7    4.07    0.71
  -2   6  -7    3.74    1.25
  -3  -6  -7   63.35    6.01
   3  -6   7   76.29    5.91
  -3  -6  -7   74.64    5.90
   3  -6   7   74.62    5.69
  -3   6  -7   77.90    6.09
   3   6   7   64.42    5.98
   3   6   7   84.45    5.64
   3   6   7   70.68    5.48
  -3   6  -7   71.98    5.92
  -4  -6  -7   19.39    2.35
   4  -6   7   18.38    1.90
  -4  -6  -7   16.25    2.90
  -4   6  -7   18.36    2.58
  -4   6  -7   16.81    2.21
   4   6   7   17.65    3.06
   4   6   7   19.16    1.85
  -5  -6  -7   21.19    2.72
   5  -6   7   24.58    2.85
  -5  -6  -7   16.63    2.97
   5  -6   7   19.00    2.07
   5   6   7   18.20    3.02
  -5   6  -7   23.70    2.89
   5   6   7   22.92    2.14
   6  -6   7   30.13    3.63
   6  -6   7   32.45    2.93
  -6  -6  -7   34.78    3.75
  -6   6  -7   36.32    3.74
   6   6   7   31.78    3.88
 -10  -7   7   13.82    2.60
  10  -7  -7   19.31    2.25
  10  -7  -7   19.25    2.52
 -10   7   7   17.20    3.35
  10   7  -7   19.97    3.04
   9  -7  -7    2.10    0.88
  -9  -7   7    2.55    1.65
   9  -7  -7    2.44    1.07
   9   7  -7    2.39    1.47
  -9   7   7    2.25    1.76
   8  -7  -7   43.77    3.39
  -8  -7   7   39.74    3.79
   8  -7  -7   39.18    3.62
   8   7  -7   34.12    3.61
  -8   7   7   28.88    3.98
  -7  -7   7    2.65    1.24
   7  -7  -7    2.32    0.90
   7  -7  -7    2.29    0.70
  -7  -7   7    2.99    0.79
  -7   7   7    3.55    1.54
   7   7  -7    1.48    1.23
  -6  -7   7   45.90    3.54
  -6  -7   7   45.38    3.70
   6  -7  -7   43.45    3.42
   6  -7  -7   41.66    3.56
   6   7  -7   37.82    3.77
  -6   7   7   41.80    3.96
  -5  -7   7   49.47    3.92
   5  -7  -7   47.39    3.89
  -5  -7   7   49.91    3.94
   5  -7  -7   49.15    3.78
  -5   7   7   46.47    4.14
   5   7  -7   45.08    4.10
   4  -7  -7    7.35    0.94
  -4  -7   7    6.86    1.24
   4  -7  -7    7.17    1.23
  -4  -7   7    9.95    1.36
  -4   7   7    4.76    1.15
   4   7  -7    3.93    1.18
  -3  -7   7   84.66    6.52
  -3  -7   7   88.53    6.42
   3  -7  -7   81.74    6.35
   3  -7  -7   84.27    6.45
  -3  -7   7   91.12    6.40
   3   7  -7   77.46    6.62
   3   7  -7   83.20    6.46
  -3   7   7   80.37    6.55
   2  -7  -7   18.79    1.70
   2  -7  -7   16.56    1.47
  -2  -7   7   15.81    1.80
  -2  -7   7   14.99    2.14
   2   7  -7   17.17    2.29
  -2   7   7   13.44    1.80
   2   7  -7   14.45    2.08
  -1  -7   7   86.40    7.05
   1  -7  -7   90.17    6.99
   1  -7  -7   90.93    6.90
   1  -7  -7  106.53    7.23
   1   7  -7   82.96    7.18
   1   7  -7   97.70    7.25
  -1   7   7   86.56    7.09
   0  -7  -7   90.84    6.72
   0  -7  -7   94.64    6.59
   0  -7   7   79.00    6.61
   0  -7   7   89.03    6.68
   0  -7  -7   96.94    6.86
   0  -7  -7   89.59    6.49
   0   7  -7   75.82    6.79
   0   7  -7   82.58    6.86
   0   7   7   83.56    6.71
   0   7   7   78.81    6.46
   0   7   7   81.80    6.46
   1  -7   7   26.53    2.62
  -1  -7  -7   25.16    2.19
  -1  -7  -7   25.90    2.53
   1  -7   7   22.48    2.33
  -1  -7  -7   24.14    2.79
  -1  -7  -7   23.87    2.36
   1   7   7   26.12    2.11
  -1   7  -7   25.10    2.74
   1   7   7   25.20    2.16
  -1   7  -7   28.43    2.66
   1   7   7   19.97    3.04
   1   7   7   26.85    2.59
  -2  -7  -7   97.60    8.08
   2  -7   7  100.36    7.80
  -2  -7  -7  102.81    7.98
  -2  -7  -7   97.76    7.72
   2  -7   7  106.43    7.96
  -2   7  -7  113.09    8.06
   2   7   7  116.20    8.08
  -2   7  -7   94.79    8.05
   2   7   7  100.69    7.68
   2   7   7   91.48    7.63
  -3  -7  -7    0.49    1.07
  -3  -7  -7    0.99    1.37
   3  -7   7   -0.03    1.25
   3  -7   7    2.00    0.81
  -3   7  -7    0.05    1.32
  -3   7  -7    0.59    1.37
   3   7   7    0.53    0.40
   3   7   7    0.94    0.69
   3   7   7    1.26    1.27
   4  -7   7   63.49    5.38
  -4  -7  -7   63.85    5.40
  -4   7  -7   61.07    5.52
   5  -7   7   20.74    3.08
   5  -7   7   21.36    2.24
  -5  -7  -7   23.39    3.02
   5   7   7   21.15    3.28
   6  -7   7    9.49    1.39
  -6  -7  -7    9.67    2.15
   6  -7   7   11.03    2.00
  -6   7  -7    9.74    2.82
   9  -8  -7   35.08    3.19
   9  -8  -7   37.04    3.55
  -9  -8   7   30.76    4.09
  -9   8   7   37.88    4.32
   9   8  -7   40.54    3.99
   8  -8  -7    0.32    0.74
  -8  -8   7    0.82    1.80
   8  -8  -7    2.54    1.11
  -8   8   7    0.95    1.78
   8   8  -7    0.21    1.44
  -7  -8   7   38.32    3.76
   7  -8  -7   35.58    3.49
   7  -8  -7   37.12    3.26
  -7  -8   7   35.93    3.29
  -7   8   7   44.02    4.19
   7   8  -7   47.67    3.91
  -6  -8   7   24.86    2.36
  -6  -8   7   23.71    2.59
   6  -8  -7   23.33    2.41
  -6   8   7   25.87    3.06
  -5  -8   7   19.84    2.11
   5  -8  -7   17.40    1.83
   5  -8  -7   18.96    2.09
  -5  -8   7   19.53    2.14
   5   8  -7   23.06    2.51
  -5   8   7   22.42    2.54
  -4  -8   7   67.60    5.57
  -4  -8   7   72.13    5.55
   4  -8  -7   68.04    5.55
   4  -8  -7   65.82    5.38
  -4   8   7   76.40    5.76
   4   8  -7   68.39    5.74
   4   8  -7   73.82    5.68
  -3  -8   7    1.09    0.94
   3  -8  -7    0.58    0.75
   3  -8  -7    0.54    0.47
  -3  -8   7    0.62    0.70
   3   8  -7    1.18    1.18
  -3   8   7    1.00    1.02
   3   8  -7    0.26    0.87
   2  -8  -7   86.14    6.86
  -2  -8   7   88.56    7.02
   2  -8  -7   90.09    6.94
  -2  -8   7   96.20    6.94
   2   8  -7   82.83    7.15
   2   8  -7   95.52    7.02
  -2   8   7   92.73    7.11
   1  -8  -7   27.48    2.41
   1  -8  -7   27.94    2.61
  -1  -8   7   27.21    2.70
  -1  -8   7   30.32    2.78
   1   8  -7   29.53    3.06
  -1   8   7   31.31    2.86
   1   8  -7   31.45    2.79
   0  -8   7   48.12    3.73
   0  -8   7   43.36    3.56
   0  -8  -7   42.83    3.75
   0  -8  -7   43.36    3.33
   0  -8  -7   45.81    3.54
   0   8   7   41.23    3.74
   0   8  -7   36.39    3.88
   0   8   7   39.67    3.34
   0   8   7   36.21    3.75
   0   8  -7   42.25    3.68
  -1  -8  -7   77.86    6.19
   1  -8   7   82.01    6.50
  -1  -8  -7   81.58    6.32
   1  -8   7   73.62    6.34
  -1  -8  -7   81.04    6.54
   1   8   7   87.35    6.19
   1   8   7   94.20    6.64
   1   8   7   84.28    6.19
  -1   8  -7   72.47    6.58
   1   8   7   71.48    6.55
  -1   8  -7   88.03    6.56
  -2  -8  -7    0.30    1.16
   2  -8   7    0.36    1.29
  -2  -8  -7    0.87    0.76
   2   8   7    1.16    1.32
  -2   8  -7    1.94    1.46
  -2   8  -7    0.20    1.30
   2   8   7    0.64    0.65
   2   8   7    1.85    0.52
   2   8   7    1.83    1.38
  -3  -8  -7   87.89    6.87
   3  -8   7   84.80    7.20
   3  -8   7   80.10    6.38
  -3   8  -7   74.67    6.77
  -4  -8  -7   13.43    2.67
   4  -8   7   15.85    2.73
   4  -8   7   10.66    1.75
   4   8   7   10.31    2.10
  -4   8  -7   14.33    3.00
   5  -8   7   36.94    3.21
  -5  -8  -7   39.62    4.14
   5  -8   7   34.82    3.98
  -5   8  -7   24.13    5.35
  -8  -9   7   49.10    4.97
   8  -9  -7   53.77    4.52
   8  -9  -7   49.22    4.18
  -8   9   7   49.55    5.29
   8   9  -7   53.51    4.94
   7  -9  -7    5.15    0.98
   7  -9  -7    5.90    1.34
  -7  -9   7    5.11    2.06
  -7  -9   7    3.48    1.01
  -7   9   7    7.57    2.10
   7   9  -7    5.28    1.71
   6  -9  -7   40.48    3.34
  -6  -9   7   40.78    3.46
   6  -9  -7   36.55    3.59
  -6  -9   7   38.64    3.79
   6   9  -7   41.46    4.01
  -6   9   7   44.53    4.19
   5  -9  -7   49.37    3.90
  -5  -9   7   47.07    4.06
   5  -9  -7   48.61    4.24
  -5  -9   7   49.14    4.22
   5   9  -7   47.63    4.44
   5   9  -7   49.43    4.43
  -4  -9   7    8.11    1.27
   4  -9  -7   11.05    1.62
   4  -9  -7    5.85    1.16
   4   9  -7    7.07    1.76
   4   9  -7    6.26    1.46
  -4   9   7    7.86    2.01
   3  -9  -7   71.50    5.20
   3  -9  -7   68.85    5.35
  -3  -9   7   74.31    5.43
   3   9  -7   65.50    5.49
  -3   9   7   66.27    5.60
   3   9  -7   57.22    5.64
  -2  -9   7   13.06    1.74
   2  -9  -7   10.91    1.23
   2  -9  -7   12.14    2.04
   2   9  -7    8.38    1.71
   2   9  -7   10.74    1.95
  -2   9   7   10.74    2.01
   1  -9  -7   35.16    2.73
   1  -9  -7   33.06    3.00
  -1  -9   7   32.72    3.14
  -1   9   7   34.64    3.30
   1   9  -7   29.33    3.43
   1   9  -7   33.81    3.19
   0  -9  -7   39.85    3.46
   0  -9  -7   42.40    3.22
   0  -9   7   38.77    3.47
   0   9  -7   39.67    3.94
   0   9  -7   39.85    4.23
   0   9   7   38.50    3.23
   0   9   7   36.85    3.79
   0   9   7   42.53    3.82
   1  -9   7    6.20    1.54
  -1  -9  -7    4.80    1.44
   1  -9   7    4.68    1.12
  -1  -9  -7    6.08    1.20
  -1  -9  -7    4.90    0.83
   1   9   7    3.74    0.85
   1   9   7    5.09    1.57
  -1   9  -7    3.22    1.55
  -1   9  -7    5.87    1.68
   1   9   7    5.67    0.80
   1   9   7    5.45    1.60
   2  -9   7   51.46    4.32
  -2  -9  -7   44.91    3.61
   2  -9   7   42.48    3.84
  -2  -9  -7   45.13    4.22
   2   9   7   44.10    3.53
  -2   9  -7   38.00    4.25
   2   9   7   38.01    4.70
   2   9   7   47.77    4.36
   3  -9   7    2.99    1.78
  -3  -9  -7    3.39    1.68
   3  -9   7    3.67    1.10
  -3   9  -7    4.44    3.03
   3   9   7    4.51    1.92
   3   9   7    5.35    1.81
   4  -9   7   28.49    2.78
   4  -9   7   28.57    3.61
  -4  -9  -7   28.25    3.65
   4   9   7   26.00    3.86
  -7 -10   7   66.62    6.06
   7 -10  -7   69.97    5.38
   7 -10  -7   65.63    5.66
  -7  10   7   68.77    6.39
   7  10  -7   66.58    6.06
  -6 -10   7   21.07    2.79
   6 -10  -7   22.19    2.69
   6 -10  -7   23.79    2.25
  -6 -10   7   24.90    3.50
   6  10  -7   20.84    3.32
  -6  10   7   22.40    3.49
   6  10  -7   19.83    4.51
   5 -10  -7   24.99    2.86
  -5 -10   7   27.31    3.28
  -5 -10   7   25.62    2.70
   5 -10  -7   26.46    2.46
   5  10  -7   32.92    3.41
  -5  10   7   28.30    3.51
   5  10  -7   24.29    3.44
  -4 -10   7   51.91    4.36
  -4 -10   7   54.75    4.81
   4 -10  -7   51.53    4.13
   4  10  -7   49.30    4.66
  -4  10   7   54.19    4.82
   4  10  -7   48.55    4.84
   3 -10  -7    3.27    1.68
   3 -10  -7    1.88    0.68
  -3 -10   7    2.08    1.07
  -3  10   7    2.87    1.48
   3  10  -7    2.23    2.20
   3  10  -7    2.49    1.43
   2 -10  -7   39.36    3.58
  -2 -10   7   40.59    3.60
   2 -10  -7   40.25    3.29
   2  10  -7   31.97    4.29
   2  10  -7   43.97    3.87
  -2  10   7   44.53    4.01
  -1 -10   7   26.02    2.50
   1 -10  -7   24.45    2.10
   1 -10  -7   22.67    2.53
   1  10  -7   20.40    2.88
  -1  10   7   22.07    3.59
   0 -10   7   11.96    1.87
   0  10  -7   12.14    2.66
   0  10   7    9.44    1.87
   0  10  -7   10.40    3.34
   0  10   7   14.49    2.52
   1 -10   7   27.90    3.02
  -1 -10  -7   31.62    2.70
  -1 -10  -7   29.20    3.58
   1  10   7   27.16    3.86
   1  10   7   34.79    3.69
   1  10   7   36.44    2.79
   2 -10   7    2.34    1.80
  -2 -10  -7    0.98    1.68
   2 -10   7    0.32    1.08
  -2  10  -7    1.78    1.79
   2  10   7   -0.80    1.98
   2  10   7   -0.07    1.92
   3 -10   7   22.99    3.46
  -3 -10  -7   17.98    3.31
   3 -10   7   19.32    2.35
   3  10   7   18.08    3.74
  -5 -11   7   29.00    2.96
  -5 -11   7   29.34    3.46
   5 -11  -7   29.74    2.62
   5 -11  -7   29.87    3.17
  -5  11   7   24.01    3.86
   5  11  -7   20.24    3.81
   5  11  -7   29.39    3.77
   4 -11  -7   10.82    1.92
  -4 -11   7   16.07    2.21
   4 -11  -7   13.30    1.70
  -4  11   7   11.86    2.33
   4  11  -7   17.63    3.09
   4  11  -7   15.45    2.53
   3 -11  -7   46.13    4.03
   3 -11  -7   45.27    3.60
  -3 -11   7   47.10    3.95
  -3  11   7   43.77    4.46
   3  11  -7   33.66    4.57
   2 -11  -7    2.28    0.79
  -2 -11   7    1.55    1.21
  -2  11   7   -0.16    1.65
   2  11  -7   -2.65    2.67
   2  11  -7   -0.60    1.71
   1 -11  -7   27.76    2.33
  -1 -11   7   21.93    2.80
   1  11  -7   24.49    3.57
  -1  11   7   26.60    3.40
   0 -11  -7   11.15    1.58
   0 -11   7   12.19    1.83
   0  11   7   16.56    2.94
   0  11  -7   16.25    3.24
   1 -11   7    4.64    1.34
  -1 -11  -7    5.92    1.04
   1  11   7    8.22    2.67
  -1  11  -7    3.46    2.05
 -12   0   8   22.80    2.49
 -11   0   8   35.13    2.94
  11   0  -8   26.49    2.88
 -10   0   8   79.67    5.59
  10   0  -8   59.99    5.48
  -9   0   8   16.10    1.22
   9   0  -8   11.00    1.80
   9   0  -8   10.07    1.53
  -9   0   8   14.50    1.56
   8   0  -8  124.80   10.69
   8   0  -8  130.81   10.61
  -8   0   8  152.40   10.38
  -8   0   8  150.44   10.87
   7   0  -8    6.79    1.16
  -7   0   8    8.90    0.82
   7   0  -8    6.73    1.37
  -7   0   8    8.88    1.03
  -6   0   8   39.15    3.01
   6   0  -8   35.20    3.35
  -6   0   8   40.34    2.95
   6   0  -8   36.84    3.23
  -5   0   8  145.01   10.14
   5   0  -8  127.49   10.22
  -4   0   8    3.52    0.52
  -4   0   8    2.80    0.45
   4   0  -8    3.56    0.69
   3   0  -8  157.80   11.42
   3   0  -8  147.17   11.65
   2   0  -8   87.70    6.33
  -2   0   8   83.78    6.24
  -2   0   8   74.04    6.24
   2   0  -8   86.77    6.49
  -1   0   8   54.60    4.24
   1   0  -8   56.01    4.58
  -1   0   8   56.36    4.26
   1   0  -8   54.91    4.34
   0   0   8  196.54   15.46
   0   0  -8  199.40   15.72
   0   0   8  230.45   15.50
   1   0   8    2.77    0.59
  -1   0  -8    3.33    1.11
   1   0   8    2.92    0.54
   2   0   8   68.14    5.44
  -2   0  -8   67.29    5.34
  -2   0  -8   73.77    5.83
   2   0   8   75.46    5.39
   3   0   8   54.61    4.04
  -3   0  -8   50.25    4.05
   3   0   8   52.30    4.16
  -3   0  -8   52.56    4.63
   4   0   8   14.65    1.41
  -4   0  -8   14.65    2.51
  -4   0  -8   15.19    1.59
   4   0   8   13.80    1.73
   5   0   8   56.90    4.29
  -5   0  -8   45.82    4.60
   6   0   8    0.96    1.12
  -6   0  -8    1.52    1.71
  -7   0  -8   20.86    3.45
   7   0   8   20.48    2.68
 -12  -1   8   50.59    4.32
  12  -1  -8   43.48    4.34
 -12   1   8   52.45    4.25
 -11  -1   8   48.53    4.08
 -11   1   8   46.33    3.99
  10  -1  -8    9.34    1.45
 -10  -1   8    9.16    1.49
 -10   1   8    8.62    1.43
 -10   1   8   10.17    1.15
  10   1  -8    8.31    1.73
  10   1  -8    7.88    1.22
   9  -1  -8   76.29    6.46
  -9  -1   8   94.75    6.35
  -9  -1   8   94.72    6.58
  -9   1   8   89.63    6.53
  -9   1   8   88.09    6.29
   9   1  -8   72.41    6.49
   9   1  -8   71.36    6.52
   8  -1  -8   13.11    1.55
   8  -1  -8   13.82    1.83
  -8  -1   8   14.38    1.33
  -8  -1   8   14.75    1.65
  -8   1   8   17.33    1.26
   8   1  -8   13.49    1.79
   8   1  -8   15.12    1.60
  -7  -1   8   78.87    5.43
   7  -1  -8   69.49    5.53
   7  -1  -8   65.85    5.61
  -7  -1   8   77.46    5.55
  -7   1   8   76.58    5.56
  -7   1   8   76.41    5.37
   7   1  -8   60.49    5.62
   7   1  -8   67.06    5.53
   6  -1  -8   68.32    5.43
   6  -1  -8   67.80    5.50
  -6  -1   8   72.63    5.35
  -6  -1   8   75.80    5.45
  -6   1   8   73.58    5.29
   6   1  -8   68.02    5.53
  -6   1   8   72.60    5.43
   6   1  -8   65.09    5.44
  -5  -1   8   13.85    1.46
   5  -1  -8   17.22    1.64
  -5  -1   8   13.77    1.45
   5  -1  -8   17.43    1.82
  -5   1   8   19.51    1.40
   5   1  -8   16.57    1.81
   5   1  -8   17.16    1.66
  -5   1   8   20.05    1.57
   4  -1  -8  157.73   11.92
   4  -1  -8  151.63   12.00
  -4   1   8  169.73   11.82
   4   1  -8  167.75   12.03
   4   1  -8  160.11   11.93
  -4   1   8  150.39   11.85
  -3  -1   8   22.05    2.03
  -3  -1   8   29.32    2.03
   3   1  -8   23.49    2.31
  -3   1   8   24.13    1.93
   3   1  -8   22.47    2.13
  -2  -1   8   83.68    6.61
   2  -1  -8   87.79    6.64
   2  -1  -8   84.06    6.86
  -2  -1   8   84.65    6.55
   2   1  -8   91.81    6.86
  -2   1   8   75.27    6.52
   2   1  -8   92.76    6.65
  -2   1   8   97.98    6.58
  -1  -1   8  122.51    8.92
   1  -1  -8  123.54    9.21
   1  -1  -8  124.43    8.99
   1   1  -8  113.53    9.14
  -1   1   8  113.06    8.90
   0  -1   8   15.52    1.69
   0  -1  -8   17.68    2.28
   0   1   8   22.38    1.64
   0   1  -8   21.51    2.25
  -1  -1  -8  145.79   11.16
   1  -1   8  156.22   10.90
   1  -1   8  137.69   10.87
   1   1   8  139.04   10.85
   1   1   8  152.85   10.83
  -1   1  -8  141.99   11.15
  -2  -1  -8   17.62    2.33
   2  -1   8   20.04    1.77
  -2  -1  -8   17.76    1.56
   2  -1   8   20.95    1.64
  -2   1  -8   16.49    2.29
   2   1   8   16.54    1.68
   2   1   8   16.45    1.54
  -3  -1  -8   81.06    6.15
   3  -1   8   84.18    6.12
  -3  -1  -8   80.04    6.61
   3  -1   8   74.52    6.20
  -3   1  -8   82.94    6.58
  -3   1  -8   81.63    6.11
   3   1   8   80.53    6.19
   3   1   8   81.10    6.08
   4  -1   8   60.48    4.31
   4  -1   8   57.73    4.49
  -4  -1  -8   58.24    4.99
  -4  -1  -8   57.42    4.43
   4   1   8   52.66    4.25
  -4   1  -8   52.54    4.91
   4   1   8   50.25    4.43
  -5  -1  -8   14.23    2.83
  -5  -1  -8   13.56    1.71
   5  -1   8   10.29    1.46
   5   1   8   10.03    1.92
  -6  -1  -8   58.43    5.23
   6  -1   8   56.76    4.60
  -6   1  -8   52.85    5.11
   6   1   8   48.39    4.50
   7  -1   8    0.77    1.32
  -7  -1  -8    2.39    1.86
   7   1   8    1.12    1.27
   7   1   8    2.27    1.66
  -7   1  -8    3.65    1.87
 -12  -2   8   20.31    2.42
  12  -2  -8   18.59    2.38
  12   2  -8   16.06    2.92
 -11   2   8   12.86    1.83
  11   2  -8    9.10    1.65
  10  -2  -8   43.07    3.74
 -10  -2   8   47.75    3.89
  10   2  -8   37.22    3.72
  10   2  -8   38.24    3.89
 -10   2   8   51.60    3.86
 -10   2   8   48.83    3.43
  -9  -2   8    5.64    1.06
   9  -2  -8    4.53    0.89
  -9  -2   8    4.59    0.76
  -9   2   8    5.35    0.62
   9   2  -8    4.52    0.95
   9   2  -8    4.22    1.00
  -9   2   8    7.19    1.44
  -8  -2   8   55.36    4.05
   8  -2  -8   50.29    4.11
  -8  -2   8   53.92    4.23
  -8   2   8   51.30    3.91
   8   2  -8   48.70    4.51
   8   2  -8   46.25    4.21
  -8   2   8   55.19    4.28
  -7  -2   8   38.66    2.78
   7   2  -8   27.71    2.69
  -7   2   8   29.79    2.42
   7   2  -8   29.64    2.82
  -7   2   8   31.17    2.84
  -6  -2   8   18.88    2.15
   6  -2  -8   22.27    2.06
   6   2  -8   23.39    2.17
   6   2  -8   27.08    2.28
  -6   2   8   21.74    2.31
  -6   2   8   26.64    1.85
   5  -2  -8   81.09    6.21
   5   2  -8   74.77    6.33
   5   2  -8   86.67    6.34
  -5   2   8   82.37    6.08
   4  -2  -8   11.13    1.45
  -4  -2   8   10.26    1.17
   4  -2  -8   10.11    1.16
   4   2  -8    8.53    1.45
  -4   2   8   10.65    0.88
  -4   2   8    7.41    1.21
   4   2  -8    7.92    1.52
  -3  -2   8   83.60    7.44
   3  -2  -8   92.57    7.43
  -3  -2   8   90.91    7.36
   3   2  -8  109.00    7.47
  -3   2   8  100.12    7.37
  -3   2   8  112.85    7.34
  -2  -2   8   22.56    1.86
  -2  -2   8   25.38    1.99
   2  -2  -8   25.78    2.13
  -2   2   8   20.30    1.78
   2   2  -8   20.93    2.19
  -2   2   8   19.07    1.74
  -1  -2   8   53.07    4.12
  -1  -2   8   59.61    4.21
   1  -2  -8   47.45    4.44
   1  -2  -8   53.69    4.18
  -1   2   8   52.25    4.04
   0  -2  -8  112.26    8.50
   0  -2  -8  101.83    8.70
   0  -2   8  108.26    8.45
   0  -2   8  124.13    8.55
   0   2   8  117.39    8.42
   0   2   8  111.44    8.36
   0   2  -8  116.66    8.69
   0   2   8  108.46    8.38
   1  -2   8   14.12    1.39
   1  -2   8   11.92    1.44
  -1  -2  -8   13.82    2.02
  -1   2  -8   15.21    2.01
   1   2   8   13.97    1.35
   1   2   8   14.72    1.23
  -2  -2  -8  116.21    8.63
  -2  -2  -8  116.16    9.02
   2  -2   8  111.32    8.68
   2  -2   8  122.72    8.65
   2   2   8  119.29    8.57
   2   2   8  108.84    8.63
  -2   2  -8  110.21    8.97
  -3  -2  -8   20.11    2.06
  -3  -2  -8   21.97    2.65
   3  -2   8   22.80    2.02
   3   2   8   16.55    1.82
   3   2   8   18.13    1.60
  -3   2  -8   15.79    2.48
  -4  -2  -8   42.35    3.43
   4  -2   8   43.77    3.29
   4  -2   8   39.69    3.53
  -4  -2  -8   40.60    4.07
   4   2   8   38.09    3.39
   4   2   8   41.42    3.18
  -4   2  -8   40.62    3.91
  -5  -2  -8   45.98    4.42
   5  -2   8   49.28    4.20
   5  -2   8   51.99    3.89
  -5  -2  -8   48.46    4.77
   5   2   8   49.59    4.07
  -6  -2  -8    0.79    1.67
   6  -2   8    1.21    1.22
   6   2   8    1.47    1.53
   6   2   8    0.93    1.04
  -6   2  -8    1.30    1.65
   7  -2   8   40.66    3.94
  -7  -2  -8   40.33    4.53
   7   2   8   41.05    4.46
  -7   2  -8   40.71    4.64
   7   2   8   39.92    4.05
 -12  -3   8   13.84    2.42
 -12   3   8   21.19    2.35
  11  -3  -8   46.74    4.40
 -11  -3   8   54.04    4.70
 -11   3   8   56.59    4.55
  10  -3  -8    1.15    1.04
 -10  -3   8    0.58    0.93
 -10   3   8    1.26    1.42
  10   3  -8   -1.53    1.05
 -10   3   8    0.47    0.31
   9  -3  -8   77.95    6.22
   9  -3  -8   77.05    6.17
  -9  -3   8   87.03    6.40
  -9  -3   8   79.34    6.05
   9   3  -8   74.82    6.28
   9   3  -8   70.61    6.20
  -9   3   8   88.59    6.42
  -9   3   8   79.00    5.94
  -8  -3   8   16.87    2.07
   8  -3  -8   17.51    1.98
   8  -3  -8   16.06    1.85
  -8   3   8   22.87    2.35
  -8   3   8   20.69    1.59
   8   3  -8   19.22    1.99
   8   3  -8   19.64    2.15
  -7  -3   8   50.41    3.99
   7  -3  -8   49.67    3.91
   7  -3  -8   52.97    3.87
  -7  -3   8   41.21    3.81
   7   3  -8   55.58    4.03
   7   3  -8   42.67    4.01
  -7   3   8   47.87    3.66
  -7   3   8   43.87    4.14
  -6  -3   8  106.54    7.52
   6  -3  -8   98.57    7.51
   6  -3  -8  103.94    7.50
   6   3  -8  106.85    7.60
   6   3  -8   91.20    7.66
  -6   3   8   94.64    7.34
  -6   3   8   87.21    7.64
  -5  -3   8    2.06    0.64
   5   3  -8    1.56    0.70
  -5   3   8    1.60    0.89
  -5   3   8    0.96    0.28
   5   3  -8    1.43    0.80
   4  -3  -8  154.01   11.58
  -4  -3   8  168.43   11.47
  -4  -3   8  157.04   11.60
   4  -3  -8  152.85   11.60
   4   3  -8  160.49   11.69
  -4   3   8  149.18   11.58
  -4   3   8  141.54   11.46
  -3  -3   8   13.76    1.61
   3  -3  -8   16.00    1.53
   3  -3  -8   14.60    1.55
   3  -3  -8   12.16    2.10
  -3  -3   8   15.20    1.45
  -3   3   8   14.84    1.26
   3   3  -8   16.09    1.82
  -3   3   8   16.20    1.41
  -2  -3   8  131.15    9.61
  -2  -3   8  128.91    9.50
   2  -3  -8  122.64    9.54
  -2   3   8  122.61    9.43
  -2   3   8  130.37    9.63
   2   3  -8  126.37    9.67
   1  -3  -8   94.73    6.74
  -1  -3   8   96.56    6.78
  -1  -3   8   90.81    6.69
   1  -3  -8   75.41    6.90
   1   3  -8   86.54    6.88
  -1   3   8   92.13    6.80
  -1   3   8   78.32    6.58
  -1   3   8   91.67    6.65
   0  -3  -8   32.85    2.72
   0  -3   8   35.77    2.71
   0  -3  -8   30.87    2.54
   0  -3  -8   26.71    3.03
   0  -3   8   31.05    2.68
   0   3   8   35.94    2.56
   0   3  -8   33.31    2.99
   0   3   8   27.86    2.49
   0   3   8   34.53    2.59
   1  -3   8  107.50    7.57
   1  -3   8   98.04    7.58
  -1  -3  -8   90.90    7.84
  -1  -3  -8   98.67    7.51
  -1   3  -8  101.36    7.84
   1   3   8   95.54    7.44
   1   3   8  106.17    7.51
   2  -3   8    2.06    0.63
  -2  -3  -8    1.91    0.63
  -2  -3  -8    2.29    1.19
   2  -3   8    0.54    0.75
  -2   3  -8    1.88    1.15
   2   3   8    2.03    0.64
   2   3   8    2.09    0.39
  -3  -3  -8   50.18    4.72
   3  -3   8   52.05    4.14
   3  -3   8   50.10    4.30
  -3  -3  -8   50.58    4.22
   3   3   8   57.85    4.03
   3   3   8   54.94    4.18
  -3   3  -8   52.31    4.66
   4  -3   8   39.69    3.03
   4  -3   8   39.50    3.30
  -4  -3  -8   36.00    3.19
  -4  -3  -8   36.65    3.87
   4   3   8   34.88    3.10
  -4   3  -8   33.36    3.65
  -5  -3  -8   11.67    2.12
   5  -3   8   11.28    1.46
  -5  -3  -8   11.39    1.83
   5  -3   8   10.60    1.66
   5   3   8   14.41    2.46
   5   3   8   11.00    1.72
  -6  -3  -8   42.33    4.48
   6  -3   8   48.66    3.93
  -6  -3  -8   41.71    3.82
  -6   3  -8   40.85    4.21
   6   3   8   40.46    4.29
   6   3   8   36.35    3.63
  -7  -3  -8    1.92    1.91
   7  -3   8    1.66    1.43
   7   3   8    2.43    1.24
   7   3   8    3.08    1.81
  11  -4  -8   16.27    2.40
 -11  -4   8   14.36    2.46
  11  -4  -8   15.08    2.26
 -11   4   8   18.91    1.72
  11   4  -8   16.98    2.77
 -11   4   8   22.11    2.51
  10  -4  -8   71.32    5.58
 -10  -4   8   70.53    5.77
  10  -4  -8   69.41    5.53
  10   4  -8   59.51    5.68
 -10   4   8   73.95    6.05
 -10   4   8   67.31    5.18
  -9  -4   8    3.97    1.18
   9  -4  -8    3.13    0.93
  -9  -4   8    3.39    0.82
   9  -4  -8    4.45    1.03
   9   4  -8    4.03    1.23
  -9   4   8    4.01    0.64
  -9   4   8    5.59    1.44
  -8  -4   8   86.87    7.13
   8  -4  -8   91.97    6.98
   8  -4  -8   92.56    6.97
   8   4  -8   93.12    7.11
  -8   4   8   86.53    7.27
  -8   4   8   91.49    6.78
  -7  -4   8   63.44    5.04
   7  -4  -8   64.44    4.92
   7  -4  -8   61.85    4.92
  -7  -4   8   63.78    4.81
   7   4  -8   65.97    5.08
  -7   4   8   59.27    4.74
  -7   4   8   60.11    5.26
   6  -4  -8   50.65    3.86
   6  -4  -8   53.11    3.87
  -6  -4   8   41.07    3.88
  -6  -4   8   57.50    3.94
   6   4  -8   51.43    4.03
  -6   4   8   45.78    3.67
   6   4  -8   41.31    3.86
  -6   4   8   42.84    4.21
   5  -4  -8  153.18   12.49
   5  -4  -8  165.29   12.51
  -5  -4   8  180.37   12.47
  -5  -4   8  144.11   12.56
  -5  -4   8  182.00   12.46
   5   4  -8  188.04   12.65
  -5   4   8  159.12   12.40
   5   4  -8  151.34   12.50
  -5   4   8  181.54   12.64
   4  -4  -8    4.48    0.78
   4  -4  -8    4.20    0.78
  -4  -4   8    3.97    0.89
  -4  -4   8    6.33    0.66
   4   4  -8    5.96    1.09
  -4   4   8    4.77    0.63
   3  -4  -8  151.03   11.79
  -3  -4   8  166.35   11.81
  -3  -4   8  151.50   11.88
   3  -4  -8  156.92   11.79
   3   4  -8  171.69   11.94
  -3   4   8  145.16   11.68
  -3   4   8  160.57   11.77
   2  -4  -8   54.17    4.28
   2  -4  -8   50.09    4.24
  -2  -4   8   47.89    4.32
  -2  -4   8   54.23    4.25
  -2   4   8   62.99    4.13
  -1  -4   8   37.84    2.77
   1  -4  -8   38.56    2.71
   1  -4  -8   29.99    2.98
  -1   4   8   30.59    2.54
  -1   4   8   28.88    2.69
   1   4  -8   28.06    2.89
  -1   4   8   28.58    2.45
   0  -4  -8   51.39    4.29
   0  -4  -8   51.19    4.20
   0  -4   8   52.94    4.31
   0  -4   8   53.60    4.31
   0   4   8   62.04    4.14
   1  -4   8    3.05    1.22
   1  -4   8    4.46    0.82
  -1  -4  -8    3.78    1.23
  -1   4  -8    3.47    1.16
   1   4   8    4.05    0.60
   1   4   8    4.85    0.71
   2  -4   8   46.37    3.83
  -2  -4  -8   42.79    4.19
  -2  -4  -8   45.33    3.73
   2  -4   8   46.58    3.70
   2   4   8   49.45    3.65
   2   4   8   46.01    3.51
  -2   4  -8   44.34    4.14
  -3  -4  -8   13.17    2.57
   3  -4   8   14.89    2.11
  -3  -4  -8   16.23    1.91
   3  -4   8   16.12    1.73
  -3   4  -8   20.23    2.55
   3   4   8   21.98    1.81
  -4  -4  -8   23.89    2.36
  -4  -4  -8   20.86    3.27
   4  -4   8   24.32    2.08
   4   4   8   20.59    2.13
  -4   4  -8   18.57    2.79
   4   4   8   20.38    2.98
  -5  -4  -8   30.45    3.74
  -5  -4  -8   30.75    3.02
   5  -4   8   32.46    2.65
   5  -4   8   29.36    3.25
   5   4   8   29.11    3.47
  -5   4  -8   30.35    3.47
   5   4   8   27.21    2.79
   6  -4   8   -0.97    1.32
  -6  -4  -8    2.95    1.81
  -6   4  -8    2.28    1.62
   6   4   8    0.29    1.24
   6   4   8    1.58    1.68
  11  -5  -8   27.74    3.16
  11  -5  -8   31.66    3.34
 -11  -5   8   30.61    3.46
 -11   5   8   34.94    3.48
  11   5  -8   26.33    3.60
 -11   5   8   33.18    2.53
  10  -5  -8    6.30    1.98
 -10  -5   8    3.54    1.43
  10  -5  -8    6.23    1.25
 -10   5   8    6.11    1.67
 -10   5   8    4.31    0.95
  10   5  -8    4.43    1.49
  -9  -5   8   83.49    6.78
   9  -5  -8   90.21    6.56
   9  -5  -8   89.57    6.53
  -9   5   8   76.64    6.90
  -9   5   8   82.05    6.27
   9   5  -8   76.12    7.05
  -8  -5   8   15.63    1.64
   8  -5  -8   17.34    1.74
  -8  -5   8   13.61    1.96
   8   5  -8   12.49    2.04
  -8   5   8   12.54    1.27
  -8   5   8   11.72    2.41
   7  -5  -8   86.63    6.32
  -7  -5   8   89.18    6.49
   7  -5  -8   88.34    6.61
  -7  -5   8   76.28    6.33
  -7   5   8   78.30    6.16
   7   5  -8   79.32    6.48
  -7   5   8   76.13    6.68
   6  -5  -8  116.30    8.42
   6  -5  -8  116.22    8.46
  -6  -5   8  104.05    8.49
  -6  -5   8  127.53    8.39
  -6  -5   8  128.97    8.51
  -6   5   8  102.86    8.84
   6   5  -8   99.86    8.55
  -6   5   8   93.86    8.29
   5  -5  -8   19.64    1.81
   5  -5  -8   19.39    1.88
  -5  -5   8   20.60    2.07
  -5  -5   8   23.02    2.07
  -5  -5   8   22.34    1.77
  -5   5   8   16.23    2.39
  -5   5   8   16.84    1.61
   5   5  -8   18.52    2.17
   4  -5  -8  148.70   10.92
  -4  -5   8  145.16   11.06
   4  -5  -8  146.12   10.96
  -4  -5   8  166.43   10.87
  -4   5   8  131.61   10.98
   4   5  -8  136.57   11.07
   3  -5  -8    5.50    0.88
  -3  -5   8    6.83    1.01
  -3  -5   8    4.82    0.96
   3  -5  -8    6.07    0.86
  -3  -5   8    6.00    0.69
   3   5  -8    4.65    1.12
   3   5  -8    5.48    0.79
  -3   5   8    4.96    0.71
  -3   5   8    5.27    1.10
   2  -5  -8   79.97    5.64
   2  -5  -8   76.84    5.62
   2  -5  -8   77.81    5.88
  -2   5   8   63.44    5.49
   2   5  -8   74.92    5.84
  -2   5   8   65.82    5.59
   1  -5  -8   75.68    5.81
  -1  -5   8   75.36    5.88
  -1  -5   8   77.66    5.84
   1  -5  -8   79.96    5.80
   1  -5  -8   67.38    6.03
   1   5  -8   75.89    6.02
  -1   5   8   73.03    5.66
  -1   5   8   75.76    5.77
   0  -5  -8   11.90    1.50
   0  -5  -8   10.38    2.05
   0  -5  -8   12.00    1.42
   0   5   8   10.66    1.35
   0   5   8   10.35    1.18
   0   5  -8   11.56    1.87
   0   5   8   10.31    1.03
  -1  -5  -8   99.02    7.40
  -1  -5  -8   84.85    7.66
   1  -5   8   99.46    7.39
   1  -5   8  100.92    7.47
  -1  -5  -8  106.58    7.60
   1   5   8   92.30    7.28
   1   5   8  101.97    7.43
  -1   5  -8   86.93    7.60
   2  -5   8    4.73    1.17
  -2  -5  -8    4.71    0.99
   2  -5   8    3.71    0.86
  -2  -5  -8    4.71    1.52
   2   5   8    6.68    1.07
   2   5   8    5.07    0.66
  -2   5  -8    4.23    1.40
   3  -5   8   39.74    3.44
   3  -5   8   39.09    3.07
  -3  -5  -8   33.73    3.74
  -3  -5  -8   39.36    3.25
  -3   5  -8   34.34    3.68
   3   5   8   31.54    3.53
   3   5   8   35.89    3.02
   3   5   8   33.83    2.78
  -4  -5  -8   28.98    2.94
   4  -5   8   28.27    2.66
   4  -5   8   27.47    3.15
  -4  -5  -8   29.95    3.55
  -4   5  -8   33.62    3.39
   4   5   8   32.89    2.70
   4   5   8   29.01    3.39
   5  -5   8    2.74    0.97
  -5  -5  -8    4.59    1.37
  -5  -5  -8    2.98    1.85
   5  -5   8    2.26    1.44
  -5   5  -8    5.62    1.62
   5   5   8    4.10    1.66
   6  -5   8   28.26    3.43
  -6  -5  -8   30.74    3.31
  -6  -5  -8   26.22    3.92
   6   5   8   28.04    3.04
   6   5   8   26.28    3.81
  -6   5  -8   33.70    3.71
  10  -6  -8   53.83    4.42
 -10  -6   8   50.66    4.76
  10  -6  -8   52.09    4.35
 -10   6   8   46.66    4.86
  10   6  -8   49.88    4.72
 -10   6   8   49.91    3.93
   9  -6  -8    2.44    1.02
  -9  -6   8    1.09    1.32
   9  -6  -8    1.09    0.92
  -9   6   8    1.41    1.90
   9   6  -8    1.74    1.34
  -9   6   8    1.43    0.47
   8  -6  -8   66.77    4.80
  -8  -6   8   61.06    5.11
  -8  -6   8   54.85    4.90
   8  -6  -8   63.14    4.87
  -8   6   8   61.11    4.60
   8   6  -8   50.73    5.37
  -8   6   8   60.15    5.39
  -7  -6   8   26.73    2.59
  -7  -6   8   22.75    2.41
   7  -6  -8   25.96    2.31
   7  -6  -8   26.18    2.42
   7   6  -8   24.85    3.02
  -7   6   8   24.52    3.08
   6  -6  -8   28.08    2.53
  -6  -6   8   27.24    2.59
   6  -6  -8   28.67    2.41
  -6  -6   8   32.16    2.59
   6   6  -8   24.94    2.80
  -6   6   8   23.96    2.96
  -5  -6   8   83.12    5.92
  -5  -6   8   74.13    6.03
   5  -6  -8   76.98    5.87
   5  -6  -8   79.99    5.97
  -5  -6   8   85.43    5.94
   5   6  -8   66.43    6.08
  -5   6   8   69.34    6.09
  -4  -6   8    2.30    0.54
  -4  -6   8    1.37    0.88
  -4  -6   8    2.09    0.83
   4  -6  -8    1.62    0.73
   4  -6  -8    2.01    0.57
   4   6  -8    1.69    1.03
   4   6  -8    1.79    0.67
  -4   6   8    2.03    0.89
  -3  -6   8   88.84    6.05
  -3  -6   8   85.74    6.11
   3  -6  -8   79.84    5.95
   3  -6  -8   81.58    5.88
  -3   6   8   68.34    5.79
   3   6  -8   70.76    5.83
  -3   6   8   71.44    6.03
   3   6  -8   70.87    6.12
  -2  -6   8   41.80    3.35
  -2  -6   8   47.58    3.40
  -2   6   8   37.29    3.21
   2   6  -8   35.39    3.49
  -2   6   8   35.06    3.00
   2   6  -8   35.70    3.04
   1  -6  -8   29.53    2.65
   1  -6  -8   32.97    2.78
   1  -6  -8   32.31    3.33
  -1  -6   8   32.79    2.84
  -1  -6   8   34.91    2.92
   1   6  -8   33.10    2.65
  -1   6   8   29.00    2.52
   1   6  -8   31.05    3.09
  -1   6   8   29.58    2.74
   0  -6  -8   80.13    5.79
   0  -6  -8   77.68    5.73
   0  -6  -8   79.45    5.82
   0  -6  -8   73.42    6.08
   0  -6   8   76.73    5.81
   0   6   8   73.06    5.80
   0   6  -8   67.77    5.98
   0   6   8   70.84    5.63
   0   6   8   67.42    5.59
   1  -6   8    1.01    0.76
  -1  -6  -8    1.05    1.26
  -1  -6  -8    0.44    0.84
   1  -6   8    1.32    1.11
  -1  -6  -8    0.23    0.89
   1   6   8    1.15    0.62
   1   6   8    0.86    0.36
   1   6   8    0.60    1.02
   1   6   8    0.51    0.84
  -1   6  -8    2.32    1.21
  -2  -6  -8   54.63    5.39
   2  -6   8   71.85    5.24
   2  -6   8   65.70    4.95
  -2  -6  -8   60.66    5.11
   2   6   8   52.26    5.21
  -2   6  -8   68.59    5.40
   2   6   8   61.94    4.70
   3  -6   8   16.31    1.86
  -3  -6  -8   13.22    2.74
  -3  -6  -8   14.10    2.19
   3  -6   8   15.80    2.65
   3   6   8   19.69    1.80
  -3   6  -8   18.93    2.73
   3   6   8   12.36    2.76
   4  -6   8   28.07    3.09
  -4  -6  -8   25.18    3.42
  -4  -6  -8   27.56    2.93
   4  -6   8   25.49    3.21
   4   6   8   24.74    3.37
  -5  -6  -8   35.60    3.85
  -5  -6  -8   30.87    4.25
   5  -6   8   40.82    3.62
   5  -6   8   41.75    3.96
  -5   6  -8   40.28    4.04
   5   6   8   39.25    3.65
   5   6   8   37.10    4.20
 -10  -7   8    4.71    1.87
  10  -7  -8    7.43    1.36
  10  -7  -8    4.67    1.42
 -10   7   8    6.06    0.99
 -10   7   8    6.20    2.04
  10   7  -8    4.66    1.85
   9  -7  -8   39.64    3.25
  -9  -7   8   33.14    3.81
   9  -7  -8   39.76    3.42
  -9   7   8   30.99    4.06
   9   7  -8   34.99    3.85
  -9   7   8   36.66    2.92
  -8  -7   8    2.25    0.93
   8  -7  -8    2.39    1.02
   8  -7  -8    1.95    0.86
  -8  -7   8    1.99    1.29
  -8   7   8    2.13    1.89
   8   7  -8    0.86    1.32
  -7  -7   8   25.55    2.67
   7  -7  -8   22.44    2.50
  -7  -7   8   25.76    2.41
  -7   7   8   23.71    3.23
   7   7  -8   24.51    2.82
  -6  -7   8   22.66    2.34
   6  -7  -8   21.14    2.30
   6  -7  -8   22.94    2.10
  -6  -7   8   24.58    2.33
  -6   7   8   21.60    2.82
   5  -7  -8    5.35    1.08
  -5  -7   8    6.77    1.27
   5  -7  -8    6.70    0.95
  -5  -7   8    6.55    1.20
   5   7  -8    6.85    1.40
  -5   7   8    8.77    1.46
   4  -7  -8   62.09    4.82
  -4  -7   8   63.38    5.06
   4  -7  -8   61.07    4.95
  -4  -7   8   66.00    4.87
   4   7  -8   58.76    5.18
  -4   7   8   61.90    5.07
   4   7  -8   61.84    4.95
   3  -7  -8   10.08    1.19
  -3  -7   8    8.60    1.35
   3  -7  -8   11.20    1.49
  -3  -7   8    9.97    1.75
   3   7  -8    8.12    1.51
   3   7  -8    8.76    1.82
  -3   7   8    8.00    1.60
   2  -7  -8   43.77    3.21
   2  -7  -8   42.79    3.34
  -2  -7   8   46.23    3.57
  -2  -7   8   42.05    3.48
   2   7  -8   33.88    3.65
  -2   7   8   35.65    3.44
   2   7  -8   36.11    3.25
  -2   7   8   37.45    3.11
   1  -7  -8   43.90    3.70
  -1  -7   8   44.11    4.03
   1  -7  -8   43.04    3.57
  -1  -7   8   45.82    3.97
   1  -7  -8   50.23    4.17
   1   7  -8   42.29    3.80
   1   7  -8   40.98    4.03
  -1   7   8   49.69    4.06
  -1   7   8   43.80    3.51
   0  -7   8    6.65    1.38
   0  -7  -8    4.70    1.08
   0  -7  -8    5.54    0.91
   0  -7   8    5.04    1.07
   0  -7  -8    5.83    1.53
   0  -7  -8    5.00    1.15
   0   7   8    3.06    1.22
   0   7   8    5.52    0.88
   0   7   8    4.65    0.80
   0   7   8    3.93    1.14
   0   7  -8    4.54    1.36
  -1  -7  -8   66.97    5.34
  -1  -7  -8   67.63    5.82
   1  -7   8   72.28    5.65
   1  -7   8   66.31    5.45
  -1  -7  -8   71.31    5.55
  -1  -7  -8   69.20    5.42
   1   7   8   68.03    5.25
  -1   7  -8   62.41    5.69
   1   7   8   64.66    5.19
   1   7   8   74.19    5.60
   2  -7   8    6.70    1.55
  -2  -7  -8    6.15    1.77
   2  -7   8    8.15    1.27
  -2  -7  -8    7.84    1.83
   2   7   8    9.29    1.98
   2   7   8    4.87    0.84
  -2   7  -8    6.82    1.67
   2   7   8    6.83    1.21
   3  -7   8   55.77    4.56
  -3  -7  -8   39.80    4.64
  -3  -7  -8   48.78    4.29
   3  -7   8   50.50    3.99
  -3   7  -8   49.36    4.94
   3   7   8   43.64    3.89
  -4  -7  -8   34.88    4.09
  -4  -7  -8   35.45    4.14
   4  -7   8   38.51    3.72
   4  -7   8   34.90    3.17
  -4   7  -8   31.30    3.71
   4   7   8   26.50    3.80
   5  -7   8   10.35    2.06
  -5  -7  -8   10.92    2.08
   5  -7   8   10.66    1.76
  -5   7  -8   11.50    2.20
   5   7   8    6.86    2.12
  -9  -8   8   -0.36    1.73
   9  -8  -8    0.96    1.22
   9  -8  -8    1.55    1.01
  -9   8   8    2.30    1.96
   9   8  -8    2.99    1.70
   8  -8  -8   39.16    3.43
   8  -8  -8   32.39    3.61
   8   8  -8   45.33    4.13
  -8   8   8   45.60    4.56
  -7  -8   8   14.06    1.92
   7  -8  -8   15.45    1.72
   7  -8  -8   12.32    2.01
  -7  -8   8   12.61    2.46
  -6  -8   8   15.76    2.13
  -6  -8   8   17.72    2.16
   6  -8  -8   18.66    2.11
   6  -8  -8   16.52    1.80
   6   8  -8   17.16    2.56
  -6   8   8   18.69    2.78
  -5  -8   8   40.38    3.71
  -5  -8   8   40.39    3.62
   5  -8  -8   37.16    3.62
  -5   8   8   52.13    4.04
  -4  -8   8    3.92    0.99
  -4  -8   8    2.54    1.13
   4  -8  -8    3.47    0.77
   4  -8  -8    3.25    1.01
   4   8  -8    5.08    1.46
  -4   8   8    3.04    1.25
   4   8  -8    4.77    1.14
  -3  -8   8   38.84    3.78
   3  -8  -8   37.46    3.63
   3  -8  -8   39.22    3.45
   3   8  -8   50.01    3.71
   3   8  -8   43.69    4.04
  -3   8   8   48.85    3.88
   2  -8  -8   24.66    2.46
  -2  -8   8   24.93    2.65
   2  -8  -8   23.41    2.20
  -2  -8   8   22.63    2.60
   2   8  -8   27.00    3.01
   2   8  -8   24.43    2.70
  -2   8   8   28.81    2.68
  -1  -8   8   28.21    2.88
   1  -8  -8   26.44    2.59
   1  -8  -8   25.31    2.32
  -1  -8   8   23.87    2.68
   1   8  -8   22.66    3.03
  -1   8   8   29.33    2.78
  -1   8   8   30.48    2.30
   0  -8  -8   75.06    6.00
   0  -8   8   75.10    6.20
   0  -8  -8   68.94    5.84
   0   8   8   81.07    5.82
   0   8   8   77.31    5.83
   0   8   8   86.18    6.22
   0   8  -8   67.65    6.29
  -1  -8  -8    0.60    1.05
  -1  -8  -8    0.99    0.80
   1  -8   8    1.60    1.45
   1  -8   8    0.66    0.97
  -1  -8  -8    1.34    1.20
   1   8   8    0.04    0.86
   1   8   8    0.66    0.49
   1   8   8    0.16    1.36
  -1   8  -8    3.00    1.46
   1   8   8    0.79    1.30
  -2  -8  -8   66.53    5.58
   2  -8   8   67.19    5.14
   2   8   8   70.54    5.94
   2   8   8   56.06    4.82
  -2   8  -8   56.93    5.59
  -3  -8  -8   15.18    2.55
   3  -8   8   17.92    2.92
   3  -8   8   16.55    1.98
   3   8   8   16.10    2.86
   3   8   8   10.67    2.76
  -3   8  -8   13.60    2.33
   4  -8   8   17.69    2.17
  -4  -8  -8   20.90    3.04
   4  -8   8   21.49    3.31
   4   8   8   12.11    2.50
  -4   8  -8   17.02    3.13
   8  -9  -8    7.12    1.55
   8  -9  -8    9.13    1.32
  -8  -9   8    5.76    1.91
  -8   9   8    9.09    2.36
   8   9  -8    7.81    2.00
   7  -9  -8   39.06    3.17
  -7  -9   8   35.80    3.32
   7  -9  -8   35.78    3.52
  -7   9   8   36.18    4.26
   7   9  -8   31.83    3.88
   6  -9  -8   39.18    3.72
   6  -9  -8   40.33    3.42
  -6  -9   8   37.85    3.69
  -6  -9   8   41.28    3.85
   6   9  -8   37.88    4.09
  -6   9   8   47.72    4.30
  -5  -9   8    7.47    1.96
  -5  -9   8    7.64    1.76
   5  -9  -8    8.58    1.30
   5  -9  -8    5.62    1.33
  -5   9   8    8.50    2.24
   5   9  -8    7.63    1.63
   5   9  -8    6.31    1.77
   4  -9  -8   61.02    4.98
   4  -9  -8   56.38    5.23
  -4  -9   8   64.57    5.20
  -4   9   8   67.99    5.84
   4   9  -8   69.67    5.53
   4   9  -8   64.59    5.61
  -3  -9   8    7.23    1.51
   3  -9  -8   10.36    1.75
   3  -9  -8    9.03    1.26
  -3   9   8    9.27    1.70
   3   9  -8    6.87    1.80
   3   9  -8    8.65    1.88
   2  -9  -8   37.80    3.58
  -2  -9   8   38.93    3.71
  -2   9   8   45.34    3.88
   1  -9  -8   32.91    3.18
   1  -9  -8   35.10    2.91
  -1  -9   8   35.51    3.56
  -1  -9   8   33.17    3.30
   1   9  -8   30.57    5.21
  -1   9   8   37.93    3.50
   0  -9  -8    4.91    1.26
   0  -9   8    2.83    1.59
   0  -9  -8    3.28    0.86
   0  -9   8    2.21    1.16
   0   9   8    4.32    0.90
   0   9   8    3.79    1.66
   0   9   8    4.72    1.08
   0   9   8    5.78    1.70
   1  -9   8   38.92    3.65
  -1  -9  -8   33.29    3.96
  -1  -9  -8   41.72    3.42
  -1  -9  -8   39.71    4.17
   1  -9   8   47.69    4.32
   1   9   8   43.71    3.75
   1   9   8   48.16    4.13
   1   9   8   46.23    3.34
   1   9   8   32.85    4.34
  -1   9  -8   31.80    4.24
   2  -9   8    3.29    1.90
   2  -9   8    2.18    1.09
  -2  -9  -8    3.04    1.59
   2   9   8   -0.48    2.15
   2   9   8    2.91    1.69
  -2   9  -8    1.51    1.91
   3  -9   8   21.72    2.48
  -3  -9  -8   21.93    3.25
   3  -9   8   30.58    3.73
  -3   9  -8   19.34    3.63
   3   9   8   14.04    2.95
   3   9   8   28.57    3.81
   7 -10  -8   30.99    2.74
   7 -10  -8   28.17    3.27
  -7 -10   8   28.02    3.61
  -7  10   8   30.93    4.23
   7  10  -8   22.75    3.74
  -6 -10   8   32.27    3.49
   6 -10  -8   31.44    2.80
   6 -10  -8   28.97    3.28
  -6 -10   8   32.72    3.10
  -6  10   8   30.09    3.98
   6  10  -8   26.54    3.82
   6  10  -8   28.28    4.55
   5 -10  -8   74.95    6.16
  -5 -10   8   76.24    6.15
   5 -10  -8   80.21    5.91
  -5 -10   8   81.06    6.34
  -5  10   8   78.90    6.58
   5  10  -8   72.02    6.58
   5  10  -8   60.83    7.40
   4 -10  -8   -0.17    1.26
   4 -10  -8    1.04    0.78
  -4 -10   8    2.19    1.26
  -4  10   8    1.00    1.64
   4  10  -8    0.54    1.75
   3 -10  -8   73.49    5.69
  -3 -10   8   73.62    6.03
   3 -10  -8   77.30    6.32
  -3  10   8   78.06    6.29
   3  10  -8   63.75    6.32
  -2 -10   8   19.42    2.61
   2 -10  -8   21.23    2.05
   2 -10  -8   22.14    2.55
   2  10  -8   18.40    3.24
  -2  10   8   22.32    2.99
   1 -10  -8   19.55    1.97
  -1 -10   8   16.04    2.48
   1 -10  -8   19.04    2.52
   1  10  -8   20.60    3.55
  -1  10   8   23.16    3.05
   0 -10   8   33.14    3.60
   0 -10  -8   36.48    3.30
   0  10   8   46.37    3.31
   0  10   8   44.35    4.09
   0  10  -8   34.22    4.19
   1 -10   8    3.16    2.08
   1 -10   8    0.76    1.24
  -1 -10  -8    2.16    0.92
   1  10   8    1.43    1.81
   1  10   8    1.92    0.73
  -1  10  -8    1.80    1.79
  -2 -10  -8   21.69    3.29
   2 -10   8   20.04    2.51
   2 -10   8   25.83    3.86
  -2  10  -8   21.55    3.73
   2  10   8   14.70    2.87
  -4 -11   8   38.59    3.84
   4 -11  -8   40.72    3.38
   4 -11  -8   39.94    3.89
  -4  11   8   37.74    4.51
   3 -11  -8    2.99    0.93
  -3 -11   8    0.33    1.42
   3  11  -8   -0.50    1.96
  -3  11   8    1.46    2.29
   2 -11  -8   32.45    3.85
  -2 -11   8   40.16    3.67
   2 -11  -8   38.36    3.12
  -2  11   8   38.83    4.14
   2  11  -8   27.74    4.25
   1 -11  -8   17.05    1.89
  -1 -11   8   18.15    2.60
   1  11  -8   12.83    2.72
  -1  11   8   17.51    3.15
  12   0  -9   26.55    2.98
 -12   0   9   27.50    2.74
 -11   0   9   74.07    5.50
  11   0  -9   61.75    5.59
 -10   0   9    1.27    0.70
 -10   0   9    0.97    0.43
  10   0  -9   -0.86    1.12
  10   0  -9    0.61    0.89
  -9   0   9  116.11    7.66
  -9   0   9  110.96    7.82
   9   0  -9   87.82    7.92
   9   0  -9   93.00    7.83
  -8   0   9   45.57    3.47
  -8   0   9   48.71    3.34
   8   0  -9   38.72    3.56
   8   0  -9   37.96    3.75
  -7   0   9   74.18    5.14
  -7   0   9   72.97    5.22
   7   0  -9   62.06    5.31
   7   0  -9   61.46    5.45
   6   0  -9  165.05   13.21
  -6   0   9  186.55   13.03
  -6   0   9  184.14   13.05
   6   0  -9  166.21   13.25
  -5   0   9    7.72    0.81
  -5   0   9    7.34    0.77
   5   0  -9    6.63    1.23
   5   0  -9    6.23    1.21
  -4   0   9  140.33   10.56
   4   0  -9  141.85   10.83
   4   0  -9  143.45   10.70
  -3   0   9   24.54    2.11
   3   0  -9   24.76    2.27
   3   0  -9   25.60    2.59
  -2   0   9   39.90    3.07
   2   0  -9   39.91    3.20
   2   0  -9   37.26    3.47
  -2   0   9   36.86    3.04
  -1   0   9   53.39    4.28
  -1   0   9   57.25    4.29
   1   0  -9   56.05    4.74
   0   0  -9   -0.06    1.09
   0   0   9    0.66    0.43
   0   0   9    0.77    0.51
   1   0   9   71.42    5.96
  -1   0  -9   79.11    6.41
   1   0   9   84.28    5.95
   2   0   9   57.99    4.74
   2   0   9   60.11    4.70
  -2   0  -9   64.44    5.27
  -3   0  -9   23.13    3.13
   3   0   9   25.70    2.16
   3   0   9   26.79    2.39
   4   0   9   60.65    4.97
   4   0   9   60.74    4.67
  -5   0  -9   -0.15    1.71
   5   0   9    2.18    1.13
  -6   0  -9   48.33    5.08
   6   0   9   47.14    4.25
 -12  -1   9   41.95    3.76
  12  -1  -9   35.18    4.32
 -12   1   9   45.80    3.72
  11  -1  -9    6.16    1.22
 -11  -1   9    7.50    1.48
 -11   1   9    5.77    1.09
  11   1  -9    3.36    1.23
  11   1  -9    4.32    1.51
 -10  -1   9  103.24    7.49
  10  -1  -9   83.49    7.42
 -10   1   9   99.28    7.20
 -10   1   9   98.38    7.43
   9  -1  -9   11.16    1.61
  -9  -1   9   10.79    1.47
  -9  -1   9   10.10    1.17
   9   1  -9    9.63    1.93
   9   1  -9   10.70    1.63
  -9   1   9   12.98    1.07
  -9   1   9   13.29    1.45
   8  -1  -9   69.86    5.88
  -8  -1   9   82.14    5.70
  -8  -1   9   82.13    5.56
   8  -1  -9   70.24    5.70
   8   1  -9   64.62    5.80
   8   1  -9   64.41    5.70
  -8   1   9   74.84    5.64
  -8   1   9   74.45    5.48
  -7  -1   9   74.49    5.58
   7  -1  -9   67.05    5.61
  -7  -1   9   74.61    5.49
   7  -1  -9   71.04    5.80
  -7   1   9   76.33    5.43
  -7   1   9   77.18    5.55
   7   1  -9   68.90    5.76
   7   1  -9   67.19    5.66
   6  -1  -9   20.11    2.17
  -6  -1   9   17.33    1.54
  -6  -1   9   17.81    1.54
   6   1  -9   13.25    2.04
  -6   1   9   17.59    1.43
  -6   1   9   18.03    1.57
   6   1  -9   15.03    1.90
  -5  -1   9  119.14    9.33
  -5  -1   9  121.35    9.38
   5  -1  -9  124.63    9.62
   5  -1  -9  120.45    9.46
   5   1  -9  122.61    9.60
  -5   1   9  139.54    9.37
  -5   1   9  133.65    9.32
   5   1  -9  119.90    9.48
  -4  -1   9    2.35    0.62
   4  -1  -9    3.46    0.76
  -4  -1   9    3.75    0.64
  -4   1   9    4.70    0.56
   4   1  -9    2.43    0.98
   4   1  -9    3.85    0.83
  -3  -1   9   76.95    6.61
   3  -1  -9   82.28    6.89
  -3  -1   9   86.83    6.59
   3  -1  -9   89.22    6.69
   3   1  -9   90.93    6.71
  -3   1   9   91.25    6.55
   3   1  -9   93.00    6.88
   2  -1  -9   89.10    7.25
  -2  -1   9   97.78    6.96
  -2  -1   9   90.00    6.89
   2  -1  -9   90.07    6.98
   2   1  -9   91.10    6.99
  -2   1   9   89.13    6.87
   2   1  -9   91.73    7.17
  -1  -1   9   15.20    1.63
   1  -1  -9   16.45    1.79
  -1  -1   9   17.10    1.67
   1  -1  -9   16.21    2.34
   1   1  -9   19.59    2.23
  -1   1   9   19.10    1.55
  -1   1   9   20.81    1.63
   0  -1   9  118.77    8.36
   0  -1  -9  107.42    8.69
   0  -1   9  105.09    8.33
   0   1   9  116.31    8.30
   0   1  -9  111.16    8.68
   0   1   9  105.37    8.30
   1  -1   9   20.39    1.87
  -1  -1  -9   22.43    2.57
   1  -1   9   23.08    1.79
   1   1   9   18.38    1.68
   1   1   9   17.29    1.77
  -1   1  -9   13.92    2.48
  -2  -1  -9   40.26    4.00
   2  -1   9   36.43    3.39
   2  -1   9   41.03    3.31
   2   1   9   43.35    3.40
  -2   1  -9   43.14    3.96
   2   1   9   44.88    3.27
   3  -1   9   71.54    5.12
  -3  -1  -9   72.22    5.83
   3  -1   9   67.61    5.27
  -3   1  -9   64.92    5.72
   3   1   9   65.04    5.07
   3   1   9   59.27    5.20
   4  -1   9    3.08    0.75
  -4  -1  -9    3.42    2.15
   4   1   9    5.06    1.04
   4   1   9    5.48    0.76
  -5  -1  -9   76.36    6.29
   5  -1   9   68.83    5.62
  -5   1  -9   68.47    6.14
   5   1   9   63.55    5.52
  -6  -1  -9    9.32    2.31
   6  -1   9    9.64    1.62
  -6   1  -9    7.36    2.19
   6   1   9    8.26    1.52
 -12  -2   9    7.17    1.45
  12  -2  -9    6.42    1.43
 -12   2   9    9.12    1.68
  12   2  -9    6.46    2.09
 -11  -2   9   68.13    5.49
  11  -2  -9   60.45    5.94
 -11   2   9   70.22    5.42
 -10  -2   9    8.56    1.66
  10  -2  -9   14.69    2.20
  10   2  -9   10.94    1.90
  10   2  -9   10.98    2.19
 -10   2   9   13.04    1.66
 -10   2   9   11.42    1.06
  -9  -2   9   86.43    6.13
   9  -2  -9   81.03    6.38
  -9  -2   9   88.17    5.94
  -9   2   9   79.79    6.55
  -9   2   9   67.18    5.78
   9   2  -9   63.13    6.15
  -8  -2   9   42.75    3.77
  -8  -2   9   45.91    3.91
   8  -2  -9   42.03    3.88
   8   2  -9   51.88    4.10
   8   2  -9   50.52    4.01
  -8   2   9   53.96    3.66
   7   2  -9   21.44    2.29
   7   2  -9   16.57    2.11
  -7   2   9   22.38    2.10
  -7   2   9   20.30    1.64
  -6  -2   9   69.42    5.50
  -6  -2   9   63.51    5.52
   6  -2  -9   70.51    5.58
   6   2  -9   79.50    5.77
   6   2  -9   70.26    5.67
  -6   2   9   77.67    5.40
   5  -2  -9    1.11    1.01
   5  -2  -9    2.15    0.68
  -5  -2   9    2.19    0.43
  -5  -2   9    0.50    0.55
  -5  -2   9    1.36    0.57
  -5   2   9    2.03    0.36
  -5   2   9    2.61    0.69
   5   2  -9    2.12    0.86
   5   2  -9    0.75    0.91
   4  -2  -9   52.80    4.70
   4  -2  -9   56.35    5.45
  -4  -2   9   57.04    4.63
   4   2  -9   63.66    4.80
   4   2  -9   63.82    4.95
  -4   2   9   66.74    4.56
  -3  -2   9   31.46    2.64
   3  -2  -9   33.70    2.66
  -3  -2   9   31.22    2.51
   3  -2  -9   29.70    3.08
   3   2  -9   27.99    2.69
   3   2  -9   29.13    2.90
  -3   2   9   29.87    2.38
  -2  -2   9   43.45    3.48
  -2  -2   9   42.15    3.38
   2  -2  -9   40.37    3.47
   2  -2  -9   37.37    3.92
   2   2  -9   45.15    3.74
  -2   2   9   46.35    3.29
   1  -2  -9   67.44    5.60
   1  -2  -9   75.85    5.30
  -1  -2   9   71.45    5.20
  -1   2   9   61.70    5.14
   1   2  -9   61.42    5.47
   0  -2   9   11.18    1.38
   0  -2  -9   10.17    2.06
   0  -2   9   14.16    1.41
   0   2  -9   12.54    1.99
   0   2   9   11.71    1.11
   0   2   9   11.40    1.26
   1  -2   9   59.91    5.13
  -1  -2  -9   63.39    5.58
   1  -2   9   68.71    5.12
  -1   2  -9   67.75    5.57
   1   2   9   70.10    5.02
   1   2   9   66.27    5.09
   2  -2   9   17.71    1.55
   2  -2   9   16.91    1.75
  -2  -2  -9   14.95    1.43
  -2  -2  -9   16.18    2.53
  -2   2  -9   12.31    2.42
   2   2   9   14.19    1.60
   2   2   9   13.44    1.38
  -3  -2  -9   34.41    3.97
   3  -2   9   36.07    3.37
   3  -2   9   37.53    3.18
   3   2   9   40.00    3.27
  -3   2  -9   43.47    3.98
   3   2   9   42.35    3.08
   4  -2   9   55.38    4.11
   4  -2   9   55.05    4.40
  -4  -2  -9   54.87    5.04
   4   2   9   47.68    4.20
  -4   2  -9   44.39    5.38
   5  -2   9    0.59    1.20
  -5  -2  -9    1.47    1.80
   5   2   9    1.40    1.03
  -5   2  -9    1.82    1.62
   6  -2   9   48.39    4.65
  -6  -2  -9   49.89    5.35
   6   2   9   58.86    5.16
   6   2   9   51.76    4.54
  -6   2  -9   55.16    5.26
  11  -3  -9    2.09    1.09
 -11  -3   9    2.06    1.11
 -11   3   9    3.43    1.04
 -11   3   9    2.72    0.64
  11   3  -9    0.38    1.43
  10  -3  -9   51.97    4.54
 -10  -3   9   56.39    4.76
  10   3  -9   53.97    4.79
 -10   3   9   57.83    4.20
  -9  -3   9   20.59    2.18
   9  -3  -9   19.94    2.06
  -9  -3   9   20.36    1.88
   9   3  -9   15.94    2.44
   9   3  -9   13.58    2.30
  -9   3   9   17.93    1.56
  -9   3   9   22.83    2.26
  -8  -3   9   25.14    2.51
   8  -3  -9   21.88    2.40
  -8  -3   9   23.93    2.33
   8   3  -9   29.01    2.74
  -8   3   9   27.12    2.91
   8   3  -9   30.77    2.77
  -8   3   9   26.73    2.07
   7  -3  -9   85.34    6.31
   7  -3  -9   81.42    6.34
  -7  -3   9   72.81    6.25
  -7  -3   9   83.43    6.31
  -7   3   9   76.17    6.42
   7   3  -9   78.51    6.42
  -7   3   9   81.36    6.09
   7   3  -9   91.46    6.49
  -6  -3   9    0.36    0.64
   6  -3  -9    0.56    0.74
   6  -3  -9    1.25    0.64
  -6  -3   9    1.31    0.49
  -6  -3   9    1.41    0.60
   6   3  -9   -0.75    0.86
   6   3  -9    0.44    0.93
  -6   3   9    0.68    0.88
  -6   3   9    0.51    0.26
  -5  -3   9  122.18    9.00
   5  -3  -9  114.82    9.09
   5  -3  -9  118.85    9.07
  -5  -3   9  133.52    8.94
  -5   3   9  105.44    9.11
  -5   3   9  118.08    8.90
   5   3  -9  126.66    9.22
   5   3  -9  117.99    9.13
  -4  -3   9   32.89    2.56
   4  -3  -9   33.11    3.12
  -4  -3   9   30.18    2.71
   4  -3  -9   31.99    2.64
  -4   3   9   26.91    2.57
   4   3  -9   30.15    2.79
   4   3  -9   31.01    2.93
  -4   3   9   29.56    2.38
  -3  -3   9   41.69    3.38
   3  -3  -9   35.28    3.70
  -3  -3   9   42.41    3.24
   3  -3  -9   41.57    3.31
  -3   3   9   37.30    3.16
   3   3  -9   39.50    3.53
  -3   3   9   42.01    3.08
   2  -3  -9   68.07    6.27
   2  -3  -9   78.83    6.02
  -2  -3   9   77.13    5.95
  -2  -3   9   85.49    6.09
   2   3  -9   78.65    6.22
  -2   3   9   78.73    5.85
  -1  -3   9    3.46    0.84
   1  -3  -9    3.15    1.24
   1   3  -9    5.20    1.18
  -1   3   9    5.08    0.65
  -1   3   9    5.52    0.87
  -1   3   9    5.50    1.04
   0  -3  -9   85.76    7.33
   0  -3   9  101.59    7.04
   0  -3  -9   82.45    6.86
   0  -3   9   88.28    6.99
   0  -3  -9   92.17    7.04
   0   3   9   88.06    6.86
   0   3   9   92.11    6.87
   0   3   9   99.42    6.93
   0   3  -9   95.05    7.29
   1  -3   9   15.01    1.47
  -1  -3  -9   12.98    1.31
   1  -3   9   14.08    1.64
  -1  -3  -9   10.95    2.34
   1   3   9   13.17    1.30
  -1   3  -9   11.97    2.20
   1   3   9   10.35    1.37
   1   3   9   12.96    1.26
   2  -3   9   69.41    5.24
   2  -3   9   64.72    5.35
  -2  -3  -9   65.31    5.81
   2   3   9   70.76    5.12
   2   3   9   67.58    5.23
  -2   3  -9   66.28    5.74
   3  -3   9   40.99    3.61
   3  -3   9   40.01    3.37
  -3  -3  -9   41.03    4.23
  -3  -3  -9   35.40    3.48
   3   3   9   43.67    3.45
  -3   3  -9   42.69    4.04
   3   3   9   45.55    3.23
   4  -3   9   13.45    2.07
   4  -3   9   13.36    1.56
  -4  -3  -9   12.16    2.30
   4   3   9   10.59    1.70
  -4   3  -9   12.29    2.10
   5  -3   9   33.32    3.53
   5  -3   9   34.00    3.01
  -5  -3  -9   31.61    4.21
   5   3   9   36.94    3.24
  -5   3  -9   39.68    4.00
   6  -3   9    1.74    1.49
  -6  -3  -9   -0.02    1.97
   6   3   9    2.40    1.47
   6   3   9    2.91    1.68
  -6   3  -9   -0.93    2.33
 -11  -4   9   38.47    3.74
  11  -4  -9   32.44    3.59
  11   4  -9   40.31    4.14
 -11   4   9   43.93    3.08
 -10  -4   9   -0.15    1.03
  10  -4  -9    3.35    1.68
  10  -4  -9   -0.10    0.93
 -10   4   9    0.85    0.59
  10   4  -9   -1.25    1.30
 -10   4   9    3.51    1.21
  -9  -4   9   56.91    5.03
   9  -4  -9   57.64    4.91
  -9  -4   9   52.49    4.77
   9  -4  -9   56.02    4.95
  -9   4   9   69.79    5.19
   9   4  -9   66.48    5.16
  -9   4   9   63.52    4.59
  -8  -4   9   25.99    2.60
  -8  -4   9   29.57    2.76
   8  -4  -9   31.36    2.68
   8  -4  -9   28.00    2.72
  -8   4   9   28.08    3.07
  -8   4   9   28.73    2.29
   8   4  -9   30.12    2.98
  -7  -4   9   29.95    2.29
   7  -4  -9   23.82    2.36
   7  -4  -9   24.11    2.42
  -7  -4   9   20.97    2.35
   7   4  -9   24.85    2.73
  -7   4   9   27.64    2.05
  -7   4   9   24.49    2.79
  -6  -4   9  136.01    9.13
   6  -4  -9  121.79    9.19
  -6  -4   9  134.63    9.13
   6  -4  -9  115.84    9.19
   6   4  -9  107.91    9.25
  -6   4   9  113.53    9.01
  -6   4   9  108.36    9.31
   6   4  -9  129.54    9.35
  -5  -4   9    2.22    0.67
   5  -4  -9    1.31    0.66
   5  -4  -9   -0.02    0.71
  -5  -4   9    1.75    0.82
  -5   4   9    1.15    0.87
   5   4  -9    0.71    0.97
  -5   4   9    0.38    0.27
  -4  -4   9  138.69   11.12
   4  -4  -9  145.65   11.03
   4  -4  -9  147.45   11.03
  -4  -4   9  168.76   11.01
   4   4  -9  148.08   11.17
  -4   4   9  130.24   10.86
  -3  -4   9   67.85    5.57
  -3  -4   9   68.84    5.51
   3  -4  -9   68.01    5.46
   3  -4  -9   67.58    5.47
   3   4  -9   73.92    5.70
  -3   4   9   71.39    5.28
  -3   4   9   72.16    5.39
  -2  -4   9   61.17    4.45
   2  -4  -9   56.62    4.35
   2  -4  -9   47.10    4.65
  -2  -4   9   62.18    4.36
  -2   4   9   47.33    4.18
  -2   4   9   54.58    4.13
   2   4  -9   51.91    4.57
  -1  -4   9  186.06   12.94
  -1  -4   9  189.96   13.01
   1  -4  -9  148.98   13.14
   1  -4  -9  163.05   12.97
  -1   4   9  167.04   12.79
  -1   4   9  185.40   12.86
  -1   4   9  167.31   12.83
   1   4  -9  172.82   13.11
   0  -4  -9    7.92    1.17
   0  -4  -9    6.06    1.55
   0  -4   9    7.38    1.13
   0  -4  -9    7.34    1.05
   0  -4   9    8.21    1.29
   0   4   9    7.94    1.03
   0   4   9    6.96    1.06
   0   4  -9    7.22    1.42
   0   4   9    6.33    0.81
  -1  -4  -9   79.33    6.17
   1  -4   9   90.16    6.24
   1  -4   9   85.47    6.35
  -1  -4  -9   80.24    6.70
   1   4   9   83.14    6.19
   1   4   9   74.84    6.03
   1   4   9   79.51    6.12
  -1   4  -9   70.31    6.54
   2  -4   9   23.52    2.04
  -2  -4  -9   18.51    2.98
   2  -4   9   21.59    2.32
  -2  -4  -9   19.24    2.06
  -3  -4  -9   19.53    3.09
  -3  -4  -9   23.48    2.23
   3  -4   9   24.27    2.11
   3   4   9   19.19    1.78
   3   4   9   20.97    2.14
  -3   4  -9   17.61    2.85
  -4  -4  -9   27.18    3.86
   4  -4   9   26.85    3.19
   4  -4   9   27.81    2.74
   4   4   9   36.13    3.57
   4   4   9   33.86    3.25
  -4   4  -9   35.30    3.58
   5  -4   9    1.86    0.90
   5  -4   9    3.08    1.38
  -5  -4  -9    0.63    1.95
   5   4   9    2.12    1.08
   5   4   9    3.55    1.65
  -5   4  -9    2.20    1.72
 -11  -5   9    2.30    1.42
  11  -5  -9    3.76    1.51
  11  -5  -9    2.64    1.31
  11   5  -9    3.87    1.71
  10  -5  -9   56.85    5.09
  10  -5  -9   55.68    5.14
  10   5  -9   57.10    5.34
 -10   5   9   67.17    5.36
 -10   5   9   64.42    4.64
  -9  -5   9    4.40    1.09
   9  -5  -9    9.01    1.64
  -9  -5   9    6.24    1.57
  -9   5   9    7.02    0.97
   9   5  -9    5.84    1.55
  -9   5   9    8.92    1.86
  -8  -5   9   47.68    4.58
   8  -5  -9   60.51    4.69
  -8  -5   9   59.93    4.77
  -8   5   9   59.49    4.39
  -8   5   9   52.86    5.01
   8   5  -9   62.81    4.94
   7  -5  -9   68.62    5.04
  -7  -5   9   70.72    5.05
  -7  -5   9   51.84    4.99
   7  -5  -9   65.34    5.01
  -7   5   9   59.39    4.76
  -7   5   9   59.39    5.34
   7   5  -9   62.87    5.21
  -6  -5   9   11.48    1.35
  -6  -5   9    9.33    1.84
  -6  -5   9   15.45    2.57
   6  -5  -9    8.64    1.43
   6  -5  -9    9.81    1.78
   6   5  -9   12.14    1.95
  -6   5   9   11.03    1.06
  -6   5   9   10.36    2.07
   5  -5  -9  109.97    8.94
  -5  -5   9  131.34    8.86
  -5  -5   9  103.16    9.05
   5  -5  -9  115.22    8.97
  -5  -5   9  134.55    9.00
  -5   5   9  108.33    8.80
  -5   5   9  118.82    9.07
   5   5  -9  121.15    9.15
  -4  -5   9   30.21    2.89
   4  -5  -9   32.79    2.68
   4  -5  -9   36.45    2.66
   4   5  -9   25.74    2.96
  -4   5   9   30.12    2.72
  -4   5   9   26.14    2.38
   3  -5  -9   82.16    6.07
   3  -5  -9   80.83    6.06
  -3  -5   9   82.63    6.22
  -3   5   9   72.37    6.01
   3   5  -9   78.77    6.29
  -3   5   9   72.67    5.87
   2  -5  -9  102.01    7.14
   2  -5  -9  104.94    7.13
   2  -5  -9   87.75    7.42
  -2  -5   9  102.17    7.25
   2   5  -9   84.10    7.29
  -2   5   9   81.92    6.91
  -2   5   9   85.97    7.03
   1  -5  -9   18.39    1.90
  -1  -5   9   20.14    1.97
  -1  -5   9   17.63    1.99
   1  -5  -9   11.71    2.48
  -1   5   9   15.37    1.66
  -1   5   9   15.49    1.41
   1   5  -9   15.05    2.23
  -1   5   9   16.47    1.60
   0  -5   9  115.33    8.05
   0  -5  -9  109.25    7.98
   0  -5  -9   93.82    8.29
   0  -5  -9  105.99    7.92
   0  -5   9  112.75    8.01
   0   5   9   96.69    7.83
   0   5   9   94.49    7.90
   1  -5   9    5.35    1.26
  -1  -5  -9    5.36    1.65
   1  -5   9    5.48    1.03
  -1  -5  -9    5.50    1.33
  -1   5  -9    8.85    1.65
   1   5   9    5.61    0.79
   1   5   9    7.88    1.37
   1   5   9    6.91    0.94
  -2  -5  -9   58.14    4.45
   2  -5   9   61.87    4.55
   2  -5   9   59.81    4.62
  -2  -5  -9   47.80    5.00
   2   5   9   50.27    4.24
   2   5   9   48.87    4.08
  -2   5  -9   49.95    4.82
   3  -5   9   36.51    3.50
   3  -5   9   35.16    3.03
  -3  -5  -9   30.40    4.05
  -3  -5  -9   36.10    3.29
   3   5   9   36.42    3.02
   3   5   9   29.44    3.71
  -4  -5  -9    4.72    2.07
   4  -5   9    6.88    1.61
  -4   5  -9    7.21    1.87
   4   5   9    5.69    1.71
   4   5   9    5.32    1.21
  -5  -5  -9   37.18    4.45
   5  -5   9   35.79    3.18
   5  -5   9   34.91    3.80
   5   5   9   34.47    3.29
   5   5   9   35.04    4.12
  -5   5  -9   38.18    4.02
  10  -6  -9    0.87    1.14
 -10  -6   9    0.59    1.44
  10  -6  -9    2.38    1.28
 -10   6   9    0.52    1.70
 -10   6   9    1.30    0.51
  10   6  -9   -1.65    1.60
  -9  -6   9   44.51    4.76
   9  -6  -9   52.40    4.45
   9  -6  -9   50.50    4.47
   9   6  -9   58.99    4.84
  -9   6   9   58.25    4.10
  -9   6   9   50.50    4.91
   8  -6  -9   21.07    2.07
  -8  -6   9   17.29    2.27
  -8  -6   9   13.89    2.01
  -8   6   9   15.51    2.83
   8   6  -9   15.76    2.55
  -8   6   9   16.88    1.53
  -7  -6   9   30.93    2.64
  -7  -6   9   21.83    2.92
   7  -6  -9   26.47    2.49
  -7   6   9   24.14    3.18
   7   6  -9   27.86    3.35
  -7   6   9   26.72    2.24
  -6  -6   9   57.09    5.35
   6  -6  -9   68.42    5.23
  -6  -6   9   74.44    5.26
   6  -6  -9   69.01    5.32
  -6   6   9   62.46    5.07
  -6   6   9   66.92    5.58
   6   6  -9   65.94    5.52
   5  -6  -9   -0.02    0.76
  -5  -6   9    0.31    1.03
   5  -6  -9    0.57    0.66
  -5  -6   9    0.98    0.75
  -5   6   9    1.07    1.07
   5   6  -9    0.62    1.16
  -5   6   9    0.75    0.38
  -4  -6   9   94.73    6.73
   4  -6  -9   92.73    6.55
   4  -6  -9   89.03    6.48
  -4   6   9   74.08    6.32
   4   6  -9   80.17    6.83
  -4   6   9   75.41    6.55
   3  -6  -9   31.51    2.61
  -3  -6   9   32.06    2.83
  -3  -6   9   29.28    2.84
   3  -6  -9   31.78    2.52
   3   6  -9   22.51    2.93
  -3   6   9   26.73    2.59
  -3   6   9   24.31    2.27
   2  -6  -9   23.85    2.94
   2  -6  -9   23.26    2.20
  -2  -6   9   24.23    2.49
  -2  -6   9   21.51    2.34
   2  -6  -9   22.32    2.07
  -2   6   9   19.51    2.09
   2   6  -9   16.64    2.51
  -2   6   9   19.09    1.77
  -1  -6   9   86.87    6.10
   1  -6  -9   79.86    5.91
   1  -6  -9   75.96    6.35
  -1  -6   9   81.07    6.06
   1  -6  -9   77.70    5.96
   1   6  -9   68.87    6.19
  -1   6   9   73.02    5.80
  -1   6   9   68.73    5.72
  -1   6   9   71.95    5.91
   0  -6  -9    2.89    0.94
   0  -6   9    0.87    0.86
   0  -6  -9    2.72    1.56
   0  -6   9    0.27    1.17
   0  -6  -9    2.18    1.02
   0   6  -9    1.28    1.26
   0   6   9    1.09    0.41
   0   6   9    1.85    0.91
   0   6   9    1.70    0.71
   1  -6   9   69.75    5.14
   1  -6   9   64.49    4.86
  -1  -6  -9   62.93    4.87
  -1  -6  -9   53.28    5.38
   1   6   9   59.57    4.67
   1   6   9   50.87    4.53
  -1   6  -9   53.88    5.18
   1   6   9   64.47    4.91
  -2  -6  -9   28.07    3.60
   2  -6   9   28.03    2.67
  -2  -6  -9   30.78    2.84
   2  -6   9   28.44    3.32
   2   6   9   25.04    2.24
   2   6   9   27.12    2.48
   2   6   9   32.53    2.95
  -2   6  -9   22.72    3.24
   3  -6   9   16.07    2.62
  -3  -6  -9   11.79    2.40
   3  -6   9   11.42    1.82
  -3  -6  -9   13.41    2.18
   3   6   9   14.85    1.80
  -3   6  -9   14.79    2.90
   4  -6   9   43.05    3.41
   4  -6   9   43.09    4.00
  -4  -6  -9   31.17    4.39
  -4  -6  -9   35.56    4.09
   4   6   9   34.05    4.21
  -4   6  -9   43.25    4.16
   5   6   9   -1.35    1.79
   9  -7  -9    6.21    1.36
   9  -7  -9   11.12    2.02
  -9  -7   9    5.91    2.17
   9   7  -9    8.21    1.92
  -9   7   9    6.94    2.00
  -9   7   9    9.14    1.10
   8  -7  -9   26.95    2.77
   8  -7  -9   25.18    2.57
  -8  -7   9   19.71    2.59
  -8  -7   9   26.75    2.93
   8   7  -9   28.52    3.22
  -8   7   9   28.19    2.21
  -8   7   9   23.50    3.45
  -7  -7   9   30.77    2.98
  -7  -7   9   27.82    2.96
   7  -7  -9   31.74    2.98
   7  -7  -9   33.51    2.81
  -7   7   9   30.90    3.65
   7   7  -9   30.28    3.31
  -7   7   9   29.89    2.53
  -6  -7   9    6.49    1.43
   6  -7  -9    4.59    1.08
   6   7  -9    7.65    1.64
  -6   7   9    6.38    0.91
  -6   7   9    6.18    1.61
   5  -7  -9   39.08    3.24
   5  -7  -9   39.65    3.40
  -5  -7   9   39.94    3.34
  -5  -7   9   39.90    3.59
   5   7  -9   37.59    3.78
  -5   7   9   38.15    4.65
  -5   7   9   36.78    3.09
  -4  -7   9    2.64    1.18
   4  -7  -9    2.71    0.98
   4  -7  -9    2.03    0.79
  -4   7   9    1.79    1.09
   4   7  -9    0.57    1.26
  -4   7   9    1.35    0.47
  -3  -7   9   30.28    3.23
   3  -7  -9   33.66    3.00
   3  -7  -9   33.02    2.84
  -3  -7   9   35.86    3.29
   3   7  -9   31.26    3.41
  -3   7   9   34.36    3.10
  -3   7   9   33.25    2.70
   2  -7  -9   28.65    2.58
   2  -7  -9   31.37    2.77
  -2  -7   9   24.90    2.90
  -2  -7   9   32.08    3.12
  -2   7   9   30.75    2.79
  -2   7   9   29.00    2.41
   2   7  -9   26.07    3.15
   1  -7  -9    1.83    1.69
  -1  -7   9    1.98    1.42
   1  -7  -9    2.28    0.87
   1  -7  -9    2.49    1.07
  -1  -7   9    2.20    1.11
  -1   7   9    0.92    1.20
  -1   7   9    3.60    1.06
  -1   7   9    3.23    0.58
   1   7  -9    2.75    1.40
  -1   7   9    3.76    0.80
   0  -7   9   44.40    4.27
   0  -7  -9   49.99    3.92
   0  -7  -9   50.67    4.59
   0  -7  -9   48.63    3.79
   0   7   9   42.53    3.53
   0   7  -9   41.78    4.21
   0   7   9   42.34    3.64
   0   7   9   44.85    3.95
  -1  -7  -9    5.03    1.92
  -1  -7  -9    6.84    1.39
   1  -7   9   10.63    1.75
   1  -7   9    5.60    1.23
   1   7   9    5.45    0.86
   1   7   9    5.56    1.50
  -1   7  -9    5.58    1.73
   1   7   9    6.58    0.98
   1   7   9    3.29    1.50
   2  -7   9   28.17    3.35
  -2  -7  -9   29.52    2.94
   2  -7   9   30.14    2.72
  -2   7  -9   23.37    3.45
   2   7   9   26.08    2.46
   2   7   9   23.97    2.20
   2   7   9   28.88    3.41
  -3  -7  -9   27.60    3.17
   3  -7   9   30.02    2.86
  -3  -7  -9   24.87    3.94
   3  -7   9   33.52    3.60
   3   7   9   28.63    3.34
   3   7   9   33.18    4.24
   4  -7   9    4.68    1.12
  -4  -7  -9    4.97    2.34
  -4  -7  -9    3.73    1.76
   4  -7   9    8.16    2.00
  -4   7  -9    5.17    2.06
   4   7   9    2.63    1.83
   9  -8  -9   33.11    3.29
  -9  -8   9   29.98    3.57
   9  -8  -9   28.09    3.00
  -9   8   9   27.24    3.98
   9   8  -9   24.99    4.28
  -9   8   9   31.62    2.56
   8  -8  -9   19.30    2.48
   8  -8  -9   18.71    2.15
  -8  -8   9   17.92    2.90
   8   8  -9   16.26    3.00
  -8   8   9   16.46    1.70
  -8   8   9   17.81    3.33
  -7  -8   9   17.68    2.87
  -7  -8   9   14.41    2.26
   7  -8  -9   16.49    1.96
   7  -8  -9   14.29    2.28
   7   8  -9   16.65    2.76
  -7   8   9   19.33    3.18
  -6  -8   9   43.09    3.86
   6  -8  -9   41.30    3.79
   6  -8  -9   39.98    3.56
  -6   8   9   49.19    5.95
   5  -8  -9    0.04    1.01
   5  -8  -9    0.31    0.72
  -5  -8   9    0.63    1.25
  -5   8   9    0.11    1.29
   5   8  -9    1.81    1.48
  -4  -8   9   39.84    4.17
   4  -8  -9   38.23    3.65
   4  -8  -9   39.54    3.45
   4   8  -9   50.18    4.15
   3  -8  -9   15.70    2.33
  -3   8   9   24.81    2.55
  -2  -8   9    9.22    1.73
   2  -8  -9   13.89    1.62
  -2  -8   9   13.67    2.51
   2  -8  -9   10.90    1.94
  -2   8   9   13.32    2.08
  -2   8   9   16.27    1.44
   1  -8  -9   28.51    2.85
   1  -8  -9   28.27    2.60
  -1  -8   9   26.12    2.95
  -1  -8   9   31.47    3.40
  -1   8   9   28.41    3.14
   0  -8  -9    1.80    1.23
   0  -8   9    0.25    1.09
   0  -8   9   -2.08    1.57
   0  -8  -9    1.03    0.91
   0   8   9    1.88    1.46
   0   8  -9    2.23    1.65
   0   8   9    1.40    0.83
   0   8   9    1.31    0.55
   0   8   9    1.05    1.54
  -1  -8  -9   34.91    3.41
  -1  -8  -9   37.05    3.78
   1  -8   9   36.92    3.73
   1   8   9   41.28    3.17
   1   8   9   41.03    3.34
  -1   8  -9   39.12    4.16
   1   8   9   47.20    4.04
   2  -8   9   18.32    2.43
   2  -8   9   20.83    3.42
  -2   8  -9   20.51    3.41
   2   8   9   23.10    2.21
   3  -8   9   12.64    1.98
  -3  -8  -9   11.64    2.08
   3  -8   9   13.28    2.41
  -3   8  -9   12.76    2.48
   3   8   9   10.88    2.31
   7  -9  -9   32.40    2.97
  -7  -9   9   29.80    3.25
   7  -9  -9   34.01    3.36
  -7   9   9   29.43    4.38
   7   9  -9   32.92    3.81
   6  -9  -9    4.35    1.02
   6  -9  -9    4.37    1.36
  -6  -9   9    3.87    1.47
  -6   9   9    4.70    1.94
   6   9  -9    5.96    1.88
   5  -9  -9   60.49    5.14
   5  -9  -9   59.88    4.87
  -5  -9   9   57.94    5.23
  -5   9   9   68.54    5.47
   5   9  -9   56.99    5.51
   4  -9  -9    6.21    1.38
   4  -9  -9    4.89    1.04
  -4  -9   9    6.80    1.65
   4   9  -9    9.26    1.93
  -4   9   9    7.38    1.86
   3  -9  -9   43.99    4.63
   3  -9  -9   46.97    3.94
  -3  -9   9   48.44    4.42
   3   9  -9   42.55    4.66
  -3   9   9   55.88    3.88
   2  -9  -9   43.36    3.60
   2  -9  -9   42.15    3.93
  -2  -9   9   41.93    4.07
   2   9  -9   44.03    4.36
  -2   9   9   44.86    4.71
  -1  -9   9    3.72    1.43
   1  -9  -9    5.32    1.42
   1  -9  -9    3.95    1.03
  -1   9   9    7.66    1.15
  -1   9   9    7.31    1.33
   1   9  -9    5.12    1.87
   0  -9   9   64.70    5.63
   0  -9   9   55.48    5.17
   0  -9  -9   57.33    4.87
   0  -9  -9   56.83    5.11
   0   9  -9   51.53    5.48
   0   9   9   67.27    5.36
   0   9   9   68.99    4.76
   1  -9   9    4.61    2.14
  -1  -9  -9    5.20    1.66
  -1  -9  -9    3.61    1.76
   1  -9   9    1.00    1.26
  -1   9  -9    1.41    1.82
   1   9   9    2.04    2.88
   1   9   9    5.97    1.82
   1   9   9    3.59    1.23
   1   9   9    4.02    0.80
  -2  -9  -9   21.85    3.22
   2  -9   9   28.93    3.96
   2  -9   9   19.36    2.59
  -2   9  -9   21.29    3.69
   6 -10  -9   71.33    5.82
   6 -10  -9   72.71    5.52
  -6 -10   9   69.26    5.79
   6  10  -9   60.28    6.29
  -6  10   9   68.49    6.31
   5 -10  -9    6.41    1.15
  -5 -10   9    5.68    1.68
   5 -10  -9    5.30    1.59
   5  10  -9    4.93    2.11
  -5  10   9    8.49    2.09
   4 -10  -9   62.39    5.28
  -4 -10   9   65.68    5.44
   4 -10  -9   64.45    4.98
   4  10  -9   54.35    5.72
  -4  10   9   62.64    5.62
   3 -10  -9   33.26    2.94
   3 -10  -9   30.59    3.38
  -3 -10   9   31.41    3.59
  -3  10   9   36.13    3.81
   3  10  -9   30.86    4.04
  -2 -10   9   19.81    3.03
   2 -10  -9   22.55    2.37
   2 -10  -9   23.60    2.90
   2  10  -9   23.91    3.59
  -2  10   9   28.36    2.30
  -2  10   9   23.81    3.25
   1 -10  -9   53.22    4.58
  -1 -10   9   54.29    5.02
   1 -10  -9   55.94    4.91
  -1  10   9   64.12    4.55
  -1  10   9   62.24    5.24
  -1  10   9   54.51    4.53
   1  10  -9   48.35    5.41
   0 -10   9   -1.56    1.31
   0 -10  -9    2.96    1.05
   0  10   9    1.01    1.78
   0  10   9    0.97    0.78
   0  10  -9   -0.52    1.95
 -11   0  10    4.68    1.20
 -10   0  10   71.29    5.51
 -10   0  10   74.66    5.34
  10   0 -10   63.43    5.65
  -9   0  10   37.14    2.78
   9   0 -10   31.80    3.18
  -9   0  10   35.34    2.93
   8   0 -10   62.41    5.23
  -8   0  10   65.26    5.02
  -8   0  10   69.73    4.95
   8   0 -10   61.65    5.69
   7   0 -10  122.91   10.02
  -7   0  10  134.69    9.73
  -7   0  10  138.82    9.68
   7   0 -10  121.59    9.87
   6   0 -10    7.43    1.49
   6   0 -10    9.32    1.55
  -6   0  10    8.46    0.90
  -6   0  10    9.61    0.95
   5   0 -10  131.48   10.45
  -5   0  10  144.80   10.28
   5   0 -10  136.74   10.63
   4   0 -10   40.94    3.69
   4   0 -10   39.19    3.39
  -4   0  10   38.98    3.13
  -4   0  10   39.57    3.19
   3   0 -10   55.75    4.66
  -3   0  10   46.18    4.12
  -3   0  10   57.21    4.18
   3   0 -10   55.15    4.34
   2   0 -10  154.90   11.63
   2   0 -10  148.98   11.37
  -2   0  10  149.27   11.26
  -2   0  10  149.87   11.27
   1   0 -10    0.61    1.23
  -1   0  10    0.63    0.46
  -1   0  10    0.38    0.55
   0   0 -10  114.02    9.10
   0   0  10  124.11    8.63
   0   0  10  105.22    8.61
   1   0  10   23.87    2.05
  -1   0 -10   23.77    3.01
   1   0  10   21.87    2.13
   2   0  10   33.81    2.66
   2   0  10   27.32    2.76
  -2   0 -10   34.08    3.56
   3   0  10   60.16    4.77
  -3   0 -10   63.60    5.60
  -4   0 -10    1.01    1.72
   4   0  10    2.44    1.10
  -5   0 -10   42.07    4.63
   5   0  10   38.78    3.73
  11  -1 -10   66.21    5.75
 -11  -1  10   71.56    5.91
 -11   1  10   78.61    5.61
  11   1 -10   62.81    5.77
  10  -1 -10   10.64    2.16
 -10  -1  10   13.20    1.49
 -10  -1  10   14.52    1.88
  10   1 -10   12.58    2.58
  10   1 -10   15.95    3.00
 -10   1  10   18.05    1.74
 -10   1  10   17.98    1.39
   9  -1 -10   47.29    3.78
  -9   1  10   41.73    3.54
  -9   1  10   43.18    3.37
   8  -1 -10   86.19    6.96
  -8  -1  10   90.24    6.49
  -8  -1  10   89.06    6.60
   8  -1 -10   79.72    6.68
  -8   1  10   93.58    6.44
   8   1 -10   80.07    6.85
  -8   1  10   89.39    6.53
   8   1 -10   75.03    6.72
   7  -1 -10   12.69    2.24
   7  -1 -10   10.87    1.53
  -7  -1  10    9.92    1.02
  -7   1  10    7.61    0.84
  -7   1  10    7.79    1.00
   7   1 -10    6.81    1.44
   7   1 -10    5.13    1.21
  -6  -1  10  111.24    8.35
   6  -1 -10  106.17    8.53
   6  -1 -10  109.52    8.77
  -6  -1  10  117.70    8.40
  -6   1  10  120.76    8.34
  -6   1  10  118.12    8.32
   6   1 -10  106.37    8.69
   6   1 -10  100.35    8.56
   5  -1 -10   22.91    2.72
   5  -1 -10   20.43    2.23
  -5  -1  10   19.58    1.97
  -5  -1  10   21.19    2.05
   5   1 -10   29.33    2.39
   5   1 -10   26.71    2.66
  -4  -1  10   63.55    5.21
  -4  -1  10   73.35    5.21
   4  -1 -10   74.00    5.38
   4  -1 -10   73.50    5.70
   4   1 -10   59.77    5.55
  -4   1  10   66.77    5.12
   4   1 -10   62.48    5.36
   3  -1 -10   70.54    5.79
  -3  -1  10   61.03    5.29
   3  -1 -10   71.20    5.41
  -3  -1  10   66.14    5.26
   3   1 -10   70.34    5.44
  -3   1  10   68.28    5.21
  -3   1  10   71.52    5.28
   3   1 -10   69.55    5.64
  -2  -1  10   15.28    1.55
   2  -1 -10   16.91    2.53
  -2  -1  10   16.33    1.59
  -2   1  10   15.56    1.54
   2   1 -10   13.42    2.24
  -1  -1  10   76.93    5.91
   1  -1 -10   80.12    6.05
   1  -1 -10   81.65    6.47
  -1  -1  10   89.96    5.98
   1   1 -10   70.46    6.32
  -1   1  10   70.36    5.85
  -1   1  10   71.31    5.88
   0  -1 -10   17.13    2.59
   0  -1  10   17.26    1.67
   0  -1  10   14.03    1.66
   0   1  10   17.50    1.56
   0   1 -10   14.42    2.50
   0   1  10   16.72    1.65
  -1  -1 -10   52.17    5.00
   1  -1  10   57.50    4.37
   1  -1  10   47.48    4.44
   1   1  10   53.80    4.38
  -1   1 -10   58.55    5.11
   1   1  10   63.25    4.34
   2  -1  10   47.63    4.05
  -2  -1 -10   53.86    4.78
   2  -1  10   52.29    3.92
  -2   1 -10   49.38    4.68
   2   1  10   47.34    3.87
   2   1  10   48.10    4.02
   3  -1  10    7.89    1.32
   3  -1  10    8.62    1.24
  -3  -1 -10    9.84    2.06
  -3   1 -10   11.30    1.97
  -4  -1 -10   57.71    4.94
   4  -1  10   46.67    3.85
   4  -1  10   46.51    4.14
   4   1  10   46.47    4.06
  -4   1 -10   45.43    4.85
  -5  -1 -10    8.72    2.26
   5  -1  10    7.84    1.53
  -5   1 -10    5.77    2.11
   5   1  10    4.31    1.35
  11  -2 -10    2.14    1.15
 -11  -2  10   -0.41    0.92
 -11   2  10    0.97    0.81
  11   2 -10    0.56    1.56
 -10  -2  10   55.83    4.14
  10  -2 -10   48.47    4.40
 -10  -2  10   50.55    4.51
  10   2 -10   47.81    4.70
 -10   2  10   54.67    3.99
 -10   2  10   57.45    4.34
  10   2 -10   47.27    4.62
  -9  -2  10   33.01    2.96
   9  -2 -10   30.03    3.05
  -9  -2  10   38.07    2.81
   9   2 -10   28.24    3.18
   9   2 -10   31.10    3.36
  -9   2  10   35.44    2.88
  -9   2  10   34.61    2.61
   8  -2 -10   13.10    1.64
  -8  -2  10   13.30    1.54
  -8   2  10   10.69    1.42
   8   2 -10    7.77    1.47
   8   2 -10    7.09    1.54
  -8   2  10    9.35    0.95
  -7  -2  10   99.81    7.19
   7  -2 -10   96.72    7.29
   7   2 -10   88.65    7.53
  -7   2  10  107.09    7.53
   7   2 -10   82.24    7.34
  -7   2  10   90.20    7.03
   6  -2 -10   11.44    2.32
  -6  -2  10    9.34    1.29
   6  -2 -10    9.43    1.52
  -6  -2  10    9.16    1.08
  -6  -2  10    7.86    1.26
   6   2 -10    9.07    1.47
   6   2 -10   10.88    2.00
  -6   2  10   10.12    0.94
  -6   2  10   12.54    1.42
   5  -2 -10   92.06    6.57
  -5  -2  10   76.25    6.08
  -5  -2  10   89.72    6.04
   5  -2 -10   87.00    6.22
   5   2 -10   71.26    6.34
  -5   2  10   69.26    5.98
   5   2 -10   69.61    6.19
  -5   2  10   76.87    5.91
  -4  -2  10   42.61    4.04
   4  -2 -10   48.67    4.11
  -4  -2  10   50.61    3.99
   4  -2 -10   45.99    4.61
  -4   2  10   55.19    3.87
   4   2 -10   55.40    4.50
   4   2 -10   54.11    4.22
  -3  -2  10   28.46    2.26
  -3  -2  10   27.28    2.16
   3  -2 -10   23.49    2.98
   3  -2 -10   26.74    2.34
  -3   2  10   20.34    2.08
  -3   2  10   20.26    1.92
  -2  -2  10   71.89    5.50
   2  -2 -10   65.09    5.52
   2  -2 -10   64.52    5.95
  -2  -2  10   62.11    5.40
   2   2 -10   79.34    5.83
  -2   2  10   71.40    5.32
  -2   2  10   76.96    5.39
  -1  -2  10    1.83    0.71
   1  -2 -10    2.56    0.90
  -1  -2  10    2.87    0.74
   1  -2 -10    1.93    1.39
   1   2 -10    3.01    1.22
  -1   2  10    2.86    0.64
  -1   2  10    1.94    0.46
   0  -2  10   55.62    5.03
   0  -2  10   65.33    5.05
   0  -2 -10   58.77    5.53
   0   2  10   71.66    4.93
   0   2 -10   65.39    5.54
   0   2  10   68.17    5.03
   1  -2  10   22.27    2.30
  -1  -2 -10   25.27    3.15
   1  -2  10   25.75    2.21
  -1   2 -10   24.05    3.14
   1   2  10   24.99    2.12
   1   2  10   23.17    2.19
  -2  -2 -10   29.30    3.65
   2  -2  10   30.01    2.90
   2  -2  10   30.15    2.70
   2   2  10   35.02    2.82
  -2   2 -10   36.16    3.64
   3  -2  10   47.43    3.78
  -3  -2 -10   52.12    4.80
   3  -2  10   46.36    4.00
   3   2  10   44.58    3.67
  -3   2 -10   46.09    4.60
  -4  -2 -10    3.81    2.00
   4  -2  10    4.29    0.92
   4  -2  10    5.49    1.33
   4   2  10    3.80    1.11
  -4   2 -10    4.22    1.85
   5  -2  10   43.26    4.09
  -5  -2 -10   42.45    4.86
  -5   2 -10   45.51    4.70
   5   2  10   42.61    3.86
 -11  -3  10   43.76    3.92
  11  -3 -10   42.43    3.99
 -11   3  10   43.57    3.39
 -11   3  10   47.34    3.84
  11   3 -10   40.14    4.42
  10  -3 -10   12.23    2.00
 -10  -3  10   12.83    1.96
 -10   3  10   12.44    2.55
  10   3 -10   10.41    1.94
  -9  -3  10   33.70    2.77
  -9  -3  10   31.61    3.60
   9  -3 -10   27.61    3.19
  -9   3  10   31.77    2.96
  -9   3  10   30.85    2.47
   9   3 -10   36.26    3.58
   9   3 -10   30.01    3.34
  -8  -3  10   58.69    4.56
  -8  -3  10   62.58    4.65
   8  -3 -10   58.04    4.67
  -8   3  10   55.08    4.33
  -8   3  10   51.83    5.33
   8   3 -10   58.44    4.92
   8   3 -10   54.36    4.90
  -7  -3  10   -0.32    0.65
  -7  -3  10    0.82    0.68
   7  -3 -10    1.73    0.81
  -7  -3  10    0.06    0.68
   7   3 -10    1.31    1.20
   7   3 -10    2.38    1.23
  -7   3  10    3.06    0.97
   6  -3 -10   64.20    4.97
  -6  -3  10   63.77    4.85
   6   3 -10   60.37    5.12
   6   3 -10   66.81    5.23
  -6   3  10   63.61    4.68
  -6   3  10   53.66    4.97
  -5  -3  10   26.94    2.24
   5  -3 -10   24.36    2.39
   5   3 -10   25.08    2.70
  -5   3  10   26.46    1.99
  -5   3  10   21.30    2.31
   5   3 -10   25.09    2.76
   4  -3 -10   23.54    3.26
  -4  -3  10   27.49    2.31
  -4  -3  10   24.18    2.44
   4  -3 -10   26.76    2.44
  -4   3  10   25.51    2.06
   4   3 -10   25.06    2.79
   3  -3 -10   98.06    8.52
   3  -3 -10  108.18    8.20
  -3  -3  10  108.25    8.24
  -3  -3  10  107.96    8.11
  -3   3  10  109.66    7.99
   3   3 -10  108.81    8.42
  -2  -3  10    1.55    0.75
   2  -3 -10    0.11    0.82
  -2  -3  10    1.48    0.82
   2  -3 -10    0.29    1.34
  -2   3  10    0.43    0.31
   2   3 -10    0.53    1.07
  -2   3  10    0.53    0.59
   1  -3 -10   90.47    6.85
  -1  -3  10   97.50    6.80
   1  -3 -10   92.66    7.24
  -1   3  10   89.63    6.70
  -1   3  10   76.40    6.61
   1   3 -10   82.98    7.09
   0  -3  10   21.19    1.96
   0  -3 -10   17.36    2.78
   0  -3  10   17.57    2.02
   0   3  10   19.14    1.80
   0   3  10   18.45    1.61
   0   3 -10   16.89    2.62
   1  -3  10   34.73    3.37
  -1  -3 -10   35.09    4.14
   1  -3  10   38.39    3.27
  -1   3 -10   39.85    3.98
   1   3  10   43.76    3.12
   1   3  10   42.00    3.26
  -2  -3 -10   43.82    4.40
   2  -3  10   40.19    3.46
   2  -3  10   40.10    3.66
  -2   3 -10   42.67    4.23
   2   3  10   40.89    3.49
   2   3  10   45.67    3.34
   3  -3  10    3.60    1.24
  -3  -3 -10    6.87    2.05
   3   3  10    6.66    1.01
  -3   3 -10    8.08    1.87
   4  -3  10   42.87    4.06
  -4  -3 -10   44.89    5.04
   4  -3  10   47.01    4.18
   4   3  10   48.55    3.96
  -4   3 -10   49.40    4.70
  -5  -3 -10    3.76    2.30
   5  -3  10    3.90    1.55
  -5   3 -10    3.95    1.96
   5   3  10    5.24    1.32
  11  -4 -10    2.93    1.24
 -11  -4  10    0.67    1.15
 -11   4  10    0.91    0.43
 -11   4  10    2.56    1.34
  11   4 -10   -0.26    1.74
  10  -4 -10   33.15    3.41
 -10  -4  10   32.21    3.44
  10   4 -10   38.23    3.84
 -10   4  10   41.49    3.50
 -10   4  10   36.30    2.84
  -9  -4  10   22.89    2.30
  -9  -4  10   21.09    2.11
   9  -4 -10   22.93    2.37
   9   4 -10   16.03    2.77
  -9   4  10   16.51    1.91
  -9   4  10   19.87    2.54
   8  -4 -10    7.69    1.47
  -8  -4  10   10.17    1.63
  -8  -4  10   10.58    1.64
  -8   4  10   12.78    2.11
   8   4 -10   14.73    2.31
  -8   4  10   12.30    1.07
  -7  -4  10   62.38    4.63
  -7  -4  10   63.53    4.64
   7  -4 -10   55.34    4.72
   7  -4 -10   58.15    4.77
  -7   4  10   52.48    4.90
   7   4 -10   61.43    5.02
  -7   4  10   58.60    4.42
   7   4 -10   52.40    5.02
  -6  -4  10    4.71    0.91
   6  -4 -10    3.69    0.97
   6  -4 -10    4.64    0.99
   6   4 -10    3.53    1.32
  -6   4  10    4.38    0.61
  -6   4  10    4.29    1.19
   6   4 -10    2.87    1.32
  -5  -4  10   79.58    5.83
   5  -4 -10   69.80    5.90
   5  -4 -10   67.76    5.86
  -5   4  10   73.66    5.93
  -5   4  10   77.12    5.64
   5   4 -10   80.81    6.14
  -4  -4  10   76.16    5.36
   4  -4 -10   65.17    5.38
  -4  -4  10   66.86    5.50
  -4   4  10   67.42    5.13
  -4   4  10   63.43    5.83
   4   4 -10   67.99    5.86
   3  -4 -10   32.04    3.04
   3  -4 -10   30.87    3.78
  -3  -4  10   35.17    3.12
  -3  -4  10   37.11    3.01
  -3   4  10   38.16    2.68
  -3   4  10   30.05    2.80
   3   4 -10   33.62    3.37
  -2  -4  10  141.66    9.69
  -2  -4  10  140.02    9.78
   2  -4 -10  114.08    9.99
   2  -4 -10  125.94    9.69
  -2   4  10  129.88    9.48
  -2   4  10  112.51    9.50
  -2   4  10  131.86    9.57
   2   4 -10  123.03    9.89
  -1  -4  10    2.53    0.93
  -1  -4  10    2.40    0.89
   1  -4 -10    1.79    1.46
   1  -4 -10    2.32    1.03
  -1   4  10    1.97    0.43
   1   4 -10    2.26    1.27
  -1   4  10    2.11    0.58
  -1   4  10    2.46    0.71
   0  -4 -10  108.23    8.25
   0  -4 -10  103.35    8.50
   0  -4  10  112.17    8.10
   0   4  10   96.32    7.86
   0   4 -10   98.80    8.36
   0   4  10  111.58    7.96
  -1  -4 -10   48.35    5.06
   1  -4  10   51.37    4.44
   1  -4  10   51.63    4.30
   1   4  10   54.98    4.22
  -1   4 -10   57.28    4.93
   1   4  10   54.28    4.09
   2  -4  10   32.88    2.64
  -2  -4 -10   29.71    4.22
   2  -4  10   30.80    4.02
   2   4  10   26.57    2.57
   2   4  10   26.04    2.32
   3  -4  10   51.02    4.20
   3  -4  10   51.19    4.55
  -3  -4 -10   52.38    5.25
  -3   4 -10   54.42    4.93
   3   4  10   49.54    4.48
   4  -4  10    3.99    1.51
   4  -4  10    4.50    1.55
  -4  -4 -10    5.81    2.27
   4   4  10    2.88    1.10
  -4   4 -10    3.11    1.75
   5  -4  10   37.36    3.75
   5   4  10   35.97    3.40
   5   4  10   32.65    4.13
  10  -5 -10    2.59    1.31
  10  -5 -10    1.27    1.23
 -10   5  10    0.84    0.41
 -10   5  10    1.69    1.33
  10   5 -10    2.11    1.64
   9  -5 -10   31.24    3.04
  -9  -5  10   27.40    3.77
  -9  -5  10   27.18    2.79
   9  -5 -10   30.46    3.05
  -9   5  10   30.97    2.40
   9   5 -10   30.93    3.47
   8  -5 -10   25.28    2.75
  -8  -5  10   23.87    2.78
   8  -5 -10   25.74    2.74
  -8   5  10   30.31    2.22
  -8   5  10   25.25    3.66
   8   5 -10   32.08    3.18
   7  -5 -10    6.81    1.81
   7  -5 -10    5.25    1.17
  -7   5  10    7.98    1.58
   7   5 -10    7.73    1.57
  -7   5  10    6.26    0.82
   6  -5 -10   90.96    6.89
   6  -5 -10   89.70    6.87
  -6   5  10   84.55    7.03
  -6   5  10   85.71    6.62
   6   5 -10   90.30    7.11
  -5  -5  10    6.17    1.42
  -5  -5  10   13.36    1.83
   5  -5 -10   11.70    1.65
   5  -5 -10   12.28    1.52
   5   5 -10   10.15    2.10
  -5   5  10    9.36    1.84
  -5   5  10    8.12    0.95
   4  -5 -10   79.20    6.12
  -4  -5  10   78.43    6.29
   4  -5 -10   74.90    6.11
   4   5 -10   81.37    6.42
  -4   5  10   78.52    5.87
  -4   5  10   75.25    6.15
   3  -5 -10   83.64    6.41
   3  -5 -10   82.66    6.39
  -3  -5  10   92.09    6.46
   3  -5 -10   77.21    6.83
  -3  -5  10   81.94    6.54
  -3   5  10   77.39    6.29
  -3   5  10   79.95    6.14
   3   5 -10   78.44    6.63
   2  -5 -10    9.46    1.76
  -2  -5  10   10.02    1.79
  -2  -5  10   13.06    1.89
   2   5 -10   10.63    1.80
  -2   5  10   12.43    1.11
  -2   5  10   13.02    1.44
  -2   5  10   10.18    1.45
  -1  -5  10  127.38    8.99
   1  -5 -10  117.39    8.91
   1  -5 -10  104.75    9.29
  -1  -5  10  125.45    8.95
  -1   5  10  118.94    8.76
  -1   5  10  110.59    8.77
   1   5 -10  109.83    9.12
  -1   5  10  115.03    8.68
   0  -5 -10    8.32    2.11
   0  -5  10   14.06    1.71
   0  -5 -10   13.00    1.93
   0  -5  10   12.27    2.04
   0   5  10    9.25    1.06
   0   5  10    9.95    1.37
   0   5  10    9.44    1.48
   0   5 -10   10.58    1.85
   1  -5  10   60.21    4.71
   1  -5  10   65.17    4.93
  -1  -5 -10   51.90    5.45
  -1   5 -10   54.54    5.32
   1   5  10   57.77    4.57
   1   5  10   56.94    4.43
   1   5  10   57.71    4.77
  -2  -5 -10   52.99    5.46
   2   5  10   54.73    4.28
  -2   5 -10   50.94    5.01
   2   5  10   53.01    4.09
   3  -5  10    5.04    1.68
   3  -5  10    5.85    1.12
  -3  -5 -10    2.90    2.20
   3   5  10    6.00    1.12
   3   5  10    5.28    1.73
  -3   5 -10    5.26    1.88
   4  -5  10   64.49    5.07
  -4  -5 -10   56.88    5.74
   4  -5  10   57.92    4.52
   4   5  10   45.29    5.20
  -4   5 -10   52.74    5.25
   4   5  10   52.37    4.54
  10  -6 -10   41.49    4.04
  10  -6 -10   41.46    4.03
  10   6 -10   39.37    4.50
 -10   6  10   45.91    3.40
 -10   6  10   44.36    4.35
   9  -6 -10   40.87    3.78
   9  -6 -10   38.88    3.77
   9   6 -10   38.30    4.19
  -9   6  10   41.79    4.18
  -9   6  10   42.51    3.22
   8  -6 -10   18.58    2.22
   8  -6 -10   20.96    2.31
  -8  -6  10   14.10    2.20
   8   6 -10   16.27    2.73
  -8   6  10   12.82    2.91
  -8   6  10   17.51    1.55
   7  -6 -10   70.43    5.85
   7  -6 -10   70.21    5.89
  -7   6  10   76.25    5.59
   7   6 -10   76.52    6.19
  -7   6  10   73.51    6.36
  -6  -6  10    1.82    1.13
  -6   6  10    3.51    1.37
  -6   6  10    2.27    0.63
  -5  -6  10   49.86    4.92
   5  -6 -10   56.74    4.71
  -5  -6  10   62.27    5.01
   5  -6 -10   59.10    4.80
   5   6 -10   58.14    5.09
  -5   6  10   58.25    4.48
  -5   6  10   64.20    5.25
  -4  -6  10   24.40    2.77
   4  -6 -10   20.63    2.64
   4  -6 -10   22.25    2.46
  -4  -6  10   19.29    2.68
  -4   6  10   27.40    2.54
   4   6 -10   24.29    2.95
  -4   6  10   25.88    2.01
   3  -6 -10   29.94    2.60
   3  -6 -10   26.45    2.69
  -3  -6  10   28.89    3.03
   3   6 -10   28.24    3.11
  -3   6  10   27.40    2.24
  -3   6  10   24.66    2.58
   2  -6 -10   65.59    4.95
  -2  -6  10   67.70    5.10
   2  -6 -10   66.35    5.62
   2  -6 -10   68.49    4.89
  -2   6  10   53.88    4.59
   2   6 -10   52.33    5.22
  -2   6  10   51.99    4.79
  -1  -6  10    0.12    1.26
  -1  -6  10   -1.08    1.03
   1  -6 -10   -0.74    1.09
   1  -6 -10    0.12    1.81
  -1   6  10   -0.07    0.90
   1   6 -10    0.59    1.35
  -1   6  10    0.24    0.36
  -1   6  10   -0.83    0.83
   0  -6 -10   48.70    4.61
   0   6  10   39.85    3.31
   0   6 -10   44.99    4.90
   0   6  10   41.53    3.47
   0   6  10   41.22    3.64
   1  -6  10   20.17    2.03
  -1  -6 -10   16.33    3.36
   1   6  10   14.25    1.71
   1   6  10   14.29    1.39
   1   6  10    9.96    2.02
  -1   6 -10   15.20    2.84
   1   6  10   16.05    2.12
   2  -6  10   15.19    1.95
  -2  -6 -10   16.61    3.48
   2  -6  10   15.77    2.21
   2   6  10   14.02    1.41
  -2   6 -10   15.14    2.42
   2   6  10    9.82    2.06
   3  -6  10   44.41    3.92
  -3  -6 -10   32.88    4.63
   3  -6  10   39.42    3.25
  -3   6 -10   35.56    4.19
   3   6  10   32.01    3.27
   3   6  10   27.23    4.00
   4   6  10   -1.24    1.32
   4   6  10   -2.24    1.79
   9  -7 -10   25.15    2.73
   9  -7 -10   25.74    2.81
  -9   7  10   22.65    2.01
  -9   7  10   17.12    3.51
   9   7 -10   21.24    3.33
  -8  -7  10   31.03    4.11
   8  -7 -10   42.05    3.82
   8  -7 -10   42.64    3.76
   8   7 -10   44.97    4.26
  -8   7  10   44.81    3.32
  -8   7  10   38.45    4.33
  -7  -7  10    1.80    1.38
   7  -7 -10    4.43    1.23
   7  -7 -10    4.40    1.14
   7   7 -10    3.74    1.67
  -7   7  10    2.41    1.74
  -7   7  10    3.40    0.62
   6  -7 -10   56.61    4.60
   6  -7 -10   52.64    4.49
  -6   7  10   54.98    5.14
  -6   7  10   54.39    4.26
   6   7 -10   54.54    5.21
   5  -7 -10    4.59    1.02
  -5  -7  10    2.53    1.53
   5  -7 -10    3.92    1.18
  -5   7  10    4.52    0.69
  -5   7  10    5.02    1.40
   5   7 -10    5.50    1.63
   4  -7 -10   25.45    3.17
  -4  -7  10   23.10    4.12
   4  -7 -10   27.52    3.18
  -4   7  10   34.13    2.60
   4   7 -10   31.22    3.44
  -4   7  10   36.35    3.13
  -3  -7  10   23.80    3.22
   3  -7 -10   20.13    2.26
   3  -7 -10   20.77    2.42
  -3   7  10   21.87    2.42
  -3   7  10   20.58    2.05
   3   7 -10   18.91    3.66
   2  -7 -10    4.08    1.10
   2  -7 -10    4.74    1.30
  -2  -7  10    3.37    1.67
   2  -7 -10    6.65    2.48
  -2  -7  10    3.96    1.43
  -2   7  10    5.96    1.24
  -2   7  10    6.81    0.92
   2   7 -10    6.34    2.13
   1  -7 -10   35.64    3.38
  -1  -7  10   35.55    3.64
  -1  -7  10   42.20    4.04
   1  -7 -10   39.52    4.58
   1  -7 -10   36.63    3.59
  -1   7  10   38.74    3.49
  -1   7  10   41.86    3.26
  -1   7  10   43.06    3.11
   1   7 -10   34.90    3.94
   0  -7  10    1.59    1.15
   0  -7  10    0.82    1.70
   0  -7 -10    3.96    1.31
   0  -7 -10    1.80    2.16
   0   7 -10    2.33    1.59
   0   7  10    4.13    1.40
   0   7  10    2.27    0.53
   0   7  10    3.34    1.17
   0   7  10    1.74    1.55
   1  -7  10   18.22    2.31
   1  -7  10   23.44    3.20
  -1  -7 -10   17.85    2.77
   1   7  10   20.73    2.67
   1   7  10   16.53    1.66
  -1   7 -10   17.29    3.16
  -2  -7 -10   19.84    3.87
   2  -7  10   18.03    2.42
   2  -7  10   21.89    3.44
  -2   7 -10   22.47    3.49
   2   7  10   24.92    3.03
   3  -7  10    0.25    1.87
  -3  -7 -10    1.55    2.41
   3  -7  10   -0.23    1.09
   3   7  10    1.47    1.09
   3   7  10    0.85    1.84
  -3   7 -10   -0.16    1.95
  -8  -8  10   11.94    1.86
   8  -8 -10   13.43    2.42
   8  -8 -10   12.50    2.10
   8   8 -10   14.53    3.13
  -8   8  10   11.06    2.89
  -8   8  10   14.64    1.48
   7  -8 -10   53.41    4.23
   7  -8 -10   48.57    4.03
  -7  -8  10   43.35    4.25
  -7   8  10   44.00    3.70
   7   8 -10   44.51    4.64
  -7   8  10   44.70    4.78
  -6  -8  10    0.52    1.42
   6  -8 -10    1.80    1.21
   6  -8 -10   -0.46    0.89
  -6   8  10   -1.07    1.76
   6   8 -10   -0.75    1.62
  -6   8  10   -0.05    0.49
  -5  -8  10   43.60    4.25
   5  -8 -10   46.23    4.01
   5  -8 -10   47.65    3.81
   5   8 -10   40.10    4.43
  -5   8  10   42.94    4.25
  -5   8  10   45.90    3.58
  -4  -8  10    9.84    2.00
   4  -8 -10   14.87    2.19
   4  -8 -10   12.45    1.80
  -4   8  10   14.13    1.45
   4   8 -10   13.60    2.82
  -4   8  10   14.27    2.40
   3  -8 -10   13.39    2.13
  -3  -8  10   10.98    2.01
   3  -8 -10   12.58    1.80
   3   8 -10   13.79    2.82
  -3   8  10   15.15    1.49
  -3   8  10   12.96    2.29
  -2  -8  10   37.63    4.28
   2  -8 -10   33.49    3.33
  -2  -8  10   30.06    3.72
  -2   8  10   41.89    3.74
  -2   8  10   43.65    3.13
   2   8 -10   38.39    4.13
   1  -8 -10    1.33    0.99
  -1  -8  10    0.18    1.91
  -1  -8  10    0.41    1.30
  -1   8  10    2.39    1.28
   1   8 -10   -0.49    1.60
  -1   8  10    1.01    1.91
  -1   8  10    2.52    2.32
  -1   8  10    1.01    0.52
   0  -8 -10   23.00    3.73
   0  -8  10   22.02    3.07
   0  -8 -10   24.15    4.51
   0   8  10   32.66    3.48
   0   8 -10   29.73    3.65
   0   8  10   32.75    2.45
   0   8  10   31.06    2.78
   1  -8  10    8.50    1.60
   1  -8  10    5.66    2.23
  -1  -8 -10    6.68    2.71
   1   8  10   12.62    1.65
  -1   8 -10   11.61    2.38
   1   8  10   11.02    1.38
   1   8  10    6.10    2.04
  -2  -8 -10    5.80    2.79
   2  -8  10    9.76    2.41
   2  -8  10    8.48    1.62
  -2   8 -10   10.95    2.38
   2   8  10   11.32    1.86
   7  -9 -10    3.50    1.50
  -7  -9  10    0.31    1.51
   7  -9 -10    2.14    1.10
   7   9 -10    4.99    2.11
  -7   9  10    3.93    2.10
  -7   9  10    2.68    0.76
   6  -9 -10   47.57    4.51
  -6  -9  10   49.74    4.70
   6  -9 -10   50.29    4.21
  -6   9  10   52.74    4.00
  -6   9  10   50.46    4.99
   6   9 -10   44.72    4.95
   5  -9 -10    7.30    1.31
   5  -9 -10    6.26    1.51
  -5  -9  10    6.14    1.80
   5   9 -10    5.83    1.99
  -5   9  10    4.82    0.88
  -5   9  10    7.07    1.88
   4  -9 -10   34.13    3.09
   4  -9 -10   30.76    3.46
  -4  -9  10   33.07    3.82
  -4   9  10   37.87    2.90
  -4   9  10   32.49    3.93
   4   9 -10   31.38    4.05
  -3  -9  10   31.67    3.51
   3  -9 -10   28.76    2.80
   3  -9 -10   29.16    3.23
  -3   9  10   28.09    3.68
  -3   9  10   31.27    2.59
   3   9 -10   26.54    3.77
   2  -9 -10    3.84    1.14
  -2  -9  10    1.81    1.62
   2  -9 -10    6.10    1.57
  -2   9  10    6.07    2.48
  -2   9  10    5.75    0.87
   2   9 -10    4.57    2.06
   1  -9 -10   42.74    4.40
  -1  -9  10   43.40    4.50
   1  -9 -10   43.50    4.07
  -1   9  10   50.52    3.96
  -1   9  10   54.19    3.88
  -1   9  10   57.08    4.65
   1   9 -10   40.85    4.84
   0  -9  10    3.33    1.57
   0  -9 -10    4.42    1.31
   0  -9 -10    4.86    1.71
   0  -9  10    6.88    2.50
   0   9  10    5.35    1.12
   0   9  10    6.66    1.09
   0   9  10    7.18    1.84
   0   9 -10    5.42    2.05
  -4 -10  10   33.94    3.84
   4 -10 -10   32.52    2.99
   4 -10 -10   30.98    3.54
   4  10 -10   24.72    4.17
  -4  10  10   33.60    2.79
  -4  10  10   29.11    3.86
   3 -10 -10   10.06    1.95
  -3 -10  10   12.57    2.25
   3 -10 -10   12.27    1.88
  -3  10  10   12.61    1.57
  -3  10  10    6.88    2.13
   3  10 -10   10.98    2.40
   2 -10 -10   57.80    5.46
  -2 -10  10   63.86    5.67
   2 -10 -10   62.04    5.08
  -2  10  10   70.36    4.96
  -2  10  10   65.39    5.69
   2  10 -10   49.16    5.95
  11   0 -11   27.93    3.38
 -11   0  11   29.61    2.70
 -10   0  11   35.78    2.87
 -10   0  11   35.75    3.06
   9   0 -11    6.80    1.44
   9   0 -11    4.44    1.74
  -9   0  11    7.32    1.13
  -9   0  11    7.41    0.91
  -8   0  11   74.10    5.35
  -8   0  11   71.15    5.25
   8   0 -11   65.83    5.63
   8   0 -11   63.15    5.90
   7   0 -11    2.53    1.50
   7   0 -11    1.98    1.05
  -7   0  11    1.06    0.41
   6   0 -11  100.03    8.34
   6   0 -11  108.78    8.61
  -6   0  11  113.49    8.09
   5   0 -11   81.00    6.25
  -5   0  11   78.33    6.02
  -5   0  11   76.51    6.03
   5   0 -11   77.55    6.51
   4   0 -11   73.75    5.86
  -4   0  11   73.23    5.64
  -4   0  11   72.05    5.59
   4   0 -11   73.21    6.17
   3   0 -11  121.84    9.36
   3   0 -11  119.13    9.06
  -3   0  11  109.16    8.85
  -3   0  11  120.89    8.89
  -2   0  11    4.57    0.93
   2   0 -11    5.49    1.66
  -2   0  11    4.71    0.77
   1   0 -11  107.10    8.35
  -1   0  11  106.53    7.80
  -1   0  11   94.77    7.78
   0   0  11   24.94    2.50
   0   0 -11   32.53    3.46
   0   0  11   28.23    2.43
  -1   0 -11   32.15    3.62
   1   0  11   28.38    2.47
   1   0  11   26.05    2.86
  -2   0 -11   51.28    4.90
   2   0  11   51.18    4.00
   2   0  11   48.54    4.14
   3   0  11    0.21    1.07
  -3   0 -11    0.75    1.73
   3   0  11   -0.24    0.66
  -4   0 -11   49.72    5.02
   4   0  11   45.65    4.16
 -11  -1  11   11.22    1.81
  11  -1 -11   12.70    2.37
 -11   1  11   13.18    1.30
  11   1 -11   11.84    2.07
 -11   1  11   13.58    1.65
 -10  -1  11   38.44    3.37
  10  -1 -11   28.00    3.24
 -10  -1  11   34.89    2.75
 -10   1  11   32.84    2.83
  10   1 -11   28.29    3.76
  10   1 -11   34.35    3.60
  -9  -1  11   79.95    5.82
   9  -1 -11   63.83    5.72
  -9  -1  11   73.43    5.41
   9   1 -11   63.31    5.93
   9   1 -11   67.90    6.03
  -9   1  11   70.28    5.44
  -9   1  11   72.60    5.34
   8  -1 -11    5.01    1.25
   8  -1 -11    5.39    2.19
  -8  -1  11    6.55    0.92
   8   1 -11    5.11    1.67
  -8   1  11    4.84    0.74
  -8   1  11    5.85    0.93
   8   1 -11    1.93    1.50
  -7  -1  11  106.78    7.48
   7  -1 -11  101.88    8.05
   7  -1 -11   96.70    7.69
   7   1 -11   90.82    7.76
  -7   1  11  100.61    7.50
   7   1 -11   92.54    7.90
  -7   1  11  100.23    7.39
   6  -1 -11   14.06    1.99
   6  -1 -11   18.24    2.78
  -6  -1  11   12.83    1.44
   6   1 -11   14.85    2.20
  -6   1  11   15.52    1.32
   6   1 -11   13.17    2.51
   5  -1 -11   71.99    5.75
  -5  -1  11   75.38    5.54
   5  -1 -11   72.94    6.13
  -5  -1  11   75.05    5.57
   5   1 -11   64.74    6.01
   5   1 -11   69.19    5.80
  -5   1  11   71.46    5.43
  -4  -1  11   69.45    5.65
  -4  -1  11   62.27    5.64
   4  -1 -11   77.79    6.28
   4  -1 -11   72.51    5.88
  -4   1  11   75.44    5.66
   4   1 -11   77.70    5.92
  -4   1  11   78.69    5.58
   4   1 -11   72.89    6.12
  -3  -1  11   16.79    1.68
   3  -1 -11   20.05    2.03
  -3  -1  11   17.38    1.67
  -3   1  11   14.56    1.68
   3   1 -11   12.09    2.06
   3   1 -11   13.74    2.51
  -3   1  11   12.85    1.41
  -2  -1  11  118.69    8.37
  -2  -1  11  104.84    8.28
   2  -1 -11  115.84    8.85
   2  -1 -11  109.31    8.44
  -2   1  11  100.47    8.22
  -2   1  11  107.67    8.26
   2   1 -11  109.48    8.75
  -1  -1  11   13.14    1.74
   1  -1 -11   16.28    2.86
   1   1 -11   17.51    2.77
  -1   1  11   18.80    1.75
  -1   1  11   18.33    1.62
   0  -1  11   60.05    4.95
   0  -1 -11   68.03    5.66
   0  -1  11   68.44    4.96
   0   1 -11   60.93    5.63
   0   1  11   64.29    4.88
   0   1  11   55.77    4.91
  -1  -1 -11   40.21    4.08
   1  -1  11   37.31    3.08
   1  -1  11   32.45    3.15
   1   1  11   39.03    3.10
  -1   1 -11   38.90    4.02
   1   1  11   34.60    3.13
   2  -1  11    5.34    1.11
  -2  -1 -11    5.76    1.88
   2  -1  11    4.23    0.83
   2   1  11    2.67    0.98
  -2   1 -11    5.01    1.77
   2   1  11    3.12    0.73
   3  -1  11   42.61    3.50
  -3  -1 -11   46.72    4.65
   3  -1  11   42.88    3.75
  -3   1 -11   42.54    4.53
   3   1  11   38.35    3.43
   3   1  11   42.06    3.68
   4  -1  11    5.76    1.42
  -4  -1 -11    6.62    2.24
  -4   1 -11    8.05    2.21
   4   1  11    6.22    1.36
 -11   2  11   48.95    3.63
 -11   2  11   48.31    3.90
  11   2 -11   40.21    4.77
 -10  -2  11   41.05    3.22
  10  -2 -11   36.57    3.66
 -10   2  11   41.04    3.35
  10   2 -11   31.80    3.96
 -10   2  11   39.32    3.03
  -9  -2  11   14.92    1.73
   9  -2 -11   14.33    2.25
   9   2 -11   18.52    2.75
   9   2 -11   16.04    2.82
  -9   2  11   18.50    1.50
  -9   2  11   18.36    1.75
  -8  -2  11  106.98    7.45
   8  -2 -11   94.36    7.62
  -8   2  11  100.25    7.40
  -8   2  11   98.23    7.30
   8   2 -11   91.56    7.77
   8   2 -11   92.49    7.82
   7  -2 -11    2.66    1.02
  -7  -2  11    2.53    0.75
  -7  -2  11    1.17    0.63
   7   2 -11    2.33    1.31
  -7   2  11    1.50    0.37
   7   2 -11    3.05    1.42
   6  -2 -11   78.69    6.28
   6  -2 -11   75.32    5.70
  -6  -2  11   78.39    5.57
  -6  -2  11   74.46    5.53
  -6   2  11   69.64    5.36
   6   2 -11   63.34    5.83
   6   2 -11   63.67    5.94
  -6   2  11   65.71    5.57
  -5  -2  11   48.63    4.14
   5  -2 -11   52.03    5.03
   5  -2 -11   45.80    4.30
   5   2 -11   54.10    4.68
   5   2 -11   54.47    4.51
  -5   2  11   56.56    3.99
   4  -2 -11   27.29    3.33
  -4  -2  11   19.58    2.07
  -4  -2  11   25.04    2.07
   4  -2 -11   24.34    2.34
   4   2 -11   17.00    2.51
   4   2 -11   15.95    2.69
  -4   2  11   19.10    1.74
  -3  -2  11   90.19    6.48
   3  -2 -11   90.12    7.07
   3  -2 -11   89.59    6.56
  -3  -2  11   86.10    6.38
  -3   2  11   72.89    6.32
  -3   2  11   79.22    6.26
   3   2 -11   73.25    6.74
   2  -2 -11    8.94    1.64
   2  -2 -11    7.35    1.92
  -2  -2  11    6.92    1.04
  -2  -2  11    5.76    1.03
  -2   2  11    6.26    1.18
   2   2 -11    8.01    1.65
  -2   2  11    5.86    0.86
   1  -2 -11   64.64    5.17
  -1  -2  11   58.45    4.39
   1   2 -11   50.83    4.97
  -1   2  11   51.04    4.31
  -1   2  11   49.84    4.21
   0  -2 -11   27.97    3.57
   0  -2  11   25.24    2.68
   0  -2  11   28.17    2.62
   0   2 -11   29.65    3.52
   0   2  11   32.41    2.47
   0   2  11   31.41    2.59
   1  -2  11   17.73    2.25
   1  -2  11   20.11    1.90
  -1  -2 -11   20.89    3.15
   1   2  11   16.87    1.93
   1   2  11   17.24    1.79
   2  -2  11   37.64    3.27
   2  -2  11   37.34    3.50
  -2  -2 -11   45.60    4.45
   2   2  11   39.94    3.19
   2   2  11   38.09    3.39
  -2   2 -11   39.46    4.21
   3  -2  11   -0.03    1.03
  -3  -2 -11    1.76    1.97
   3  -2  11   -0.21    1.12
   3   2  11    0.83    1.00
  -3   2 -11    0.52    1.72
  -4  -2 -11   39.53    4.63
   4  -2  11   28.22    3.41
   4   2  11   36.99    3.27
  -4   2 -11   34.61    4.25
  11  -3 -11   13.38    2.46
 -11   3  11   14.17    1.86
  11   3 -11    8.49    2.30
 -11   3  11   11.86    1.21
  10  -3 -11   22.67    2.90
 -10  -3  11   27.33    2.46
 -10   3  11   27.40    2.13
  10   3 -11   24.60    3.49
  -9  -3  11   52.87    3.99
   9  -3 -11   51.26    4.24
  -9   3  11   50.69    4.05
   9   3 -11   40.86    5.45
  -9   3  11   43.90    3.70
   8  -3 -11    4.15    1.71
  -8  -3  11    3.79    0.96
  -8   3  11    5.99    0.76
   8   3 -11    5.02    1.66
   8   3 -11    6.11    1.66
  -7  -3  11   65.46    5.02
   7  -3 -11   65.81    5.21
  -7  -3  11   63.38    5.08
   7   3 -11   58.80    5.76
   7   3 -11   61.88    5.50
  -7   3  11   61.32    5.07
  -7   3  11   67.89    4.83
  -6  -3  11   22.30    2.35
   6  -3 -11   28.29    2.50
  -6  -3  11   28.48    2.32
   6   3 -11   24.33    2.97
  -6   3  11   22.84    1.94
   6   3 -11   20.10    2.94
  -6   3  11   22.73    2.35
   5  -3 -11   35.82    3.44
  -5  -3  11   38.26    3.31
   5  -3 -11   37.44    4.41
   5   3 -11   44.78    3.88
   5   3 -11   40.85    3.85
   4  -3 -11   64.71    5.37
  -4  -3  11   60.27    5.32
   4  -3 -11   69.77    6.03
  -4  -3  11   68.49    5.24
   4   3 -11   65.03    5.66
  -4   3  11   69.76    5.04
  -3  -3  11    2.27    0.86
  -3  -3  11    1.10    0.86
   3  -3 -11    1.68    1.61
   3  -3 -11    0.56    1.01
   3   3 -11    1.42    1.34
  -3   3  11    2.12    0.73
  -3   3  11    2.57    0.45
  -2  -3  11   56.31    4.26
  -2  -3  11   47.50    4.16
   2  -3 -11   47.92    4.82
   2  -3 -11   48.32    4.28
   2   3 -11   48.99    4.64
  -2   3  11   52.50    4.06
  -2   3  11   53.51    3.94
  -1  -3  11   17.53    2.18
   1  -3 -11   21.50    2.33
   1  -3 -11   17.84    3.06
  -1  -3  11   23.09    2.14
  -1   3  11   18.26    1.69
   1   3 -11   20.19    2.81
  -1   3  11   18.50    1.90
   0  -3  11   15.70    2.05
   0  -3 -11   16.44    2.64
   0  -3  11   13.83    1.89
   0   3  11   17.60    1.82
   0   3  11   18.87    1.60
   0   3 -11   20.41    3.00
   1  -3  11   48.68    3.90
  -1  -3 -11   51.35    5.02
  -1   3 -11   43.49    4.70
   1   3  11   48.79    3.73
   1   3  11   44.68    3.98
  -2  -3 -11   -0.51    1.91
   2  -3  11    0.83    0.81
   2  -3  11    1.33    1.14
   2   3  11    0.53    0.88
   2   3  11    0.51    0.55
  -2   3 -11    1.07    1.70
   3  -3  11   43.27    4.01
   3  -3  11   41.22    3.70
  -3  -3 -11   51.12    5.08
   3   3  11   44.60    3.79
  -3   3 -11   44.08    4.85
   4  -3  11    6.78    1.22
  -4  -3 -11    7.11    2.54
   4  -3  11    7.65    1.55
   4   3  11    5.60    1.32
  -4   3 -11    5.73    2.15
  10  -4 -11   16.47    2.46
 -10   4  11   14.32    1.39
 -10   4  11   18.82    2.24
  10   4 -11   13.69    2.34
   9  -4 -11   18.35    2.57
  -9  -4  11   19.14    2.26
  -9   4  11   24.03    2.54
  -9   4  11   22.72    1.80
   9   4 -11   21.98    3.18
   8  -4 -11   46.88    4.09
  -8  -4  11   41.67    3.93
  -8   4  11   50.26    4.19
   8   4 -11   44.36    4.64
  -8   4  11   49.75    3.61
  -7  -4  11    0.35    0.86
  -7  -4  11    1.73    0.89
   7   4 -11    0.56    1.64
  -7   4  11    1.54    1.12
   7   4 -11   -0.21    1.38
   6  -4 -11   45.33    4.37
  -6  -4  11   47.17    3.90
  -6   4  11   48.05    3.60
  -6   4  11   42.10    4.01
   6   4 -11   51.84    4.39
  -5  -4  11   19.75    2.01
  -5  -4  11   14.04    1.99
   5  -4 -11   16.58    2.02
  -5   4  11   12.29    2.01
  -5   4  11   15.32    1.32
   5   4 -11   13.83    2.55
  -4  -4  11   17.09    2.30
   4  -4 -11   18.21    2.39
  -4  -4  11   21.41    2.25
   4  -4 -11   20.95    3.34
   4   4 -11   25.24    2.83
   3  -4 -11   70.13    6.67
  -3  -4  11   73.65    5.75
   3  -4 -11   71.33    5.82
  -3  -4  11   76.39    5.86
  -3   4  11   73.62    5.48
   3   4 -11   68.73    6.10
  -2  -4  11    4.60    1.11
   2  -4 -11    5.02    1.21
   2  -4 -11    3.25    1.87
  -2  -4  11    4.11    1.09
   2   4 -11    4.59    1.50
  -2   4  11    4.11    0.72
  -2   4  11    3.57    0.83
  -1  -4  11   77.20    6.03
   1  -4 -11   76.47    6.65
  -1  -4  11   82.68    6.06
   1  -4 -11   73.04    6.07
  -1   4  11   76.21    5.85
   1   4 -11   72.82    6.71
  -1   4  11   71.92    5.74
   0  -4  11   49.16    4.18
   0  -4 -11   52.86    4.99
   0  -4  11   55.29    4.12
   0   4  11   44.47    3.79
   0   4  11   45.19    3.93
   1  -4  11   19.08    2.44
  -1   4 -11   17.67    3.17
   1   4  11   19.05    1.72
  -2  -4 -11  103.14    8.30
   2  -4  11   95.94    7.48
   2  -4  11   96.75    7.31
   2   4  11   93.77    7.15
  -2   4 -11   88.46    7.93
   2   4  11   89.79    7.27
   3  -4  11    1.75    1.43
  -3  -4 -11    1.32    2.28
   3  -4  11    2.31    1.02
  -3   4 -11    6.09    1.98
   3   4  11    3.30    1.10
  10  -5 -11   22.46    2.88
 -10   5  11   24.27    2.75
 -10   5  11   20.63    1.83
  10   5 -11   19.50    3.43
   9  -5 -11   35.50    3.58
  -9  -5  11   31.31    3.60
   9   5 -11   40.15    4.13
  -9   5  11   38.46    2.90
   8  -5 -11    6.10    1.33
   8  -5 -11    5.54    1.43
  -8  -5  11    3.72    1.26
  -8   5  11    6.87    1.76
   8   5 -11    6.72    1.78
  -8   5  11    8.22    0.85
   7  -5 -11   60.60    5.02
   7  -5 -11   54.04    4.98
  -7   5  11   63.76    4.61
  -7   5  11   57.52    5.18
   7   5 -11   65.11    5.34
   6  -5 -11    2.12    1.25
  -6  -5  11    4.18    1.24
   6  -5 -11    3.30    1.34
  -6   5  11    4.59    0.70
  -6   5  11    5.97    1.42
  -5  -5  11   47.81    4.06
   5  -5 -11   36.85    3.99
  -5   5  11   44.78    4.05
   5   5 -11   48.77    4.39
  -5   5  11   52.01    3.65
   4  -5 -11   43.57    4.00
  -4  -5  11   43.68    3.70
  -4  -5  11   38.51    3.77
  -4   5  11   38.63    3.54
   4   5 -11   39.98    4.03
  -4   5  11   41.55    3.19
  -3  -5  11    7.59    1.38
   3  -5 -11    6.51    1.36
  -3  -5  11    5.74    1.41
   3  -5 -11    4.91    2.16
  -3   5  11    7.49    1.78
   3   5 -11   12.11    2.37
   2  -5 -11   68.06    5.68
  -2  -5  11   80.64    5.75
   2  -5 -11   64.10    6.35
  -2  -5  11   77.67    5.79
   2   5 -11   60.95    5.93
  -2   5  11   70.34    5.31
  -2   5  11   68.25    5.45
  -1  -5  11   12.75    2.16
   1  -5 -11    9.85    2.40
   1  -5 -11   12.39    2.02
  -1   5  11   10.04    1.46
  -1   5  11   10.20    1.11
   1   5 -11    7.66    2.93
   0  -5  11   49.78    4.06
   0  -5 -11   45.83    5.05
   0  -5  11   51.43    4.55
   0   5  11   45.59    3.66
   0   5  11   45.36    4.34
   0   5 -11   43.99    4.61
   1  -5  11   57.24    4.57
   1  -5  11   49.67    4.19
  -1  -5 -11   47.94    5.33
  -1   5 -11   50.04    4.97
   1   5  11   47.64    3.88
   1   5  11   47.91    4.07
  -2  -5 -11    9.77    2.65
   2  -5  11   11.07    1.79
   2  -5  11   11.41    1.89
   2   5  11   12.54    2.22
  -2   5 -11    9.16    2.21
   2   5  11    9.26    1.58
  -3  -5 -11   56.91    6.22
   3  -5  11   62.26    4.83
   3  -5  11   61.17    5.33
   3   5  11   56.68    4.80
   3   5  11   53.07    5.45
  -3   5 -11   60.21    5.60
  -9  -6  11    3.93    1.38
   9  -6 -11    5.67    1.51
   9  -6 -11    4.96    1.43
   9   6 -11    6.11    1.98
  -9   6  11    5.85    0.89
  -9   6  11    7.64    1.81
   8  -6 -11   56.93    5.26
   8  -6 -11   60.05    5.29
  -8   6  11   70.08    4.86
   8   6 -11   69.36    5.75
  -8   6  11   58.80    5.73
   7  -6 -11    6.56    1.35
   7  -6 -11    6.68    1.30
  -7  -6  11    3.87    1.45
  -7   6  11    4.98    1.82
   7   6 -11    5.64    1.79
  -7   6  11    5.66    0.83
  -6  -6  11   50.75    5.59
   6  -6 -11   60.50    5.02
   6  -6 -11   58.27    5.05
  -6   6  11   64.93    4.67
  -6   6  11   62.02    5.31
   6   6 -11   64.25    5.43
  -5  -6  11   42.76    4.39
   5  -6 -11   41.07    3.58
  -5  -6  11   34.29    4.91
   5  -6 -11   40.05    3.66
   5   6 -11   41.10    4.15
  -5   6  11   41.03    3.84
   4  -6 -11   18.53    2.89
  -4  -6  11   19.22    2.77
  -4  -6  11   23.36    2.81
   4  -6 -11   18.01    2.22
   4   6 -11   20.04    2.89
  -4   6  11   19.34    1.67
  -4   6  11   17.20    2.35
  -3  -6  11   70.71    5.34
  -3  -6  11   62.35    5.37
  -3   6  11   60.62    5.04
  -3   6  11   60.65    5.07
   3   6 -11   58.32    5.56
   2  -6 -11    1.55    2.28
  -2  -6  11    1.34    1.27
  -2  -6  11    0.19    1.47
  -2   6  11    2.88    0.58
   2   6 -11    1.08    1.52
  -1  -6  11   64.10    4.63
   1  -6 -11   51.38    5.60
  -1   6  11   54.39    4.06
   1   6 -11   45.58    4.87
  -1   6  11   46.16    4.65
   0  -6 -11   15.86    2.99
   0  -6  11   17.60    2.74
   0  -6  11   21.42    2.32
   0   6 -11   16.59    2.54
   0   6  11   14.05    1.53
   0   6  11   17.73    1.91
   1  -6  11   13.21    1.99
  -1  -6 -11   13.86    2.90
   1  -6  11   15.19    2.75
   1   6  11   11.51    1.56
   1   6  11    9.30    2.07
  -1   6 -11    9.90    2.33
   1   6  11   15.18    1.73
   2  -6  11   44.65    4.26
  -2  -6 -11   34.92    4.96
   2  -6  11   37.50    3.47
   2   6  11   38.83    3.33
  -2   6 -11   32.24    4.38
   8  -7 -11    1.52    1.29
   8  -7 -11    3.61    1.36
  -8  -7  11   -0.29    1.40
   8   7 -11    0.88    1.89
  -8   7  11    2.28    1.79
  -8   7  11    1.55    0.51
   7  -7 -11   52.11    4.60
   7  -7 -11   49.40    4.54
   7   7 -11   51.82    5.05
  -7   7  11   56.56    4.14
   6  -7 -11   23.75    2.77
   6  -7 -11   20.55    2.58
  -6   7  11   25.22    2.10
  -6   7  11   26.71    3.31
   6   7 -11   25.87    3.34
   5  -7 -11   25.72    2.72
   5  -7 -11   25.76    2.54
  -5  -7  11   20.88    3.02
  -5   7  11   19.28    2.94
  -5   7  11   25.08    2.01
   5   7 -11   18.49    3.22
   4  -7 -11   49.90    4.36
  -4  -7  11   42.70    4.60
   4  -7 -11   48.59    4.23
  -4   7  11   59.92    5.29
   4   7 -11   44.29    4.76
  -4   7  11   51.31    3.88
  -3  -7  11    4.07    1.82
   3  -7 -11    3.64    1.39
  -3  -7  11    3.67    1.55
   3  -7 -11    3.63    1.16
  -3   7  11    4.23    0.65
   3   7 -11    2.87    1.74
  -3   7  11    2.96    1.32
  -2  -7  11   49.05    4.41
  -2  -7  11   56.46    4.78
   2  -7 -11   46.13    4.28
  -2   7  11   46.04    4.05
  -2   7  11   48.96    3.76
  -2   7  11   43.82    4.51
   2   7 -11   44.57    5.01
   1  -7 -11    3.47    1.45
  -1  -7  11    0.52    2.00
   1  -7 -11    0.49    2.58
  -1  -7  11    2.31    1.40
  -1   7  11    3.82    0.60
  -1   7  11    1.12    1.68
   1   7 -11    4.68    1.81
  -1   7  11    3.77    0.99
   0  -7 -11   20.01    2.91
   0  -7  11   21.27    2.75
   0  -7  11   25.99    3.71
   0   7 -11   24.14    3.45
   0   7  11   23.75    2.30
   0   7  11   22.31    1.98
   1  -7  11   18.13    2.44
   1  -7  11   24.97    3.58
  -1  -7 -11   15.99    3.25
   1   7  11   18.20    2.08
  -1   7 -11   19.62    2.89
   1   7  11   16.28    1.70
  -7  -8  11    5.36    1.70
   7  -8 -11    6.37    1.42
   7  -8 -11    5.21    1.53
  -7   8  11    3.91    1.96
   7   8 -11    2.50    1.92
  -7   8  11    4.13    0.76
   6  -8 -11   39.76    3.89
   6  -8 -11   39.48    3.74
  -6  -8  11   38.99    4.18
   6   8 -11   38.74    4.44
  -6   8  11   43.40    3.35
  -6   8  11   44.35    4.40
   5  -8 -11   34.35    3.06
  -5  -8  11   31.57    3.70
   5  -8 -11   32.81    3.29
   5   8 -11   27.67    3.82
  -5   8  11   28.36    2.57
   4  -8 -11    8.44    1.50
   4  -8 -11    9.09    1.73
  -4  -8  11    7.40    1.99
  -4   8  11   12.30    2.49
  -4   8  11   11.00    1.26
   4   8 -11   11.06    2.22
   3  -8 -11   50.52    4.17
  -3  -8  11   45.16    4.64
   3  -8 -11   51.58    4.41
   3   8 -11   40.83    4.98
  -3   8  11   50.07    3.81
  -3   8  11   46.92    4.40
  -2  -8  11   -2.61    3.05
   2  -8 -11    0.48    1.44
   2  -8 -11    1.36    1.13
  -2  -8  11   -0.37    1.54
  -2   8  11    0.95    1.83
  -2   8  11    1.03    0.52
  -2   8  11   -0.57    0.91
   2   8 -11    1.22    1.83
  -1  -8  11   33.85    4.43
   1  -8 -11   27.45    3.61
  -1  -8  11   35.62    3.66
   1   8 -11   31.05    4.03
  -1   8  11   36.88    2.80
  -1   8  11   35.66    3.05
   0  -8  11    8.78    2.57
   0  -8 -11    6.55    3.96
   0  -8  11    7.85    1.85
   0  -8 -11    9.40    1.89
   0   8  11   11.03    1.71
   0   8 -11    9.57    2.33
   0   8  11   11.90    1.28
   5  -9 -11   23.26    2.56
  -5  -9  11   22.96    3.47
   5  -9 -11   20.44    3.06
  -5   9  11   21.79    2.03
   5   9 -11   19.63    3.66
  -5   9  11   16.96    3.40
   4  -9 -11   39.53    3.38
   4  -9 -11   35.70    3.74
  -4  -9  11   35.35    4.14
  -4   9  11   32.37    3.99
  -4   9  11   37.85    2.98
   4   9 -11   26.51    4.30
  -3  -9  11    3.68    1.89
   3  -9 -11    3.96    1.31
   3  -9 -11    2.75    1.65
   3   9 -11    2.62    2.11
  -3   9  11    2.78    1.83
  -3   9  11    2.64    0.70
   2  -9 -11   56.25    5.07
  -2  -9  11   56.61    5.33
   2  -9 -11   58.62    4.76
  -2   9  11   57.21    4.76
  -2   9  11   62.41    4.45
  -2   9  11   53.44    5.78
   2   9 -11   45.70    5.49
  11   0 -12   22.43    3.44
 -11   0  12   26.26    2.21
  10   0 -12    0.16    1.40
 -10   0  12    1.27    0.53
   9   0 -12   37.72    4.39
  -9   0  12   41.47    3.19
   8   0 -12   13.26    2.21
  -8   0  12    9.77    1.23
   8   0 -12    8.95    1.72
   7   0 -12   41.46    4.26
   7   0 -12   33.77    3.72
  -7   0  12   39.72    3.07
   6   0 -12   28.35    3.10
  -6   0  12   28.00    2.35
   6   0 -12   28.50    3.62
  -5   0  12   25.86    2.49
   5   0 -12   31.47    3.54
  -5   0  12   26.33    2.30
   5   0 -12   27.13    3.01
  -4   0  12   85.19    6.74
   4   0 -12   90.16    7.02
   4   0 -12   88.83    7.39
  -4   0  12   86.50    6.68
   3   0 -12    3.45    1.34
   3   0 -12    5.86    1.87
  -3   0  12    4.45    0.89
  -3   0  12    4.41    0.79
  -2   0  12  115.90    8.65
  -2   0  12  105.70    8.67
   2   0 -12  120.38    9.30
  -1   0  12   48.77    4.21
   1   0 -12   55.14    5.11
  -1   0  12   53.02    4.18
   0   0  12   36.03    3.26
   0   0 -12   34.61    5.50
   0   0  12   40.55    3.20
  -1   0 -12  103.33    8.01
   1   0  12   86.38    7.25
   1   0  12   92.75    7.16
   2   0  12    0.08    0.73
  -2   0 -12    2.37    1.92
   2   0  12    2.27    1.06
   3   0  12   48.54    4.41
  -3   0 -12   54.42    5.29
  11  -1 -12    9.39    2.00
 -11   1  12   15.88    1.40
  11   1 -12   11.13    3.41
 -10  -1  12   49.68    4.00
  10  -1 -12   41.29    4.56
 -10   1  12   57.98    3.91
  10   1 -12   47.37    4.94
  10   1 -12   50.17    5.94
  -9  -1  12   -0.06    0.54
   9  -1 -12    0.20    1.25
   9   1 -12    0.06    1.78
  -9   1  12    0.54    0.40
   9   1 -12    1.38    1.52
  -8  -1  12   66.22    4.87
   8  -1 -12   62.41    6.04
   8  -1 -12   50.82    5.86
   8   1 -12   62.28    5.43
   8   1 -12   66.54    5.67
   7  -1 -12   33.00    4.17
   7  -1 -12   34.16    3.42
  -7  -1  12   33.04    2.85
   7   1 -12   36.77    3.93
   7   1 -12   33.32    3.64
  -7   1  12   37.11    2.77
  -6  -1  12   33.52    3.02
   6  -1 -12   37.89    4.15
   6  -1 -12   33.63    3.38
  -6  -1  12   36.83    2.89
   6   1 -12   34.14    3.90
  -6   1  12   34.76    2.76
   6   1 -12   31.32    3.54
  -5  -1  12   78.11    6.44
   5  -1 -12   91.37    7.21
  -5  -1  12   85.28    6.43
   5  -1 -12   79.30    6.69
   5   1 -12   85.12    6.79
   5   1 -12   82.99    7.03
  -5   1  12   80.93    6.44
  -5   1  12   85.31    6.32
   4  -1 -12    6.91    2.07
  -4  -1  12    3.24    0.86
  -4  -1  12    2.48    0.75
   4  -1 -12    4.84    1.30
   4   1 -12    2.14    1.34
  -4   1  12    2.77    0.57
   4   1 -12    2.33    1.67
  -4   1  12    4.07    0.82
  -3  -1  12   83.89    6.54
   3  -1 -12   88.56    6.80
   3  -1 -12   96.35    7.35
  -3  -1  12   89.19    6.58
  -3   1  12   79.16    6.52
   3   1 -12   78.67    7.13
  -3   1  12   79.21    6.44
  -2  -1  12    7.82    1.50
   2  -1 -12   15.46    3.15
  -2  -1  12    9.34    1.61
  -2   1  12   13.78    1.61
   2   1 -12   15.20    2.90
  -2   1  12   12.12    1.33
   1  -1 -12   64.01    5.34
  -1  -1  12   55.94    4.48
  -1  -1  12   64.18    4.46
   1   1 -12   49.33    5.21
  -1   1  12   46.79    4.37
  -1   1  12   50.26    4.31
   0  -1  12   41.38    4.12
   0  -1  12   50.37    4.07
   0   1 -12   56.84    5.02
   0   1  12   55.54    4.03
   0   1  12   47.84    4.10
   1  -1  12   11.02    1.50
  -1  -1 -12   16.06    3.15
   1  -1  12   13.70    2.30
  -1   1 -12    9.40    2.16
   1   1  12    8.29    1.39
   1   1  12    8.79    1.69
   2  -1  12   53.26    4.42
  -2   1 -12   56.44    5.26
   2   1  12   48.12    4.40
   2   1  12   52.51    4.18
   3  -1  12    3.54    0.97
  -3  -1 -12    1.93    2.18
   3  -1  12    2.92    1.28
  -3   1 -12    6.33    2.19
   3   1  12    4.22    1.25
 -10  -2  12   17.57    1.96
  10  -2 -12   17.94    2.80
 -10   2  12   21.86    1.72
  10   2 -12   18.78    3.44
  -9  -2  12   53.65    4.60
   9  -2 -12   52.09    4.98
  -9   2  12   63.68    4.42
   9   2 -12   60.55    5.48
  -8  -2  12    1.46    0.82
  -8  -2  12    0.50    0.73
   8  -2 -12    2.80    1.22
  -8   2  12    1.04    0.40
   8   2 -12   -1.58    1.78
   8   2 -12   -0.53    1.66
   7  -2 -12   54.64    5.76
  -7  -2  12   59.87    4.73
  -7  -2  12   51.66    4.73
   7  -2 -12   67.26    6.02
   7   2 -12   64.44    5.37
   7   2 -12   62.79    5.42
   6  -2 -12   53.41    4.59
   6  -2 -12   61.07    5.59
  -6  -2  12   50.42    4.30
  -6  -2  12   54.56    4.29
   6   2 -12   52.63    4.88
   6   2 -12   49.67    4.98
  -6   2  12   52.78    4.08
   5  -2 -12   15.10    2.24
  -5  -2  12   13.62    1.82
   5  -2 -12   19.37    3.11
   5   2 -12   14.57    2.13
   5   2 -12   12.64    2.79
  -5   2  12   17.93    1.44
   4  -2 -12   95.52    7.38
   4  -2 -12  109.90    8.05
  -4  -2  12   85.40    7.18
  -4  -2  12   96.57    7.18
  -4   2  12   93.21    7.01
  -4   2  12   87.17    7.13
   4   2 -12   85.94    7.64
  -3  -2  12    5.01    1.08
  -3  -2  12    5.98    1.10
   3  -2 -12    6.11    1.38
   3  -2 -12    9.11    2.21
  -3   2  12    7.58    1.32
   3   2 -12    8.46    1.86
  -3   2  12    7.53    0.95
  -2  -2  12   72.82    5.58
   2  -2 -12   73.20    5.77
   2  -2 -12   78.88    6.39
  -2  -2  12   82.81    5.64
  -2   2  12   60.69    5.37
  -2   2  12   60.66    5.47
   2   2 -12   67.61    6.19
  -1  -2  12   41.20    3.36
   1  -2 -12   45.58    4.47
  -1  -2  12   38.55    3.36
  -1   2  12   35.95    3.12
   1   2 -12   38.64    4.79
  -1   2  12   33.74    3.71
   0  -2  12   12.76    1.62
   0  -2  12   12.56    1.79
   0   2  12    8.47    1.58
   0   2  12    7.50    1.27
   0   2 -12   10.03    2.16
   1  -2  12   49.62    4.52
   1  -2  12   49.86    4.60
  -1  -2 -12   60.05    5.51
   1   2  12   50.46    4.40
  -1   2 -12   60.26    5.32
   1   2  12   55.48    4.27
   2  -2  12    3.34    1.29
   2  -2  12    5.28    1.05
  -2  -2 -12    3.44    2.14
   2   2  12    5.35    1.55
  -2   2 -12    8.36    2.13
   2   2  12    6.70    1.22
  -3  -2 -12   39.34    4.73
   3  -2  12   31.76    3.38
   3  -2  12   33.68    3.11
   3   2  12   34.28    3.32
  -3   2 -12   39.42    4.34
  10  -3 -12   49.95    4.46
 -10  -3  12   53.25    3.98
  10   3 -12   39.64    4.85
 -10   3  12   47.04    3.69
  -9  -3  12    0.80    0.82
   9  -3 -12    1.54    1.28
  -9   3  12    1.86    0.42
   9   3 -12    3.14    1.85
   8  -3 -12   64.40    4.96
  -8  -3  12   60.92    4.64
   8   3 -12   49.99    5.42
  -8   3  12   57.46    4.37
   8   3 -12   50.83    5.44
   7  -3 -12   12.20    2.05
  -7  -3  12    9.99    1.69
  -7  -3  12   10.95    1.54
   7   3 -12    9.88    2.15
   7   3 -12    7.64    2.01
  -7   3  12   10.01    1.02
  -6  -3  12   33.58    3.15
  -6  -3  12   33.26    3.11
   6   3 -12   38.63    3.95
   6   3 -12   36.61    3.85
   5  -3 -12   41.64    3.86
  -5  -3  12   48.43    3.65
  -5  -3  12   36.56    3.64
   5   3 -12   41.57    4.28
  -5   3  12   43.14    3.32
  -4  -3  12    1.87    0.94
   4  -3 -12    0.37    2.08
   4  -3 -12   -0.66    1.13
  -4  -3  12    0.96    0.85
   4   3 -12    1.70    1.56
  -4   3  12    3.21    0.86
   3  -3 -12   65.03    5.54
  -3  -3  12   68.64    5.40
  -3  -3  12   69.72    5.46
   3  -3 -12   75.51    6.30
  -3   3  12   65.71    5.36
   3   3 -12   60.71    5.87
  -3   3  12   67.24    5.14
  -2  -3  12   31.43    2.77
   2  -3 -12   27.48    3.14
  -2  -3  12   29.90    2.79
   2  -3 -12   34.09    3.92
  -2   3  12   24.73    2.31
   2   3 -12   25.37    4.07
  -2   3  12   26.61    2.64
  -1  -3  12   25.80    3.08
   1  -3 -12   29.00    3.88
  -1   3  12   25.55    2.69
   1   3 -12   30.37    3.70
  -1   3  12   26.68    2.29
   0  -3  12   47.11    4.09
   0  -3  12   51.78    4.01
   0  -3 -12   47.40    6.46
   0   3  12   47.31    3.94
   0   3  12   47.36    3.78
   0   3 -12   43.35    4.87
   1  -3  12    0.99    1.21
   1  -3  12    0.95    0.90
  -1  -3 -12    0.67    2.08
   1   3  12    1.96    0.66
  -1   3 -12   -0.32    1.83
   1   3  12    1.44    0.94
   2  -3  12   36.69    3.49
   2  -3  12   40.33    3.79
  -2  -3 -12   43.53    5.09
  -2   3 -12   41.92    4.56
   2   3  12   43.05    3.36
   2   3  12   40.04    3.59
   3  -3  12    6.25    1.14
  -3  -3 -12    3.58    2.55
   3  -3  12    3.58    1.51
  -3   3 -12    6.06    2.18
   3   3  12    3.85    1.26
  10  -4 -12   14.24    1.98
 -10  -4  12   11.39    2.02
  10   4 -12   11.33    2.41
 -10   4  12   12.62    1.22
   9  -4 -12   58.14    4.54
  -9  -4  12   53.82    4.17
   9   4 -12   43.32    4.87
  -9   4  12   44.38    3.79
  -8  -4  12    0.05    0.94
   8  -4 -12   -1.14    1.16
  -8   4  12    0.94    0.36
   8   4 -12    0.16    1.72
   7  -4 -12   55.64    4.45
  -7  -4  12   53.69    4.28
  -7  -4  12   46.66    4.26
  -7   4  12   48.57    3.89
   7   4 -12   49.79    4.87
  -6  -4  12   20.06    2.36
   6  -4 -12   19.78    2.53
   6   4 -12   16.81    3.13
  -6   4  12   21.90    1.73
   5  -4 -12   14.28    2.21
  -5  -4  12   14.13    2.11
   5  -4 -12   15.70    3.23
  -5   4  12   15.80    1.37
   4  -4 -12   44.15    5.00
  -4  -4  12   42.43    3.81
  -3  -4  12    0.86    1.09
  -3  -4  12   -0.47    1.02
   3  -4 -12    1.86    2.15
  -3   4  12    0.05    0.44
   3   4 -12    1.11    2.55
   2  -4 -12   39.21    4.87
  -2  -4  12   42.41    3.84
  -2  -4  12   41.56    3.87
   2  -4 -12   35.27    4.01
  -2   4  12   45.90    3.69
  -2   4  12   47.48    3.42
   2   4 -12   47.14    4.43
   1  -4 -12   27.58    4.00
  -1  -4  12   29.82    2.60
   1  -4 -12   25.40    2.90
   1   4 -12   20.57    3.44
  -1   4  12   21.43    2.07
  -1   4  12   24.21    2.35
   0  -4 -12   13.98    2.93
   0  -4  12   11.94    1.96
   0  -4  12   12.88    2.31
   0   4 -12   15.07    2.50
   0   4  12   14.77    1.86
   0   4  12   16.95    1.51
  -1  -4 -12   58.93    5.89
   1  -4  12   53.06    4.53
   1  -4  12   52.75    4.79
  -1   4 -12   59.02    5.52
   1   4  12   52.21    4.47
   1   4  12   55.33    4.34
   2  -4  12    0.26    1.38
  -2  -4 -12   -2.15    2.46
   2  -4  12    1.11    0.99
   2   4  12    1.38    1.07
  -2   4 -12    1.73    1.97
   9  -5 -12    5.48    1.53
  -9  -5  12    3.51    1.32
   9   5 -12    5.46    2.04
  -9   5  12    5.02    0.80
   8  -5 -12   45.30    3.82
  -8  -5  12   37.01    3.62
  -8   5  12   39.92    3.11
   8   5 -12   35.77    4.29
   7  -5 -12    2.73    1.30
  -7  -5  12    2.36    1.22
  -7   5  12    2.96    0.52
   7   5 -12    5.81    1.85
  -6  -5  12   40.51    3.76
   6  -5 -12   37.77    3.79
  -6   5  12   38.03    3.05
   6   5 -12   40.42    4.21
  -5  -5  12   26.34    3.36
  -5  -5  12   41.96    3.48
   5  -5 -12   33.79    3.39
   5   5 -12   30.84    3.89
  -5   5  12   37.96    2.78
   4  -5 -12    6.46    1.46
  -4  -5  12    7.83    1.53
  -4  -5  12    4.45    1.44
  -4   5  12    7.75    0.88
   4   5 -12    4.44    1.83
  -3  -5  12   76.77    6.27
   3  -5 -12   69.56    6.22
   3  -5 -12   73.84    7.18
  -3  -5  12   80.19    6.24
   3   5 -12   69.55    6.54
  -3   5  12   80.03    5.98
  -3   5  12   82.01    5.80
  -2  -5  12    6.92    1.70
   2  -5 -12    7.03    2.65
   2  -5 -12    8.45    1.63
  -2  -5  12    9.36    1.65
  -2   5  12    8.79    1.03
   2   5 -12    8.46    2.01
  -2   5  12    9.69    1.54
  -1  -5  12   42.27    3.94
   1  -5 -12   34.37    5.28
   1  -5 -12   36.56    3.95
  -1  -5  12   45.51    3.96
  -1   5  12   43.88    3.31
   1   5 -12   39.19    4.40
  -1   5  12   43.71    3.51
   0  -5  12   35.55    3.66
   0  -5  12   38.55    3.38
   0  -5 -12   33.01    4.92
   0   5 -12   39.23    4.35
   0   5  12   33.08    3.12
   0   5  12   34.37    2.90
   1  -5  12    2.05    1.11
  -1  -5 -12    1.32    2.64
   1  -5  12    3.97    1.63
  -1   5 -12    5.84    2.16
   1   5  12    1.98    1.02
  -2  -5 -12   49.33    5.95
   2  -5  12   48.62    4.78
   2  -5  12   49.72    4.29
  -2   5 -12   52.67    5.38
   2   5  12   51.58    4.26
   8  -6 -12    5.30    1.53
  -8  -6  12    4.38    1.46
   8   6 -12    5.79    2.02
   7  -6 -12   36.21    3.67
  -7   6  12   39.02    2.99
   7   6 -12   35.99    4.22
   6  -6 -12   42.53    4.41
  -6   6  12   54.51    3.88
   6   6 -12   50.79    4.96
   5  -6 -12    9.04    1.59
   5   6 -12    3.93    1.93
  -5   6  12    6.82    0.91
  -4  -6  12   80.63    6.28
   4  -6 -12   64.97    6.03
  -4  -6  12   66.87    6.17
   4   6 -12   74.53    6.47
  -4   6  12   78.75    5.59
  -3  -6  12    6.56    1.80
   3  -6 -12    8.85    1.68
  -3  -6  12    5.42    1.65
  -3   6  12    7.55    1.20
  -3   6  12    8.75    0.99
   3   6 -12    6.57    2.01
  -2  -6  12   42.78    4.02
   2  -6 -12   37.02    3.98
  -2  -6  12   36.44    5.50
   2  -6 -12   34.15    5.59
  -2   6  12   41.94    3.53
   2   6 -12   40.12    4.41
  -2   6  12   47.17    3.30
   1  -6 -12   22.39    3.18
   1  -6 -12   22.25    3.97
  -1  -6  12   28.44    3.48
  -1  -6  12   26.60    3.02
  -1   6  12   29.19    2.61
   1   6 -12   25.65    3.75
  -1   6  12   29.56    2.29
   0  -6  12   14.32    2.23
   0  -6 -12   11.16    3.25
   0  -6  12   14.60    2.20
   0   6 -12   15.10    2.60
   0   6  12   10.29    1.34
   0   6  12   11.23    1.84
   1  -6  12   42.65    4.09
   1  -6  12   37.41    3.34
  -1  -6 -12   37.11    5.37
   1   6  12   32.56    2.79
  -1   6 -12   29.16    4.35
   1   6  12   31.30    3.05
   1   6  12   26.95    3.99
   7  -7 -12   31.12    3.17
   7  -7 -12   27.69    3.27
   7   7 -12   27.10    3.89
  -7   7  12   31.11    2.48
   6  -7 -12   25.75    2.93
   6  -7 -12   29.38    3.15
  -6  -7  12   18.86    3.25
  -6   7  12   29.36    2.27
   6   7 -12   25.88    3.82
   5  -7 -12   62.65    5.41
   5  -7 -12   63.32    5.27
  -5  -7  12   51.25    5.56
   5   7 -12   60.11    5.83
  -5   7  12   72.43    4.87
   4  -7 -12    6.30    1.58
  -4  -7  12    1.08    1.75
  -4   7  12    2.72    0.57
   4   7 -12    3.20    1.97
  -3  -7  12   54.74    5.16
   3  -7 -12   55.51    5.07
  -3  -7  12   62.70    5.54
   3   7 -12   53.01    5.42
  -3   7  12   56.43    4.63
  -3   7  12   59.02    4.41
  -2  -7  12   13.39    2.27
  -2  -7  12   14.42    3.05
   2  -7 -12   14.58    2.73
   2   7 -12   15.18    3.27
  -2   7  12   17.49    1.57
  -2   7  12   16.21    2.00
  -1  -7  12   28.89    3.93
   1  -7 -12   17.59    3.11
  -1  -7  12   24.56    3.01
  -1   7  12   22.51    2.54
  -1   7  12   26.99    2.11
   1   7 -12   21.17    3.76
   0  -7  12   34.33    4.38
   0  -7 -12   30.04    5.65
   0  -7  12   30.61    3.32
   0   7 -12   28.13    4.25
   0   7  12   29.26    2.90
   0   7  12   31.36    2.58
   6  -8 -12   25.01    2.95
   6  -8 -12   29.99    3.30
  -6   8  12   24.82    2.26
   5  -8 -12    7.18    1.59
  -5  -8  12    7.64    2.18
   5  -8 -12    8.59    1.85
   5   8 -12    7.70    2.35
  -5   8  12   10.67    1.19
  -4  -8  12   56.25    5.42
   4  -8 -12   64.31    4.95
   4  -8 -12   58.00    5.19
   4   8 -12   45.38    5.59
  -4   8  12   60.50    4.49
  -3  -8  12   -1.79    1.74
   3  -8 -12    3.69    1.70
  -3   8  12    1.97    1.17
  -3   8  12    2.11    0.58
   3   8 -12    0.84    2.08
   2  -8 -12   37.13    4.00
  -2  -8  12   43.75    4.14
   2   8 -12   31.55    4.47
  -2   8  12   39.30    3.09
  -2   8  12   37.41    3.35
 -10   0  13   53.71    4.05
  10   0 -13   47.53    4.97
   9   0 -13   11.00    3.04
  -9   0  13    5.73    0.99
   9   0 -13    5.75    1.84
   8   0 -13   25.62    3.43
  -8   0  13   28.02    2.33
   8   0 -13   28.17    4.16
  -7   0  13   28.53    3.41
   7   0 -13   36.37    4.33
  -7   0  13   33.25    2.69
  -6   0  13    0.62    1.26
  -6   0  13    0.66    0.51
   6   0 -13   -0.23    2.50
   6   0 -13    2.84    2.00
  -5   0  13   41.72    3.26
  -5   0  13   37.44    3.96
   5   0 -13   40.57    4.67
   5   0 -13   37.75    4.48
  -4   0  13    3.56    0.78
   4   0 -13    8.16    2.20
  -3   0  13   48.10    3.95
  -3   0  13   42.76    4.24
   3   0 -13   55.74    5.22
  -2   0  13   29.97    2.60
  -2   0  13   27.13    2.69
  -1   0  13   13.76    1.67
  -1   0  13   11.34    1.85
   1   0 -13   12.58    2.59
   0   0  13   55.79    5.06
   0   0  13   62.16    5.01
   0   0 -13   73.75    6.15
   1   0  13    1.14    1.08
   1   0  13   -0.40    0.81
  -1   0 -13    0.73    2.01
   2   0  13   41.73    3.88
  -2   0 -13   48.24    5.01
   2   0  13   38.20    3.52
  10  -1 -13    0.04    1.56
 -10  -1  13   -1.01    0.60
 -10   1  13    0.12    0.47
  10   1 -13    1.67    2.05
  10   1 -13    1.04    3.06
  -9  -1  13   45.11    4.09
   9   1 -13   59.10    5.36
   9   1 -13   51.17    6.58
  -9   1  13   55.25    4.03
   8  -1 -13   16.82    2.94
   8  -1 -13   20.13    3.62
  -8  -1  13   20.56    1.94
   8   1 -13   21.45    3.45
  -8   1  13   21.48    1.80
   8   1 -13   20.03    3.70
  -7  -1  13   32.97    2.95
   7  -1 -13   36.90    4.76
   7  -1 -13   32.00    3.66
   7   1 -13   37.08    4.30
   7   1 -13   34.69    4.29
  -7   1  13   38.37    2.85
   6  -1 -13   57.29    5.09
  -6  -1  13   56.87    4.52
   6  -1 -13   68.38    5.90
  -6  -1  13   50.47    4.60
  -6   1  13   57.83    4.41
   6   1 -13   57.39    5.24
  -6   1  13   52.91    4.61
   6   1 -13   60.06    5.54
  -5  -1  13    0.69    0.86
   5  -1 -13    3.01    2.25
   5  -1 -13    2.03    2.05
  -5  -1  13   -0.09    0.63
   5   1 -13    1.24    1.62
   5   1 -13    2.92    1.89
  -5   1  13    0.55    0.47
  -5   1  13   -0.38    1.26
  -4  -1  13   67.36    5.72
   4  -1 -13   72.43    6.30
  -4  -1  13   69.53    5.65
   4  -1 -13   85.79    6.81
  -4   1  13   71.73    5.54
   4   1 -13   73.15    6.58
  -4   1  13   67.79    5.82
   3  -1 -13   26.65    3.12
   3  -1 -13   30.83    4.03
  -3  -1  13   24.64    2.43
  -3   1  13   25.37    2.47
  -3   1  13   24.44    2.30
  -2  -1  13   32.96    2.99
  -2  -1  13   33.17    2.91
   2  -1 -13   36.35    6.66
   2   1 -13   36.93    4.14
  -2   1  13   29.58    2.76
  -2   1  13   29.43    2.88
  -1  -1  13   49.43    4.43
  -1  -1  13   56.91    4.41
   1  -1 -13   60.89    5.53
  -1   1  13   54.41    4.32
   1   1 -13   53.79    5.48
  -1   1  13   49.31    4.39
   0  -1  13    4.33    1.02
   0  -1 -13    6.45    2.28
   0  -1  13    4.01    1.19
   0   1 -13    4.37    2.10
   0   1  13    3.41    1.12
   0   1  13    4.36    0.91
  -1  -1 -13   73.49    6.38
   1  -1  13   61.34    5.12
   1  -1  13   59.28    5.26
  -1   1 -13   75.10    6.30
   1   1  13   60.94    5.25
   1   1  13   62.08    5.08
  -2  -1 -13    7.99    2.49
   2  -1  13    5.23    1.44
   2   1  13    7.93    1.18
   2   1  13    8.43    1.46
  -2   1 -13    8.99    2.38
  10  -2 -13   49.25    5.03
 -10  -2  13   52.87    4.39
  10   2 -13   54.12    5.68
 -10   2  13   60.02    4.23
   9  -2 -13   -0.10    1.41
  -9  -2  13    0.92    0.73
  -9  -2  13    2.93    1.65
  -9   2  13    1.76    0.48
   9   2 -13    2.43    2.13
   9   2 -13   -0.58    2.47
  -8  -2  13   59.93    5.57
  -8  -2  13   69.33    5.53
   8  -2 -13   62.23    5.93
  -8   2  13   80.07    5.39
   8   2 -13   78.83    6.45
   8   2 -13   74.97    6.62
  -7  -2  13   31.10    3.38
   7  -2 -13   39.21    3.89
  -7  -2  13   35.84    3.29
   7   2 -13   36.49    6.21
  -7   2  13   46.15    3.10
   7   2 -13   47.20    5.07
  -6  -2  13   20.58    2.30
   6  -2 -13   33.20    4.75
  -6  -2  13   22.95    2.45
   6  -2 -13   21.50    2.98
   6   2 -13   27.53    3.58
  -6   2  13   26.17    2.04
  -5  -2  13   75.12    6.39
   5  -2 -13   97.98    7.69
  -5  -2  13   75.02    6.38
   5  -2 -13   74.23    6.66
  -5   2  13   90.22    6.21
  -5   2  13   80.36    6.35
  -4  -2  13    2.59    1.02
   4  -2 -13    3.38    1.42
  -4  -2  13    1.71    0.83
   4  -2 -13    2.92    2.46
  -4   2  13    3.03    0.91
  -4   2  13    1.88    0.54
  -3  -2  13   54.22    4.59
   3  -2 -13   54.85    4.94
   3  -2 -13   59.28    5.81
  -3   2  13   56.17    4.52
  -3   2  13   54.32    4.35
   3   2 -13   56.74    5.40
   2  -2 -13   41.90    4.72
  -2  -2  13   39.59    3.27
  -2  -2  13   36.66    3.33
  -2   2  13   32.72    3.18
   2   2 -13   39.58    4.43
  -2   2  13   32.74    2.99
  -1  -2  13   10.26    1.87
   1  -2 -13   11.75    2.58
  -1  -2  13   10.99    1.69
  -1   2  13    6.55    1.25
   1   2 -13    6.54    2.25
  -1   2  13    8.38    1.31
   0  -2  13   63.10    5.07
   0  -2  13   67.58    4.97
   0   2  13   60.15    4.83
   0   2 -13   63.49    6.00
   0   2  13   52.13    4.93
   1  -2  13    1.80    0.89
  -1  -2 -13    0.40    2.32
   1  -2  13    0.93    1.21
  -1   2 -13    3.69    2.05
   1   2  13    0.64    0.76
   1   2  13    1.10    1.08
   2  -2  13   28.49    3.20
   2  -2  13   31.76    2.87
  -2  -2 -13   39.08    4.71
  -2   2 -13   30.51    4.32
   2   2  13   26.01    3.03
   9  -3 -13   65.42    5.67
  -9  -3  13   66.31    5.27
   9   3 -13   62.64    6.23
  -9   3  13   68.00    5.02
  -8  -3  13   17.91    2.19
  -8  -3  13   17.99    2.01
   8  -3 -13   20.30    2.74
   8   3 -13   13.27    3.48
   8   3 -13   17.04    3.43
  -8   3  13   16.60    1.53
  -7  -3  13   32.06    3.07
  -7  -3  13   27.72    3.13
   7  -3 -13   32.80    3.74
  -7   3  13   39.26    2.73
   7   3 -13   34.14    4.10
   7   3 -13   38.45    4.75
  -6  -3  13   56.65    4.46
   6  -3 -13   53.85    4.77
  -6  -3  13   56.30    4.80
  -6   3  13   52.67    4.11
   6   3 -13   47.14    5.23
   5  -3 -13    2.09    1.60
  -5  -3  13    2.84    1.10
  -5  -3  13    2.14    1.05
   5  -3 -13    4.83    2.76
  -5   3  13    4.55    0.76
  -5   3  13    3.88    0.99
   5   3 -13    2.54    1.86
  -4  -3  13   70.00    5.54
  -4  -3  13   63.62    5.54
   4  -3 -13   80.14    6.85
   4  -3 -13   67.56    5.77
  -4   3  13   69.25    5.23
   4   3 -13   65.26    6.13
  -4   3  13   65.98    5.41
   3  -3 -13    9.83    1.73
   3  -3 -13   10.93    2.59
  -3  -3  13    8.30    1.47
  -3   3  13    6.59    1.16
  -3   3  13    5.67    0.99
   3   3 -13    6.66    2.09
  -2  -3  13   38.43    3.17
  -2  -3  13   30.17    3.21
   2  -3 -13   34.52    4.47
   2  -3 -13   29.56    3.53
  -2   3  13   29.96    2.91
   2   3 -13   33.28    4.16
  -2   3  13   32.42    2.69
   1  -3 -13   37.10    4.69
  -1  -3  13   37.62    3.27
  -1  -3  13   35.43    3.37
   1   3 -13   34.78    4.43
  -1   3  13   32.81    2.93
  -1   3  13   35.63    3.17
   0  -3 -13   -0.64    2.19
   0  -3  13   -0.47    0.91
   0  -3  13   -0.38    1.22
   0   3  13    0.37    0.66
   0   3  13   -0.01    0.98
   0   3 -13    2.33    2.03
   1  -3  13   24.68    3.11
  -1  -3 -13   28.76    4.78
   1  -3  13   27.73    2.82
  -1   3 -13   31.47    4.17
   1   3  13   27.96    2.86
   1   3  13   32.48    2.63
  -9  -4  13    2.31    1.14
   9  -4 -13    3.43    1.56
   9   4 -13    4.08    2.13
  -9   4  13    5.07    0.80
  -8  -4  13   44.65    3.71
   8  -4 -13   44.74    4.07
  -8   4  13   39.43    3.25
   8   4 -13   39.17    4.65
  -7  -4  13   17.76    2.45
  -7  -4  13   18.64    2.32
   7  -4 -13   21.73    2.71
  -7   4  13   19.60    1.67
   7   4 -13   18.51    3.46
   6  -4 -13   22.36    2.99
  -6  -4  13   30.92    2.88
  -6  -4  13   20.23    2.64
  -6   4  13   25.69    2.06
   6   4 -13   23.65    3.67
   5  -4 -13   55.78    4.98
  -5  -4  13   65.00    4.94
  -5  -4  13   53.63    4.82
   5   4 -13   53.32    5.44
  -5   4  13   56.61    4.37
   4  -4 -13   -0.99    2.56
   4  -4 -13    1.38    1.45
  -4  -4  13    0.39    1.22
  -4  -4  13   -0.57    1.02
   4   4 -13    2.03    1.84
  -4   4  13   -0.19    0.87
  -4   4  13    0.58    0.44
   3  -4 -13   60.88    5.97
   3  -4 -13   49.88    4.70
  -3  -4  13   57.70    4.54
  -3  -4  13   53.02    4.84
   3   4 -13   45.19    5.10
  -3   4  13   50.68    4.03
  -3   4  13   48.65    4.25
   2  -4 -13   14.47    2.60
   2  -4 -13   14.53    3.04
   2   4 -13    9.01    2.26
  -2   4  13    8.54    1.18
  -2   4  13    8.16    1.34
  -1  -4  13   14.96    2.63
   1  -4 -13   17.70    3.28
  -1  -4  13   18.87    2.28
  -1   4  13   16.51    2.04
   1   4 -13   16.55    3.55
  -1   4  13   15.63    1.65
   0  -4  13   29.97    2.94
   0  -4  13   28.65    3.23
   0  -4 -13   29.43    4.93
   0   4  13   27.95    2.54
   0   4 -13   31.22    4.22
   0   4  13   28.71    2.82
  -1  -4 -13    2.60    2.81
   1  -4  13    3.99    1.19
   1  -4  13    5.08    1.57
  -1   4 -13    4.80    2.22
   1   4  13    2.17    0.81
   1   4  13    2.88    1.16
   8  -5 -13   18.50    2.66
  -8  -5  13   12.77    2.30
   8   5 -13   15.43    2.75
  -8   5  13   18.22    1.53
   7  -5 -13   20.76    2.85
  -7   5  13   22.32    1.84
   7   5 -13   18.41    3.60
   6  -5 -13   40.95    4.00
   6   5 -13   38.89    4.61
  -6   5  13   43.76    3.29
  -5  -5  13    6.27    1.63
   5  -5 -13    3.65    1.58
  -5  -5  13    3.02    1.41
   5   5 -13    5.74    2.08
  -5   5  13    6.18    0.85
  -4  -5  13   51.17    4.76
  -4  -5  13   52.51    4.86
   4  -5 -13   51.49    4.80
  -4   5  13   59.96    4.14
   4   5 -13   51.11    5.26
  -4   5  13   49.62    4.36
   3  -5 -13    3.86    1.60
  -3  -5  13    4.53    1.58
  -3  -5  13    1.94    1.34
   3  -5 -13    2.55    3.02
   3   5 -13    3.04    1.96
  -3   5  13    3.00    1.13
  -3   5  13    3.77    0.63
   2  -5 -13   25.32    6.35
  -2  -5  13   30.66    3.15
   2  -5 -13   22.16    3.40
  -2  -5  13   31.90    3.42
  -2   5  13   28.61    2.73
   2   5 -13   26.27    3.98
  -2   5  13   30.54    2.42
  -1  -5  13   36.52    3.61
   1  -5 -13   33.51    5.40
  -1  -5  13   35.53    3.31
   1   5 -13   27.96    4.25
  -1   5  13   29.21    2.66
  -1   5  13   31.50    2.98
   0  -5  13    2.39    1.61
   0  -5 -13    0.66    2.95
   0  -5  13    1.88    1.25
   0   5  13    2.12    0.68
   0   5  13    2.60    1.09
   0   5 -13    1.32    2.20
   7  -6 -13   22.10    3.16
  -7   6  13   28.51    2.25
   7   6 -13   27.86    4.04
   6  -6 -13    8.93    1.73
  -6  -6  13    3.34    1.61
  -6   6  13    5.23    0.90
   6   6 -13    5.56    2.17
  -5  -6  13   38.65    4.18
   5  -6 -13   40.81    4.18
   5   6 -13   50.07    4.86
   4  -6 -13    7.17    1.79
  -4  -6  13    6.20    1.81
  -4   6  13    8.06    1.33
  -4   6  13    8.92    1.05
   4   6 -13    5.57    2.16
  -3  -6  13   39.42    4.18
   3  -6 -13   34.82    4.21
  -3  -6  13   45.12    4.47
  -3   6  13   42.97    3.65
  -3   6  13   46.99    3.36
   3   6 -13   37.70    4.63
   2  -6 -13   30.91    4.15
  -2  -6  13   43.70    4.05
  -2  -6  13   37.12    4.37
   2   6 -13   40.59    4.66
  -2   6  13   44.28    3.27
  -2   6  13   42.00    3.55
  -1  -6  13    5.46    1.58
  -1  -6  13    6.58    2.00
   1  -6 -13   10.47    3.53
  -1   6  13    5.53    1.26
   1   6 -13    4.54    2.32
  -1   6  13    5.47    0.84
   5  -7 -13    1.59    1.65
  -5  -7  13   -2.62    1.72
  -5   7  13    1.32    0.52
   5   7 -13   -0.86    2.08
   4  -7 -13   51.07    5.25
  -4  -7  13   60.25    5.42
  -4   7  13   65.64    4.48
   4   7 -13   45.96    5.64
  -4   7  13   59.03    4.76
  -3  -7  13   32.22    3.76
   3  -7 -13   26.12    3.84
  -3  -7  13   38.25    6.00
   3   7 -13   26.87    4.81
  -3   7  13   33.81    3.06
  -3   7  13   34.24    2.67
   9   0 -14   25.42    3.84
  -9   0  14   25.84    2.24
   8   0 -14   33.95    4.05
  -8   0  14   30.60    2.55
   8   0 -14   27.53    5.44
  -8   0  14   28.85    2.82
  -7   0  14    2.41    0.68
  -7   0  14    3.07    1.02
   7   0 -14    5.23    1.97
   6   0 -14   52.14    4.88
  -6   0  14   43.89    4.02
  -6   0  14   49.19    3.85
   5   0 -14    6.41    2.03
  -5   0  14   10.22    1.71
  -5   0  14    8.88    1.33
   5   0 -14   11.92    2.76
  -4   0  14   25.19    2.38
  -4   0  14   25.55    2.61
  -3   0  14   26.48    2.65
  -3   0  14   24.92    2.46
   3   0 -14   27.40    4.35
  -2   0  14    4.65    1.20
   2   0 -14    8.08    2.60
  -1   0  14   47.39    4.34
  -1   0  14   51.97    4.25
   1   0 -14   56.16    5.67
   0   0 -14    6.26    2.47
   0   0  14    2.51    1.25
   0   0  14    5.70    1.11
   9  -1 -14    8.44    2.19
  -9  -1  14    8.70    1.39
  -9  -1  14    9.14    1.40
  -9   1  14   11.72    1.23
   9   1 -14   13.36    2.61
   9   1 -14   16.27    2.93
   8  -1 -14   16.90    3.08
  -8  -1  14   13.57    1.99
  -8  -1  14   12.84    1.63
   8   1 -14   17.98    2.70
   8   1 -14   15.49    2.92
  -8   1  14   13.78    1.41
  -7  -1  14   39.79    3.86
   7  -1 -14   39.53    4.75
   7  -1 -14   52.22    5.96
  -7   1  14   49.66    4.04
  -7   1  14   50.23    3.80
   7   1 -14   57.47    5.97
   7   1 -14   57.38    5.43
   6  -1 -14    1.34    1.77
  -6  -1  14    0.83    0.97
  -6  -1  14    2.08    0.78
   6  -1 -14    4.62    2.84
   6   1 -14   -0.64    1.96
  -6   1  14    1.55    0.94
  -6   1  14    0.65    0.51
   6   1 -14    0.05    2.24
   5  -1 -14   50.10    5.34
  -5  -1  14   49.01    4.61
   5  -1 -14   57.04    7.14
   5   1 -14   64.54    5.61
   5   1 -14   62.66    6.01
  -5   1  14   61.73    4.54
  -5   1  14   60.83    4.73
  -4  -1  14   22.57    2.36
   4  -1 -14   32.68    4.54
   4  -1 -14   20.37    3.38
  -4  -1  14   23.02    2.56
  -4   1  14   24.19    2.21
   4   1 -14   31.35    4.29
  -4   1  14   22.84    2.46
  -3  -1  14   16.82    2.02
  -3  -1  14   13.60    2.22
   3  -1 -14   21.24    4.19
   3   1 -14   23.95    4.06
  -3   1  14   17.23    1.85
  -3   1  14   17.65    2.13
   2  -1 -14   65.50    6.10
  -2  -1  14   54.75    4.75
  -2  -1  14   55.88    4.82
  -2   1  14   54.49    4.76
  -2   1  14   55.88    4.65
   2   1 -14   67.21    6.10
  -1  -1  14    1.69    0.98
  -1  -1  14    1.04    1.13
   1  -1 -14    2.41    2.41
  -1   1  14    0.70    0.82
  -1   1  14   -1.06    1.02
   1   1 -14    3.39    2.26
   0  -1  14   44.43    3.69
   0  -1 -14   51.54    5.31
   0  -1  14   39.71    3.82
   0   1  14   35.44    3.75
   0   1  14   42.15    3.60
   0   1 -14   44.95    5.20
  -9  -2  14   58.84    4.51
   9  -2 -14   54.91    5.25
  -9  -2  14   53.07    4.60
   9   2 -14   60.42    6.02
   9   2 -14   58.30    5.94
  -9   2  14   53.14    4.31
  -8  -2  14   18.67    2.40
   8  -2 -14   17.53    3.15
  -8  -2  14   21.67    2.12
   8   2 -14   22.13    3.24
  -8   2  14   22.29    1.83
   8   2 -14   20.11    4.04
  -7  -2  14   17.66    2.10
   7  -2 -14   21.72    3.17
   7   2 -14   23.48    3.91
   7   2 -14   23.20    4.02
  -7   2  14   20.87    1.80
  -6  -2  14   63.16    5.94
   6  -2 -14   71.05    6.56
  -6  -2  14   69.73    5.88
  -6   2  14   79.17    5.90
  -6   2  14   81.92    5.71
   6   2 -14   82.08    6.93
  -5  -2  14    2.83    1.15
   5  -2 -14    8.19    3.00
   5  -2 -14    2.64    1.73
  -5  -2  14    2.59    1.02
  -5   2  14    3.01    0.65
   5   2 -14    7.37    2.41
  -5   2  14    4.59    1.04
  -4  -2  14   58.86    5.49
  -4  -2  14   65.07    5.59
   4  -2 -14   58.17    5.97
  -4   2  14   72.37    5.50
  -4   2  14   78.73    5.34
   4   2 -14   77.21    6.64
  -3  -2  14   44.72    4.16
   3  -2 -14   40.15    4.76
  -3  -2  14   45.18    4.28
   3  -2 -14   54.43    5.78
  -3   2  14   52.82    3.96
  -3   2  14   51.13    4.15
   3   2 -14   58.89    5.59
  -2  -2  14   14.46    2.02
   2  -2 -14   21.21    4.04
  -2  -2  14   11.49    1.78
   2   2 -14   16.96    2.98
  -2   2  14   13.52    1.65
  -2   2  14   13.84    1.97
  -1  -2  14   63.37    5.66
  -1  -2  14   61.75    5.72
   1  -2 -14   78.70    7.01
   1   2 -14   80.13    6.99
  -1   2  14   75.11    5.58
  -1   2  14   69.14    5.68
   0  -2 -14    4.72    2.63
   0  -2  14    2.92    1.10
   0  -2  14    1.94    1.31
   0   2  14    1.86    1.17
   0   2 -14    5.22    2.35
   0   2  14    3.15    1.22
  -8  -3  14   24.99    2.78
  -8  -3  14   25.41    2.57
   8  -3 -14   24.34    3.40
   8   3 -14   33.39    4.95
  -8   3  14   26.88    2.19
   8   3 -14   28.14    4.19
  -7  -3  14   50.68    4.46
  -7  -3  14   49.57    4.60
   7  -3 -14   55.62    5.01
   7   3 -14   58.82    5.63
  -7   3  14   57.11    4.20
  -6  -3  14    2.07    1.18
  -6  -3  14    1.49    0.98
   6  -3 -14    0.51    1.63
  -6   3  14    2.07    0.99
  -6   3  14    1.97    0.49
   6   3 -14    4.06    2.25
  -5  -3  14   57.74    5.21
   5  -3 -14   57.66    5.62
  -5  -3  14   63.24    5.32
  -5   3  14   63.28    5.13
  -5   3  14   70.91    4.92
   5   3 -14   67.34    6.17
   4  -3 -14   12.34    3.36
  -4  -3  14   14.91    2.24
   4  -3 -14    8.74    1.97
  -4  -3  14    9.47    1.52
  -4   3  14    8.52    1.19
   4   3 -14   10.89    2.58
  -4   3  14    9.11    1.71
  -3  -3  14   24.98    2.94
   3  -3 -14   33.97    4.92
   3  -3 -14   24.79    3.45
  -3  -3  14   27.22    2.79
  -3   3  14   25.73    2.29
  -3   3  14   24.50    2.60
   3   3 -14   27.57    4.30
  -2  -3  14   40.58    3.79
  -2  -3  14   39.90    3.58
   2  -3 -14   44.74    5.43
  -2   3  14   36.19    3.19
  -2   3  14   35.15    3.43
   2   3 -14   40.00    4.99
   1  -3 -14    2.90    2.63
  -1  -3  14    1.97    1.14
  -1  -3  14    1.05    1.34
  -1   3  14    2.08    1.12
  -1   3  14    2.09    0.78
   1   3 -14   -0.12    2.27
   0  -3  14   50.80    4.39
   0   3  14   45.20    4.15
  -8  -4  14   35.89    3.45
   8  -4 -14   37.76    4.02
  -8   4  14   38.71    3.01
   8   4 -14   38.39    4.77
  -7  -4  14    3.42    1.23
  -7  -4  14    2.89    1.81
   7  -4 -14    3.70    1.72
  -7   4  14    3.82    0.63
   7   4 -14    4.51    2.33
  -6  -4  14   52.37    4.71
  -6  -4  14   59.04    4.86
   6  -4 -14   59.53    5.11
   6   4 -14   54.38    5.58
  -6   4  14   52.06    4.25
   5  -4 -14    2.06    1.68
  -5  -4  14    2.63    1.47
  -5  -4  14    1.17    1.24
   5   4 -14    4.88    2.20
  -5   4  14    2.08    0.53
  -5   4  14    1.80    1.01
  -4  -4  14   47.06    3.93
   4  -4 -14   46.77    9.49
   4  -4 -14   43.67    4.29
   4   4 -14   38.07    4.85
  -4   4  14   36.76    3.60
  -4   4  14   42.35    3.33
   3  -4 -14   26.15    5.15
   3  -4 -14   14.17    2.46
  -3  -4  14   21.75    2.82
  -3  -4  14   22.21    2.55
  -3   4  14   17.81    2.21
   3   4 -14   18.81    3.83
  -3   4  14   17.03    1.74
  -2  -4  14   13.80    2.50
   2  -4 -14   14.42    3.46
  -2  -4  14   14.30    2.17
  -2   4  14    8.64    1.33
  -2   4  14    9.42    1.49
   2   4 -14    9.69    2.64
  -1  -4  14   36.85    3.59
   1  -4 -14   39.16    5.54
  -1   4  14   29.73    2.77
   1   4 -14   31.61    4.65
  -1   4  14   29.33    3.09
   6  -5 -14   -0.26    1.61
  -6  -5  14    1.58    1.34
  -6   5  14    0.31    0.41
   6   5 -14    1.57    2.21
   5  -5 -14   27.14    3.74
  -5  -5  14   28.15    3.41
  -5  -5  14   33.19    3.69
  -5   5  14   36.08    2.62
  -5   5  14   30.48    2.97
   5   5 -14   28.49    4.33
   4  -5 -14   12.43    2.24
  -4  -5  14   12.78    2.15
  -4  -5  14   14.17    2.47
   4   5 -14   13.63    2.66
  -4   5  14   15.52    1.45
  -4   5  14   12.09    1.98
  -3  -5  14   32.34    3.52
  -3  -5  14   31.43    3.22
   3  -5 -14   25.27    3.59
   3   5 -14   24.05    4.15
  -3   5  14   24.21    2.72
  -3   5  14   25.49    2.29
   2  -5 -14   42.54    6.52
  -2  -5  14   38.05    3.83
   2  -5 -14   33.40    4.24
  -2  -5  14   41.23    4.12
  -2   5  14   38.02    3.14
   2   5 -14   37.51    4.81
  -2   5  14   38.60    3.48
  -7   0  15   50.72    4.05
  -7   0  15   49.86    4.26
   6   0 -15    6.87    2.35
  -6   0  15    3.53    0.84
  -6   0  15    4.18    1.19
   6   0 -15    5.68    3.11
   5   0 -15   21.21    3.09
  -5   0  15   18.82    2.48
  -5   0  15   22.05    2.17
   5   0 -15   29.53    4.10
   4   0 -15   30.15    4.83
  -4   0  15   21.05    2.53
  -4   0  15   21.14    2.25
   3   0 -15    5.40    2.88
  -3   0  15    1.67    0.96
  -3   0  15    1.68    1.20
   2   0 -15   38.15    5.09
  -2   0  15   25.16    2.97
  -2   0  15   26.85    2.73
  -7  -1  15    3.39    1.17
  -7  -1  15    3.34    0.87
   7  -1 -15    8.13    3.84
   7  -1 -15    5.02    2.14
  -7   1  15    2.49    0.65
   7   1 -15    4.08    2.85
  -7   1  15    3.18    1.12
   7   1 -15    4.77    2.46
  -6  -1  15   42.13    3.70
   6  -1 -15   43.66    4.88
  -6  -1  15   36.67    3.90
  -6   1  15   50.93    3.62
   6   1 -15   48.61    5.16
  -6   1  15   44.91    3.86
   5  -1 -15    5.75    2.23
  -5  -1  15    7.32    1.38
  -5  -1  15    6.15    1.19
  -5   1  15   10.36    1.31
  -4  -1  15   17.46    2.44
  -4  -1  15   17.07    2.12
   4  -1 -15   26.05    5.02
   4   1 -15   29.06    4.68
  -4   1  15   19.02    2.00
  -4   1  15   17.33    2.33
   3  -1 -15   46.69    5.50
  -3  -1  15   34.15    3.55
  -3  -1  15   33.60    3.38
  -3   1  15   38.42    3.46
  -3   1  15   39.35    3.28
   2  -1 -15    4.59    2.76
  -2  -1  15   -0.65    1.19
  -2  -1  15    0.65    1.01
   2   1 -15    1.65    2.63
  -2   1  15    1.29    0.88
  -2   1  15    0.41    1.16
   7  -2 -15   63.16    6.06
  -7  -2  15   63.40    5.42
  -7  -2  15   66.84    5.30
  -7   2  15   64.94    5.32
   7   2 -15   72.19    6.72
  -7   2  15   65.79    5.21
   6  -2 -15    2.02    2.00
  -6  -2  15    0.84    1.17
  -6  -2  15    2.14    0.93
   6  -2 -15    8.68    4.40
  -6   2  15    0.32    0.98
  -6   2  15    0.86    0.53
   6   2 -15    0.62    2.57
  -5  -2  15   59.63    5.27
  -5  -2  15   60.29    5.40
   5  -2 -15   62.84    6.01
  -5   2  15   69.10    5.08
  -5   2  15   66.08    5.30
   5   2 -15   73.98    6.75
  -4  -2  15   26.30    3.07
   4  -2 -15   38.68    5.51
  -4  -2  15   26.54    2.82
   4  -2 -15   26.45    3.99
  -4   2  15   27.32    2.86
  -4   2  15   31.58    2.55
  -3  -2  15   18.95    2.60
   3  -2 -15   26.05    3.94
  -3  -2  15   16.74    2.31
  -3   2  15   15.25    2.27
   3   2 -15   22.02    4.48
  -3   2  15   18.38    1.97
  -2  -2  15   53.62    4.85
  -2   2  15   57.40    4.72
   6  -3 -15   40.70    4.98
  -6  -3  15   45.67    4.50
  -6  -3  15   46.22    4.29
   6   3 -15   61.73    5.81
  -6   3  15   55.14    3.97
  -6   3  15   52.41    4.34
  -5  -3  15   17.21    2.23
   5  -3 -15   15.13    2.54
  -5  -3  15   16.09    2.64
   5   3 -15   15.60    3.21
  -5   3  15   17.80    1.62
  -5   3  15   13.70    2.10
   4  -3 -15   27.90    3.71
  -4  -3  15   19.88    3.01
  -4  -3  15   21.70    2.71
   4  -3 -15   37.04    5.76
  -4   3  15   24.90    2.59
  -4   3  15   24.79    2.22
   4   3 -15   26.10    4.58
  -3  -3  15   47.77    4.43
   3  -3 -15   61.60    6.69
  -3  -3  15   45.10    4.58
  -3   3  15   48.93    4.07
  -3   3  15   49.22    4.34
   3   3 -15   60.84    6.03
   0   0   0    0.00    0.00
;
_shelx_hkl_checksum              46771
loop_
_space_group_symop_operation_xyz
'x, y, z'
'-x, y+1/2, -z'
loop_
_atom_site_label
_atom_site_type_symbol
_atom_site_fract_x
_atom_site_fract_y
_atom_site_fract_z
_atom_site_U_iso_or_equiv
_atom_site_adp_type
_atom_site_occupancy
_atom_site_site_symmetry_order
_atom_site_calc_flag
_atom_site_refinement_flags_posn
_atom_site_refinement_flags_adp
Au1 Au 0.20146(2) 0.43810(4) 0.19436(2) 0.00889(7) Uani 1 1 d . .
C9 C 0.2923(8) 0.5577(7) 0.5786(7) 0.0112(11) Uani 1 1 d . .
Cl2 Cl 0.1687(2) 0.2301(2) 0.29339(17) 0.0163(3) Uani 1 1 d . .
Cl1 Cl 0.2521(2) 0.2976(2) 0.03964(18) 0.0175(3) Uani 1 1 d . .
N2 N 0.1644(7) 0.5752(6) 0.3267(5) 0.0090(10) Uani 1 1 d . .
C8 C -0.0274(9) 0.5786(8) 0.4476(6) 0.0129(12) Uani 1 1 d . .
H8A H -0.053281 0.527463 0.517591 0.015 Uiso 1 1 calc R U
H8B H -0.026241 0.684943 0.463200 0.015 Uiso 1 1 calc R U
C1 C 0.2582(10) 0.6455(9) 0.0004(7) 0.0164(13) Uani 1 1 d . .
H1 H 0.280974 0.561762 -0.041174 0.020 Uiso 1 1 calc R U
C12 C 0.4455(9) 0.4832(9) 0.5695(7) 0.0175(14) Uani 1 1 d . .
H12A H 0.426945 0.377681 0.560767 0.026 Uiso 1 1 calc R U
H12B H 0.544311 0.504061 0.650574 0.026 Uiso 1 1 calc R U
H12C H 0.463247 0.520155 0.491318 0.026 Uiso 1 1 calc R U
N1 N 0.2169(7) 0.6306(6) 0.1065(5) 0.0107(10) Uani 1 1 d . .
C11 C 0.3286(12) 0.7190(10) 0.6099(9) 0.0189(18) Uani 1 1 d . .
H11A H 0.357448 0.764493 0.539968 0.028 Uiso 1 1 calc R U
H11B H 0.422348 0.729701 0.696427 0.028 Uiso 1 1 calc R U
H11C H 0.229207 0.766674 0.613406 0.028 Uiso 1 1 calc R U
O4 O -0.3423(8) 0.6226(8) 0.3845(7) 0.0210(14) Uani 1 1 d . .
C4 C 0.1853(9) 0.8862(8) 0.1183(7) 0.0134(12) Uani 1 1 d . .
H4 H 0.158186 0.967748 0.159986 0.016 Uiso 1 1 calc R U
C7 C 0.1386(8) 0.5275(7) 0.4463(6) 0.0103(11) Uani 1 1 d . .
H7 H 0.129560 0.418930 0.439010 0.012 Uiso 1 1 calc R U
O2 O -0.1478(6) 0.5408(6) 0.3144(5) 0.0147(10) Uani 1 1 d . .
O1 O 0.0956(7) 0.8171(6) 0.3385(5) 0.0170(10) Uani 1 1 d . .
C6 C 0.1400(9) 0.7166(8) 0.2850(6) 0.0111(12) Uani 1 1 d . .
N3 N -0.3135(8) 0.5703(7) 0.2947(6) 0.0156(11) Uani 1 1 d . .
O3 O -0.4100(7) 0.5385(7) 0.1849(6) 0.0274(13) Uani 1 1 d . .
C5 C 0.1803(8) 0.7463(7) 0.1643(7) 0.0109(11) Uani 1 1 d . .
C2 C 0.2677(10) 0.7832(8) -0.0489(7) 0.0169(13) Uani 1 1 d . .
H2 H 0.299590 0.794308 -0.122849 0.020 Uiso 1 1 calc R U
C3 C 0.2303(10) 0.9047(7) 0.0105(7) 0.0177(15) Uani 1 1 d . .
H3 H 0.235664 0.999555 -0.022608 0.021 Uiso 1 1 calc R U
C10 C 0.2572(9) 0.4889(9) 0.6938(7) 0.0166(13) Uani 1 1 d . .
H10A H 0.215362 0.389472 0.669466 0.025 Uiso 1 1 calc R U
H10B H 0.173127 0.547039 0.711365 0.025 Uiso 1 1 calc R U
H10C H 0.360758 0.486408 0.774213 0.025 Uiso 1 1 calc R U
loop_
_atom_site_aniso_label
_atom_site_aniso_U_11
_atom_site_aniso_U_22
_atom_site_aniso_U_33
_atom_site_aniso_U_23
_atom_site_aniso_U_13
_atom_site_aniso_U_12
Au1 0.00971(10) 0.00977(10) 0.00889(9) -0.00117(12) 0.00545(7) 0.00076(13)
C9 0.010(3) 0.013(3) 0.012(3) -0.001(2) 0.006(2) -0.003(2)
Cl2 0.0264(9) 0.0100(8) 0.0179(8) 0.0009(7) 0.0144(7) 0.0008(7)
Cl1 0.0241(9) 0.0149(7) 0.0174(8) -0.0037(6) 0.0122(7) 0.0016(6)
N2 0.019(3) 0.005(2) 0.010(2) -0.0021(19) 0.013(2) 0.001(2)
C8 0.012(3) 0.017(3) 0.011(3) -0.003(2) 0.006(2) 0.000(2)
C1 0.024(4) 0.017(3) 0.011(3) 0.000(3) 0.010(3) 0.003(3)
C12 0.013(3) 0.027(3) 0.015(3) 0.004(2) 0.008(2) 0.004(2)
N1 0.011(2) 0.011(2) 0.010(2) 0.0003(19) 0.005(2) 0.002(2)
C11 0.019(4) 0.021(4) 0.019(4) -0.009(3) 0.010(3) -0.008(3)
O4 0.014(3) 0.024(3) 0.029(3) -0.005(2) 0.013(2) -0.003(2)
C4 0.015(3) 0.012(2) 0.016(3) 0.001(2) 0.008(3) 0.000(2)
C7 0.009(3) 0.013(3) 0.013(3) -0.002(2) 0.009(2) -0.002(2)
O2 0.006(2) 0.025(3) 0.014(2) -0.0064(19) 0.0051(17) 0.000(2)
O1 0.023(3) 0.013(2) 0.021(3) -0.0021(18) 0.014(2) 0.003(2)
C6 0.015(3) 0.011(3) 0.011(3) 0.000(2) 0.010(2) 0.001(3)
N3 0.011(3) 0.015(3) 0.024(3) -0.003(2) 0.011(2) 0.002(2)
O3 0.013(3) 0.040(4) 0.024(3) -0.010(2) 0.001(2) 0.005(2)
C5 0.013(3) 0.011(3) 0.010(2) -0.001(2) 0.006(2) 0.001(2)
C2 0.026(4) 0.016(3) 0.014(3) -0.001(2) 0.013(3) -0.001(3)
C3 0.024(4) 0.015(4) 0.016(3) 0.001(2) 0.010(3) 0.000(2)
C10 0.017(3) 0.025(3) 0.009(3) -0.002(2) 0.007(2) -0.002(3)
loop_
_atom_type_symbol
_atom_type_description
_atom_type_scat_dispersion_real
_atom_type_scat_dispersion_imag
_atom_type_scat_source
C C 0.0033 0.0016 'International Tables Vol C Tables 4.2.6.8 and 6.1.1.4'
H H 0.0000 0.0000 'International Tables Vol C Tables 4.2.6.8 and 6.1.1.4'
Au Au -2.0133 8.8022 'International Tables Vol C Tables 4.2.6.8 and 6.1.1.4'
Cl Cl 0.1484 0.1585 'International Tables Vol C Tables 4.2.6.8 and 6.1.1.4'
N N 0.0061 0.0033 'International Tables Vol C Tables 4.2.6.8 and 6.1.1.4'
O O 0.0106 0.0060 'International Tables Vol C Tables 4.2.6.8 and 6.1.1.4'
loop_
_geom_angle_atom_site_label_1
_geom_angle_atom_site_label_2
_geom_angle_atom_site_label_3
_geom_angle
N2 Au1 N1 81.4(2)
N2 Au1 Cl2 95.93(18)
N1 Au1 Cl2 176.14(17)
N2 Au1 Cl1 175.68(18)
N1 Au1 Cl1 94.53(16)
Cl2 Au1 Cl1 88.20(6)
C11 C9 C12 109.8(6)
C11 C9 C10 107.9(6)
C12 C9 C10 108.7(6)
C11 C9 C7 114.0(6)
C12 C9 C7 108.3(5)
C10 C9 C7 108.0(5)
C6 N2 C7 121.4(5)
C6 N2 Au1 113.7(4)
C7 N2 Au1 124.2(4)
O2 C8 C7 103.5(5)
O2 C8 H8A 111.1
C7 C8 H8A 111.1
O2 C8 H8B 111.1
C7 C8 H8B 111.1
H8A C8 H8B 109.0
N1 C1 C2 120.1(7)
N1 C1 H1 120.0
C2 C1 H1 120.0
C9 C12 H12A 109.5
C9 C12 H12B 109.5
H12A C12 H12B 109.5
C9 C12 H12C 109.5
H12A C12 H12C 109.5
H12B C12 H12C 109.5
C5 N1 C1 121.0(6)
C5 N1 Au1 113.6(4)
C1 N1 Au1 125.4(5)
C9 C11 H11A 109.5
C9 C11 H11B 109.5
H11A C11 H11B 109.5
C9 C11 H11C 109.5
H11A C11 H11C 109.5
H11B C11 H11C 109.5
C3 C4 C5 118.6(6)
C3 C4 H4 120.7
C5 C4 H4 120.7
N2 C7 C8 112.8(5)
N2 C7 C9 113.1(5)
C8 C7 C9 114.2(5)
N2 C7 H7 105.2
C8 C7 H7 105.2
C9 C7 H7 105.2
N3 O2 C8 113.9(5)
O1 C6 N2 126.5(6)
O1 C6 C5 119.8(7)
N2 C6 C5 113.7(6)
O3 N3 O4 128.5(7)
O3 N3 O2 112.7(6)
O4 N3 O2 118.8(6)
N1 C5 C4 121.5(6)
N1 C5 C6 116.3(6)
C4 C5 C6 122.1(6)
C1 C2 C3 119.5(6)
C1 C2 H2 120.3
C3 C2 H2 120.3
C4 C3 C2 119.3(6)
C4 C3 H3 120.3
C2 C3 H3 120.3
C9 C10 H10A 109.5
C9 C10 H10B 109.5
H10A C10 H10B 109.5
C9 C10 H10C 109.5
H10A C10 H10C 109.5
H10B C10 H10C 109.5
loop_
_geom_bond_atom_site_label_1
_geom_bond_atom_site_label_2
_geom_bond_distance
Au1 N2 2.027(5)
Au1 N1 2.036(6)
Au1 Cl2 2.2622(19)
Au1 Cl1 2.2912(18)
C9 C11 1.525(11)
C9 C12 1.531(9)
C9 C10 1.533(9)
C9 C7 1.559(9)
N2 C6 1.363(9)
N2 C7 1.467(8)
C8 O2 1.459(8)
C8 C7 1.519(9)
C8 H8A 0.9900
C8 H8B 0.9900
C1 N1 1.340(9)
C1 C2 1.387(11)
C1 H1 0.9500
C12 H12A 0.9800
C12 H12B 0.9800
C12 H12C 0.9800
N1 C5 1.333(8)
C11 H11A 0.9800
C11 H11B 0.9800
C11 H11C 0.9800
O4 N3 1.197(9)
C4 C3 1.380(10)
C4 C5 1.384(9)
C4 H4 0.9500
C7 H7 1.0000
O2 N3 1.395(7)
O1 C6 1.228(9)
C6 C5 1.506(9)
N3 O3 1.197(9)
C2 C3 1.388(10)
C2 H2 0.9500
C3 H3 0.9500
C10 H10A 0.9800
C10 H10B 0.9800
C10 H10C 0.9800
loop_
_geom_hbond_atom_site_label_D
_geom_hbond_atom_site_label_H
_geom_hbond_atom_site_label_A
_geom_hbond_distance_DH
_geom_hbond_distance_HA
_geom_hbond_distance_DA
_geom_hbond_angle_DHA
_geom_hbond_site_symmetry_A
_geom_hbond_publ_flag
C1 H1 Cl1 0.95 2.62 3.225(8) 121.7 . yes
C12 H12C O4 0.98 2.57 3.453(10) 150.4 1_655 yes
C7 H7 Cl2 1.00 2.46 3.257(7) 136.7 . yes
C2 H2 O3 0.95 2.63 3.256(10) 124.2 2 yes
loop_
_geom_torsion_atom_site_label_1
_geom_torsion_atom_site_label_2
_geom_torsion_atom_site_label_3
_geom_torsion_atom_site_label_4
_geom_torsion
C2 C1 N1 C5 1.7(11)
C2 C1 N1 Au1 -178.7(6)
C6 N2 C7 C8 48.9(8)
Au1 N2 C7 C8 -121.0(5)
C6 N2 C7 C9 -82.6(8)
Au1 N2 C7 C9 107.5(6)
O2 C8 C7 N2 48.0(7)
O2 C8 C7 C9 179.0(5)
C11 C9 C7 N2 66.0(8)
C12 C9 C7 N2 -56.5(7)
C10 C9 C7 N2 -174.1(6)
C11 C9 C7 C8 -64.8(8)
C12 C9 C7 C8 172.6(6)
C10 C9 C7 C8 55.0(7)
C7 C8 O2 N3 176.4(5)
C7 N2 C6 O1 -0.1(11)
Au1 N2 C6 O1 170.8(6)
C7 N2 C6 C5 177.3(5)
Au1 N2 C6 C5 -11.9(7)
C8 O2 N3 O3 180.0(6)
C8 O2 N3 O4 0.3(9)
C1 N1 C5 C4 -0.7(10)
Au1 N1 C5 C4 179.6(5)
C1 N1 C5 C6 -178.5(6)
Au1 N1 C5 C6 1.8(8)
C3 C4 C5 N1 -0.4(11)
C3 C4 C5 C6 177.2(6)
O1 C6 C5 N1 -175.7(6)
N2 C6 C5 N1 6.7(9)
O1 C6 C5 C4 6.5(10)
N2 C6 C5 C4 -171.1(6)
N1 C1 C2 C3 -1.5(12)
C5 C4 C3 C2 0.6(11)
C1 C2 C3 C4 0.4(12)
