#------------------------------------------------------------------------------
#$Date: 2018-01-31 02:15:08 +0200 (Wed, 31 Jan 2018) $
#$Revision: 205915 $
#$URL: file:///home/coder/svn-repositories/cod/cif/4/12/71/4127107.cif $
#------------------------------------------------------------------------------
#
# This file is available in the Crystallography Open Database (COD),
# http://www.crystallography.net/
#
# All data on this site have been placed in the public domain by the
# contributors.
#
data_4127107
loop_
_publ_author_name
'Tindall, Daniel J.'
'Werl\'e, Christophe'
'Goddard, Richard'
'Philipps, Petra'
'Far\`es, Christophe'
'F\"urstner, Alois'
_publ_section_title
;
 Structure and Reactivity of Half-Sandwich Rh(+3) and Ir(+3) Carbene
 Complexes. Catalytic Metathesis of Azobenzene Derivatives.
;
_journal_name_full               'Journal of the American Chemical Society'
_journal_paper_doi               10.1021/jacs.7b12673
_journal_year                    2018
_chemical_compound_source        pentane
_chemical_formula_moiety         'C15 H13 N O2'
_chemical_formula_sum            'C15 H13 N O2'
_chemical_formula_weight         239.26
_chemical_name_systematic
;
 methyl ((phenyl)imino)(phenyl)acetate
;
_space_group_crystal_system      triclinic
_space_group_IT_number           2
_space_group_name_Hall           '-P 1'
_space_group_name_H-M_alt        'P -1'
_symmetry_space_group_name_Hall  '-P 1'
_symmetry_space_group_name_H-M   'P -1'
_atom_sites_solution_hydrogens   geom
_atom_sites_solution_primary     direct
_atom_sites_solution_secondary   difmap
_audit_block_code                TID-TA-386-05_10224_100_K
_audit_creation_date             2016-08-31
_audit_creation_method           SHELXL-2017/1
_cell_angle_alpha                86.020(3)
_cell_angle_beta                 76.842(2)
_cell_angle_gamma                80.632(2)
_cell_formula_units_Z            2
_cell_length_a                   8.1965(12)
_cell_length_b                   8.3165(12)
_cell_length_c                   9.3034(13)
_cell_measurement_reflns_used    8162
_cell_measurement_temperature    100(2)
_cell_measurement_theta_max      37.0876
_cell_measurement_theta_min      2.4835
_cell_volume                     608.95(15)
_computing_cell_refinement       'SAINT software (Bruker AXS, 2004)'
_computing_data_collection       'APEX2 (Bruker AXS, 2005-2013)'
_computing_data_reduction        'SAINT software (Bruker AXS, 2004)'
_computing_molecular_graphics    'DIAMOND (Crystal Impact GbR, 1997-2014)'
_computing_structure_refinement  'SHELXL (G. M. Sheldrick, 2015)'
_computing_structure_solution    'SHELXT (G. M. Sheldrick, 2015)'
_diffrn_ambient_temperature      100(2)
_diffrn_detector_area_resol_mean 66.67
_diffrn_measured_fraction_theta_full 0.998
_diffrn_measured_fraction_theta_max 0.993
_diffrn_measurement_device_type  'Bruker-AXS Kappa Mach3 APEX-II'
_diffrn_measurement_method       'CCD \f- and \w-scans'
_diffrn_radiation_monochromator  'Incoatec Helios mirrors'
_diffrn_radiation_source         1\mS
_diffrn_radiation_type           Mo-K\a
_diffrn_radiation_wavelength     0.71073
_diffrn_reflns_av_R_equivalents  0.0557
_diffrn_reflns_av_unetI/netI     0.0483
_diffrn_reflns_Laue_measured_fraction_full 0.998
_diffrn_reflns_Laue_measured_fraction_max 0.993
_diffrn_reflns_limit_h_max       13
_diffrn_reflns_limit_h_min       -13
_diffrn_reflns_limit_k_max       13
_diffrn_reflns_limit_k_min       -13
_diffrn_reflns_limit_l_max       15
_diffrn_reflns_limit_l_min       -15
_diffrn_reflns_number            23580
_diffrn_reflns_point_group_measured_fraction_full 0.998
_diffrn_reflns_point_group_measured_fraction_max 0.993
_diffrn_reflns_theta_full        25.242
_diffrn_reflns_theta_max         36.318
_diffrn_reflns_theta_min         3.029
_exptl_absorpt_coefficient_mu    0.087
_exptl_absorpt_correction_T_max  0.98966
_exptl_absorpt_correction_T_min  0.97698
_exptl_absorpt_correction_type   gaussian
_exptl_absorpt_process_details   'SADABS (Bruker AXS, 2012)'
_exptl_crystal_colour            colourless
_exptl_crystal_density_diffrn    1.305
_exptl_crystal_description       block
_exptl_crystal_F_000             252
_exptl_crystal_size_max          0.350
_exptl_crystal_size_mid          0.293
_exptl_crystal_size_min          0.188
_refine_diff_density_max         0.574
_refine_diff_density_min         -0.265
_refine_diff_density_rms         0.060
_refine_ls_extinction_method     none
_refine_ls_goodness_of_fit_ref   1.044
_refine_ls_hydrogen_treatment    constr
_refine_ls_matrix_type           full
_refine_ls_number_parameters     164
_refine_ls_number_reflns         5861
_refine_ls_number_restraints     0
_refine_ls_restrained_S_all      1.044
_refine_ls_R_factor_all          0.0646
_refine_ls_R_factor_gt           0.0477
_refine_ls_shift/su_max          0.000
_refine_ls_shift/su_mean         0.000
_refine_ls_structure_factor_coef Fsqd
_refine_ls_weighting_details
'w=1/[\s^2^(Fo^2^)+(0.0734P)^2^+0.0891P] where P=(Fo^2^+2Fc^2^)/3'
_refine_ls_weighting_scheme      calc
_refine_ls_wR_factor_gt          0.1298
_refine_ls_wR_factor_ref         0.1428
_reflns_Friedel_coverage         0.000
_reflns_number_gt                4521
_reflns_number_total             5861
_reflns_threshold_expression     'I > 2\s(I)'
_cod_data_source_file            ja7b12673_si_002.cif
_cod_data_source_block           17
_cod_database_code               4127107
_shelx_shelxl_version_number     2017/1
_shelx_space_group_comment
;
The symmetry employed for this shelxl refinement is uniquely defined
by the following loop, which should always be used as a source of
symmetry information in preference to the above space-group names.
They are only intended as comments.
;
_shelx_estimated_absorpt_t_min   0.970
_shelx_estimated_absorpt_t_max   0.984
_shelx_res_file
;

TITL 10224sadabs_a.res in P-1
    10224.res
    created by SHELXL-2017/1 at 08:14:16 on 20-Sep-2017
CELL 0.71073 8.1965 8.3165 9.3034 86.02 76.842 80.632
ZERR 2 0.0012 0.0012 0.0013 0.003 0.002 0.002
LATT 1
SFAC C H N O
UNIT 30 26 2 4
L.S. 10
PLAN  20
SIZE 0.188 0.293 0.35
TEMP -173
LIST 4
OMIT 0 1 0
OMIT 1 1 0
FMAP 2
ACTA
WGHT    0.073400    0.089100
FVAR       1.18751
C1    1    0.741781    0.388202    0.324258    11.00000    0.01567    0.01559 =
         0.01313   -0.00179   -0.00322   -0.00072
C2    1    0.621530    0.375126    0.224371    11.00000    0.01676    0.01252 =
         0.01421   -0.00005   -0.00389   -0.00103
C3    1    0.337498    0.396717    0.207100    11.00000    0.01880    0.02585 =
         0.02486   -0.00114   -0.00943   -0.00178
AFIX 137
H3A   2    0.339415    0.491626    0.138475    11.00000   -1.50000
H3B   2    0.223939    0.400307    0.270753    11.00000   -1.50000
H3C   2    0.366470    0.296633    0.151074    11.00000   -1.50000
AFIX   0
C4    1    0.764132    0.252608    0.432726    11.00000    0.01652    0.01583 =
         0.01198   -0.00146   -0.00302   -0.00059
C5    1    0.705743    0.106463    0.422170    11.00000    0.01934    0.01743 =
         0.01513   -0.00031   -0.00625   -0.00258
AFIX  43
H5    2    0.649476    0.094628    0.345693    11.00000   -1.20000
AFIX   0
C6    1    0.729280   -0.022026    0.522751    11.00000    0.02106    0.01728 =
         0.01681    0.00057   -0.00508   -0.00289
AFIX  43
H6    2    0.690809   -0.121996    0.514315    11.00000   -1.20000
AFIX   0
C7    1    0.809326   -0.003417    0.635593    11.00000    0.02124    0.02191 =
         0.01266    0.00160   -0.00326   -0.00125
AFIX  43
H7    2    0.825330   -0.090845    0.704771    11.00000   -1.20000
AFIX   0
C8    1    0.866166    0.142519    0.647845    11.00000    0.02311    0.02452 =
         0.01239   -0.00109   -0.00606   -0.00293
AFIX  43
H8    2    0.919684    0.154826    0.726049    11.00000   -1.20000
AFIX   0
C9    1    0.845188    0.270218    0.546568    11.00000    0.02093    0.01913 =
         0.01373   -0.00288   -0.00455   -0.00292
AFIX  43
H9    2    0.885663    0.369287    0.554397    11.00000   -1.20000
AFIX   0
C10   1    0.796124    0.640358    0.212323    11.00000    0.01776    0.01444 =
         0.01500   -0.00144   -0.00493   -0.00326
C11   1    0.931578    0.680569    0.102019    11.00000    0.01630    0.01594 =
         0.01808   -0.00288   -0.00411   -0.00180
AFIX  43
H11   2    1.039179    0.613771    0.089236    11.00000   -1.20000
AFIX   0
C12   1    0.908928    0.817977    0.011222    11.00000    0.01882    0.01805 =
         0.01582   -0.00150   -0.00285   -0.00432
AFIX  43
H12   2    1.000436    0.843333   -0.065411    11.00000   -1.20000
AFIX   0
C13   1    0.753017    0.919027    0.031588    11.00000    0.02274    0.01575 =
         0.01566   -0.00168   -0.00563   -0.00207
AFIX  43
H13   2    0.739023    1.015099   -0.028612    11.00000   -1.20000
AFIX   0
C14   1    0.617935    0.878376    0.140636    11.00000    0.01896    0.01722 =
         0.01786   -0.00381   -0.00391    0.00104
AFIX  43
H14   2    0.510809    0.946022    0.153482    11.00000   -1.20000
AFIX   0
C15   1    0.638146    0.739535    0.231152    11.00000    0.01762    0.01717 =
         0.01664   -0.00211   -0.00090   -0.00196
AFIX  43
H15   2    0.545229    0.712264    0.305283    11.00000   -1.20000
AFIX   0
N1    3    0.826724    0.506307    0.310410    11.00000    0.01887    0.01714 =
         0.01715    0.00019   -0.00531   -0.00308
O1    4    0.669788    0.345107    0.095341    11.00000    0.02197    0.02452 =
         0.01371   -0.00310   -0.00335   -0.00181
O2    4    0.460093    0.399064    0.297559    11.00000    0.01515    0.02181 =
         0.01599   -0.00193   -0.00367   -0.00110
HKLF 4




REM  10224sadabs_a.res in P-1
REM R1 =  0.0477 for    4521 Fo > 4sig(Fo)  and  0.0646 for all    5861 data
REM    164 parameters refined using      0 restraints

END

WGHT      0.0731      0.0901

REM Highest difference peak  0.574,  deepest hole -0.265,  1-sigma level  0.060
Q1    1   0.8652  0.6597  0.1586  11.00000  0.05    0.57
Q2    1   0.7695 -0.0206  0.5772  11.00000  0.05    0.56
Q3    1   0.8105  0.2631  0.4842  11.00000  0.05    0.56
Q4    1   0.6877  0.9072  0.0906  11.00000  0.05    0.55
Q5    1   0.6784  0.3789  0.2717  11.00000  0.05    0.55
Q6    1   0.6279  0.8155  0.1916  11.00000  0.05    0.54
Q7    1   0.8554  0.2091  0.5918  11.00000  0.05    0.50
Q8    1   0.7265  0.0407  0.4638  11.00000  0.05    0.46
Q9    1   0.9209  0.7409  0.0488  11.00000  0.05    0.45
Q10   1   0.7488  0.3226  0.3782  11.00000  0.05    0.42
Q11   1   0.8002  0.5612  0.2471  11.00000  0.05    0.41
Q12   1   0.8316  0.8648  0.0206  11.00000  0.05    0.39
Q13   1   0.7382  0.1808  0.4187  11.00000  0.05    0.36
Q14   1   0.7132  0.6723  0.2235  11.00000  0.05    0.35
Q15   1   0.8262  0.0743  0.6214  11.00000  0.05    0.33
Q16   1   0.7921  0.4380  0.2816  11.00000  0.05    0.30
Q17   1   0.7684  0.4629  0.3386  11.00000  0.05    0.30
Q18   1   0.8760  0.5038  0.3565  11.00000  0.05    0.29
Q19   1   0.6216  0.3529  0.1586  11.00000  0.05    0.27
Q20   1   0.5400  0.3844  0.2458  11.00000  0.05    0.25
;
_shelx_res_checksum              35685
_shelx_hkl_file
;
  -2   0   0 5206.28  356.96
  -2   0   0 4991.00  356.86
  -2   0   0 5013.40  356.96
  -2   0   0 4616.14  357.06
   2   0   0 4960.40  357.06
   2   0   0 5241.28  356.96
   2   0   0 5521.25  357.16
  -3   0   0    2.40    1.00
  -3   0   0    1.30    0.90
  -3   0   0    2.60    1.10
  -3   0   0    2.80    0.50
   3   0   0    2.50    1.10
   3   0   0    3.10    0.50
   3   0   0    2.90    0.50
  -4   0   0   84.19    6.70
  -4   0   0   78.79    6.70
  -4   0   0   78.89    6.00
  -4   0   0   81.69    6.90
   4   0   0   85.19    6.10
   4   0   0   82.19    6.00
   4   0   0   83.19    6.90
  -5   0   0    6.40    1.70
  -5   0   0    7.40    1.00
  -5   0   0    6.60    1.70
  -5   0   0    6.40    1.80
   5   0   0    9.40    2.10
   5   0   0    5.60    0.90
   5   0   0    6.30    0.90
  -6   0   0   19.50    1.80
  -6   0   0   14.20    2.50
  -6   0   0   18.60    3.00
  -6   0   0   13.40    2.80
   6   0   0   17.40    3.00
   6   0   0   16.70    1.70
   6   0   0   14.90    1.60
  -7   0   0   94.09    7.90
  -7   0   0   80.59    7.40
  -7   0   0   89.59    6.40
  -7   0   0   84.49    7.70
   7   0   0   76.19    6.20
   7   0   0   77.19    6.30
  -8   0   0    5.20    1.60
  -8   0   0    7.50    1.40
  -8   0   0    6.50    2.50
  -8   0   0    6.90    2.40
  -8   0   0    9.00    2.90
   8   0   0    6.20    1.20
   8   0   0    6.30    1.20
  -9   0   0   10.10    2.10
  -9   0   0   11.90    3.30
  -9   0   0    9.20    1.70
  -9   0   0   14.40    3.30
  -9   0   0    8.70    3.30
   9   0   0    6.00    1.40
   9   0   0    9.70    1.50
 -10   0   0   55.49    6.80
 -10   0   0   52.09    6.50
 -10   0   0   46.50    6.80
  10   0   0   46.70    4.10
  10   0   0   41.60    4.20
 -11   0   0   53.59    7.70
  11   0   0   47.00    4.40
  11   0   0   50.89    4.70
 -12   0   0    3.60    4.10
  12   0   0    0.40    1.30
  12   0   0    0.20    1.20
 -13   0   0   12.60    5.30
  13   0   0    8.90    2.20
  13   0   0    9.40    2.10
  12  -1   0    2.80    1.50
  12  -1   0    2.70    1.40
 -12   1   0    2.30    4.10
  11  -1   0    1.50    1.30
  11  -1   0   -1.70    1.10
 -11   1   0    1.40    3.10
 -11   1   0    2.10    3.20
 -11   1   0   -5.50    3.00
  10  -1   0   -1.40    0.90
  10  -1   0    0.90    1.10
 -10   1   0    0.00    2.70
 -10   1   0    2.60    2.60
 -10   1   0   -1.90    2.90
   9  -1   0   70.19    6.40
   9  -1   0   78.49    6.70
  -9   1   0   90.69    6.80
  -9   1   0   94.89    7.20
  -9   1   0   77.09    8.10
  -9   1   0   89.59    9.00
  -9   1   0   81.29    8.10
   8  -1   0   18.90    2.40
   8  -1   0   20.10    2.20
  -8   1   0   19.80    3.70
  -8   1   0   16.70    3.30
  -8   1   0   15.70    3.90
  -8   1   0   26.00    2.70
  -8   1   0   23.20    2.90
   7  -1   0   79.69    6.30
   7  -1   0   83.19    6.20
  -7   1   0   73.99    7.60
  -7   1   0   85.89    6.40
  -7   1   0   80.89    6.60
  -7   1   0   75.99    7.30
  -7   1   0   82.99    7.80
   6  -1   0    3.00    0.70
   6  -1   0    2.00    0.70
  -6   1   0    5.20    1.10
  -6   1   0    3.80    1.80
  -6   1   0    3.90    2.00
  -6   1   0    4.30    1.90
  -6   1   0    2.30    1.20
   5  -1   0   21.20    3.00
   5  -1   0   25.40    2.10
   5  -1   0   25.10    2.20
  -5   1   0   26.20    3.00
  -5   1   0   28.50    3.60
  -5   1   0   22.50    2.40
  -5   1   0   27.70    2.30
  -5   1   0   21.60    3.20
   4  -1   0   35.40    2.80
   4  -1   0   40.80    3.00
   4  -1   0   34.50    3.60
  -4   1   0   33.50    3.10
  -4   1   0   37.20    3.80
  -4   1   0   33.90    3.70
  -4   1   0   33.20    3.50
  -4   1   0   37.00    2.90
   3  -1   0  766.12   52.69
   3  -1   0  778.52   52.59
   3  -1   0  737.33   53.09
  -3   1   0  736.63   53.19
  -3   1   0  732.93   52.69
  -3   1   0  726.73   52.79
  -3   1   0  754.52   53.19
  -3   1   0  738.93   52.99
   2  -1   0  585.14   43.90
   2  -1   0  693.33   43.60
   2  -1   0  683.73   43.70
  -2   1   0  619.14   43.80
  -2   1   0  616.14   44.10
  -2   1   0  612.74   43.70
  -2   1   0  602.64   44.00
  -2   1   0  548.45   43.90
  -2   1   0  604.84   43.70
   1  -1   0   83.19    5.60
   1  -1   0   85.79    5.50
  -1   1   0   69.99    5.60
  -1   1   0   78.09    5.80
  -1   1   0   79.99    5.90
  -1   1   0   73.79    5.70
  -1   1   0   74.19    5.70
   0  -1   0    0.00    0.10
   1   1   0  412.76   29.10
  -2  -1   0   66.39    5.10
  -2  -1   0   69.59    5.60
  -2  -1   0   72.69    5.40
   2   1   0   72.69    5.40
   2   1   0   75.19    5.10
   2   1   0   67.09    5.10
  -3  -1   0  538.85   42.90
  -3  -1   0  620.24   42.60
  -3  -1   0  577.94   42.20
   3   1   0  620.74   42.60
   3   1   0  604.74   42.20
   3   1   0  624.24   42.20
  -4  -1   0   99.99    7.80
  -4  -1   0   98.19    7.80
  -4  -1   0   93.59    7.20
   4   1   0   99.99    8.00
   4   1   0  105.09    7.20
   4   1   0   95.59    7.20
  -5  -1   0  241.38   17.80
  -5  -1   0  222.08   17.00
  -5  -1   0  236.88   17.70
  -5  -1   0  247.68   17.70
   5   1   0  247.98   18.00
   5   1   0  244.38   17.10
   5   1   0  231.48   17.00
  -6  -1   0  481.25   33.10
  -6  -1   0  435.06   32.10
  -6  -1   0  450.85   33.00
  -6  -1   0  455.85   32.90
   6   1   0  464.95   33.20
   6   1   0  433.96   32.10
   6   1   0  449.86   32.20
  -7  -1   0   38.10    4.60
  -7  -1   0   36.50    4.50
  -7  -1   0   40.00    3.30
  -7  -1   0   39.70    4.90
   7   1   0   34.10    3.10
   7   1   0   35.80    3.20
   7   1   0   46.90    5.70
  -8  -1   0  302.67   23.30
  -8  -1   0  310.57   23.50
  -8  -1   0  326.97   22.10
  -8  -1   0  331.97   23.30
   8   1   0  272.97   22.00
   8   1   0  299.07   22.10
  -9  -1   0   -2.90    1.00
  -9  -1   0   -0.70    2.10
  -9  -1   0   -0.60    1.90
  -9  -1   0    0.60    2.20
   9   1   0    0.70    0.90
   9   1   0   -0.10    0.70
 -10  -1   0  179.38   14.30
 -10  -1   0  174.28   13.80
  10   1   0  143.89   12.00
  10   1   0  157.58   12.10
 -11  -1   0    3.90    4.00
  11   1   0    8.90    1.80
  11   1   0    9.90    1.80
 -12  -1   0   42.20    7.00
  12   1   0   31.60    3.60
  12   1   0   28.90    3.50
 -13  -1   0   -4.90    4.60
  13   1   0    2.00    1.60
  13   1   0   -1.90    1.50
  12  -2   0   -0.20    1.30
 -12   2   0    1.40    4.30
  11  -2   0    1.30    1.30
  11  -2   0    1.30    1.20
 -11   2   0   -5.00    3.40
 -11   2   0   -1.60    3.40
 -11   2   0    4.70    3.70
  10  -2   0   -0.70    0.90
  10  -2   0   -0.40    1.00
 -10   2   0    0.00    2.80
 -10   2   0   -1.10    2.50
 -10   2   0    1.70    3.40
   9  -2   0   -0.80    0.80
   9  -2   0    0.70    0.90
  -9   2   0    2.50    2.40
  -9   2   0   -1.90    2.40
  -9   2   0   -0.20    1.70
  -9   2   0   -2.50    2.40
  -9   2   0    0.30    1.40
   8  -2   0   -0.40    0.70
   8  -2   0   -1.10    0.70
  -8   2   0   -0.50    2.00
  -8   2   0   -1.10    1.20
  -8   2   0   -2.20    2.10
  -8   2   0   -0.40    1.90
  -8   2   0   -0.30    1.40
   7  -2   0   69.69    5.70
   7  -2   0   64.69    5.50
  -7   2   0   75.59    7.30
  -7   2   0   78.19    6.20
  -7   2   0   85.29    6.00
  -7   2   0   62.29    7.00
  -7   2   0   69.69    6.80
   6  -2   0  183.98   13.00
   6  -2   0  168.58   12.80
  -6   2   0  166.58   13.70
  -6   2   0  163.78   14.00
  -6   2   0  189.08   13.30
  -6   2   0  188.58   13.10
  -6   2   0  170.58   14.00
   5  -2   0    0.10    0.50
   5  -2   0    0.20    0.40
  -5   2   0   -0.20    0.90
  -5   2   0    0.70    1.20
  -5   2   0    1.60    0.90
  -5   2   0    1.50    1.50
  -5   2   0   -0.10    1.40
   4  -2   0  748.43   53.09
   4  -2   0  766.32   53.29
  -4   2   0  761.22   53.39
  -4   2   0  719.63   53.69
  -4   2   0  735.33   53.89
  -4   2   0  794.82   53.29
  -4   2   0  741.93   53.99
   3  -2   0  382.86   25.80
   3  -2   0  392.56   25.60
  -3   2   0  366.16   26.40
  -3   2   0  367.66   26.30
  -3   2   0  362.26   26.10
  -3   2   0  306.27   26.10
  -3   2   0  364.16   25.90
  -3   2   0  349.57   25.80
   2  -2   0 1321.57   90.49
   2  -2   0 1454.65   90.39
  -2   2   0 1132.19   90.59
  -2   2   0 1233.18   90.69
  -2   2   0 1240.48   90.59
  -2   2   0 1330.77   91.09
   1  -2   0    0.70    0.10
   1  -2   0    0.90    0.30
  -1   2   0    1.30    0.70
  -1   2   0    1.10    0.50
  -1   2   0    1.10    0.30
  -1   2   0    0.50    0.40
  -1   2   0    1.10    0.70
   0  -2   0    1.90    0.30
   0   2   0    2.10    0.40
   0   2   0    1.80    0.40
   0   2   0    2.10    0.70
  -1  -2   0  479.45   34.00
   1   2   0  477.35   33.90
   1   2   0  494.35   34.10
   1   2   0  437.56   34.00
   1   2   0  478.95   34.20
   1   2   0  517.85   33.90
  -2  -2   0    0.00    0.50
   2   2   0    0.40    0.40
   2   2   0    0.50    0.30
   2   2   0    0.50    0.50
   2   2   0    0.20    0.40
  -3  -2   0   29.30    2.80
  -3  -2   0   27.10    2.20
  -3  -2   0   27.10    3.10
   3   2   0   29.50    2.10
   3   2   0   26.80    2.20
   3   2   0   26.00    2.70
  -4  -2   0   50.49    5.70
  -4  -2   0   59.59    4.60
  -4  -2   0   65.99    5.30
   4   2   0   62.59    4.60
   4   2   0   61.59    5.30
   4   2   0   66.29    4.60
  -5  -2   0   87.69    6.50
  -5  -2   0   75.49    7.70
  -5  -2   0   86.39    7.10
   5   2   0   92.89    6.40
   5   2   0   89.69    7.30
   5   2   0   84.99    6.40
  -6  -2   0   46.20    4.70
  -6  -2   0   42.90    3.60
  -6  -2   0   45.90    4.60
  -6  -2   0   48.90    4.70
   6   2   0   43.30    4.80
   6   2   0   45.60    3.50
   6   2   0   40.90    3.60
  -7  -2   0  649.74   46.40
  -7  -2   0  667.03   47.50
  -7  -2   0  663.03   47.40
  -7  -2   0  655.83   47.40
   7   2   0  646.14   46.40
   7   2   0  685.53   47.80
   7   2   0  624.34   46.50
  -8  -2   0   86.09    8.00
  -8  -2   0   93.29    8.10
  -8  -2   0   90.19    8.10
  -8  -2   0   88.59    6.70
   8   2   0   83.19    6.70
   8   2   0   82.69    6.70
  -9  -2   0   88.79    6.70
  -9  -2   0   83.39    8.50
  -9  -2   0   86.79    8.30
   9   2   0   82.99    6.70
   9   2   0   83.09    6.70
 -10  -2   0   46.60    6.40
  10   2   0   35.60    3.50
  10   2   0   34.30    3.60
 -11  -2   0   52.79    7.20
  11   2   0   43.00    4.30
  11   2   0   47.40    4.20
 -12  -2   0    2.50    3.70
  12   2   0    0.10    1.20
  12   2   0    2.50    1.40
 -13  -2   0  130.29   12.30
  13   2   0  100.59    8.70
  12  -3   0    9.10    2.30
  11  -3   0    1.80    1.70
 -11   3   0    5.50    3.70
 -11   3   0    8.60    4.30
 -11   3   0    4.60    4.30
  10  -3   0   -0.40    1.20
  10  -3   0    0.20    1.00
 -10   3   0    2.30    3.20
 -10   3   0    0.70    3.90
 -10   3   0   -2.30    2.90
   9  -3   0   21.40    2.40
   9  -3   0   21.50    2.80
  -9   3   0   22.60    3.50
  -9   3   0   27.10    3.20
  -9   3   0   27.50    5.00
  -9   3   0   20.40    4.60
  -9   3   0   19.50    4.00
   8  -3   0   58.59    5.30
   8  -3   0   65.49    5.70
  -8   3   0   76.39    6.40
  -8   3   0   76.99    7.60
  -8   3   0   84.19    8.10
  -8   3   0   68.99    7.10
  -8   3   0   67.99    6.00
   7  -3   0    7.50    1.20
   7  -3   0    8.10    1.50
  -7   3   0    7.80    2.70
  -7   3   0   11.20    2.30
  -7   3   0    8.00    2.50
  -7   3   0    9.30    3.10
  -7   3   0   13.70    2.00
   6  -3   0    0.80    0.60
   6  -3   0    0.40    0.70
  -6   3   0    1.40    1.60
  -6   3   0    1.80    1.30
  -6   3   0    0.30    1.90
  -6   3   0   -0.60    1.80
  -6   3   0   -1.90    1.20
   5  -3   0   85.89    6.40
   5  -3   0   82.89    6.10
  -5   3   0   84.39    6.70
  -5   3   0   80.19    7.40
  -5   3   0   84.59    7.50
  -5   3   0   77.89    6.50
  -5   3   0   81.89    7.10
   4  -3   0   94.69    6.80
   4  -3   0   91.49    6.50
  -4   3   0   92.39    7.70
  -4   3   0   85.29    7.50
  -4   3   0   80.39    6.80
  -4   3   0   90.09    7.00
  -4   3   0   87.29    7.20
   3  -3   0    3.80    0.50
   3  -3   0    3.40    0.70
  -3   3   0    3.70    1.70
  -3   3   0    2.30    1.00
  -3   3   0    3.40    1.20
  -3   3   0    4.00    1.20
  -3   3   0    4.10    1.70
   2  -3   0  105.49    6.50
   2  -3   0   91.09    6.70
  -2   3   0   77.79    7.30
  -2   3   0   88.99    7.00
  -2   3   0   85.49    7.00
  -2   3   0   89.39    7.40
   1  -3   0   21.80    1.60
   1  -3   0   20.30    1.40
  -1   3   0   18.20    1.60
  -1   3   0   16.00    2.10
  -1   3   0   17.60    2.00
  -1   3   0   16.50    1.80
  -1   3   0   18.10    2.00
   0  -3   0 1314.57   81.29
   0   3   0 1186.78   81.49
   0   3   0 1005.70   81.39
   0   3   0 1092.09   81.39
   0   3   0 1182.58   81.59
   0   3   0 1150.68   81.59
  -1  -3   0 1125.19   72.09
   1   3   0 1075.19   72.29
   1   3   0 1086.29   72.49
   1   3   0  891.21   72.29
   1   3   0  951.40   72.19
  -2  -3   0  695.93   47.10
   2   3   0  562.74   46.90
   2   3   0  678.63   47.10
   2   3   0  655.73   46.80
   2   3   0  725.33   46.90
  -3  -3   0  574.44   41.30
   3   3   0  572.44   41.00
   3   3   0  585.64   41.20
   3   3   0  565.54   41.20
   3   3   0  598.74   40.80
  -4  -3   0 1547.05  107.19
  -4  -3   0 1532.05  107.69
  -4  -3   0 1434.66  106.79
   4   3   0 1525.25  107.19
   4   3   0 1478.25  106.79
   4   3   0 1577.94  106.59
  -5  -3   0   55.79    4.20
  -5  -3   0   54.69    4.90
  -5  -3   0   45.70    5.40
   5   3   0   53.59    4.90
   5   3   0   53.69    4.00
   5   3   0   55.49    4.20
  -6  -3   0    0.60    1.60
  -6  -3   0    1.70    0.70
  -6  -3   0    1.00    2.00
   6   3   0    2.00    1.70
   6   3   0    1.00    0.70
   6   3   0    1.50    0.50
  -7  -3   0  195.78   14.50
  -7  -3   0  215.38   15.60
  -7  -3   0  208.88   15.50
   7   3   0  196.38   14.40
   7   3   0  189.88   14.50
  -8  -3   0   -0.90    1.90
  -8  -3   0   -0.20    0.80
  -8  -3   0    2.00    2.10
   8   3   0   -0.50    0.70
   8   3   0    0.40    0.60
  -9  -3   0   10.40    2.90
  -9  -3   0    9.70    1.50
  -9  -3   0    8.80    2.90
   9   3   0    6.90    1.30
   9   3   0    7.50    1.60
 -10  -3   0   47.30    6.50
  10   3   0   48.60    4.30
  10   3   0   52.39    4.40
 -11  -3   0   15.10    4.60
  11   3   0   16.00    2.40
 -12  -3   0    5.10    4.00
  12   3   0    6.10    1.70
 -13  -3   0   33.00    6.60
  13   3   0   22.80    3.20
 -12   4   0    7.20    4.60
  11  -4   0    0.70    1.50
 -11   4   0   -1.40    3.40
 -11   4   0   -5.30    4.10
  10  -4   0    8.90    2.10
 -10   4   0    9.60    4.30
 -10   4   0    5.20    3.50
   9  -4   0    0.60    1.10
  -9   4   0    1.20    2.70
  -9   4   0   -0.20    2.20
  -9   4   0    3.30    3.20
  -9   4   0    0.60    2.00
   8  -4   0    1.40    1.10
   8  -4   0    2.10    0.90
  -8   4   0    2.90    2.50
  -8   4   0    1.40    1.70
  -8   4   0    3.40    2.60
  -8   4   0    0.10    1.80
   7  -4   0   36.60    3.30
   7  -4   0   34.20    3.70
  -7   4   0   46.20    4.30
  -7   4   0   49.30    5.60
  -7   4   0   42.20    5.20
  -7   4   0   53.19    4.70
   6  -4   0   73.89    6.00
   6  -4   0   66.59    5.50
  -6   4   0   73.29    6.30
  -6   4   0   81.79    6.60
  -6   4   0   76.39    6.90
  -6   4   0   82.09    7.50
   5  -4   0  299.27   21.50
   5  -4   0  289.07   21.10
  -5   4   0  270.57   22.50
  -5   4   0  309.47   22.70
  -5   4   0  312.57   21.80
  -5   4   0  309.67   21.70
  -5   4   0  290.07   22.10
   4  -4   0    7.10    0.80
   4  -4   0    6.20    1.00
  -4   4   0    5.60    1.40
  -4   4   0    7.40    1.60
  -4   4   0    6.00    2.20
  -4   4   0    9.70    2.00
  -4   4   0    6.90    2.40
   3  -4   0  728.53   48.50
   3  -4   0  704.93   48.80
  -3   4   0  738.93   49.70
  -3   4   0  615.64   49.40
  -3   4   0  693.23   49.10
  -3   4   0  647.14   49.10
   2  -4   0    3.30    0.70
   2  -4   0    4.40    0.40
  -2   4   0    4.90    1.30
  -2   4   0    3.10    1.40
  -2   4   0    4.30    1.20
  -2   4   0    3.40    1.10
   1  -4   0  385.36   27.60
   1  -4   0  427.66   27.90
  -1   4   0  403.56   28.40
  -1   4   0  351.36   28.00
  -1   4   0  391.46   28.10
  -1   4   0  398.46   28.20
   0  -4   0  909.01   60.59
   0   4   0  882.01   60.99
   0   4   0  788.42   60.69
   0   4   0  833.72   60.99
   0   4   0  889.51   61.09
  -1  -4   0  450.85   28.90
   1   4   0  433.16   29.10
   1   4   0  352.06   29.00
   1   4   0  405.46   29.40
   2   4   0  296.27   23.00
   2   4   0  332.47   23.40
   2   4   0  346.67   23.20
  -3  -4   0  173.28   13.10
   3   4   0  183.98   13.00
   3   4   0  184.38   13.20
   3   4   0  168.78   12.70
  -4  -4   0   48.70    4.20
  -4  -4   0   53.99    4.70
  -4  -4   0   45.40    3.60
   4   4   0   47.60    4.10
   4   4   0   41.30    3.30
   4   4   0   46.30    4.00
   4   4   0   40.70    3.50
  -5  -4   0   -0.30    1.50
  -5  -4   0   -0.80    1.20
  -5  -4   0    0.40    0.60
   5   4   0    1.70    1.30
   5   4   0    0.30    0.30
   5   4   0    0.40    0.60
  -6  -4   0   16.10    3.50
  -6  -4   0   22.60    3.10
  -6  -4   0   17.90    1.90
   6   4   0   20.10    3.00
   6   4   0   16.90    1.60
   6   4   0   17.00    1.90
  -7  -4   0  108.39    8.00
  -7  -4   0   96.39    9.90
   7   4   0  107.59    8.00
   7   4   0  108.29    7.80
   7   4   0  104.89    9.20
  -8  -4   0   46.30    5.10
  -8  -4   0   45.40    3.80
   8   4   0   42.40    5.60
   8   4   0   41.80    3.80
   8   4   0   43.30    3.60
  -9  -4   0   65.29    5.10
  -9  -4   0   61.89    6.60
   9   4   0   59.19    5.20
 -10  -4   0   -1.90    2.20
  10   4   0   -0.10    1.00
 -11  -4   0   10.80    3.80
  11   4   0   11.70    2.00
 -12  -4   0   27.90    6.10
  12   4   0   29.50    3.50
 -13  -4   0   -0.40    3.90
  13   4   0    0.40    1.50
  11  -5   0   11.40    2.40
 -11   5   0   16.10    5.00
 -11   5   0   15.00    5.40
  10  -5   0   -0.70    1.30
 -10   5   0    1.60    3.20
 -10   5   0    4.40    4.10
   9  -5   0  106.19    9.50
  -9   5   0  128.09   11.40
  -9   5   0  135.59   12.50
   8  -5   0    5.50    1.60
  -8   5   0    8.90    2.70
  -8   5   0   11.30    4.20
  -8   5   0    3.80    2.60
   7  -5   0    8.80    1.70
  -7   5   0   13.90    3.60
  -7   5   0   17.00    3.00
  -7   5   0   13.00    3.60
  -7   5   0   13.40    3.10
   6  -5   0   54.09    5.10
  -6   5   0   67.79    6.00
  -6   5   0   66.99    6.30
  -6   5   0   74.99    7.10
  -6   5   0   57.99    6.70
   5  -5   0   67.09    5.60
   5  -5   0   64.39    5.10
  -5   5   0   63.49    7.00
  -5   5   0   77.49    7.20
  -5   5   0   81.59    6.40
  -5   5   0   72.19    6.50
   4  -5   0  235.38   17.20
   4  -5   0  232.58   16.80
  -4   5   0  239.88   17.80
  -4   5   0  241.08   17.70
  -4   5   0  239.78   18.30
   3  -5   0    5.50    0.50
   3  -5   0    3.70    0.80
  -3   5   0    5.00    1.50
  -3   5   0    4.20    1.90
  -3   5   0    5.00    1.70
   2  -5   0  125.49    9.20
   2  -5   0  140.59    8.80
  -2   5   0  116.49    9.50
  -2   5   0  111.79    9.50
  -2   5   0  118.79    9.90
  -2   5   0  126.19    9.60
   1  -5   0    0.60    0.10
   1  -5   0    0.90    0.40
  -1   5   0    1.50    1.10
  -1   5   0    0.10    0.70
  -1   5   0    0.20    0.90
   0  -5   0   13.00    1.20
   0   5   0   12.30    1.90
   0   5   0   10.80    1.50
   0   5   0   15.90    2.00
   0   5   0   15.90    1.90
  -1  -5   0  316.77   22.00
   1   5   0  298.07   22.50
   1   5   0  316.77   22.20
   2   5   0  543.75   37.70
   2   5   0  452.85   37.20
   2   5   0  566.74   37.40
   2   5   0  545.65   37.90
   3   5   0    7.20    1.20
   3   5   0    6.20    1.40
   3   5   0    3.70    0.70
  -4  -5   0    3.10    2.00
  -4  -5   0    1.90    1.30
   4   5   0    3.10    1.20
   4   5   0    2.30    0.70
   4   5   0    2.30    1.20
  -5  -5   0   38.90    3.40
  -5  -5   0   50.39    5.10
   5   5   0   43.10    4.10
   5   5   0   40.00    3.00
   5   5   0   39.90    3.40
  -6  -5   0    0.80    0.80
  -6  -5   0    0.20    1.90
   6   5   0    0.10    0.80
   6   5   0    3.10    1.70
  -7  -5   0   10.90    3.20
  -7  -5   0    9.80    1.50
   7   5   0    9.30    1.60
   7   5   0   10.00    2.50
  -8  -5   0    2.30    1.00
  -8  -5   0    4.90    2.80
   8   5   0    2.80    1.10
   8   5   0    4.00    2.40
  -9  -5   0   -3.80    1.80
  -9  -5   0    0.50    1.00
   9   5   0   -0.90    1.00
 -10  -5   0   -1.70    2.40
  10   5   0   -1.20    0.90
 -11  -5   0   41.50    6.10
  11   5   0   31.10    3.60
 -12  -5   0   27.20    5.70
  12   5   0   18.00    2.70
  10  -6   0   99.39    9.00
 -10   6   0  118.79   11.40
 -10   6   0  119.69   12.40
   9  -6   0   27.10    3.60
  -9   6   0   23.20    5.60
  -9   6   0   35.30    5.80
   8  -6   0  108.59    9.70
  -8   6   0  128.39   12.20
  -8   6   0  123.29   11.30
  -8   6   0  139.99   10.90
   7  -6   0   19.20    2.60
  -7   6   0   20.70    4.60
  -7   6   0   25.30    3.80
  -7   6   0   17.50    3.80
   6  -6   0   44.20    4.50
  -6   6   0   53.79    5.80
  -6   6   0   58.49    5.50
  -6   6   0   58.79    6.50
   5  -6   0    4.10    1.10
  -5   6   0    2.10    1.80
  -5   6   0    7.30    2.20
  -5   6   0    2.10    2.40
   4  -6   0  124.69    9.70
  -4   6   0  134.89   10.40
  -4   6   0  135.89   10.50
  -4   6   0  123.99   11.10
   3  -6   0  100.89    7.70
  -3   6   0   94.99    8.20
  -3   6   0  101.59    8.80
  -3   6   0  108.79    8.30
   2  -6   0  190.68   13.10
  -2   6   0  164.88   13.60
  -2   6   0  181.88   14.00
  -2   6   0  179.58   13.50
   1  -6   0  393.06   27.80
   1  -6   0  412.56   27.50
  -1   6   0  369.86   28.00
  -1   6   0  384.16   28.40
  -1   6   0  364.06   28.20
  -1   6   0  415.86   28.60
   0  -6   0    2.30    0.60
   0   6   0    0.90    1.30
   0   6   0    2.20    0.90
   0   6   0    3.50    1.50
   0   6   0    2.20    1.20
  -1  -6   0  237.78   16.60
   1   6   0  222.38   17.30
   1   6   0  239.28   16.90
   2   6   0  149.69   11.30
   2   6   0  126.59   10.30
   2   6   0  161.68   10.60
   2   6   0  137.09   10.90
   3   6   0    3.20    1.30
   3   6   0    3.40    1.00
   3   6   0    1.90    0.60
   4   6   0   16.00    1.80
   4   6   0   23.50    2.60
   4   6   0   16.20    2.50
  -5  -6   0   29.40    4.20
   5   6   0   25.50    3.20
   5   6   0   20.50    2.30
   5   6   0   23.20    3.20
  -6  -6   0  230.68   16.70
  -6  -6   0  246.78   18.40
   6   6   0  217.78   16.70
   6   6   0  224.48   17.40
  -7  -6   0   95.69    8.80
  -7  -6   0   87.29    6.70
   7   6   0   75.19    7.60
   7   6   0   79.39    6.60
  -8  -6   0   79.39    6.10
   8   6   0   76.99    7.50
   8   6   0   70.69    6.00
  -9  -6   0    0.80    1.10
   9   6   0   -1.60    1.10
 -10  -6   0   11.80    3.80
  10   6   0   15.20    2.30
 -11  -6   0   -1.40    2.90
  11   6   0    0.50    1.40
 -12  -6   0   -1.80    3.00
  12   6   0    2.70    1.60
  10  -7   0   13.50    2.60
 -10   7   0   16.30    6.00
 -10   7   0   16.90    4.80
   9  -7   0   18.30    3.00
  -9   7   0   24.90    6.00
  -9   7   0   21.10    4.60
   8  -7   0   48.20    5.10
  -8   7   0   51.89    7.60
  -8   7   0   65.49    7.20
   7  -7   0    7.80    1.80
  -7   7   0   11.80    3.90
  -7   7   0   13.10    3.30
  -7   7   0    8.70    3.00
   6  -7   0    1.50    1.10
  -6   7   0    4.70    2.50
  -6   7   0    2.10    2.20
  -6   7   0    0.50    2.80
   5  -7   0   38.80    3.80
  -5   7   0   47.00    5.00
  -5   7   0   41.10    4.90
  -5   7   0   38.60    5.70
   4  -7   0    1.40    1.00
  -4   7   0    3.70    1.80
  -4   7   0    2.10    2.20
  -4   7   0    1.20    1.70
   3  -7   0   94.09    7.40
  -3   7   0   93.59    8.00
  -3   7   0  103.89    8.90
   2  -7   0  397.06   28.20
  -2   7   0  385.56   28.50
  -2   7   0  383.06   28.80
  -2   7   0  409.36   29.20
   1  -7   0  105.39    8.00
  -1   7   0  117.39    9.10
  -1   7   0  105.89    8.40
  -1   7   0  104.19    8.70
   0  -7   0    3.70    0.70
   0   7   0    4.00    1.20
   0   7   0    0.90    1.20
   0   7   0    4.70    1.70
  -1  -7   0   60.69    4.40
   1   7   0   53.49    5.30
   1   7   0   62.09    4.80
   2   7   0  108.99    7.70
   2   7   0   90.99    8.20
   3   7   0    9.10    1.60
   3   7   0    8.80    2.00
   3   7   0    9.60    1.20
   4   7   0   89.59    7.20
   4   7   0   73.59    6.20
   4   7   0   87.89    6.80
   5   7   0  111.59    9.20
   5   7   0  126.49   10.10
   5   7   0  137.29   10.00
  -6  -7   0    5.70    2.90
  -6  -7   0    7.90    1.50
   6   7   0    5.90    2.10
   6   7   0    6.40    1.30
  -7  -7   0  179.88   12.70
   7   7   0  162.48   12.60
   7   7   0  166.18   13.60
  -8  -7   0   20.00    2.50
   8   7   0   15.60    3.40
   8   7   0   21.40    2.50
  -9  -7   0    5.60    1.50
   9   7   0    3.30    1.30
  10   7   0    7.30    1.70
 -11  -7   0   -0.50    3.10
  11   7   0    6.80    1.70
 -12  -7   0    1.20    3.70
  12   7   0    2.50    1.40
   9  -8   0   15.70    2.90
  -9   8   0   16.40    4.50
  -9   8   0   10.60    4.90
   8  -8   0    1.90    1.50
  -8   8   0    0.70    3.00
  -8   8   0   -0.30    3.80
   7  -8   0   19.30    2.90
  -7   8   0   29.80    5.80
  -7   8   0   28.50    4.70
   6  -8   0    1.20    1.40
  -6   8   0    4.30    2.40
  -6   8   0    1.40    2.90
   5  -8   0   72.09    6.40
  -5   8   0   91.59    8.60
  -5   8   0   77.69    7.50
   4  -8   0   18.00    2.30
  -4   8   0   16.00    3.00
  -4   8   0   17.10    3.10
  -4   8   0   21.80    4.30
   3  -8   0    0.40    0.90
  -3   8   0    1.70    1.50
  -3   8   0    0.10    2.20
  -3   8   0   -1.70    1.30
   2  -8   0  797.92   58.19
  -2   8   0  788.52   58.99
  -2   8   0  897.61   59.49
  -2   8   0  806.92   58.69
   1  -8   0   56.99    4.40
  -1   8   0   53.69    4.90
  -1   8   0   47.20    5.30
  -1   8   0   58.69    5.70
   0   8   0  554.04   43.70
   0   8   0  686.33   44.10
   0   8   0  584.04   43.20
   1   8   0   85.89    6.50
   1   8   0   76.09    7.10
   2   8   0    2.20    1.10
   2   8   0    0.30    1.30
   3   8   0   25.40    2.90
   3   8   0   26.80    3.60
   4   8   0  146.79   11.40
   4   8   0  151.38   10.90
   4   8   0  127.99   10.30
   5   8   0  142.69   11.40
   5   8   0  128.69   10.40
   5   8   0  152.98   11.20
  -6  -8   0  202.68   15.20
  -6  -8   0  184.68   13.10
   6   8   0  168.78   13.70
   6   8   0  148.69   12.80
  -7  -8   0   29.80    3.40
   7   8   0   32.70    3.20
   7   8   0   35.10    4.70
  -8  -8   0   91.89    7.10
   8   8   0   86.29    8.50
   8   8   0   85.59    7.00
  -9  -8   0    5.40    1.70
   9   8   0    5.80    1.40
  10   8   0    1.60    1.30
 -11  -8   0   -4.60    3.10
  11   8   0    1.50    1.50
   8  -9   0   -0.90    1.60
  -8   9   0   -4.00    2.80
  -8   9   0   -0.40    3.00
  -8   9   0    0.20    4.10
   7  -9   0    5.60    1.80
  -7   9   0    7.30    4.30
  -7   9   0    2.10    3.00
  -7   9   0   -0.10    2.70
   6  -9   0    6.10    1.60
  -6   9   0    6.20    3.60
  -6   9   0    1.20    2.60
  -6   9   0    4.30    2.60
   5  -9   0   13.90    2.20
  -5   9   0    7.30    2.90
  -5   9   0   16.50    3.30
  -5   9   0   11.10    4.20
   4  -9   0    1.60    1.00
  -4   9   0    1.80    2.80
  -4   9   0   -0.80    1.90
  -4   9   0    0.30    1.90
   3  -9   0    1.70    1.00
  -3   9   0    0.60    2.20
  -3   9   0   -1.70    1.40
  -3   9   0    2.80    1.70
   2  -9   0   14.60    2.10
  -2   9   0   19.10    3.30
  -2   9   0   20.40    2.90
  -2   9   0   18.40    3.80
  -1   9   0    8.00    2.40
  -1   9   0   11.50    2.10
  -1   9   0   13.00    3.20
   0   9   0   43.90    5.00
   0   9   0   46.50    4.20
   1   9   0   23.40    3.50
   1   9   0   26.70    2.90
   2   9   0    6.40    1.50
   2   9   0    7.40    2.10
   3   9   0  138.49   10.60
   3   9   0  134.99   11.30
   4   9   0   33.00    4.30
   4   9   0   37.10    3.90
   5   9   0    8.20    2.50
   5   9   0    3.10    0.90
   5   9   0    1.50    1.60
  -6  -9   0   19.30    2.60
   6   9   0   27.40    4.00
   6   9   0   19.90    3.30
   6   9   0   17.90    2.30
  -7  -9   0   16.20    2.50
   7   9   0   19.70    3.60
   7   9   0   17.50    2.30
  -8  -9   0   97.09    7.40
   8   9   0   83.19    7.10
   8   9   0   85.29    8.60
  -9  -9   0   12.40    2.30
   9   9   0    9.60    2.00
  11   9   0   62.69    5.80
   7 -10   0    0.80    1.70
  -7  10   0   -3.10    3.90
  -7  10   0    2.60    2.90
  -7  10   0   -3.30    2.70
   6 -10   0   -1.10    1.40
  -6  10   0    2.30    2.60
  -6  10   0    1.20    2.70
  -6  10   0    2.50    3.50
   5 -10   0    1.30    1.40
  -5  10   0    1.10    2.90
  -5  10   0    4.60    2.60
  -5  10   0    2.00    2.60
  -4  10   0   15.20    3.10
  -4  10   0    7.40    2.90
  -4  10   0    9.10    3.60
  -3  10   0   -0.30    1.70
  -3  10   0   -0.30    1.90
  -3  10   0   -0.30    2.40
  -2  10   0    5.70    2.00
  -2  10   0    4.70    2.20
  -2  10   0    5.80    2.80
  -1  10   0    0.10    1.70
  -1  10   0    0.00    1.30
  -1  10   0    0.10    2.10
   0  10   0   24.60    3.90
   0  10   0   33.50    3.40
   1  10   0    7.90    2.40
   1  10   0   12.70    2.10
   2  10   0   12.80    2.20
   2  10   0   10.50    2.80
   3  10   0   14.30    2.40
   3  10   0    9.30    2.80
   4  10   0   14.50    3.30
   4  10   0   11.70    2.40
   5  10   0   19.30    3.30
   5  10   0   18.00    3.50
  -6 -10   0    9.90    2.10
   6  10   0    5.90    2.40
   6  10   0    8.60    2.80
  -7 -10   0   37.50    4.00
   7  10   0   28.00    4.70
  -8 -10   0  106.99    8.50
   8  10   0   98.39    8.10
   8  10   0  100.19    9.80
  -9 -10   0   44.90    4.70
   9  10   0   43.00    4.30
  10  10   0   21.90    3.00
  -6  11   0    4.90    3.40
  -6  11   0   -2.00    3.80
  -6  11   0    2.70    2.70
  -5  11   0    1.00    2.40
  -5  11   0    3.00    4.10
  -5  11   0   -2.00    2.60
  -4  11   0    2.60    2.20
  -4  11   0    0.40    3.40
  -4  11   0    1.40    2.70
  -3  11   0   -1.40    2.50
  -3  11   0   -0.30    1.90
  -3  11   0    8.10    3.90
  -2  11   0   44.80    6.20
  -2  11   0   31.00    5.10
  -2  11   0   35.10    4.40
  -1  11   0    6.20    2.00
  -1  11   0    6.60    2.70
   0  11   0   25.30    3.30
   0  11   0   19.50    3.80
   1  11   0    3.90    2.50
   1  11   0    3.10    1.50
   2  11   0   55.49    6.60
   2  11   0   63.29    5.60
   3  11   0    1.90    2.30
   3  11   0    1.10    1.60
   4  11   0    8.40    2.40
   4  11   0    9.50    3.20
   5  11   0   15.20    3.20
   5  11   0   28.50    4.60
  -6 -11   0   -0.10    1.70
   6  11   0   -1.20    2.00
   6  11   0   -1.70    2.40
  -7 -11   0   41.00    4.50
   7  11   0   38.00    5.60
  -8 -11   0   12.10    2.70
   8  11   0   11.50    3.70
  -4  12   0    2.90    4.30
  -4  12   0   -3.70    2.80
  -4  12   0    3.40    2.50
  -3  12   0   24.30    4.60
  -3  12   0   23.90    4.10
  -3  12   0   21.50    5.40
  -2  12   0   -1.50    2.60
  -2  12   0   -0.70    1.70
  -1  12   0   13.00    3.60
  -1  12   0   20.90    3.20
   0  12   0   17.20    4.30
   0  12   0   24.80    3.50
   1  12   0   12.00    2.50
   1  12   0    3.30    2.80
   2  12   0   23.50    3.50
   2  12   0   22.70    4.50
   3  12   0    2.20    2.70
   3  12   0    1.80    1.80
   4  12   0   13.70    3.90
   4  12   0   12.30    2.90
   5  12   0    2.30    2.30
   5  12   0    6.40    3.20
  -6 -12   0    4.30    1.90
   6  12   0    0.40    2.50
   6  12   0    6.20    3.40
  -7 -12   0   29.10    3.80
   7  12   0   22.00    4.60
  -8 -12   0    6.80    2.40
   8  12   0    8.60    3.80
  -2  13   0    2.70    3.30
  -2  13   0   -1.00    2.00
  -1  13   0    3.40    3.40
  -1  13   0    7.70    2.50
   0  13   0   -0.60    3.10
   0  13   0    5.50    2.20
   1  13   0    6.20    2.30
   1  13   0    5.50    3.40
   2  13   0    1.30    1.80
   2  13   0    1.70    2.90
   3  13   0   49.30    5.50
   3  13   0   41.10    6.50
   4  13   0    6.60    3.70
   4  13   0    8.10    2.70
   5  13   0   -1.00    2.40
   5  13   0   -1.30    3.00
  -6 -13   0    5.80    2.50
   6  13   0    7.40    3.30
   6  13   0   10.30    4.10
   5  13  -1   34.50    6.10
   5  13  -1   44.60    5.70
  -5 -13   1   44.20    5.00
   4  13  -1    0.00    2.20
   4  13  -1    0.80    3.20
   3  13  -1   -1.10    3.10
   3  13  -1    6.50    2.50
   2  13  -1   29.50    5.50
   2  13  -1   22.80    3.60
   1  13  -1    5.30    3.40
   1  13  -1    5.30    2.20
   0  13  -1   15.60    3.00
   0  13  -1   15.80    4.20
  -1  13  -1    3.10    3.30
  -1  13  -1    3.40    2.00
  -2  13  -1    6.60    3.60
  -2  13  -1    7.90    2.50
   7  12  -1   -1.40    2.70
  -7 -12   1    1.60    2.10
   6  12  -1    0.30    2.40
  -6 -12   1   -0.20    1.50
   5  12  -1   17.80    4.10
   5  12  -1   13.40    3.30
   4  12  -1   -0.80    2.60
   4  12  -1   -0.90    1.80
   3  12  -1   -0.50    2.60
   3  12  -1    1.40    1.80
   2  12  -1   10.70    3.50
   2  12  -1   11.70    2.40
   1  12  -1   34.20    4.00
   1  12  -1   34.30    5.60
   0  12  -1    4.50    3.10
   0  12  -1    4.70    1.80
  -1  12  -1    5.70    3.10
  -1  12  -1   16.40    2.70
  -2  12  -1   20.50    4.60
  -2  12  -1   29.00    3.80
  -3  12  -1    6.80    2.40
  -3  12  -1    7.60    3.30
  -3  12  -1    2.40    3.50
  -4  12  -1   -0.80    2.90
  -4  12  -1    0.50    2.00
  -4  12  -1   -1.10    3.60
   9  11  -1    4.00    3.60
  -9 -11   1    5.80    2.30
   8  11  -1   57.39    7.60
  -8 -11   1   66.89    6.10
   7  11  -1    3.60    2.80
  -7 -11   1    7.70    2.30
   6  11  -1    1.80    2.40
  -6 -11   1    1.60    1.70
   5  11  -1    4.70    2.80
   5  11  -1    3.90    2.20
   4  11  -1    8.80    2.40
   4  11  -1   12.10    3.50
   3  11  -1    9.10    3.10
   3  11  -1    8.10    2.10
   2  11  -1   61.59    5.60
   2  11  -1   59.39    6.80
   1  11  -1   12.20    3.30
   1  11  -1    9.90    2.10
   0  11  -1   35.60    5.20
   0  11  -1   41.70    4.10
  -1  11  -1    3.70    2.50
  -1  11  -1    4.50    1.60
  -2  11  -1  134.49   11.00
  -2  11  -1  102.99   10.30
  -2  11  -1  112.49    9.40
  -3  11  -1   15.20    3.90
  -3  11  -1   21.30    4.60
  -3  11  -1   19.70    3.30
  -4  11  -1   20.70    3.50
  -4  11  -1   14.40    3.90
  -4  11  -1   22.90    4.90
  -5  11  -1   38.30    6.80
  -5  11  -1   27.20    5.00
  -5  11  -1   37.50    5.10
  -6  11  -1    3.20    3.40
  -6  11  -1    6.40    4.70
  -6  11  -1   10.70    3.10
  10  10  -1    2.50    1.70
   9  10  -1   25.30    5.40
   9  10  -1   31.80    3.70
  -9 -10   1   33.90    4.00
   8  10  -1   45.40    6.40
  -8 -10   1   55.39    5.10
   7  10  -1   -1.90    2.20
  -7 -10   1    0.90    1.50
   6  10  -1    1.00    1.90
  -6 -10   1   -1.70    1.20
   5  10  -1   11.50    3.00
   5  10  -1    7.80    2.40
   4  10  -1    0.80    2.20
   4  10  -1    3.60    1.70
   3  10  -1  104.79   10.00
   3  10  -1  118.89    9.10
   2  10  -1   11.20    2.00
   2  10  -1   11.60    2.80
   1  10  -1  170.18   15.00
   1  10  -1  202.08   14.10
   0  10  -1   15.00    2.20
   0  10  -1    9.90    2.80
  -1  10  -1   12.30    2.10
  -1  10  -1    7.90    2.70
  -2  10  -1    0.00    2.10
  -2  10  -1    4.40    1.60
  -2  10  -1    4.40    2.30
  -3  10  -1    0.00    2.30
  -3  10  -1   -0.30    1.50
  -3  10  -1   -2.30    1.90
  -4  10  -1    8.80    3.50
  -4  10  -1   11.30    2.60
  -4  10  -1   10.30    3.20
  -5  10  -1   -1.70    2.80
  -5  10  -1    2.90    2.20
  -5  10  -1    0.30    2.30
  -6  10  -1    2.90    2.50
  -6  10  -1   -2.30    2.60
  -6  10  -1   -3.50    3.30
   6 -10   1    1.80    1.50
  -7  10  -1    7.30    3.10
  -7  10  -1    2.70    3.20
  -7  10  -1    8.70    4.30
   7 -10   1    2.50    1.80
  11   9  -1   26.20    3.40
   9   9  -1   21.30    4.50
   9   9  -1   17.90    2.60
  -9  -9   1   21.30    3.00
   8   9  -1   20.30    2.70
   8   9  -1   23.40    4.20
  -8  -9   1   22.40    3.00
   7   9  -1   18.60    3.60
   7   9  -1   15.20    2.20
  -7  -9   1   22.60    2.70
   6   9  -1   -0.40    0.90
   6   9  -1   -0.40    1.70
  -6  -9   1    0.60    1.20
   5   9  -1    8.60    2.60
   5   9  -1    7.30    2.30
   4   9  -1   16.50    3.40
   4   9  -1   11.10    2.30
   3   9  -1   16.10    2.40
   3   9  -1   13.70    2.80
   2   9  -1   21.70    3.60
   2   9  -1   22.10    2.60
   1   9  -1   39.40    4.80
   1   9  -1   49.30    4.10
   0   9  -1    4.60    1.30
   0   9  -1    4.90    1.90
  -1   9  -1   22.40    2.80
  -1   9  -1   20.10    3.40
  -1   9  -1   28.80    4.10
  -2   9  -1    1.50    1.80
  -2   9  -1    0.60    1.20
  -2   9  -1   -2.40    1.90
  -3   9  -1   53.79    6.10
  -3   9  -1   54.69    5.70
  -3   9  -1   55.99    5.30
   3  -9   1   52.39    4.60
  -4   9  -1    2.20    2.00
  -4   9  -1    8.50    3.20
  -4   9  -1    5.50    2.00
   4  -9   1    2.70    1.20
  -5   9  -1    4.70    2.40
  -5   9  -1    6.20    2.40
  -5   9  -1    4.40    3.00
   5  -9   1    2.40    1.30
  -6   9  -1   26.90    4.40
  -6   9  -1   21.90    4.10
  -6   9  -1   25.70    5.20
   6  -9   1   26.40    3.30
  -7   9  -1   11.50    4.30
  -7   9  -1    4.70    3.00
  -7   9  -1   10.50    3.30
   7  -9   1    7.70    2.10
  -8   9  -1    1.00    3.00
  -8   9  -1    2.70    3.80
   8  -9   1    2.00    1.70
  11   8  -1    1.70    1.80
 -11  -8   1    0.80    3.50
  10   8  -1    4.10    1.70
   9   8  -1    3.50    1.40
   9   8  -1   -1.00    2.50
  -9  -8   1    0.30    1.60
   8   8  -1    1.10    1.20
   8   8  -1    1.00    2.20
  -8  -8   1    1.40    1.30
   7   8  -1    1.90    1.10
   7   8  -1   -0.20    1.90
  -7  -8   1   -1.10    1.00
   6   8  -1   24.60    3.70
   6   8  -1   16.90    2.20
  -6  -8   1   23.60    2.70
   5   8  -1  404.76   31.30
   5   8  -1  423.06   31.00
  -5  -8   1  444.16   30.60
   4   8  -1   26.00    3.10
   4   8  -1   20.60    3.30
   3   8  -1    4.80    1.90
   3   8  -1    4.30    1.30
   2   8  -1  127.79    9.60
   1   8  -1  329.67   22.60
   1   8  -1  293.97   23.30
   0   8  -1   94.69    8.30
   0   8  -1  100.59    7.60
  -1   8  -1    8.30    2.50
  -1   8  -1    6.10    1.50
  -1   8  -1    7.50    2.00
   1  -8   1    5.00    1.00
  -2   8  -1   -0.30    1.40
  -2   8  -1    1.80    1.20
  -2   8  -1    2.10    2.00
   2  -8   1    1.30    0.90
  -3   8  -1   18.50    2.70
  -3   8  -1   21.70    3.20
  -3   8  -1   20.60    3.70
   3  -8   1   14.20    2.00
  -4   8  -1    2.40    1.90
  -4   8  -1    5.70    2.90
  -4   8  -1    3.30    1.80
   4  -8   1    2.20    1.00
  -5   8  -1   23.90    3.60
  -5   8  -1   21.90    4.30
  -5   8  -1   21.70    3.60
   5  -8   1   18.30    2.50
  -6   8  -1   96.09    8.70
  -6   8  -1   94.49    8.60
  -6   8  -1  111.39    9.80
   6  -8   1   81.79    7.60
  -7   8  -1   18.90    3.70
  -7   8  -1   20.40    4.90
  -7   8  -1   17.10    3.90
   7  -8   1   18.50    2.70
  -8   8  -1   -0.10    3.20
  -8   8  -1   -0.50    2.60
   8  -8   1    0.60    1.40
  -9   8  -1   18.90    4.70
  -9   8  -1   10.60    5.10
   9  -8   1   15.20    2.80
  12   7  -1   -0.20    1.40
 -12  -7   1    1.50    3.80
  11   7  -1    0.20    1.50
 -11  -7   1   -0.30    3.30
  10   7  -1   27.40    3.30
   9   7  -1    2.20    1.30
   9   7  -1   -0.20    2.60
  -9  -7   1    3.40    1.40
   8   7  -1   31.50    5.00
   8   7  -1   37.40    3.60
  -8  -7   1   38.90    3.60
   7   7  -1    5.50    1.20
   7   7  -1    0.10    2.00
  -7  -7   1    4.30    1.30
   6   7  -1    5.50    1.20
   6   7  -1    4.90    2.00
  -6  -7   1    5.90    1.30
   5   7  -1    0.20    1.40
   5   7  -1    0.30    1.60
   5   7  -1    0.60    0.80
  -5  -7   1    0.80    2.20
  -5  -7   1    0.20    1.00
   4   7  -1  266.17   18.90
   4   7  -1  226.48   18.00
   4   7  -1  259.67   18.50
   3   7  -1  172.68   13.60
   3   7  -1  176.78   13.00
   2   7  -1   52.59    5.30
   2   7  -1   57.29    4.60
   1   7  -1  924.31   62.99
   1   7  -1  852.61   63.49
   0   7  -1  613.94   45.20
   0   7  -1  574.84   45.70
   0   7  -1  714.73   46.00
   0  -7   1  646.94   45.00
  -1   7  -1  719.63   53.09
  -1   7  -1  767.12   53.29
  -1   7  -1  718.53   52.59
   1  -7   1  757.72   52.39
  -2   7  -1   88.09    7.40
  -2   7  -1   75.29    6.50
  -2   7  -1   76.49    6.90
   2  -7   1   81.39    6.10
  -3   7  -1  377.66   28.60
  -3   7  -1  419.86   29.40
  -3   7  -1  390.36   28.90
   3  -7   1  390.06   28.20
  -4   7  -1   -1.40    1.20
  -4   7  -1   -3.30    1.80
  -4   7  -1   -2.50    1.20
   4  -7   1    0.10    0.60
  -5   7  -1  105.19    9.30
  -5   7  -1   94.59    8.40
  -5   7  -1  101.69    8.50
   5  -7   1   94.09    7.70
  -6   7  -1    7.80    2.50
  -6   7  -1   10.90    3.70
   6  -7   1    5.50    1.40
  -7   7  -1   22.70    5.00
  -7   7  -1   15.10    3.30
   7  -7   1   10.10    2.10
  -8   7  -1    5.10    3.80
  -8   7  -1   11.20    3.40
   8  -7   1    4.50    1.70
  -9   7  -1   23.20    4.80
  -9   7  -1   24.20    5.60
   9  -7   1   21.40    3.20
 -10   7  -1   12.20    4.50
 -10   7  -1   14.80    4.90
  10  -7   1    6.80    2.10
  12   6  -1    1.20    1.60
 -12  -6   1    0.00    3.30
  11   6  -1   13.80    2.20
 -11  -6   1    9.00    4.10
  10   6  -1   49.20    4.60
 -10  -6   1   47.40    6.60
 -10  -6   1   47.30    4.50
   9   6  -1   23.00    3.00
  -9  -6   1   27.50    3.00
   8   6  -1   92.69    7.30
   8   6  -1   91.69    8.70
  -8  -6   1   89.49    7.30
   7   6  -1  143.19   11.40
   7   6  -1  160.58   12.60
  -7  -6   1  157.08   11.50
   6   6  -1   -0.70    1.50
   6   6  -1   -0.20    0.70
  -6  -6   1    0.80    1.00
  -6  -6   1   -1.30    1.80
   5   6  -1   73.09    6.20
   5   6  -1   79.09    6.90
  -5  -6   1   87.29    7.60
  -5  -6   1   84.79    6.40
   4   6  -1   51.89    4.40
   4   6  -1   64.69    5.00
   4   6  -1   51.69    5.20
   3   6  -1   24.00    2.30
   3   6  -1   29.00    3.30
   3   6  -1   28.00    2.70
   2   6  -1    1.90    1.20
   2   6  -1    1.30    0.70
   1   6  -1    2.20    1.30
   1   6  -1    1.20    1.00
   1   6  -1    2.00    0.70
  -1  -6   1    1.40    0.40
   0   6  -1 1017.10   65.09
   0   6  -1  899.11   64.69
   0   6  -1  851.71   64.79
   0   6  -1  864.61   64.39
   0  -6   1  927.81   64.19
  -1   6  -1  276.47   19.10
  -1   6  -1  236.98   18.40
  -1   6  -1  243.98   18.80
  -1   6  -1  247.48   18.60
   1  -6   1  273.27   18.30
  -2   6  -1   91.59    7.70
  -2   6  -1   98.79    8.00
  -2   6  -1   97.99    8.30
  -2   6  -1   91.09    7.70
   2  -6   1  106.09    7.10
   2  -6   1  102.39    7.40
  -3   6  -1  142.79   12.20
  -3   6  -1  171.48   13.00
  -3   6  -1  149.09   12.40
   3  -6   1  159.28   11.90
   3  -6   1  179.58   11.50
  -4   6  -1  185.48   14.00
  -4   6  -1  175.28   14.50
   4  -6   1  183.68   13.40
  -5   6  -1   15.80    2.70
  -5   6  -1    5.90    2.80
  -5   6  -1    7.40    2.20
   5  -6   1   10.80    1.60
  -6   6  -1    3.30    2.00
  -6   6  -1    3.40    2.70
  -6   6  -1   -1.10    1.60
   6  -6   1    0.40    1.00
  -7   6  -1   13.40    3.10
  -7   6  -1   16.50    3.10
  -7   6  -1   13.80    3.90
   7  -6   1   13.60    2.10
  -8   6  -1   18.80    4.60
  -8   6  -1   12.90    3.50
  -8   6  -1   18.80    3.40
   8  -6   1   11.80    2.20
  -9   6  -1   18.30    5.40
  -9   6  -1   21.60    4.50
   9  -6   1   17.40    2.70
 -10   6  -1   12.10    4.80
 -10   6  -1    8.10    3.70
  10  -6   1    7.00    2.10
 -11   6  -1    4.60    3.80
 -11   6  -1    4.90    5.80
  11  -6   1    0.60    1.80
  12   5  -1    1.90    1.60
 -12  -5   1   -0.10    3.80
  11   5  -1    3.60    1.60
 -11  -5   1    3.90    3.50
  10   5  -1   -0.50    1.10
 -10  -5   1    0.90    1.20
 -10  -5   1    2.70    2.80
   9   5  -1    4.40    1.40
  -9  -5   1    8.20    1.50
  -9  -5   1    7.40    3.10
   8   5  -1   44.20    5.90
   8   5  -1   44.80    4.00
  -8  -5   1   44.00    4.00
   7   5  -1  133.79   11.50
   7   5  -1  136.49   10.40
  -7  -5   1  143.59   10.40
   6   5  -1    2.80    1.90
   6   5  -1    3.70    1.10
  -6  -5   1    4.30    1.10
  -6  -5   1    6.00    2.30
   5   5  -1   -0.10    1.30
   5   5  -1   -0.30    0.70
  -5  -5   1    1.80    1.70
  -5  -5   1    0.40    0.80
   4   5  -1   37.60    3.60
   4   5  -1   31.10    3.00
   4   5  -1   35.30    3.80
  -4  -5   1   42.80    4.30
  -4  -5   1   38.90    3.20
   3   5  -1   -0.50    1.00
   3   5  -1    0.10    0.50
   3   5  -1    0.30    0.70
   2   5  -1   55.99    4.70
   2   5  -1   47.60    4.10
   2   5  -1   60.79    4.30
   1   5  -1  801.82   57.79
   1   5  -1  747.43   58.19
   1   5  -1  831.32   58.19
  -1  -5   1  890.01   57.59
   0   5  -1   60.89    4.80
   0   5  -1   54.89    4.50
   0   5  -1   59.99    5.00
   0   5  -1   53.99    4.90
   0  -5   1   61.79    4.30
  -1   5  -1   77.99    6.10
  -1   5  -1   67.79    5.80
  -1   5  -1   64.69    5.40
  -1   5  -1   74.59    5.60
   1  -5   1   73.99    5.30
  -2   5  -1   -0.20    1.10
  -2   5  -1    0.80    1.00
  -2   5  -1    0.40    0.80
  -2   5  -1    0.80    0.80
   2  -5   1    1.00    0.50
   2  -5   1    0.50    0.20
  -3   5  -1  575.44   43.10
  -3   5  -1  505.65   43.00
  -3   5  -1  580.34   43.60
  -3   5  -1  676.63   44.10
   3  -5   1  686.83   42.50
   3  -5   1  595.64   42.80
  -4   5  -1    9.10    1.80
  -4   5  -1    9.70    2.70
  -4   5  -1    6.50    1.80
  -4   5  -1    4.90    2.50
   4  -5   1    5.30    1.10
   4  -5   1    7.90    0.80
  -5   5  -1   12.10    3.10
  -5   5  -1   14.00    2.40
  -5   5  -1    7.00    2.80
  -5   5  -1   11.90    2.30
   5  -5   1   11.40    1.10
   5  -5   1    8.90    1.40
  -6   5  -1   12.30    2.80
  -6   5  -1   15.90    3.60
  -6   5  -1   23.60    4.40
  -6   5  -1   22.10    3.00
   6  -5   1   19.10    2.30
   6  -5   1   18.10    1.70
  -7   5  -1   20.30    3.60
  -7   5  -1   21.10    4.30
  -7   5  -1   30.50    3.60
  -7   5  -1   22.70    4.40
   7  -5   1   16.90    2.30
  -8   5  -1    8.30    3.50
  -8   5  -1    9.80    3.30
  -8   5  -1   14.00    2.90
  -8   5  -1    9.00    3.60
   8  -5   1    8.50    1.70
  -9   5  -1   63.89    8.20
  -9   5  -1   68.89    7.30
  -9   5  -1   62.99    7.90
   9  -5   1   51.59    5.40
 -10   5  -1  163.28   14.90
 -10   5  -1  172.68   14.50
 -10   5  -1  155.88   13.80
  10  -5   1  133.49   11.90
 -11   5  -1   34.30    6.10
  11  -5   1   30.80    4.10
  12   4  -1    1.50    1.50
 -12  -4   1   -1.30    3.50
  11   4  -1   13.10    2.30
 -11  -4   1   19.70    4.70
  10   4  -1   10.00    1.90
 -10  -4   1   16.90    2.20
 -10  -4   1   10.90    3.50
   9   4  -1   45.90    4.10
  -9  -4   1   42.50    5.70
  -9  -4   1   42.60    4.00
   8   4  -1    2.00    0.80
   8   4  -1    1.10    0.90
   8   4  -1    2.20    2.40
  -8  -4   1    2.90    1.10
  -8  -4   1    2.30    2.10
   7   4  -1    0.50    1.90
   7   4  -1    0.20    0.60
   7   4  -1    0.00    0.90
  -7  -4   1    1.20    0.90
   6   4  -1   50.79    3.60
   6   4  -1   44.60    3.90
   6   4  -1   47.50    5.00
  -6  -4   1   40.90    5.10
  -6  -4   1   44.30    3.90
   5   4  -1  190.58   14.60
   5   4  -1  201.28   15.30
   5   4  -1  206.48   14.40
  -5  -4   1  205.18   15.20
  -5  -4   1  198.18   15.50
  -5  -4   1  203.48   14.60
   4   4  -1   31.70    2.50
   4   4  -1   32.90    2.80
   4   4  -1   28.70    3.30
   4   4  -1   34.50    2.50
  -4  -4   1   33.00    3.30
  -4  -4   1   34.00    2.80
  -4  -4   1   37.20    3.70
   3   4  -1    8.20    1.60
   3   4  -1    6.80    1.30
   3   4  -1    7.50    1.00
   2   4  -1   -0.30    0.60
   2   4  -1    0.90    1.00
   2   4  -1    0.50    0.50
   1   4  -1   89.39    6.80
   1   4  -1   92.59    7.20
   1   4  -1   93.09    7.30
  -1  -4   1   99.59    6.70
   0   4  -1 1454.45  104.09
   0   4  -1 1500.35  103.89
   0   4  -1 1332.87  103.69
   0   4  -1 1504.75  104.09
   0  -4   1 1578.84  103.69
  -1   4  -1   47.70    4.00
  -1   4  -1   48.80    3.80
  -1   4  -1   41.50    3.60
  -1   4  -1   42.50    4.10
   1  -4   1   50.79    3.50
  -2   4  -1  391.76   27.20
  -2   4  -1  356.66   26.50
  -2   4  -1  351.46   27.00
  -2   4  -1  370.96   26.50
   2  -4   1  388.16   26.40
   2  -4   1  369.76   26.20
  -3   4  -1  162.68   12.30
  -3   4  -1  166.98   13.00
  -3   4  -1  144.59   12.30
  -3   4  -1  157.68   12.80
  -3   4  -1  169.58   12.40
   3  -4   1  166.48   12.00
   3  -4   1  185.88   11.80
  -4   4  -1  175.98   12.50
  -4   4  -1  147.89   12.50
  -4   4  -1  166.08   13.30
  -4   4  -1  161.08   12.50
  -4   4  -1  147.49   13.00
   4  -4   1  184.98   11.80
   4  -4   1  166.08   12.10
  -5   4  -1   36.20    5.10
  -5   4  -1   41.80    4.20
  -5   4  -1   41.60    4.00
  -5   4  -1   43.50    5.00
   5  -4   1   35.80    3.40
   5  -4   1   42.30    3.10
  -6   4  -1   21.80    4.00
  -6   4  -1   22.10    3.30
  -6   4  -1   26.50    3.10
  -6   4  -1   16.00    3.70
   6  -4   1   22.70    2.00
   6  -4   1   21.10    2.30
  -7   4  -1  310.17   19.80
  -7   4  -1  250.97   20.10
  -7   4  -1  256.67   20.80
   7  -4   1  245.08   18.90
   7  -4   1  260.07   19.30
  -8   4  -1    3.60    2.30
  -8   4  -1    7.00    2.10
  -8   4  -1    3.30    2.90
   8  -4   1    3.80    1.30
   8  -4   1    5.50    1.10
  -9   4  -1   44.00    6.20
  -9   4  -1   64.29    7.90
   9  -4   1   48.00    4.70
 -10   4  -1   30.20    5.30
 -10   4  -1   38.40    6.40
  10  -4   1   23.20    3.20
 -11   4  -1   51.99    7.70
 -11   4  -1   47.70    8.10
 -11   4  -1   55.29    7.70
  11  -4   1   54.69    5.20
 -12   4  -1   24.30    5.70
 -12   4  -1   30.40    7.10
  12  -4   1   18.30    3.20
  13   3  -1   14.20    2.60
  12   3  -1   -0.90    1.40
 -12  -3   1    1.00    3.60
  11   3  -1    7.10    1.80
 -11  -3   1    3.90    3.40
  10   3  -1  122.09    9.50
  10   3  -1  122.09    9.60
 -10  -3   1  132.09    9.60
 -10  -3   1  116.39   11.30
   9   3  -1    1.50    0.90
   9   3  -1   -0.70    1.00
  -9  -3   1    0.00    2.20
  -9  -3   1    2.50    1.10
   8   3  -1   12.80    1.60
   8   3  -1   12.20    1.80
   8   3  -1   12.20    3.40
  -8  -3   1   17.60    3.50
  -8  -3   1   12.90    1.80
  -8  -3   1   11.10    2.70
   7   3  -1   38.20    3.50
   7   3  -1   40.10    3.30
  -7  -3   1   40.90    3.50
  -7  -3   1   41.00    4.70
  -7  -3   1   36.50    4.30
   6   3  -1  131.89   10.20
   6   3  -1  141.69   10.10
   6   3  -1  131.49   11.20
  -6  -3   1  146.49   11.00
  -6  -3   1  135.49   10.20
   5   3  -1  135.39   11.00
   5   3  -1  144.79   10.20
   5   3  -1  150.28   10.10
  -5  -3   1  131.09   11.20
  -5  -3   1  131.09   10.20
  -5  -3   1  137.79   10.80
   4   3  -1  659.83   48.40
   4   3  -1  698.33   47.80
   4   3  -1  673.23   48.00
  -4  -3   1  690.23   48.00
  -4  -3   1  665.43   48.70
   3   3  -1  659.63   47.60
   3   3  -1  622.44   47.20
   3   3  -1  665.23   47.10
  -3  -3   1  752.02   47.80
  -3  -3   1  643.54   47.30
   2   3  -1  238.08   16.50
   2   3  -1  243.68   17.10
   2   3  -1  212.28   16.60
   2   3  -1  241.68   16.80
   1   3  -1 1033.60   69.09
   1   3  -1 1051.69   69.29
   1   3  -1  863.01   69.09
   1   3  -1  988.20   69.39
   1   3  -1  972.10   69.09
   0   3  -1 1168.08   92.39
   0   3  -1 1425.96   92.59
   0   3  -1 1322.37   92.69
   0   3  -1 1306.67   92.69
   0  -3   1 1347.07   92.39
  -1   3  -1  544.65   37.80
  -1   3  -1  504.05   37.50
  -1   3  -1  499.65   37.90
  -1   3  -1  538.75   37.50
  -1   3  -1  554.84   38.10
   1  -3   1  548.15   37.50
  -2   3  -1  171.48   13.10
  -2   3  -1  166.28   12.90
  -2   3  -1  171.28   12.40
  -2   3  -1  183.18   12.60
  -2   3  -1  160.78   12.40
   2  -3   1  170.58   12.20
   2  -3   1  179.08   12.30
  -3   3  -1  265.87   19.30
  -3   3  -1  222.28   18.60
  -3   3  -1  255.77   18.60
  -3   3  -1  231.08   19.00
  -3   3  -1  263.37   18.60
   3  -3   1  295.97   18.20
   3  -3   1  261.77   18.40
  -4   3  -1   77.89    6.80
  -4   3  -1   86.89    6.80
  -4   3  -1   79.19    7.50
   4  -3   1   97.59    6.30
   4  -3   1   84.69    6.50
  -5   3  -1   57.59    6.00
  -5   3  -1   67.59    6.50
  -5   3  -1   62.09    5.60
  -5   3  -1   64.49    5.30
  -5   3  -1   61.99    5.10
   5  -3   1   60.99    4.90
   5  -3   1   66.09    4.70
  -6   3  -1  122.39   10.60
  -6   3  -1  142.99   10.10
  -6   3  -1  140.29   11.20
  -6   3  -1  129.49   11.30
  -6   3  -1  139.79   10.30
   6  -3   1  123.59    9.90
   6  -3   1  131.89    9.60
  -7   3  -1  149.29   10.80
  -7   3  -1  127.19   11.20
  -7   3  -1  134.69   11.80
  -7   3  -1  146.49   11.90
  -7   3  -1  153.28   10.60
   7  -3   1  129.69   10.30
   7  -3   1  126.69   10.00
  -8   3  -1   23.90    3.00
  -8   3  -1   25.70    4.60
  -8   3  -1   24.00    4.10
  -8   3  -1   26.50    3.40
  -8   3  -1   28.60    4.70
   8  -3   1   22.80    2.60
   8  -3   1   20.90    2.30
  -9   3  -1   21.80    4.10
  -9   3  -1   20.40    4.30
  -9   3  -1   18.10    4.20
   9  -3   1   13.90    2.20
   9  -3   1   15.10    1.90
 -10   3  -1   16.90    4.70
 -10   3  -1   15.40    4.10
 -10   3  -1   21.90    5.00
  10  -3   1   17.30    2.60
  10  -3   1   15.60    2.10
 -11   3  -1    2.00    3.40
 -11   3  -1    5.40    3.80
 -11   3  -1    4.40    4.20
  11  -3   1    2.50    1.60
 -12   3  -1    4.30    4.20
 -12   3  -1    5.00    4.50
  12  -3   1   -0.60    1.60
  13   2  -1    6.40    1.90
  12   2  -1    3.80    1.60
 -12  -2   1    1.20    3.90
  11   2  -1   92.79    7.70
  11   2  -1   91.69    7.60
 -11  -2   1  110.79   10.40
  10   2  -1    3.30    1.30
  10   2  -1    0.10    0.90
 -10  -2   1    2.10    1.30
 -10  -2   1   -0.40    2.70
   9   2  -1    2.30    1.00
   9   2  -1    1.30    1.10
  -9  -2   1    3.20    2.80
  -9  -2   1    1.30    1.20
   8   2  -1   64.29    5.40
   8   2  -1   69.79    5.50
  -8  -2   1   74.19    7.00
  -8  -2   1   67.39    7.10
  -8  -2   1   66.39    5.50
  -8  -2   1   69.59    6.50
   7   2  -1    7.40    1.20
   7   2  -1    7.40    1.40
   7   2  -1    8.50    2.70
  -7  -2   1    9.40    2.40
  -7  -2   1    8.90    1.40
  -7  -2   1    8.00    2.50
  -7  -2   1   11.20    2.50
   6   2  -1   88.19    8.10
   6   2  -1   86.39    6.90
   6   2  -1   92.29    6.90
  -6  -2   1   90.59    7.80
  -6  -2   1   93.79    7.90
  -6  -2   1   97.09    7.60
  -6  -2   1   91.89    7.00
   5   2  -1  336.57   25.20
   5   2  -1  329.17   24.40
   5   2  -1  346.77   24.30
  -5  -2   1  343.27   24.80
  -5  -2   1  350.06   25.00
  -5  -2   1  341.67   24.40
   4   2  -1  186.78   12.30
   4   2  -1  169.68   12.40
   4   2  -1  171.88   13.00
  -4  -2   1  144.89   13.00
  -4  -2   1  182.88   12.90
  -4  -2   1  172.38   12.40
   3   2  -1  494.65   35.50
   3   2  -1  492.05   35.90
   3   2  -1  515.05   35.40
  -3  -2   1  484.85   35.50
  -3  -2   1  529.45   35.90
  -3  -2   1  496.15   36.00
   2   2  -1  101.69    7.40
   2   2  -1   99.79    7.10
   2   2  -1   93.29    7.10
  -2  -2   1  100.89    7.20
   1   2  -1  488.15   34.40
   1   2  -1  427.76   34.40
   1   2  -1  495.45   34.60
   1   2  -1  539.85   34.40
   0   2  -1 4043.50  275.87
   0   2  -1 3806.92  275.77
   0   2  -1 3872.11  275.87
   0   2  -1 3972.30  275.87
  -1   2  -1 1599.94  126.99
  -1   2  -1 1806.02  127.19
  -1   2  -1 1931.81  127.09
  -1   2  -1 1877.61  126.99
  -2   2  -1   12.10    1.40
  -2   2  -1   12.70    1.30
  -2   2  -1   12.20    2.00
  -2   2  -1   12.10    1.80
  -2   2  -1   14.70    1.50
   2  -2   1   12.90    1.20
   2  -2   1   14.70    1.10
  -3   2  -1  293.27   20.30
  -3   2  -1  297.37   20.80
  -3   2  -1  283.77   20.20
  -3   2  -1  278.97   21.00
  -3   2  -1  272.37   20.40
   3  -2   1  318.97   20.00
   3  -2   1  285.07   20.20
   3  -2   1  243.48   20.00
  -4   2  -1  178.08   13.70
  -4   2  -1  174.28   14.00
  -4   2  -1  181.78   13.40
  -4   2  -1  174.08   14.30
  -4   2  -1  196.98   13.50
   4  -2   1  185.68   13.40
   4  -2   1  199.38   13.20
  -5   2  -1    7.40    1.70
  -5   2  -1    7.40    2.00
  -5   2  -1    6.90    2.20
  -5   2  -1    7.30    1.20
  -5   2  -1    7.10    1.30
   5  -2   1    5.90    1.00
   5  -2   1    6.90    0.80
  -6   2  -1  132.39   11.10
  -6   2  -1  132.29   11.60
  -6   2  -1  149.88   10.50
  -6   2  -1  134.69   11.50
  -6   2  -1  153.18   10.60
   6  -2   1  139.49   10.20
   6  -2   1  136.59   10.40
  -7   2  -1    2.40    1.40
  -7   2  -1   -3.10    1.60
  -7   2  -1    2.50    2.20
  -7   2  -1    0.30    1.70
  -7   2  -1    0.50    1.10
   7  -2   1    1.70    0.80
   7  -2   1    0.70    0.70
  -8   2  -1   12.80    3.60
  -8   2  -1   16.40    3.20
  -8   2  -1   15.40    3.50
  -8   2  -1   22.40    2.80
  -8   2  -1   16.50    2.30
   8  -2   1   15.60    1.80
   8  -2   1   12.60    1.90
  -9   2  -1    1.30    2.60
  -9   2  -1    1.10    2.10
  -9   2  -1    1.80    2.50
   9  -2   1    1.50    0.90
   9  -2   1    0.20    0.90
 -10   2  -1   13.00    4.10
 -10   2  -1   17.80    4.10
 -10   2  -1   18.60    4.70
  10  -2   1   11.00    2.10
  10  -2   1   12.50    1.90
 -11   2  -1   23.20    4.80
 -11   2  -1   24.30    5.70
 -11   2  -1   27.10    5.30
  11  -2   1   25.60    2.80
  11  -2   1   18.70    2.80
 -12   2  -1    5.70    4.20
 -12   2  -1   10.10    4.90
 -12   2  -1   -5.50    3.70
  12  -2   1   -0.70    1.40
  12  -2   1    1.40    1.40
  13   1  -1   14.20    2.60
  12   1  -1   70.89    6.40
  12   1  -1   64.99    6.30
 -12  -1   1  110.69   10.60
  11   1  -1    4.90    1.60
  11   1  -1    7.20    1.80
 -11  -1   1   11.70    4.40
  10   1  -1   22.40    2.70
  10   1  -1   20.80    2.70
 -10  -1   1   22.90    5.00
 -10  -1   1   25.50    3.00
   9   1  -1    0.10    0.80
   9   1  -1   -0.60    0.90
  -9  -1   1    0.40    1.10
  -9  -1   1    0.00    2.00
  -9  -1   1   -2.00    2.40
   8   1  -1   72.09    6.10
   8   1  -1   71.99    6.10
  -8  -1   1   83.69    8.00
  -8  -1   1   79.79    6.20
  -8  -1   1   85.99    7.30
  -8  -1   1   78.99    7.50
   7   1  -1   87.79    6.80
   7   1  -1   85.29    6.80
   7   1  -1   92.49    8.40
  -7  -1   1   89.09    7.70
  -7  -1   1   92.69    6.90
  -7  -1   1   92.49    8.20
  -7  -1   1   87.19    7.90
   6   1  -1    4.00    0.90
   6   1  -1    3.20    0.80
   6   1  -1    2.90    2.00
  -6  -1   1    2.50    1.70
  -6  -1   1    3.60    1.90
  -6  -1   1    4.90    1.80
  -6  -1   1    3.90    1.00
   5   1  -1  159.78   11.30
   5   1  -1  152.58   11.30
   5   1  -1  149.88   12.20
  -5  -1   1  146.79   11.30
  -5  -1   1  158.88   12.00
  -5  -1   1  160.48   12.00
  -5  -1   1  159.28   11.80
   4   1  -1   42.70    3.20
   4   1  -1   38.50    3.20
   4   1  -1   39.30    4.10
  -4  -1   1   41.40    3.90
  -4  -1   1   40.80    3.70
  -4  -1   1   40.80    3.90
  -4  -1   1   38.00    3.20
   3   1  -1  389.86   25.80
   3   1  -1  363.36   26.30
   3   1  -1  353.66   25.70
  -3  -1   1  362.26   26.20
  -3  -1   1  352.56   25.80
  -3  -1   1  356.46   26.00
   2   1  -1   88.49    6.90
   2   1  -1   95.39    6.50
   2   1  -1   88.29    6.50
  -2  -1   1   92.59    6.80
  -2  -1   1   87.59    6.60
   1   1  -1 1741.63  116.09
   1   1  -1 1658.33  115.99
   1   1  -1 1517.75  115.99
   1   1  -1 1708.23  115.99
  -1  -1   1 1656.13  115.99
  -1  -1   1 1616.64  116.09
   0   1  -1  190.58   14.60
   0   1  -1  237.08   14.60
   0   1  -1  199.18   14.60
   0   1  -1  194.38   14.60
  -1   1  -1  191.98   12.40
  -1   1  -1  173.38   12.60
  -1   1  -1  178.58   12.60
  -1   1  -1  149.59   12.50
  -2   1  -1   13.50    1.60
  -2   1  -1    9.60    1.40
  -2   1  -1   10.20    1.60
  -2   1  -1   13.30    1.10
  -2   1  -1   12.10    1.00
   2  -1   1   11.40    1.00
   2  -1   1    9.70    0.80
   2  -1   1   10.80    0.90
  -3   1  -1  167.18   12.40
  -3   1  -1  167.48   12.80
  -3   1  -1  162.38   12.30
  -3   1  -1  169.48   13.10
  -3   1  -1  163.28   12.60
   3  -1   1  181.88   12.20
   3  -1   1  173.98   12.40
   3  -1   1  189.98   12.30
  -4   1  -1  709.43   53.09
  -4   1  -1  742.23   52.89
  -4   1  -1  727.73   52.69
  -4   1  -1  705.23   52.29
  -4   1  -1  747.53   52.39
   4  -1   1  748.83   52.39
   4  -1   1  800.82   52.19
  -5   1  -1  201.28   14.20
  -5   1  -1  189.28   14.60
  -5   1  -1  174.18   15.00
  -5   1  -1  212.88   14.10
  -5   1  -1  200.38   15.00
   5  -1   1  197.88   14.00
   5  -1   1  189.88   14.10
  -6   1  -1  209.88   15.70
  -6   1  -1  219.38   15.10
  -6   1  -1  197.28   15.90
  -6   1  -1  217.58   14.90
  -6   1  -1  195.48   16.10
   6  -1   1  198.78   15.00
   6  -1   1  200.78   14.80
  -7   1  -1   55.39    5.80
  -7   1  -1   52.59    4.50
  -7   1  -1   50.69    5.90
  -7   1  -1   50.59    5.30
  -7   1  -1   52.99    4.30
   7  -1   1   51.69    4.00
   7  -1   1   47.10    4.20
  -8   1  -1    1.70    2.40
  -8   1  -1    3.20    1.50
  -8   1  -1    0.40    1.90
  -8   1  -1    0.80    2.20
  -8   1  -1    3.70    1.20
   8  -1   1    1.00    0.70
   8  -1   1    0.60    0.70
  -9   1  -1   79.39    8.40
  -9   1  -1   87.09    8.40
  -9   1  -1   95.59    8.10
   9  -1   1   74.09    6.20
   9  -1   1   76.19    6.40
 -10   1  -1   20.80    4.40
 -10   1  -1   21.30    4.80
 -10   1  -1   21.60    4.30
  10  -1   1   19.90    2.40
  10  -1   1   19.50    2.50
 -11   1  -1    5.30    3.20
 -11   1  -1   -1.80    3.20
 -11   1  -1    1.10    3.40
  11  -1   1    0.00    1.30
  11  -1   1    2.20    1.20
 -12   1  -1   -0.50    3.50
 -12   1  -1   -3.20    3.40
  12  -1   1   -2.90    1.10
  12  -1   1   -1.50    1.30
 -13   1  -1    9.10    5.80
  13  -1   1    3.70    1.80
  13  -1   1    6.90    2.00
  12   0  -1    5.70    1.80
  12   0  -1    6.60    1.80
 -12   0   1    9.80    4.60
  11   0  -1   -0.10    1.30
  11   0  -1    0.20    1.10
 -11   0   1    1.30    3.50
  10   0  -1   63.29    5.60
  10   0  -1   71.59    5.80
 -10   0   1   70.79    8.10
   9   0  -1   33.60    3.40
   9   0  -1   30.70    3.30
  -9   0   1   35.30    3.60
  -9   0   1   43.50    5.90
  -9   0   1   32.60    5.10
  -9   0   1   40.40    5.10
  -9   0   1   35.50    4.00
   8   0  -1   15.90    1.90
   8   0  -1   12.00    1.80
  -8   0   1   14.30    3.10
  -8   0   1   17.80    4.00
  -8   0   1   16.00    3.20
  -8   0   1   13.60    2.00
   7   0  -1   41.40    3.70
   7   0  -1   43.60    3.80
  -7   0   1   52.29    5.50
  -7   0   1   48.00    3.90
  -7   0   1   43.00    4.90
  -7   0   1   48.20    5.10
   6   0  -1  503.85   36.50
   6   0  -1  468.55   35.20
   6   0  -1  491.45   35.30
  -6   0   1  503.65   35.30
  -6   0   1  479.75   36.10
  -6   0   1  528.45   36.40
  -6   0   1  501.75   36.00
   5   0  -1    3.00    1.80
   5   0  -1    2.80    0.70
   5   0  -1    4.20    0.80
  -5   0   1    2.50    1.60
  -5   0   1    3.90    0.80
  -5   0   1    3.70    1.50
  -5   0   1    8.60    1.90
   4   0  -1  635.34   41.80
   4   0  -1  558.64   42.40
   4   0  -1  582.44   41.70
  -4   0   1  588.94   41.80
  -4   0   1  591.84   42.30
  -4   0   1  596.84   42.30
  -4   0   1  570.64   42.20
   3   0  -1 2095.39  136.19
   3   0  -1 1818.42  136.69
   3   0  -1 1902.71  136.09
  -3   0   1 1890.21  136.19
  -3   0   1 1928.81  136.59
  -3   0   1 1977.10  136.59
  -3   0   1 1932.71  136.49
   2   0  -1 2999.60  193.28
   2   0  -1 2565.94  193.58
   2   0  -1 2685.33  193.28
  -2   0   1 2649.73  193.28
  -2   0   1 2800.62  193.58
  -2   0   1 2725.83  193.48
  -2   0   1 2818.22  193.48
   1   0  -1 2333.37  150.88
   1   0  -1 1930.21  151.08
   1   0  -1 2029.20  150.88
  -1   0   1 2247.08  150.98
  -1   0   1 2127.39  151.08
  -1   0   1 2189.48  150.98
  -1   0   1 2171.28  150.88
  -1   0  -1 1505.75  110.29
  -1   0  -1 1554.14  109.89
  -1   0  -1 1626.04  109.89
  -2   0  -1  142.29   10.20
  -2   0  -1  139.59   10.50
  -2   0  -1  119.99   11.00
  -2   0  -1  142.29   10.40
  -2   0  -1  138.79   10.50
  -2   0  -1  136.59   10.50
   2   0   1  155.38   10.20
   2   0   1  149.99   10.50
   2   0   1  162.48   10.20
  -3   0  -1  613.44   47.50
  -3   0  -1  662.43   47.60
  -3   0  -1  666.13   47.20
   3   0   1  658.53   47.30
   3   0   1  673.93   47.20
   3   0   1  674.03   47.60
   3   0   1  741.93   47.20
  -4   0  -1   43.90    4.20
  -4   0  -1   37.90    3.70
  -4   0  -1   38.60    3.90
  -4   0  -1   41.80    3.10
   4   0   1   39.80    4.00
   4   0   1   46.70    3.10
   4   0   1   41.50    3.20
   4   0   1   35.00    3.00
  -5   0  -1   52.39    4.70
  -5   0  -1   48.40    4.40
  -5   0  -1   48.90    3.60
  -5   0  -1   43.60    4.70
   5   0   1   48.40    4.60
   5   0   1   46.50    3.60
   5   0   1   46.40    3.70
  -6   0  -1  260.57   19.40
  -6   0  -1  249.38   19.50
  -6   0  -1  260.47   19.10
  -6   0  -1  266.17   18.30
   6   0   1  257.67   18.40
   6   0   1  241.78   18.30
   6   0   1  254.57   19.30
  -7   0  -1  835.42   57.89
  -7   0  -1  864.31   57.79
  -7   0  -1  818.12   58.99
  -7   0  -1  832.32   58.69
  -7   0  -1  797.62   59.09
   7   0   1  755.72   57.69
   7   0   1  808.32   57.79
  -8   0  -1    0.40    2.30
  -8   0  -1   -2.40    1.70
  -8   0  -1    1.90    1.30
  -8   0  -1    1.20    1.00
  -8   0  -1   -1.30    1.70
   8   0   1    2.10    0.80
   8   0   1    1.60    0.80
  -9   0  -1   16.60    3.80
  -9   0  -1   11.70    3.50
  -9   0  -1   19.20    3.50
   9   0   1   16.40    2.00
   9   0   1   15.40    2.10
 -10   0  -1   24.40    5.00
 -10   0  -1   30.10    4.90
 -10   0  -1   28.40    5.00
  10   0   1   22.30    2.70
  10   0   1   26.80    2.90
 -11   0  -1    3.60    3.20
 -11   0  -1   -0.30    3.00
 -11   0  -1   -2.50    3.10
  11   0   1   -1.70    1.00
  11   0   1   -1.40    1.00
 -12   0  -1    8.80    4.50
  12   0   1    9.30    2.00
  12   0   1    7.50    1.90
 -13   0  -1    4.10    4.10
  13   0   1    0.70    1.40
  13   0   1   -0.30    1.30
  12  -1  -1   -0.20    1.50
  12  -1  -1    1.30    1.50
 -12   1   1    6.30    4.40
  11  -1  -1    5.20    1.60
  11  -1  -1    4.90    1.60
 -11   1   1    8.30    4.60
  10  -1  -1   26.80    3.00
  10  -1  -1   27.30    3.20
 -10   1   1   26.20    4.80
 -10   1   1   30.50    5.80
 -10   1   1   39.30    5.80
   9  -1  -1   18.90    2.30
   9  -1  -1   18.20    2.50
  -9   1   1   18.90    3.80
  -9   1   1   18.20    4.40
  -9   1   1   25.20    2.90
  -9   1   1   20.00    3.70
  -9   1   1   17.90    2.90
   8  -1  -1  118.59    9.50
   8  -1  -1  105.59    9.20
  -8   1   1  133.39    9.60
  -8   1   1  139.29   10.00
  -8   1   1  133.79   10.80
  -8   1   1  143.39   11.40
  -8   1   1  109.09   10.50
   7  -1  -1  201.88   15.00
   7  -1  -1  188.88   14.70
  -7   1   1  214.48   15.30
  -7   1   1  212.68   16.30
  -7   1   1  204.48   15.90
  -7   1   1  188.28   15.80
  -7   1   1  214.38   15.00
   6  -1  -1    9.90    1.40
   6  -1  -1    7.60    1.20
  -6   1   1    8.20    2.30
  -6   1   1    8.50    1.40
  -6   1   1    8.50    2.30
  -6   1   1    7.00    2.40
   5  -1  -1   83.09    6.40
   5  -1  -1   79.69    6.20
   5  -1  -1   84.29    7.30
  -5   1   1   84.89    6.00
  -5   1   1   82.49    6.40
  -5   1   1   80.19    7.00
  -5   1   1   81.99    7.00
  -5   1   1   91.19    7.30
   4  -1  -1  371.06   25.50
   4  -1  -1  338.67   26.10
   4  -1  -1  346.07   25.40
  -4   1   1  358.26   26.10
  -4   1   1  364.26   26.10
  -4   1   1  336.57   25.20
  -4   1   1  377.26   25.50
  -4   1   1  371.86   26.10
   3  -1  -1 1305.77   86.29
   3  -1  -1 1201.68   86.69
   3  -1  -1 1207.28   86.09
  -3   1   1 1249.77   86.69
  -3   1   1 1268.77   86.69
  -3   1   1 1132.79   85.99
  -3   1   1 1182.98   86.59
  -3   1   1 1241.68   86.19
   2  -1  -1 6986.90  496.15
   2  -1  -1 7006.10  496.45
   2  -1  -1 7192.48  496.25
  -2   1   1 6959.40  496.35
  -2   1   1 6831.02  496.15
  -2   1   1 7382.26  496.35
  -2   1   1 7171.88  496.25
  -2   1   1 6956.30  496.35
   1  -1  -1 9999.00  641.54
   1  -1  -1 8994.50  641.54
   1  -1  -1 8688.13  640.84
  -1   1   1 9097.29  641.04
  -1   1   1 9338.47  641.34
  -1   1   1 8983.60  641.24
  -1   1   1 8901.51  641.54
  -1   1   1 8977.50  640.94
   0   1   1  215.08   13.70
   0   1   1  173.18   13.80
   1   1   1 2362.86  165.58
   1   1   1 2347.57  165.48
  -2  -1  -1 1987.80  150.68
  -2  -1  -1 1984.70  150.58
  -2  -1  -1 2187.98  151.08
   2   1   1 2188.28  150.48
   2   1   1 2298.87  150.38
   2   1   1 2124.29  150.48
   2   1   1 2209.58  150.68
  -3  -1  -1  399.06   32.10
  -3  -1  -1  419.56   31.10
   3   1   1  420.96   31.20
   3   1   1  459.85   31.20
   3   1   1  476.35   31.60
   3   1   1  471.25   31.10
  -4  -1  -1   -0.20    2.00
  -4  -1  -1    4.50    1.30
  -4  -1  -1    3.40    1.30
  -4  -1  -1    2.50    0.50
   4   1   1    1.60    0.40
   4   1   1    1.90    0.50
   4   1   1    1.80    1.20
   4   1   1    1.50    0.50
  -5  -1  -1  312.47   22.90
  -5  -1  -1  297.87   22.80
  -5  -1  -1  311.37   22.20
   5   1   1  319.27   22.20
   5   1   1  323.27   22.20
   5   1   1  305.47   23.00
  -6  -1  -1  346.67   25.80
  -6  -1  -1  351.46   26.00
  -6  -1  -1  370.46   25.80
  -6  -1  -1  342.37   24.90
   6   1   1  341.27   25.90
   6   1   1  354.46   25.00
   6   1   1  343.07   24.90
  -7  -1  -1   36.10    4.20
  -7  -1  -1   32.90    4.40
  -7  -1  -1   37.10    2.90
  -7  -1  -1   33.00    4.60
   7   1   1   32.40    2.90
   7   1   1   31.60    2.90
  -8  -1  -1    1.40    2.20
  -8  -1  -1   -2.10    0.80
  -8  -1  -1    1.00    2.10
  -8  -1  -1    1.60    2.00
   8   1   1   -0.20    0.60
   8   1   1    0.00    0.70
  -9  -1  -1    2.00    2.60
  -9  -1  -1    4.20    2.40
  -9  -1  -1    2.00    2.40
   9   1   1    1.70    0.80
   9   1   1   -0.70    0.80
 -10  -1  -1   27.60    4.80
 -10  -1  -1   21.70    4.80
 -10  -1  -1   26.40    4.70
  10   1   1   26.30    2.70
  10   1   1   24.40    2.70
 -11  -1  -1   17.70    4.90
 -11  -1  -1   15.40    4.20
  11   1   1   12.50    2.10
  11   1   1   15.70    2.10
 -12  -1  -1    0.00    3.50
  12   1   1    0.20    1.20
  12   1   1   -1.10    1.30
 -13  -1  -1   -1.80    3.90
  13   1   1    1.60    1.50
  13   1   1    3.00    1.50
  12  -2  -1    0.30    1.50
 -12   2   1    6.80    4.70
  11  -2  -1    0.20    1.10
  11  -2  -1   -0.40    1.30
 -11   2   1   -0.70    3.90
  10  -2  -1   91.99    8.10
  10  -2  -1   92.49    7.80
 -10   2   1  114.49   10.00
 -10   2   1  104.79   10.10
 -10   2   1  114.39   10.80
   9  -2  -1   35.60    3.70
   9  -2  -1   31.50    3.30
  -9   2   1   38.00    5.80
  -9   2   1   42.00    5.70
  -9   2   1   27.90    5.10
  -9   2   1   44.00    4.10
  -9   2   1   41.10    4.50
   8  -2  -1   34.20    3.50
   8  -2  -1   27.60    3.20
  -8   2   1   43.90    5.40
  -8   2   1   37.90    4.10
  -8   2   1   35.50    4.90
  -8   2   1   46.30    4.00
  -8   2   1   52.29    6.10
   7  -2  -1    1.60    0.90
   7  -2  -1    2.50    0.90
  -7   2   1    2.80    2.20
  -7   2   1    2.60    2.00
  -7   2   1    6.40    1.80
  -7   2   1    1.70    1.30
  -7   2   1    2.80    2.40
   6  -2  -1    5.20    1.00
   6  -2  -1    5.70    1.20
  -6   2   1    5.40    1.40
  -6   2   1    7.20    1.80
  -6   2   1    6.60    2.10
  -6   2   1    7.60    2.50
  -6   2   1    4.20    1.90
   5  -2  -1    0.70    0.60
   5  -2  -1    1.70    0.60
   5  -2  -1    2.00    1.60
  -5   2   1    3.20    1.50
  -5   2   1    1.80    0.90
  -5   2   1    1.20    1.20
  -5   2   1    1.90    1.60
  -5   2   1    2.70    1.70
   4  -2  -1   12.30    1.30
   4  -2  -1   15.10    2.50
   4  -2  -1   13.20    1.50
  -4   2   1   12.40    1.60
  -4   2   1   11.70    2.20
  -4   2   1   16.70    2.00
  -4   2   1   12.10    2.20
  -4   2   1   13.20    2.30
   3  -2  -1  114.49    8.30
   3  -2  -1  109.49    8.10
   3  -2  -1  116.79    8.90
  -3   2   1   99.79    8.70
  -3   2   1  113.29    8.40
  -3   2   1  111.59    8.90
  -3   2   1  113.39    8.90
  -3   2   1  129.09    8.00
  -3   2   1  103.59    8.50
   2  -2  -1  951.50   65.99
   2  -2  -1  901.51   65.79
  -2   2   1  903.11   66.39
  -2   2   1  876.31   65.99
  -2   2   1 1057.99   65.79
  -2   2   1 1005.60   66.49
  -2   2   1  909.81   66.09
  -2   2   1  878.81   66.29
   1  -2  -1   11.70    1.10
   1  -2  -1   11.10    0.90
   1  -2  -1   13.50    1.50
  -1   2   1   14.70    1.00
  -1   2   1   11.50    1.40
  -1   2   1   12.20    1.20
  -1   2   1   11.70    1.30
  -1   2   1   10.30    1.40
   0  -2  -1 1012.30   68.89
   0  -2  -1 1005.60   68.69
   0   2   1 1055.89   68.69
   0   2   1  970.90   68.89
   0   2   1  915.91   68.79
   0   2   1  933.11   68.89
   0   2   1  942.61   68.79
  -1  -2  -1 6333.57  460.85
  -1  -2  -1 6530.25  460.95
  -1  -2  -1 6419.86  460.85
   1   2   1 6467.35  460.95
   1   2   1 6579.34  461.15
   1   2   1 7014.90  460.85
  -2  -2  -1 1199.08   83.79
  -2  -2  -1 1080.49   83.49
   2   2   1 1251.47   83.39
   2   2   1 1210.88   83.49
   2   2   1 1124.29   83.49
   2   2   1 1246.68   83.49
  -3  -2  -1   61.99    5.30
   3   2   1   61.49    4.60
   3   2   1   57.39    4.40
   3   2   1   57.69    4.20
   3   2   1   48.90    4.30
   3   2   1   58.19    4.20
  -4  -2  -1  378.06   27.10
  -4  -2  -1  371.06   27.60
  -4  -2  -1  378.86   28.40
   4   2   1  337.77   27.10
   4   2   1  402.16   27.10
   4   2   1  401.96   27.60
   4   2   1  407.96   27.10
  -5  -2  -1    3.00    0.60
  -5  -2  -1    2.20    2.00
  -5  -2  -1    2.80    1.30
   5   2   1    3.80    0.60
   5   2   1    3.80    0.70
   5   2   1    1.70    0.60
   5   2   1    3.30    1.40
  -6  -2  -1    1.40    1.40
  -6  -2  -1    1.80    2.40
  -6  -2  -1    2.00    1.50
  -6  -2  -1    2.90    0.70
   6   2   1    1.60    0.60
   6   2   1    1.20    1.50
   6   2   1    1.30    0.50
  -7  -2  -1   11.40    2.60
  -7  -2  -1    9.20    1.30
  -7  -2  -1   12.60    2.90
  -7  -2  -1   15.40    2.90
   7   2   1   13.00    1.40
   7   2   1    8.40    2.50
   7   2   1    9.30    1.30
  -8  -2  -1  788.52   59.39
  -8  -2  -1  849.22   58.09
  -8  -2  -1  808.52   59.29
  -8  -2  -1  908.51   59.39
   8   2   1  809.82   58.09
   8   2   1  762.62   58.09
  -9  -2  -1   19.60    3.90
  -9  -2  -1   16.60    3.50
  -9  -2  -1   19.50    3.80
   9   2   1   11.60    1.80
   9   2   1   17.50    1.90
 -10  -2  -1  204.58   16.20
 -10  -2  -1  197.18   16.10
  10   2   1  186.08   14.30
  10   2   1  190.58   14.30
 -11  -2  -1   81.49    8.50
  11   2   1   65.79    5.80
  11   2   1   71.19    5.90
 -12  -2  -1   -1.40    3.30
  12   2   1    1.90    1.30
  12   2   1    0.70    1.20
 -13  -2  -1   32.70    6.70
  13   2   1   34.50    4.00
  12  -3  -1    9.50    2.40
  11  -3  -1   43.90    4.60
 -11   3   1   42.70    7.70
 -11   3   1   37.20    7.10
  10  -3  -1    1.00    1.40
 -10   3   1   -1.30    2.90
 -10   3   1    0.20    3.70
   9  -3  -1   -0.80    0.90
   9  -3  -1    0.60    1.00
  -9   3   1   -2.90    1.60
  -9   3   1   -3.70    1.80
  -9   3   1    0.10    2.60
  -9   3   1    2.80    2.60
  -9   3   1    0.00    2.90
   8  -3  -1   -1.50    0.70
   8  -3  -1    0.40    0.80
  -8   3   1   -0.30    1.50
  -8   3   1    1.00    2.30
  -8   3   1    0.90    1.90
  -8   3   1    1.60    2.50
  -8   3   1    0.80    2.80
   7  -3  -1    2.70    1.00
   7  -3  -1    3.50    1.00
  -7   3   1    3.10    1.60
  -7   3   1    6.00    2.60
  -7   3   1    2.30    2.20
  -7   3   1    5.80    2.00
  -7   3   1    2.90    2.50
   6  -3  -1    1.40    0.80
   6  -3  -1    3.30    0.70
  -6   3   1   -0.30    1.70
  -6   3   1    1.70    2.20
  -6   3   1   -0.80    1.50
  -6   3   1    1.30    1.20
  -6   3   1    0.30    1.90
   5  -3  -1    4.30    1.00
   5  -3  -1    4.00    0.70
  -5   3   1    1.50    1.80
  -5   3   1    2.90    1.30
  -5   3   1    2.60    1.60
  -5   3   1    2.20    1.70
  -5   3   1    1.40    1.90
   4  -3  -1   67.19    5.10
   4  -3  -1   70.49    5.40
  -4   3   1   68.99    5.70
  -4   3   1   73.49    5.60
  -4   3   1   73.89    6.30
  -4   3   1   63.09    5.90
  -4   3   1   65.09    6.20
   3  -3  -1  136.79    9.80
   3  -3  -1  125.29    9.50
  -3   3   1  139.49   10.00
  -3   3   1  133.99    9.50
  -3   3   1  133.99    9.90
  -3   3   1  119.79   10.10
  -3   3   1  141.89   10.50
   2  -3  -1   90.69    6.00
   2  -3  -1   79.29    5.70
  -2   3   1   83.39    5.80
  -2   3   1   74.89    6.10
  -2   3   1   75.39    6.40
  -2   3   1   81.89    6.30
  -2   3   1   72.39    6.50
   1  -3  -1  257.47   17.00
  -1   3   1  230.28   17.20
  -1   3   1  231.08   17.10
  -1   3   1  248.88   17.20
  -1   3   1  249.58   16.90
  -1   3   1  215.68   17.20
  -1   3   1  226.98   17.30
   0  -3  -1 1072.89   70.89
   0   3   1 1041.30   71.09
   0   3   1  966.30   71.09
   0   3   1  959.20   70.99
   0   3   1  989.60   71.29
   0   3   1 1008.20   70.89
  -1  -3  -1  762.32   55.69
  -1  -3  -1  844.32   55.29
  -1  -3  -1  798.62   55.29
   1   3   1  762.22   55.49
   1   3   1  769.72   55.29
   1   3   1  804.12   55.49
   1   3   1  760.12   55.59
  -2  -3  -1   44.00    3.40
  -2  -3  -1   45.60    3.90
   2   3   1   40.70    3.50
   2   3   1   45.30    3.60
   2   3   1   45.90    3.30
   2   3   1   48.40    3.50
   3   3   1   63.69    4.30
   3   3   1   53.59    4.60
   3   3   1   58.49    4.80
   3   3   1   63.69    4.80
   3   3   1   60.69    4.50
  -4  -3  -1   18.00    1.70
  -4  -3  -1   16.20    2.30
  -4  -3  -1   20.70    3.20
   4   3   1   20.80    2.30
   4   3   1   19.30    1.70
   4   3   1   20.40    1.50
   4   3   1   16.50    1.80
  -5  -3  -1   22.20    3.60
  -5  -3  -1   19.10    2.70
  -5  -3  -1   22.50    1.90
   5   3   1   23.60    1.80
   5   3   1   19.30    2.00
   5   3   1   25.90    2.80
   5   3   1   21.20    1.90
  -6  -3  -1   43.30    4.40
  -6  -3  -1   42.20    3.40
  -6  -3  -1   43.20    5.50
   6   3   1   44.20    3.50
   6   3   1   43.30    3.40
   6   3   1   42.60    4.50
  -7  -3  -1   10.70    2.50
  -7  -3  -1   14.90    2.90
  -7  -3  -1   13.00    3.80
  -7  -3  -1   12.60    1.50
   7   3   1   11.40    1.40
   7   3   1   12.80    1.60
   7   3   1   12.10    2.70
  -8  -3  -1  129.19    9.90
  -8  -3  -1  113.59    9.70
  -8  -3  -1  111.59    8.40
  -8  -3  -1  109.99    9.90
   8   3   1  114.69    8.40
   8   3   1  103.49    8.50
  -9  -3  -1   19.60    3.80
  -9  -3  -1   21.60    4.10
   9   3   1   20.50    2.20
   9   3   1   20.70    2.40
 -10  -3  -1   47.80    6.30
 -10  -3  -1   61.59    6.40
  10   3   1   41.70    4.10
  10   3   1   44.30    4.00
 -11  -3  -1  194.38   15.50
  11   3   1  167.78   13.30
 -12  -3  -1   11.50    4.50
  12   3   1    8.00    1.90
 -13  -3  -1    5.40    4.80
  13   3   1    5.60    2.00
  11  -4  -1   15.80    2.80
 -11   4   1   32.00    6.00
 -11   4   1   16.20    5.40
  10  -4  -1   22.90    3.30
 -10   4   1   27.00    5.40
   9  -4  -1    0.50    1.10
  -9   4   1    2.50    2.90
  -9   4   1    3.40    2.00
  -9   4   1    2.00    2.40
   8  -4  -1   20.00    2.80
  -8   4   1   29.30    4.00
  -8   4   1   30.00    3.60
  -8   4   1   27.10    4.50
   7  -4  -1   13.00    2.00
   7  -4  -1   15.00    1.70
  -7   4   1   14.40    3.50
  -7   4   1   18.20    3.00
  -7   4   1   15.90    3.30
  -7   4   1   16.50    2.60
   6  -4  -1   27.40    2.70
   6  -4  -1   32.20    3.20
  -6   4   1   46.80    4.90
  -6   4   1   28.00    4.10
  -6   4   1   40.10    4.10
  -6   4   1   30.30    3.60
   5  -4  -1    0.20    0.70
   5  -4  -1    1.00    0.50
  -5   4   1    0.10    1.90
  -5   4   1    0.50    1.20
  -5   4   1    1.20    1.70
  -5   4   1    4.30    1.70
   4  -4  -1   13.30    1.30
   4  -4  -1   14.50    1.70
  -4   4   1   13.80    2.20
  -4   4   1   13.00    2.00
  -4   4   1   14.70    2.60
  -4   4   1   11.90    2.70
   3  -4  -1  152.88   10.90
   3  -4  -1  171.78   11.40
  -3   4   1  157.38   11.80
  -3   4   1  145.19   12.00
  -3   4   1  158.18   11.70
  -3   4   1  142.39   11.00
  -3   4   1  151.98   11.50
   2  -4  -1  239.38   16.40
   2  -4  -1  226.88   16.10
  -2   4   1  197.18   16.70
  -2   4   1  238.38   16.60
  -2   4   1  218.28   16.30
  -2   4   1  230.88   16.80
  -2   4   1  238.48   16.70
  -2   4   1  235.08   17.00
   1  -4  -1    0.00    0.40
  -1   4   1    0.40    1.10
  -1   4   1    0.30    1.10
  -1   4   1   -0.50    0.50
  -1   4   1   -0.10    0.80
  -1   4   1    0.50    1.00
   0  -4  -1  267.47   18.40
   0   4   1  268.87   18.80
   0   4   1  284.87   18.90
   0   4   1  249.68   18.60
   0   4   1  234.38   18.50
   0   4   1  252.97   18.90
  -1  -4  -1  381.46   25.50
  -1  -4  -1  390.96   25.50
   1   4   1  319.57   25.50
   1   4   1  338.27   25.70
   1   4   1  356.66   25.90
   1   4   1  379.56   25.70
  -2  -4  -1  739.53   51.99
   2   4   1  651.63   51.69
   2   4   1  699.33   51.49
   2   4   1  762.22   51.89
   2   4   1  803.82   51.69
   3   4   1  178.58   14.10
   3   4   1  201.98   14.20
   3   4   1  203.08   14.30
   3   4   1  195.88   13.90
  -4  -4  -1   64.79    5.80
  -4  -4  -1   85.49    6.70
   4   4   1   69.19    5.60
   4   4   1   68.49    5.60
   4   4   1   73.69    5.00
   4   4   1   59.79    5.40
   4   4   1   69.39    5.20
  -5  -4  -1  357.46   25.90
  -5  -4  -1  341.77   25.10
  -5  -4  -1  342.17   24.40
   5   4   1  331.27   24.40
   5   4   1  336.37   25.00
   5   4   1  347.97   24.30
  -6  -4  -1  315.47   24.20
  -6  -4  -1  299.37   22.30
  -6  -4  -1  325.27   23.10
   6   4   1  295.97   22.30
   6   4   1  325.77   22.20
   6   4   1  311.37   23.10
  -7  -4  -1   74.09    6.40
  -7  -4  -1   63.39    5.10
  -7  -4  -1   63.79    7.30
   7   4   1   59.79    5.10
   7   4   1   66.09    6.40
   7   4   1   65.49    4.90
  -8  -4  -1   75.69    8.70
  -8  -4  -1   89.79    7.60
  -8  -4  -1   82.09    6.20
   8   4   1   77.99    6.10
   8   4   1   79.19    6.20
  -9  -4  -1   34.30    4.90
  -9  -4  -1   23.80    4.20
   9   4   1   30.30    2.90
   9   4   1   26.30    2.60
 -10  -4  -1   10.80    3.40
  10   4   1    9.00    1.80
 -11  -4  -1    2.00    3.00
  11   4   1    3.80    1.40
 -12  -4  -1   -2.50    3.10
  12   4   1    0.80    1.30
 -13  -4  -1   16.50    5.50
  13   4   1    6.00    2.00
  11  -5  -1    0.30    1.80
 -11   5   1    5.00    4.90
 -11   5   1    6.10    4.50
  10  -5  -1    2.60    1.80
 -10   5   1    6.30    3.80
 -10   5   1    2.50    4.20
   9  -5  -1    3.20    1.70
  -9   5   1   -0.20    2.70
  -9   5   1    2.90    3.00
  -9   5   1    1.20    4.10
   8  -5  -1   33.70    3.80
  -8   5   1   39.10    6.40
  -8   5   1   35.00    5.30
  -8   5   1   42.80    5.10
  -8   5   1   31.90    4.30
   7  -5  -1  182.68   14.60
  -7   5   1  190.38   15.70
  -7   5   1  174.88   16.10
  -7   5   1  205.38   15.00
  -7   5   1  216.78   15.40
   6  -5  -1  109.99    9.20
  -6   5   1  137.49   10.10
  -6   5   1  122.99   10.40
  -6   5   1  118.39    9.70
  -6   5   1  114.69   10.70
   5  -5  -1   65.09    5.60
  -5   5   1   71.09    6.20
  -5   5   1   71.39    6.60
  -5   5   1   65.49    7.00
  -5   5   1   71.89    6.00
   4  -5  -1  240.78   18.60
   4  -5  -1  273.57   19.10
  -4   5   1  264.27   19.30
  -4   5   1  264.17   20.10
  -4   5   1  262.97   19.70
  -4   5   1  275.27   19.50
   3  -5  -1   66.19    5.20
   3  -5  -1   63.59    4.70
  -3   5   1   68.79    6.20
  -3   5   1   64.19    5.80
  -3   5   1   71.19    5.90
   2  -5  -1   47.40    3.70
  -2   5   1   43.10    4.30
  -2   5   1   41.90    3.60
  -2   5   1   45.60    4.50
  -2   5   1   46.70    4.20
  -2   5   1   48.00    4.30
   1  -5  -1  121.69    8.20
  -1   5   1  110.19    8.50
  -1   5   1  111.19    8.70
  -1   5   1  111.59    8.80
  -1   5   1  102.29    8.20
   0  -5  -1    7.50    0.90
   0   5   1    6.50    1.20
   0   5   1    7.10    1.60
   0   5   1    7.10    1.60
   0   5   1    6.60    1.10
  -1  -5  -1  726.73   46.40
   1   5   1  715.23   46.70
   1   5   1  563.74   46.30
   1   5   1  691.93   47.00
   1   5   1  597.24   46.70
   2   5   1  159.78   12.90
   2   5   1  165.98   12.60
   2   5   1  200.08   12.90
   2   5   1  183.48   13.10
  -3  -5  -1  171.68   13.00
   3   5   1  191.08   12.90
   3   5   1  153.48   12.80
   3   5   1  173.88   12.60
   3   5   1  188.28   13.10
  -4  -5  -1   62.59    5.60
   4   5   1   68.39    5.00
   4   5   1   72.49    5.60
   4   5   1   70.59    5.50
   4   5   1   57.29    5.20
  -5  -5  -1    3.20    2.00
  -5  -5  -1    2.30    1.40
   5   5   1    3.90    1.30
   5   5   1    2.70    1.30
   5   5   1    2.40    0.70
   5   5   1    3.20    0.40
  -6  -5  -1  139.09   10.10
  -6  -5  -1  142.79   12.00
   6   5   1  128.29   10.80
   6   5   1  140.29    9.80
   6   5   1  130.69   10.10
  -7  -5  -1  154.68   11.00
  -7  -5  -1  156.58   13.20
   7   5   1  139.69   11.90
   7   5   1  143.49   11.00
  -8  -5  -1   34.30    3.00
  -8  -5  -1   39.60    5.70
   8   5   1   24.70    2.90
   8   5   1   30.10    4.30
  -9  -5  -1    0.80    2.10
  -9  -5  -1    6.90    3.60
   9   5   1    4.60    1.20
 -10  -5  -1   -1.20    2.60
  10   5   1   -0.10    1.00
 -11  -5  -1   56.19    6.90
  11   5   1   34.60    3.90
 -12  -5  -1   15.90    4.50
  12   5   1   10.40    2.00
 -13  -5  -1    0.70    3.80
  13   5   1    3.10    1.70
  10  -6  -1   35.40    4.40
 -10   6   1   34.20    7.30
 -10   6   1   37.20    6.20
   9  -6  -1   33.40    4.00
  -9   6   1   40.80    5.60
  -9   6   1   40.80    6.30
  -9   6   1   36.40    6.60
   8  -6  -1   76.09    7.20
  -8   6   1  104.89    8.60
  -8   6   1   82.29    9.00
  -8   6   1   87.89    9.80
   7  -6  -1  109.99    9.10
  -7   6   1  127.29   10.10
  -7   6   1  109.09   10.40
  -7   6   1  106.69   10.80
   6  -6  -1    4.60    1.40
  -6   6   1    6.80    2.70
  -6   6   1    6.00    3.30
  -6   6   1    7.10    2.50
   5  -6  -1   10.70    1.70
  -5   6   1    6.50    2.20
  -5   6   1    7.20    3.10
  -5   6   1    7.20    2.40
   4  -6  -1   32.40    3.10
  -4   6   1   35.80    4.90
  -4   6   1   33.30    4.10
  -4   6   1   35.00    4.20
   3  -6  -1   55.09    4.70
  -3   6   1   57.99    5.40
  -3   6   1   59.99    5.80
  -3   6   1   60.09    5.50
   2  -6  -1   18.90    2.00
  -2   6   1   18.70    2.70
  -2   6   1   20.40    3.10
  -2   6   1   15.20    2.40
   1  -6  -1   -0.40    0.50
  -1   6   1    0.20    1.40
  -1   6   1   -0.70    1.30
  -1   6   1    0.70    1.00
  -1   6   1   -0.30    0.70
   0  -6  -1  127.29    8.80
   0   6   1  100.49    8.90
   0   6   1  124.29    9.40
   0   6   1  133.19    9.50
   0   6   1  118.59    9.50
   0   6   1  120.39    9.10
  -1  -6  -1  542.55   35.40
   1   6   1  422.36   35.60
   1   6   1  496.55   35.90
   1   6   1  534.75   35.70
   2   6   1   -0.10    0.90
   2   6   1    0.10    0.70
   2   6   1    0.30    0.40
   2   6   1   -0.20    0.70
   3   6   1   48.10    3.50
   3   6   1   37.20    3.00
   3   6   1   30.00    3.30
   3   6   1   37.10    3.70
   4   6   1   20.70    2.50
   4   6   1   20.40    2.70
   4   6   1   19.10    1.90
   5   6   1   99.19    8.10
   5   6   1   97.19    7.50
   5   6   1  106.79    8.20
  -6  -6  -1   32.50    2.80
  -6  -6  -1   30.10    4.80
   6   6   1   29.40    2.80
   6   6   1   31.40    3.90
  -7  -6  -1   99.29    7.40
  -7  -6  -1   96.59    9.60
   7   6   1   92.09    8.30
   7   6   1   93.99    7.40
  -8  -6  -1   75.69    8.50
  -8  -6  -1   73.49    5.70
   8   6   1   68.09    6.90
   8   6   1   67.59    5.70
  -9  -6  -1   16.20    2.30
   9   6   1   17.80    2.30
 -10  -6  -1   14.30    3.90
  10   6   1    9.60    1.80
 -11  -6  -1   31.50    5.40
  11   6   1   30.70    3.50
 -12  -6  -1    4.40    3.50
  12   6   1    4.00    1.60
  10  -7  -1    2.20    2.00
 -10   7   1    9.00    4.20
 -10   7   1    7.80    4.80
   9  -7  -1   25.80    3.70
  -9   7   1   40.60    7.20
  -9   7   1   32.20    5.90
   8  -7  -1   39.40    4.50
  -8   7   1   50.29    6.70
  -8   7   1   47.30    6.00
  -8   7   1   37.50    6.80
   7  -7  -1   28.90    3.50
  -7   7   1   32.10    4.60
  -7   7   1   34.60    6.20
  -7   7   1   29.50    5.20
   6  -7  -1    3.80    1.40
  -6   7   1    2.30    2.40
  -6   7   1    6.00    2.40
  -6   7   1    2.00    2.90
   5  -7  -1   13.70    2.20
  -5   7   1   21.70    3.70
  -5   7   1   23.90    4.60
  -5   7   1   28.60    3.90
   4  -7  -1    2.20    0.90
  -4   7   1   -0.40    1.70
  -4   7   1    0.10    2.30
  -4   7   1    4.00    2.00
   3  -7  -1  130.49    9.90
  -3   7   1  124.79   10.50
  -3   7   1  133.49   10.60
  -3   7   1  136.49   11.10
   2  -7  -1  437.96   30.80
  -2   7   1  446.16   31.80
  -2   7   1  407.46   31.40
  -2   7   1  431.06   31.30
   1  -7  -1    6.50    1.10
  -1   7   1    6.40    1.60
  -1   7   1    5.50    1.70
  -1   7   1   12.40    2.50
   0  -7  -1    4.10    0.80
   0   7   1    4.90    1.50
   0   7   1    3.80    1.30
   0   7   1    3.40    1.60
  -1  -7  -1   19.40    1.80
  -1  -7  -1   21.10    1.90
   1   7   1   22.00    2.40
   1   7   1   20.50    2.90
   2   7   1   24.70    3.20
   2   7   1   30.20    2.80
   3   7   1  157.98   10.90
   3   7   1  156.58   11.30
   3   7   1  125.49   10.40
   4   7   1   88.59    7.40
   4   7   1  106.29    8.30
   4   7   1  110.19    8.00
  -5  -7  -1    1.20    2.80
   5   7   1   -0.20    0.70
   5   7   1    1.70    1.40
   5   7   1   -0.50    1.20
  -6  -7  -1   52.39    6.40
  -6  -7  -1   50.19    4.10
   6   7   1   49.50    4.80
   6   7   1   46.80    4.80
   6   7   1   38.70    3.80
  -7  -7  -1   54.99    6.70
  -7  -7  -1   51.59    4.10
   7   7   1   43.80    4.00
   7   7   1   40.90    5.10
  -8  -7  -1    6.90    3.60
  -8  -7  -1    8.60    1.50
   8   7   1    4.70    1.40
   8   7   1    9.90    2.90
   9   7   1   21.60    2.60
  10   7   1    1.30    1.30
 -11  -7  -1   -1.80    3.30
  11   7   1    1.20    1.40
 -12  -7  -1   -0.90    3.80
  12   7   1    0.70    1.50
   9  -8  -1    3.60    2.10
  -9   8   1    1.10    4.10
  -9   8   1    2.80    3.60
   8  -8  -1    0.40    1.40
  -8   8   1   -2.90    3.80
  -8   8   1    4.30    3.30
  -8   8   1    2.10    3.30
   7  -8  -1   60.69    6.20
  -7   8   1   75.49    8.50
  -7   8   1   81.19    7.80
  -7   8   1   69.49    8.00
   6  -8  -1    0.80    1.20
  -6   8   1    1.30    2.50
  -6   8   1    0.10    2.60
  -6   8   1    0.60    3.40
   5  -8  -1    7.20    1.60
  -5   8   1    9.60    2.80
  -5   8   1    5.60    2.80
  -5   8   1    7.10    3.30
   4  -8  -1   72.59    6.10
  -4   8   1   72.39    7.00
  -4   8   1   71.79    7.60
  -4   8   1   74.09    7.10
   3  -8  -1  215.18   16.30
  -3   8   1  242.58   17.70
  -3   8   1  210.48   16.90
   2  -8  -1  278.47   20.60
  -2   8   1  262.97   21.30
  -2   8   1  296.27   21.20
  -2   8   1  301.17   21.80
   1  -8  -1  223.18   16.10
  -1   8   1  196.28   16.80
  -1   8   1  227.08   16.60
  -1   8   1  239.68   17.20
   0  -8  -1  455.15   32.80
   0   8   1  410.26   33.60
   0   8   1  528.65   34.00
   0   8   1  460.25   33.30
   1   8   1   12.50    1.90
   1   8   1    8.80    2.10
   2   8   1    7.60    1.50
   2   8   1    6.10    1.70
   3   8   1    9.30    1.70
   3   8   1    5.80    1.80
   3   8   1    5.80    0.90
   4   8   1  151.58   12.80
   4   8   1  192.18   13.90
   4   8   1  195.68   13.50
   5   8   1   65.89    6.20
   5   8   1   60.09    5.00
   5   8   1   70.39    5.90
  -6  -8  -1  267.17   19.30
   6   8   1  219.58   17.30
   6   8   1  199.98   16.40
   6   8   1  230.68   17.40
  -7  -8  -1   27.10    5.30
  -7  -8  -1   27.40    2.90
   7   8   1   22.70    3.70
   7   8   1   25.60    2.70
  -8  -8  -1   54.59    4.30
   8   8   1   44.70    5.50
   8   8   1   40.30    4.00
   9   8   1    3.20    1.40
  10   8   1   16.00    2.30
 -11  -8  -1    0.70    3.30
  11   8   1   -1.50    1.30
 -12  -8  -1   -1.70    3.40
  12   8   1    3.30    1.50
   8  -9  -1    1.40    1.90
  -8   9   1   13.50    4.40
  -8   9   1    5.30    4.80
   7  -9  -1    7.40    2.10
  -7   9   1    9.40    4.60
  -7   9   1    6.60    3.40
   6  -9  -1   90.59    8.40
  -6   9   1  112.49   10.00
  -6   9   1  114.69   10.70
   5  -9  -1    1.60    1.40
  -5   9   1    2.30    3.00
  -5   9   1    1.40    2.30
   4  -9  -1  198.58   16.40
  -4   9   1  215.48   17.50
  -4   9   1  238.38   18.20
  -4   9   1  240.48   17.50
   3  -9  -1   70.39    6.10
  -3   9   1   82.59    7.10
  -3   9   1   65.99    7.20
  -3   9   1   83.59    7.90
   2  -9  -1   18.80    2.40
  -2   9   1   18.70    3.50
  -2   9   1   27.70    4.40
  -2   9   1   28.40    3.50
  -1   9   1    7.00    2.30
  -1   9   1   12.30    3.00
  -1   9   1   11.40    2.30
   0   9   1   65.59    5.60
   0   9   1   60.29    6.10
   1   9   1    1.90    1.20
   1   9   1    0.60    1.50
   2   9   1   24.00    2.80
   2   9   1   15.80    2.90
   3   9   1    7.10    2.20
   3   9   1    8.30    1.80
   4   9   1   48.40    4.80
   4   9   1   50.19    5.30
   5   9   1   84.69    6.90
   5   9   1   70.39    5.80
   5   9   1   74.49    7.10
  -6  -9  -1   -1.10    3.40
   6   9   1   -0.80    1.60
   6   9   1   -0.90    0.80
   6   9   1    0.40    1.80
  -7  -9  -1   13.30    2.10
   7   9   1    7.30    1.50
   7   9   1   11.50    2.90
  -8  -9  -1   11.80    2.10
   8   9   1   11.50    3.10
   8   9   1   11.50    1.80
   9   9   1    9.10    1.80
  10   9   1   13.00    2.10
  11   9   1    3.40    1.50
   7 -10  -1    7.90    2.40
  -7  10   1    8.30    3.60
  -7  10   1    4.20    3.50
  -7  10   1    1.90    4.30
   6 -10  -1    4.10    2.00
  -6  10   1   -0.80    3.20
  -6  10   1    0.30    2.90
  -6  10   1    4.30    3.00
   5 -10  -1    1.10    1.70
  -5  10   1    0.40    2.60
  -5  10   1    1.80    3.20
  -5  10   1    6.30    2.90
  -4  10   1   22.80    3.90
  -4  10   1   15.10    3.70
  -4  10   1   30.90    5.60
  -3  10   1   58.29    7.50
  -3  10   1   60.89    6.10
  -3  10   1   48.90    6.40
  -2  10   1    8.50    2.80
  -2  10   1   10.80    2.50
  -2  10   1   17.10    3.90
  -1  10   1    5.80    2.00
  -1  10   1    3.20    2.20
  -1  10   1    8.60    2.80
   0  10   1   -1.50    1.70
   0  10   1    1.40    1.40
   1  10   1   29.50    3.30
   1  10   1   24.80    4.00
   2  10   1  206.68   14.30
   2  10   1  165.38   14.70
   3  10   1   23.00    3.00
   3  10   1   17.50    3.20
   4  10   1    4.80    2.30
   4  10   1    6.50    2.00
   5  10   1    9.30    2.30
   5  10   1    6.80    2.60
   6  10   1  244.38   18.60
   6  10   1  235.38   18.70
  -7 -10  -1  105.39    8.00
   7  10   1   86.69    8.90
  -8 -10  -1  270.07   18.30
   8  10   1  228.78   18.00
   8  10   1  235.48   19.40
   9  10   1    0.20    1.40
  10  10   1   19.10    2.80
  -6  11   1   -0.30    4.20
  -6  11   1    3.90    3.00
  -6  11   1   -0.30    3.00
  -5  11   1    5.90    3.40
  -5  11   1    7.90    3.30
  -5  11   1    7.60    4.60
  -4  11   1   11.00    3.40
  -4  11   1   10.30    4.10
  -4  11   1    8.70    3.10
  -3  11   1    0.70    2.60
  -3  11   1   -0.80    2.80
  -3  11   1   -0.10    2.10
  -2  11   1    7.20    2.40
  -2  11   1    7.30    3.70
  -2  11   1    6.60    3.10
  -1  11   1    7.00    2.30
  -1  11   1    7.20    2.70
   0  11   1   35.10    4.10
   0  11   1   33.30    4.90
   1  11   1   51.59    4.90
   1  11   1   45.10    5.80
   2  11   1   -0.30    1.40
   2  11   1    0.10    2.10
   3  11   1   23.40    3.40
   3  11   1   22.30    4.00
   4  11   1   13.90    3.30
   4  11   1    9.00    2.50
   5  11   1    9.80    3.20
   5  11   1   14.80    3.10
   6  11   1    0.30    2.20
   6  11   1   -1.40    2.20
  -7 -11  -1   15.80    2.60
   7  11   1   17.00    3.70
  -8 -11  -1   15.40    2.80
   8  11   1   16.70    4.20
  -4  12   1    4.10    3.60
  -4  12   1    3.40    2.70
  -4  12   1    3.40    3.90
  -3  12   1   17.70    4.60
  -3  12   1   25.50    5.50
  -3  12   1   21.50    3.90
  -2  12   1    1.40    2.20
  -2  12   1    2.80    2.90
  -1  12   1    8.30    2.50
  -1  12   1    3.40    2.90
   0  12   1   10.00    3.30
   0  12   1   13.30    2.70
   1  12   1   11.20    2.50
   1  12   1   14.30    3.60
   2  12   1    0.10    2.50
   2  12   1    2.00    1.90
   3  12   1   -0.80    1.60
   3  12   1   -1.20    2.40
   4  12   1   42.90    5.80
   4  12   1   30.20    4.50
   5  12   1   -1.80    2.00
   5  12   1    1.00    2.70
   6  12   1    7.00    3.00
   6  12   1    7.00    3.30
  -7 -12  -1    1.30    2.00
   7  12   1    0.90    2.80
  -8 -12  -1    1.80    2.10
   8  12   1    1.50    3.30
  -2  13   1    3.40    2.40
  -2  13   1   -2.40    3.10
  -1  13   1   43.50    5.20
  -1  13   1   30.90    5.70
   0  13   1    2.60    3.40
   0  13   1    4.60    2.20
   1  13   1    1.40    3.00
   1  13   1    6.90    2.40
   2  13   1    2.30    2.10
   2  13   1    0.60    2.90
   3  13   1   -1.20    2.60
   3  13   1    0.90    2.10
   4  13   1    7.10    2.70
   4  13   1    4.70    3.30
   5  13   1    4.10    2.80
   5  13   1    3.00    3.30
   6  13   1    7.50    3.60
   6  13   1    3.90    3.10
   5  13  -2    2.00    2.60
  -5 -13   2    1.40    2.10
   4  13  -2    0.80    2.30
   4  13  -2    2.10    3.40
   3  13  -2    6.00    3.60
   3  13  -2    0.70    2.10
   2  13  -2   51.89    5.40
   2  13  -2   42.20    6.80
   1  13  -2   -2.90    2.70
   1  13  -2    0.20    1.60
   0  13  -2   38.70    4.20
   0  13  -2   26.90    5.40
  -1  13  -2    1.10    3.00
  -1  13  -2    0.90    1.70
  -2  13  -2   39.00    6.20
   7  12  -2   21.40    4.70
  -7 -12   2   25.60    3.80
   6  12  -2    0.40    2.60
  -6 -12   2    3.90    2.30
   5  12  -2   18.90    3.70
  -5 -12   2   13.10    2.70
   4  12  -2   -0.40    2.80
   4  12  -2   -1.10    1.90
   3  12  -2   -0.60    2.60
   3  12  -2    0.20    1.70
   2  12  -2    0.50    1.60
   2  12  -2   -2.50    2.60
   1  12  -2    5.10    2.90
   1  12  -2    5.20    1.80
   0  12  -2   10.60    2.10
   0  12  -2    5.30    3.10
  -1  12  -2    7.00    1.80
  -1  12  -2    4.80    3.10
  -2  12  -2    1.30    1.50
  -2  12  -2   -2.30    2.70
  -3  12  -2    2.60    3.00
  -3  12  -2    5.80    2.10
  -4  12  -2   32.90    4.50
  -4  12  -2   35.50    6.50
  -4  12  -2   38.30    5.90
   8  11  -2   -2.60    2.60
  -8 -11   2    1.10    1.80
   7  11  -2    7.00    3.30
  -7 -11   2    7.40    2.30
   6  11  -2   34.00    5.10
  -6 -11   2   31.90    4.10
   5  11  -2    0.70    2.00
  -5 -11   2    2.30    1.90
   4  11  -2   17.70    4.10
   4  11  -2   15.00    3.00
   3  11  -2    0.60    2.40
   3  11  -2    0.40    1.50
   2  11  -2    2.20    2.40
   2  11  -2    0.60    1.40
   1  11  -2    4.90    1.60
   1  11  -2    5.40    2.40
   0  11  -2    1.10    1.20
   0  11  -2   -1.80    2.10
  -1  11  -2  104.69    8.30
  -1  11  -2   98.39    9.60
  -2  11  -2   -0.70    1.30
  -2  11  -2    0.90    2.30
  -3  11  -2  117.89   11.40
  -3  11  -2  127.99   10.30
  -3  11  -2  136.49   12.00
  -4  11  -2   -0.90    2.70
  -4  11  -2    1.60    1.90
  -4  11  -2    2.00    2.70
  -5  11  -2   23.20    3.70
  -5  11  -2   16.20    4.10
  -5  11  -2   18.50    5.20
  -6  11  -2   11.90    4.10
  -6  11  -2   17.80    3.50
  -6  11  -2   18.20    5.40
   9  10  -2   16.30    4.70
  -9 -10   2    9.30    2.30
   8  10  -2   10.90    3.60
  -8 -10   2   11.60    2.40
   7  10  -2   10.20    3.20
  -7 -10   2   14.00    2.70
   6  10  -2   23.70    4.20
  -6 -10   2   29.30    3.60
   5  10  -2   25.60    3.90
  -5 -10   2   31.30    3.60
   4  10  -2   76.99    7.70
   4  10  -2   77.39    7.00
   3  10  -2    5.10    2.60
   3  10  -2    6.40    1.80
   2  10  -2   41.80    5.60
   2  10  -2   40.60    4.00
   1  10  -2   31.60    4.70
   1  10  -2   32.20    3.30
   0  10  -2   29.60    4.60
   0  10  -2   34.70    3.30
  -1  10  -2    2.50    2.20
  -1  10  -2    2.20    1.20
  -2  10  -2    2.20    2.30
  -2  10  -2    4.30    2.80
  -2  10  -2    2.50    1.40
  -3  10  -2   -2.00    2.30
  -3  10  -2   -0.10    1.30
  -3  10  -2    0.70    2.10
  -4  10  -2   12.00    3.70
  -4  10  -2   13.70    3.50
  -4  10  -2   12.40    2.50
  -5  10  -2   -1.70    2.40
  -5  10  -2   -0.10    3.00
  -5  10  -2    2.10    2.00
  -6  10  -2    1.30    2.10
  -6  10  -2    1.40    3.20
  -6  10  -2   -3.80    2.30
   6 -10   2    0.00    1.50
  -7  10  -2    9.80    3.10
  -7  10  -2    6.50    4.00
   7 -10   2    4.40    2.00
  10   9  -2    6.40    2.00
 -10  -9   2   -0.60    1.90
   9   9  -2    3.70    1.70
   9   9  -2   -0.30    2.90
  -9  -9   2    1.60    1.90
   8   9  -2   25.50    4.70
   8   9  -2   21.80    2.90
  -8  -9   2   26.60    3.40
   7   9  -2   -2.70    2.00
  -7  -9   2    0.90    1.50
   6   9  -2    6.60    2.50
  -6  -9   2   11.30    2.20
   5   9  -2   21.20    3.30
  -5  -9   2   19.60    2.70
   4   9  -2   20.20    3.00
   4   9  -2   19.80    3.60
   3   9  -2   14.70    2.20
   3   9  -2   12.70    3.00
   2   9  -2   27.30    4.10
   2   9  -2   28.60    3.00
   1   9  -2   26.50    4.10
   1   9  -2   33.80    3.10
   0   9  -2  147.39   10.60
   0   9  -2  130.39   11.40
  -1   9  -2   11.20    2.60
  -1   9  -2   13.60    1.90
  -1   9  -2   12.30    3.10
  -2   9  -2   19.10    2.50
  -2   9  -2   19.20    3.60
  -2   9  -2   18.00    3.10
  -3   9  -2   33.40    4.90
  -3   9  -2   22.10    3.80
  -3   9  -2   25.80    3.20
   3  -9   2   22.90    2.60
  -4   9  -2    0.40    1.40
  -4   9  -2   -0.20    1.90
  -4   9  -2   -3.10    2.20
   4  -9   2    0.40    1.00
  -5   9  -2   49.50    6.70
  -5   9  -2   41.80    5.30
  -5   9  -2   40.70    4.80
   5  -9   2   35.50    3.90
  -6   9  -2    7.00    2.70
  -6   9  -2    6.70    3.00
  -6   9  -2   11.50    4.00
   6  -9   2    8.60    1.90
  -7   9  -2    6.10    3.70
  -7   9  -2    5.80    3.10
  -7   9  -2    8.90    3.00
   7  -9   2    2.90    1.70
  -8   9  -2    0.10    2.60
  -8   9  -2    2.40    3.60
   8  -9   2   -0.50    1.50
  11   8  -2  188.98   15.10
 -11  -8   2  212.08   17.60
  10   8  -2    4.20    1.60
 -10  -8   2    1.80    1.90
   9   8  -2   10.80    2.10
   9   8  -2    6.30    3.50
  -9  -8   2    9.20    2.20
   8   8  -2   13.00    2.10
   8   8  -2   11.60    3.60
  -8  -8   2   13.40    2.30
   7   8  -2   81.39    6.70
   7   8  -2   77.69    8.00
  -7  -8   2   88.69    7.00
   6   8  -2    3.00    2.00
   6   8  -2    1.90    1.00
  -6  -8   2    3.00    1.40
   5   8  -2   10.30    2.50
  -5  -8   2   12.10    1.90
   4   8  -2   52.59    5.50
   4   8  -2   51.99    5.00
   3   8  -2    6.20    2.10
   3   8  -2    6.00    1.50
   2   8  -2   -0.70    1.50
   2   8  -2   -0.60    0.80
   1   8  -2   23.70    3.60
   1   8  -2   28.50    2.60
   0   8  -2  156.98   12.70
   0   8  -2  162.08   11.80
  -1   8  -2   42.30    4.70
  -1   8  -2   37.30    3.70
  -1   8  -2   51.59    5.00
   1  -8   2   43.60    3.50
  -2   8  -2    1.20    2.00
  -2   8  -2    1.30    1.10
  -2   8  -2    2.90    1.70
   2  -8   2    2.10    0.80
  -3   8  -2    2.10    1.30
  -3   8  -2    2.40    1.80
  -3   8  -2    4.90    2.30
   3  -8   2    2.50    0.90
  -4   8  -2    2.40    2.20
  -4   8  -2    0.10    1.30
  -4   8  -2    0.90    1.60
   4  -8   2    0.50    0.80
  -5   8  -2   89.59    7.90
  -5   8  -2   85.49    7.60
  -5   8  -2   83.89    8.70
   5  -8   2   83.99    6.90
  -6   8  -2    5.70    2.40
  -6   8  -2    8.00    2.50
  -6   8  -2    6.80    3.20
   6  -8   2    4.90    1.50
  -7   8  -2   34.00    5.90
  -7   8  -2   27.90    4.30
  -7   8  -2   26.20    4.30
   7  -8   2   27.10    3.40
  -8   8  -2    5.40    3.70
  -8   8  -2    8.30    3.10
   8  -8   2    3.30    1.70
  -9   8  -2   22.60    4.60
  -9   8  -2   15.60    4.90
   9  -8   2   10.50    2.50
  11   7  -2    5.70    1.90
 -11  -7   2    2.90    3.60
  10   7  -2   46.90    4.60
 -10  -7   2   47.60    4.80
 -10  -7   2   54.69    7.00
   9   7  -2   10.30    4.00
   9   7  -2   18.10    2.50
  -9  -7   2   15.70    2.50
   8   7  -2    3.20    1.40
   8   7  -2    1.10    2.30
  -8  -7   2    3.70    1.50
   7   7  -2    0.60    1.90
   7   7  -2   -0.70    0.90
  -7  -7   2   -0.20    1.20
   6   7  -2   37.20    4.60
   6   7  -2   39.10    3.50
  -6  -7   2   36.80    3.60
   5   7  -2   52.99    5.40
   5   7  -2   55.59    4.60
  -5  -7   2   56.89    4.80
   4   7  -2   62.19    5.80
   4   7  -2   67.29    6.40
  -4  -7   2   67.99    5.50
   3   7  -2  113.99    9.30
   3   7  -2  109.49    8.60
   2   7  -2  373.26   27.90
   2   7  -2  383.96   27.20
   1   7  -2  339.67   23.60
   1   7  -2  318.47   24.40
   0   7  -2  167.78   12.90
   0   7  -2  165.78   12.40
   0   7  -2  166.38   13.20
   0  -7   2  178.08   12.20
  -1   7  -2   65.49    5.60
  -1   7  -2   65.19    6.00
  -1   7  -2   60.49    5.20
  -1   7  -2   74.49    6.10
   1  -7   2   69.09    5.10
  -2   7  -2    6.50    1.40
  -2   7  -2   10.30    2.50
  -2   7  -2    7.60    2.00
  -2   7  -2    8.20    1.80
   2  -7   2    9.50    1.20
  -3   7  -2   16.20    2.60
  -3   7  -2   13.20    2.90
  -3   7  -2   17.20    2.20
   3  -7   2    9.80    1.50
  -4   7  -2    1.20    1.40
  -4   7  -2   -0.70    1.10
  -4   7  -2   -0.10    1.90
   4  -7   2    0.40    0.80
  -5   7  -2   17.90    2.90
  -5   7  -2   18.10    3.90
  -5   7  -2   14.30    2.70
   5  -7   2   15.00    2.00
  -6   7  -2    6.30    2.40
  -6   7  -2    7.00    3.40
  -6   7  -2    5.60    2.20
   6  -7   2    9.80    1.80
  -7   7  -2   30.80    4.70
  -7   7  -2   32.60    4.50
  -7   7  -2   33.10    5.80
   7  -7   2   37.60    3.60
  -8   7  -2    0.20    3.50
  -8   7  -2    5.30    2.80
   8  -7   2    1.40    1.40
  -9   7  -2    7.40    3.40
  -9   7  -2    2.70    3.40
   9  -7   2    1.30    1.70
 -10   7  -2    7.50    3.80
 -10   7  -2    6.80    4.80
  10  -7   2    4.70    1.90
  12   6  -2    5.00    1.70
 -12  -6   2    4.50    3.90
  11   6  -2   18.80    2.80
 -11  -6   2   17.00    4.40
  10   6  -2   14.60    2.50
 -10  -6   2   18.80    4.40
 -10  -6   2   20.40    2.70
   9   6  -2   -0.80    2.50
   9   6  -2    0.80    1.40
  -9  -6   2    1.10    1.40
   8   6  -2   16.70    2.30
   8   6  -2   23.60    4.30
  -8  -6   2   17.10    2.40
   7   6  -2   -0.60    1.00
   7   6  -2   -1.10    1.80
  -7  -6   2    0.00    1.00
   6   6  -2    9.30    1.50
   6   6  -2    6.00    2.20
  -6  -6   2    9.10    1.60
   5   6  -2   73.39    5.70
   5   6  -2   68.69    6.40
  -5  -6   2   71.59    5.80
   4   6  -2  547.05   39.60
   4   6  -2  529.25   39.20
  -4  -6   2  576.74   39.30
   3   6  -2  864.71   59.99
   3   6  -2  822.72   60.39
   2   6  -2  183.68   13.50
   2   6  -2  175.18   14.10
   2   6  -2  199.58   14.20
   1   6  -2 1167.08   83.99
   1   6  -2 1144.89   84.59
   1   6  -2 1178.18   84.39
  -1  -6   2 1268.77   83.79
   0   6  -2    7.70    1.70
   0   6  -2   14.00    2.20
   0   6  -2   11.20    1.40
   0   6  -2    9.60    1.70
   0  -6   2   12.20    1.20
  -1   6  -2   19.70    2.20
  -1   6  -2   23.70    2.90
  -1   6  -2   25.20    3.00
  -1   6  -2   23.50    2.60
   1  -6   2   27.90    2.10
  -2   6  -2   86.49    6.90
  -2   6  -2   86.79    7.10
  -2   6  -2   80.59    6.40
  -2   6  -2   76.99    6.30
   2  -6   2   73.89    5.80
   2  -6   2   88.09    6.10
  -3   6  -2  376.96   27.00
  -3   6  -2  341.27   26.20
  -3   6  -2  374.66   26.60
  -3   6  -2  322.17   26.20
   3  -6   2  389.66   25.70
   3  -6   2  374.26   26.00
  -4   6  -2    2.60    1.50
  -4   6  -2    1.60    2.30
  -4   6  -2    1.50    2.10
  -4   6  -2    0.50    1.20
   4  -6   2    1.80    0.40
   4  -6   2    0.80    0.70
  -5   6  -2   44.70    4.80
  -5   6  -2   47.20    5.60
  -5   6  -2   55.19    5.10
  -5   6  -2   53.29    6.10
   5  -6   2   49.50    4.20
  -6   6  -2    2.00    1.80
  -6   6  -2    5.20    2.60
  -6   6  -2    3.70    1.70
  -6   6  -2    4.10    2.80
   6  -6   2    3.10    1.10
  -7   6  -2  222.38   18.80
  -7   6  -2  265.27   18.00
  -7   6  -2  215.88   18.00
  -7   6  -2  248.18   19.40
   7  -6   2  215.18   17.20
  -8   6  -2    0.20    2.70
  -8   6  -2    1.40    2.40
  -8   6  -2    0.60    3.20
   8  -6   2    3.80    1.40
  -9   6  -2    0.90    3.50
  -9   6  -2   -0.70    2.40
  -9   6  -2   -3.80    3.50
   9  -6   2   -1.10    1.20
 -10   6  -2    1.20    3.10
 -10   6  -2    3.40    4.20
  10  -6   2    1.60    1.70
 -11   6  -2   12.30    4.50
 -11   6  -2    4.00    4.30
  11  -6   2    4.10    2.00
  12   5  -2    8.40    2.00
 -12  -5   2    4.20    4.70
  11   5  -2    3.50    1.70
 -11  -5   2    5.90    3.60
  10   5  -2   32.90    3.40
 -10  -5   2   32.20    5.50
 -10  -5   2   28.00    3.40
   9   5  -2    0.60    1.00
  -9  -5   2    0.00    2.30
  -9  -5   2    0.90    1.20
   8   5  -2   21.90    4.20
   8   5  -2   18.30    2.40
  -8  -5   2   16.70    2.40
   7   5  -2  119.09    9.00
   7   5  -2  113.39   10.30
  -7  -5   2  120.09    9.10
   6   5  -2    3.30    2.10
   6   5  -2    2.10    0.90
  -6  -5   2    1.00    0.90
   5   5  -2    4.30    1.10
   5   5  -2    6.40    2.00
  -5  -5   2    6.60    1.30
  -5  -5   2    5.50    1.90
   4   5  -2   29.10    2.30
   4   5  -2   26.00    3.20
   4   5  -2   26.10    2.70
  -4  -5   2   34.40    3.50
  -4  -5   2   31.40    2.80
   3   5  -2   58.19    5.00
   3   5  -2   66.09    4.50
   3   5  -2   60.19    5.40
   3   5  -2   58.59    5.30
   3   5  -2   53.19    4.60
   2   5  -2   70.79    5.30
   2   5  -2   71.79    5.80
   2   5  -2   73.69    5.50
   2   5  -2   68.89    6.00
   1   5  -2  319.27   22.50
   1   5  -2  312.47   23.10
   0   5  -2  369.06   28.10
   0   5  -2  409.96   28.30
   0   5  -2  427.06   28.70
   0   5  -2  389.76   28.70
   0  -5   2  392.66   28.10
  -1   5  -2  197.78   14.20
  -1   5  -2  177.38   14.10
  -1   5  -2  200.08   14.70
  -1   5  -2  211.88   14.80
   1  -5   2  203.18   14.10
  -2   5  -2   68.89    5.80
  -2   5  -2   64.09    5.10
  -2   5  -2   64.99    5.10
  -2   5  -2   70.99    5.60
  -2   5  -2   68.79    6.10
   2  -5   2   61.39    4.80
   2  -5   2   69.79    5.00
  -3   5  -2  404.76   27.80
  -3   5  -2  382.46   27.50
  -3   5  -2  404.66   28.60
  -3   5  -2  353.76   27.50
  -3   5  -2  359.26   28.10
   3  -5   2  382.06   27.30
   3  -5   2  399.26   27.10
  -4   5  -2  172.68   14.20
  -4   5  -2  188.28   13.70
  -4   5  -2  192.68   14.60
  -4   5  -2  145.59   13.40
  -4   5  -2  177.18   13.50
   4  -5   2  198.98   12.80
   4  -5   2  182.58   13.20
  -5   5  -2   67.49    6.90
  -5   5  -2   69.19    7.20
  -5   5  -2   67.99    6.10
   5  -5   2   64.89    5.50
   5  -5   2   75.39    5.20
  -6   5  -2   68.89    6.60
  -6   5  -2   68.39    7.60
  -6   5  -2   65.89    7.40
   6  -5   2   78.29    5.50
   6  -5   2   77.39    6.00
  -7   5  -2  122.59   10.30
  -7   5  -2  128.19   11.40
  -7   5  -2  117.19   11.00
   7  -5   2  127.09    9.00
   7  -5   2  117.19    9.40
  -8   5  -2   12.50    3.90
  -8   5  -2   14.60    3.20
  -8   5  -2    8.50    3.60
   8  -5   2   11.10    1.90
  -9   5  -2  257.87   21.00
  -9   5  -2  271.57   21.20
  -9   5  -2  245.38   19.90
   9  -5   2  238.48   18.60
 -10   5  -2   53.39    8.30
 -10   5  -2   51.29    7.10
 -10   5  -2   49.40    7.60
  10  -5   2   49.30    5.00
 -11   5  -2   95.99   11.30
 -11   5  -2  104.29   10.60
 -11   5  -2  115.69   11.80
  11  -5   2   89.89    8.40
  12   4  -2   19.70    3.00
 -12  -4   2   22.70    5.80
  11   4  -2    9.90    2.10
 -11  -4   2    3.00    3.50
  10   4  -2   -0.20    1.10
 -10  -4   2    1.10    2.70
 -10  -4   2    0.20    1.40
   9   4  -2    8.10    1.70
  -9  -4   2   10.30    1.90
  -9  -4   2   11.20    3.20
   8   4  -2   -1.20    2.20
   8   4  -2    0.10    0.80
   8   4  -2    1.20    1.00
  -8  -4   2    0.30    1.00
  -8  -4   2    0.50    2.00
   7   4  -2   -0.10    0.60
   7   4  -2   -1.60    0.70
   7   4  -2    0.10    1.90
  -7  -4   2   -1.40    0.90
   6   4  -2    6.20    1.30
   6   4  -2    5.40    0.90
   6   4  -2    4.10    2.00
  -6  -4   2    5.30    1.30
   5   4  -2   59.89    4.90
   5   4  -2   63.69    4.60
   5   4  -2   61.49    4.70
   5   4  -2   61.29    5.80
  -5  -4   2   58.19    5.60
  -5  -4   2   61.49    5.00
   4   4  -2    3.40    0.60
   4   4  -2    3.80    0.60
   4   4  -2    3.00    1.30
   4   4  -2    3.40    0.90
  -4  -4   2    2.20    0.90
  -4  -4   2    2.80    1.30
   3   4  -2  137.99   10.30
   3   4  -2  139.99    9.80
   3   4  -2  128.69   10.00
  -3  -4   2  140.99   10.10
   2   4  -2    6.30    0.90
   2   4  -2    3.70    1.20
   2   4  -2    3.90    0.90
   1   4  -2   30.30    2.30
   1   4  -2   27.00    2.90
   1   4  -2   32.00    2.70
   1   4  -2   26.00    2.60
   0   4  -2  191.78   13.30
   0   4  -2  163.98   12.80
   0   4  -2  194.38   12.90
   0   4  -2  182.18   13.30
   0   4  -2  170.58   13.20
  -1   4  -2  855.01   57.79
  -1   4  -2  800.62   57.69
  -1   4  -2  835.32   57.99
  -1   4  -2  789.92   57.69
   1  -4   2  785.22   57.29
  -2   4  -2   61.89    5.00
  -2   4  -2   62.19    4.50
  -2   4  -2   71.09    5.70
  -2   4  -2   62.79    4.60
  -2   4  -2   65.99    5.30
   2  -4   2   60.79    4.60
   2  -4   2   52.09    4.40
  -3   4  -2  486.15   34.60
  -3   4  -2  480.05   33.60
  -3   4  -2  501.95   33.90
  -3   4  -2  448.56   34.20
  -3   4  -2  429.06   33.60
   3  -4   2  491.95   33.60
   3  -4   2  470.15   33.30
  -4   4  -2   63.39    5.20
  -4   4  -2   54.19    5.20
  -4   4  -2   48.40    5.60
  -4   4  -2   70.09    6.30
   4  -4   2   61.29    4.80
   4  -4   2   69.39    4.50
  -5   4  -2  145.19   13.10
  -5   4  -2  176.68   12.60
  -5   4  -2  158.08   13.50
  -5   4  -2  155.58   12.60
   5  -4   2  161.18   12.20
   5  -4   2  184.08   11.90
  -6   4  -2   28.90    3.30
  -6   4  -2   22.40    4.40
  -6   4  -2   23.00    4.20
  -6   4  -2   29.60    3.70
   6  -4   2   24.80    2.70
   6  -4   2   28.60    2.30
  -7   4  -2   24.30    3.00
  -7   4  -2   19.90    4.20
  -7   4  -2   19.70    3.20
  -7   4  -2   15.90    3.90
   7  -4   2   19.20    1.80
   7  -4   2   14.30    2.10
  -8   4  -2   78.79    8.40
  -8   4  -2   83.89    8.60
  -8   4  -2   82.09    7.80
   8  -4   2   79.89    6.10
   8  -4   2   79.89    6.60
  -9   4  -2   18.90    3.80
  -9   4  -2   20.00    4.50
  -9   4  -2   11.30    4.00
   9  -4   2   13.80    2.30
   9  -4   2   15.00    1.80
 -10   4  -2   25.60    5.70
 -10   4  -2   16.00    4.90
 -10   4  -2   20.10    4.40
  10  -4   2   17.80    2.70
 -11   4  -2    7.70    4.00
 -11   4  -2    8.20    4.90
 -11   4  -2   11.10    5.00
  11  -4   2    5.40    2.00
 -12   4  -2    1.70    3.80
 -12   4  -2    0.90    4.70
 -12   4  -2    4.70    4.30
  12  -4   2    0.60    1.60
  12   3  -2   21.70    3.10
 -12  -3   2   29.40    6.40
  11   3  -2    0.20    1.30
 -11  -3   2   -3.40    2.90
  10   3  -2   -0.60    1.20
 -10  -3   2   -0.50    2.90
 -10  -3   2   -1.80    1.20
   9   3  -2    1.50    0.90
   9   3  -2    0.50    1.10
  -9  -3   2    1.80    1.10
  -9  -3   2   -0.10    2.50
   8   3  -2    7.40    3.00
   8   3  -2    8.40    1.40
   8   3  -2    7.70    1.60
  -8  -3   2   12.00    1.70
  -8  -3   2    8.10    2.90
   7   3  -2    1.90    2.10
   7   3  -2   -0.10    0.80
   7   3  -2    1.30    0.80
  -7  -3   2    0.90    1.00
  -7  -3   2   -1.20    1.80
   6   3  -2   24.90    2.60
   6   3  -2   23.30    3.80
   6   3  -2   28.10    2.40
  -6  -3   2   29.30    3.00
  -6  -3   2   25.50    2.60
   5   3  -2    9.20    1.30
   5   3  -2    8.90    1.10
   5   3  -2    7.30    2.10
  -5  -3   2    8.30    1.30
  -5  -3   2    9.50    2.10
  -5  -3   2    8.10    1.50
   4   3  -2   45.50    4.50
   4   3  -2   50.89    3.70
   4   3  -2   50.29    3.90
  -4  -3   2   48.50    4.00
  -4  -3   2   53.29    4.40
  -4  -3   2   45.50    4.30
   3   3  -2  268.57   19.00
   3   3  -2  246.38   19.20
   3   3  -2  269.87   19.60
   3   3  -2  273.17   19.00
  -3  -3   2  258.57   19.20
  -3  -3   2  289.27   19.40
   2   3  -2   70.89    5.40
   2   3  -2   78.09    5.80
   2   3  -2   70.69    5.60
   2   3  -2   78.19    5.40
   2   3  -2   77.09    6.10
  -2  -3   2   73.09    5.60
   1   3  -2  383.66   29.70
   1   3  -2  456.95   29.40
   1   3  -2  403.36   29.40
   1   3  -2  411.36   29.30
   0   3  -2  460.55   30.40
   0   3  -2  410.26   30.40
   0   3  -2  415.36   30.50
   0   3  -2  418.56   30.40
  -1   3  -2 3026.50  209.18
  -1   3  -2 3208.78  208.88
  -1   3  -2 2766.12  208.98
  -1   3  -2 2867.91  208.88
  -2   3  -2    4.30    1.70
  -2   3  -2    4.40    1.40
  -2   3  -2    4.40    1.70
  -2   3  -2    4.70    1.00
   2  -3   2    3.50    0.50
  -3   3  -2  185.28   13.70
  -3   3  -2  163.58   13.30
  -3   3  -2  173.88   12.70
  -3   3  -2  159.08   12.80
   3  -3   2  187.08   12.70
   3  -3   2  185.28   12.50
  -4   3  -2   50.89    4.70
  -4   3  -2   63.39    4.70
  -4   3  -2   52.99    5.50
  -4   3  -2   58.39    4.60
  -4   3  -2   54.99    5.20
   4  -3   2   46.20    4.00
   4  -3   2   60.79    4.40
   4  -3   2   62.99    4.10
  -5   3  -2   17.00    2.40
  -5   3  -2   19.50    3.60
  -5   3  -2   14.20    2.40
  -5   3  -2   16.00    2.90
  -5   3  -2   20.90    2.20
   5  -3   2   18.20    1.50
   5  -3   2   15.50    1.80
  -6   3  -2  305.37   20.20
  -6   3  -2  264.07   20.50
  -6   3  -2  267.37   21.10
  -6   3  -2  253.17   21.30
   6  -3   2  268.77   20.00
   6  -3   2  287.37   19.70
  -7   3  -2   -1.30    1.60
  -7   3  -2   -1.00    1.90
  -7   3  -2   -0.10    2.20
  -7   3  -2    1.50    1.40
   7  -3   2   -0.80    0.60
   7  -3   2   -0.70    0.80
  -8   3  -2    2.00    2.80
  -8   3  -2    5.20    2.40
  -8   3  -2    4.90    3.10
   8  -3   2    4.50    1.00
   8  -3   2    2.40    1.10
  -9   3  -2   11.00    3.80
  -9   3  -2    4.00    2.50
  -9   3  -2    0.90    2.90
   9  -3   2    3.60    1.10
   9  -3   2    4.80    1.30
 -10   3  -2   99.49   10.30
 -10   3  -2   86.99    8.90
 -10   3  -2   97.09   10.10
  10  -3   2   80.49    6.80
  10  -3   2   88.99    7.30
 -11   3  -2  118.99   11.00
 -11   3  -2  116.99   11.30
 -11   3  -2  110.99   10.60
  11  -3   2   91.79    8.30
  11  -3   2   92.99    7.90
 -12   3  -2   29.50    5.90
 -12   3  -2   20.40    6.00
  12  -3   2   20.80    3.10
  12   2  -2   47.70    4.80
 -12  -2   2   52.29    8.10
  11   2  -2    0.10    1.20
  11   2  -2    1.60    1.40
 -11  -2   2    2.90    3.60
  10   2  -2   80.19    6.60
  10   2  -2   75.99    6.70
 -10  -2   2   77.79    8.70
 -10  -2   2   85.39    6.80
   9   2  -2    0.70    1.00
   9   2  -2    2.00    1.10
  -9  -2   2    0.60    2.50
  -9  -2   2    1.30    1.20
   8   2  -2  330.37   24.00
   8   2  -2  312.27   24.00
  -8  -2   2  335.97   24.00
  -8  -2   2  352.76   25.40
   7   2  -2   -0.60    0.80
   7   2  -2    0.30    0.70
   7   2  -2    0.30    2.00
  -7  -2   2    0.40    1.90
  -7  -2   2    1.00    1.00
  -7  -2   2   -1.00    1.20
   6   2  -2  108.79    8.00
   6   2  -2  105.79    9.30
   6   2  -2  103.49    8.00
  -6  -2   2  108.89    9.00
  -6  -2   2  103.39    8.00
  -6  -2   2  105.09    8.90
  -6  -2   2  106.79    8.40
   5   2  -2  218.98   16.10
   5   2  -2  232.78   16.00
   5   2  -2  217.18   17.00
  -5  -2   2  228.88   16.10
  -5  -2   2  205.68   16.20
  -5  -2   2  227.08   16.70
   4   2  -2  969.40   71.29
   4   2  -2  965.50   71.89
   4   2  -2 1064.89   71.29
  -4  -2   2 1040.20   71.39
  -4  -2   2 1018.50   71.79
  -4  -2   2  996.80   71.39
   3   2  -2    9.10    1.20
   3   2  -2    9.40    1.80
   3   2  -2   10.80    1.10
  -3  -2   2   13.60    1.90
  -3  -2   2    9.40    1.30
  -3  -2   2   11.10    1.30
   2   2  -2   48.30    3.40
   2   2  -2   40.50    3.40
   2   2  -2   45.20    3.40
   2   2  -2   42.10    3.80
  -2  -2   2   46.50    3.50
  -2  -2   2   45.70    3.40
   1   2  -2   73.29    5.50
   1   2  -2   76.19    5.70
   1   2  -2   74.69    5.90
   1   2  -2   80.89    5.60
  -1  -2   2   76.29    5.60
   0   2  -2  623.64   43.80
   0   2  -2  579.34   43.90
   0   2  -2  590.64   43.90
   0   2  -2  686.93   43.90
  -1   2  -2  731.83   52.99
  -1   2  -2  806.02   52.89
  -1   2  -2  746.13   53.19
  -1   2  -2  708.63   53.09
  -2   2  -2  282.57   17.90
  -2   2  -2  247.38   18.20
  -2   2  -2  231.18   18.10
  -2   2  -2  261.27   18.40
   2  -2   2  226.18   17.60
  -3   2  -2  354.06   26.40
  -3   2  -2  376.56   25.70
  -3   2  -2  355.66   26.10
  -3   2  -2  341.07   25.70
  -3   2  -2  400.16   26.30
   3  -2   2  380.06   25.40
   3  -2   2  367.26   25.60
   3  -2   2  315.07   25.40
  -4   2  -2   15.20    2.00
  -4   2  -2   18.50    1.80
  -4   2  -2   13.10    2.70
  -4   2  -2   17.30    2.50
  -4   2  -2   17.10    2.10
   4  -2   2   17.30    1.60
   4  -2   2   15.60    1.30
   4  -2   2   18.80    1.40
  -5   2  -2  164.08   13.60
  -5   2  -2  166.38   13.10
  -5   2  -2  179.88   12.40
  -5   2  -2  160.18   12.70
   5  -2   2  160.88   12.30
   5  -2   2  178.48   12.10
  -6   2  -2  283.77   21.20
  -6   2  -2  263.97   21.90
  -6   2  -2  272.47   21.60
  -6   2  -2  295.97   20.60
  -6   2  -2  319.47   20.80
   6  -2   2  284.87   20.40
   6  -2   2  274.97   20.60
  -7   2  -2   55.29    4.30
  -7   2  -2   40.00    5.40
  -7   2  -2   43.20    4.80
  -7   2  -2   48.70    4.00
  -7   2  -2   41.50    5.90
   7  -2   2   42.00    3.90
   7  -2   2   43.90    3.60
  -8   2  -2   44.20    6.00
  -8   2  -2   52.89    6.80
  -8   2  -2   52.49    5.70
   8  -2   2   53.59    4.40
   8  -2   2   48.90    4.10
  -9   2  -2   -4.30    2.50
  -9   2  -2    1.40    2.60
  -9   2  -2   -0.90    2.00
   9  -2   2    2.10    0.90
   9  -2   2   -1.00    0.80
 -10   2  -2    3.10    3.50
 -10   2  -2    4.10    3.60
 -10   2  -2    7.00    3.00
  10  -2   2    2.60    1.20
  10  -2   2    5.10    1.50
 -11   2  -2    5.80    4.20
 -11   2  -2   11.80    3.90
 -11   2  -2    1.80    3.90
  11  -2   2    5.90    1.70
  11  -2   2    8.10    1.60
 -12   2  -2   11.10    4.40
 -12   2  -2    4.40    3.60
 -12   2  -2    7.30    4.30
  12  -2   2    1.00    1.40
  12  -2   2    3.90    1.50
  12   1  -2    3.80    1.60
  12   1  -2    6.40    1.80
 -12  -1   2    2.50    4.70
  11   1  -2   13.50    2.20
  11   1  -2    9.20    2.00
 -11  -1   2   13.30    4.80
  10   1  -2    2.00    1.30
  10   1  -2    1.90    1.30
 -10  -1   2   -0.80    1.60
 -10  -1   2   -1.50    3.30
   9   1  -2    4.20    1.30
   9   1  -2    6.80    1.50
  -9  -1   2    6.90    1.60
  -9  -1   2    6.10    3.10
   8   1  -2   43.10    3.70
   8   1  -2   36.00    3.70
  -8  -1   2   52.79    6.20
  -8  -1   2   42.20    4.60
  -8  -1   2   38.10    3.80
   7   1  -2  412.56   30.80
   7   1  -2  442.56   32.40
   7   1  -2  427.46   30.90
  -7  -1   2  419.56   31.80
  -7  -1   2  451.65   30.90
  -7  -1   2  433.66   31.40
  -7  -1   2  427.56   32.00
   6   1  -2   55.39    4.30
   6   1  -2   48.20    4.30
   6   1  -2   57.49    5.90
  -6  -1   2   51.09    5.40
  -6  -1   2   51.69    4.30
  -6  -1   2   52.79    4.90
  -6  -1   2   54.09    5.30
   5   1  -2   38.90    3.20
   5   1  -2   37.30    3.20
   5   1  -2   37.80    4.40
  -5  -1   2   39.70    3.20
  -5  -1   2   33.40    3.90
  -5  -1   2   37.00    4.20
  -5  -1   2   35.10    3.50
   4   1  -2   20.20    2.90
   4   1  -2   15.20    1.60
   4   1  -2   16.40    1.60
  -4  -1   2   17.60    2.40
  -4  -1   2   16.90    2.40
  -4  -1   2   17.70    2.00
  -4  -1   2   16.80    1.80
   3   1  -2    1.30    0.60
   3   1  -2    1.00    1.40
   3   1  -2    1.10    0.50
  -3  -1   2    3.10    1.20
  -3  -1   2    2.00    0.80
  -3  -1   2    2.10    0.70
   2   1  -2 2859.51  190.28
   2   1  -2 2620.44  190.58
   2   1  -2 2549.04  190.28
  -2  -1   2 2749.12  190.28
  -2  -1   2 2750.12  190.48
   1   1  -2  155.08   10.60
   1   1  -2  150.18   10.60
   1   1  -2  136.49   10.80
  -1  -1   2  150.18   10.60
   0   1  -2 2260.37  152.28
   0   1  -2 2063.09  152.18
   0   1  -2 2105.09  152.08
   0   1  -2 2173.88  152.08
   0  -1   2 2219.68  152.18
  -1   1  -2  206.48   13.50
  -1   1  -2  166.28   13.50
  -1   1  -2  201.08   13.70
  -1   1  -2  183.38   13.80
  -2   1  -2   74.99    4.80
  -2   1  -2   66.39    5.00
  -2   1  -2   61.79    4.80
  -2   1  -2   61.69    5.20
  -2   1  -2   67.19    4.80
  -2   1  -2   72.49    5.50
   2  -1   2   62.79    4.70
   2  -1   2   57.49    4.70
  -3   1  -2    3.00    0.70
  -3   1  -2    1.50    0.90
  -3   1  -2    2.70    1.40
  -3   1  -2    2.40    1.60
  -3   1  -2    0.90    1.00
  -3   1  -2    2.50    1.20
   3  -1   2    3.50    0.40
   3  -1   2    2.20    0.40
  -4   1  -2   42.80    4.60
  -4   1  -2   40.70    4.10
  -4   1  -2   44.20    3.40
  -4   1  -2   44.30    3.50
   4  -1   2   46.80    3.30
   4  -1   2   43.60    3.50
   4  -1   2   46.00    3.20
  -5   1  -2    7.00    1.00
  -5   1  -2    9.80    1.70
  -5   1  -2    9.40    1.20
  -5   1  -2    6.00    1.80
  -5   1  -2    6.80    2.30
   5  -1   2    8.30    0.90
   5  -1   2    6.40    0.70
   5  -1   2    7.60    1.00
  -6   1  -2  329.97   25.10
  -6   1  -2  345.67   24.50
  -6   1  -2  362.86   24.60
  -6   1  -2  338.77   25.90
  -6   1  -2  351.06   25.60
   6  -1   2  330.67   24.60
   6  -1   2  343.07   24.40
  -7   1  -2   90.09    8.40
  -7   1  -2   86.69    8.90
  -7   1  -2  102.09    7.20
  -7   1  -2   87.09    8.00
  -7   1  -2  105.69    7.30
   7  -1   2   86.79    7.00
   7  -1   2   92.79    7.20
  -8   1  -2   79.99    7.30
  -8   1  -2   76.59    7.90
  -8   1  -2   77.69    7.60
   8  -1   2   75.09    6.10
   8  -1   2   75.59    5.80
  -9   1  -2    2.90    2.90
  -9   1  -2    2.30    2.60
  -9   1  -2    4.30    2.50
   9  -1   2    0.60    0.90
   9  -1   2    0.90    0.90
 -10   1  -2   65.79    7.20
 -10   1  -2   73.99    8.20
 -10   1  -2   73.79    8.10
  10  -1   2   62.09    5.40
  10  -1   2   56.99    5.10
 -11   1  -2    0.60    2.80
 -11   1  -2    3.40    3.50
 -11   1  -2    1.10    3.40
  11  -1   2    2.10    1.30
  11  -1   2    0.50    1.20
 -12   1  -2   29.70    6.20
 -12   1  -2   20.70    5.00
 -12   1  -2   20.00    5.30
  12  -1   2   24.30    2.90
  12  -1   2   22.20    3.10
 -13   1  -2   -2.10    4.00
  13  -1   2    1.40    1.70
  13  -1   2    1.10    1.70
  12   0  -2   58.19    5.30
  12   0  -2   53.09    5.60
 -12   0   2   69.89    9.10
  11   0  -2   37.00    4.30
  11   0  -2   47.70    4.30
 -11   0   2   48.70    7.50
  10   0  -2    9.00    1.90
  10   0  -2   10.70    2.00
 -10   0   2   14.00    2.40
 -10   0   2   16.30    4.60
 -10   0   2   13.60    3.00
   9   0  -2   -0.90    0.90
   9   0  -2    0.80    1.00
  -9   0   2    0.00    2.80
  -9   0   2   -2.30    1.30
   8   0  -2   21.60    2.50
   8   0  -2   21.50    2.40
  -8   0   2   22.20    4.30
  -8   0   2   22.80    3.80
  -8   0   2   22.90    3.50
  -8   0   2   22.00    2.70
   7   0  -2   17.80    2.10
   7   0  -2   17.90    2.10
  -7   0   2   17.10    2.10
  -7   0   2   16.70    3.70
  -7   0   2   15.30    2.80
  -7   0   2   17.70    3.40
   6   0  -2  290.77   21.90
   6   0  -2  268.97   20.50
   6   0  -2  283.27   20.70
  -6   0   2  316.47   21.80
  -6   0   2  269.17   21.40
  -6   0   2  293.27   20.70
  -6   0   2  286.07   21.20
   5   0  -2   64.69    5.30
   5   0  -2   67.89    5.40
  -5   0   2   70.89    5.90
  -5   0   2   71.59    5.40
  -5   0   2   78.79    6.40
  -5   0   2   66.79    6.20
   4   0  -2  351.66   24.20
   4   0  -2  326.37   24.10
   4   0  -2  335.87   24.90
  -4   0   2  349.37   24.70
  -4   0   2  338.37   24.20
  -4   0   2  347.87   24.40
  -4   0   2  314.07   24.60
   3   0  -2  420.16   32.00
   3   0  -2  420.96   32.60
   3   0  -2  497.25   32.10
  -3   0   2  464.05   32.20
  -3   0   2  461.85   32.40
  -3   0   2  465.55   32.10
  -3   0   2  426.46   32.40
   2   0  -2  391.86   30.30
   2   0  -2  400.66   30.80
   2   0  -2  461.05   30.40
  -2   0   2  437.16   30.40
  -2   0   2  425.96   30.70
  -2   0   2  458.55   30.60
   1   0  -2  139.69   10.00
   1   0  -2  148.29   10.00
   1   0  -2  131.29   10.30
  -1   0   2  138.69   10.00
  -1   0   2  150.28   10.10
  -1   0   2  125.69   10.10
   0   0  -2  203.98   15.10
   0   0  -2  219.48   14.90
   0   0  -2  209.78   14.90
   0   0   2  219.18   14.90
   0   0   2  218.88   14.90
   0   0   2  188.68   14.90
  -1   0  -2 4497.15  308.57
  -1   0  -2 4599.54  309.07
  -1   0  -2 4347.47  308.57
   1   0   2 4449.75  308.57
   1   0   2 4057.59  308.47
  -2   0  -2   69.49    6.20
  -2   0  -2   72.69    5.40
  -2   0  -2   73.89    5.40
  -2   0  -2   71.39    5.60
   2   0   2   68.59    5.10
   2   0   2   73.39    5.20
  -3   0  -2 1561.74  124.29
  -3   0  -2 1633.34  123.49
  -3   0  -2 1712.13  123.39
  -3   0  -2 1863.01  123.39
  -3   0  -2 1715.23  123.39
   3   0   2 1875.51  122.99
   3   0   2 1876.01  122.99
  -4   0  -2  116.79    9.80
  -4   0  -2  130.39   10.00
  -4   0  -2  127.39    9.20
  -4   0  -2  128.29    9.20
  -4   0  -2  126.19    9.90
   4   0   2  121.99    9.30
   4   0   2  139.19    9.20
   4   0   2  133.69    9.20
  -5   0  -2  940.41   63.59
  -5   0  -2  841.12   64.19
  -5   0  -2  934.51   64.79
  -5   0  -2  914.91   64.39
  -5   0  -2  920.01   63.59
   5   0   2  960.30   63.59
   5   0   2  810.32   63.49
   5   0   2  902.41   63.69
  -6   0  -2  152.18   11.70
  -6   0  -2  157.88   12.00
  -6   0  -2  130.89   12.10
  -6   0  -2  151.58   10.90
  -6   0  -2  155.58   10.80
   6   0   2  148.09   11.00
   6   0   2  148.79   10.80
  -7   0  -2  198.88   13.30
  -7   0  -2  177.48   14.20
  -7   0  -2  185.98   14.60
  -7   0  -2  172.48   14.80
  -7   0  -2  196.98   13.40
   7   0   2  171.78   13.20
   7   0   2  171.68   13.30
  -8   0  -2   15.60    3.30
  -8   0  -2   17.80    3.30
  -8   0  -2   21.30    4.20
   8   0   2   14.30    1.80
   8   0   2   12.90    1.60
  -9   0  -2   -1.10    2.10
  -9   0  -2   -1.80    2.30
  -9   0  -2   -0.60    2.60
   9   0   2    1.90    0.80
   9   0   2    1.30    0.80
 -10   0  -2    6.50    3.40
 -10   0  -2    1.20    3.00
 -10   0  -2    4.20    2.70
  10   0   2    2.50    1.10
  10   0   2    2.60    1.10
 -11   0  -2    5.90    3.30
 -11   0  -2    8.40    3.90
 -11   0  -2    6.10    3.60
  11   0   2    5.00    1.50
  11   0   2    4.80    1.40
 -12   0  -2   15.50    4.80
 -12   0  -2   12.90    4.70
  12   0   2   13.90    2.40
  12   0   2   16.90    2.40
 -13   0  -2    4.80    4.30
  13   0   2   -2.70    1.50
  13   0   2   -0.90    1.50
  12  -1  -2   10.20    2.30
  12  -1  -2    9.90    2.10
 -12   1   2   21.70    6.00
  11  -1  -2   88.59    7.20
  11  -1  -2   82.79    7.60
 -11   1   2  105.89   11.00
  10  -1  -2    0.50    1.20
  10  -1  -2    1.80    1.20
 -10   1   2    3.00    2.20
 -10   1   2    1.60    1.90
 -10   1   2   -2.70    3.10
   9  -1  -2  102.39    8.30
   9  -1  -2   88.39    7.90
  -9   1   2  112.89    8.50
  -9   1   2   99.49    9.80
  -9   1   2  108.99   10.70
  -9   1   2  107.99    8.80
  -9   1   2  107.59    9.40
   8  -1  -2   -0.20    0.90
   8  -1  -2    1.40    0.90
  -8   1   2    0.00    1.90
  -8   1   2    0.00    1.10
  -8   1   2    0.60    2.70
  -8   1   2    2.40    2.40
  -8   1   2    0.10    1.70
   7  -1  -2  115.99    9.10
   7  -1  -2  106.79    8.80
  -7   1   2  129.79    9.10
  -7   1   2  123.99    9.90
  -7   1   2  113.99   10.10
  -7   1   2  119.29   10.40
   6  -1  -2  632.74   43.70
   6  -1  -2  569.24   43.50
   6  -1  -2  587.34   45.10
  -6   1   2  633.44   44.70
  -6   1   2  603.24   44.50
  -6   1   2  594.74   43.30
  -6   1   2  665.23   43.70
  -6   1   2  620.64   44.30
   5  -1  -2  211.18   15.10
   5  -1  -2  193.68   14.90
   5  -1  -2  196.28   16.00
  -5   1   2  221.28   15.10
  -5   1   2  205.88   15.60
  -5   1   2  206.58   15.80
  -5   1   2  221.18   16.00
  -5   1   2  201.18   14.70
   4  -1  -2 2232.78  166.08
   4  -1  -2 2462.55  166.28
  -4   1   2 2211.48  165.98
  -4   1   2 2343.87  166.78
  -4   1   2 2540.95  166.68
  -4   1   2 2451.45  166.28
  -4   1   2 2287.97  166.78
   3  -1  -2   89.59    7.00
   3  -1  -2   90.99    7.90
   3  -1  -2  103.79    7.20
  -3   1   2   98.19    7.20
  -3   1   2   89.19    7.00
  -3   1   2  110.29    7.60
  -3   1   2   91.59    7.70
  -3   1   2  103.49    7.70
   2  -1  -2  758.92   54.69
   2  -1  -2  723.33   54.09
   2  -1  -2  788.62   54.19
  -2   1   2  742.33   54.49
  -2   1   2  807.62   54.49
  -2   1   2  808.22   54.19
  -2   1   2  744.23   54.09
   1  -1  -2 3350.56  235.88
   1  -1  -2 3423.96  236.18
  -1   1   2 3221.58  235.78
  -1   1   2 3301.87  235.98
  -1   1   2 3337.07  235.78
  -1   1   2 3495.15  235.98
   0  -1  -2 7199.38  487.15
   0  -1  -2 7215.38  487.35
   0  -1  -2 6718.03  487.25
   0   1   2 7020.70  487.65
   0   1   2 6081.69  487.15
   0   1   2 6836.72  487.45
   0   1   2 7462.95  487.45
  -1  -1  -2  933.61   67.39
  -1  -1  -2  981.50   67.69
   1   1   2  874.91   67.29
   1   1   2 1015.40   67.39
   1   1   2  977.30   67.39
   1   1   2 1000.40   67.39
   1   1   2  921.91   67.39
  -2  -1  -2  880.11   63.69
  -2  -1  -2  917.61   63.59
  -2  -1  -2  907.41   64.19
   2   1   2  911.21   63.39
   2   1   2  933.81   63.49
   2   1   2  878.81   63.29
   2   1   2  872.81   63.29
  -3  -1  -2  253.47   19.40
  -3  -1  -2  271.47   20.00
  -3  -1  -2  260.87   20.70
  -3  -1  -2  257.77   19.90
   3   1   2  291.47   19.50
   3   1   2  304.27   19.50
   3   1   2  288.97   19.90
  -4  -1  -2   75.99    7.70
  -4  -1  -2   83.69    6.70
  -4  -1  -2   78.79    6.60
  -4  -1  -2   77.59    5.90
  -4  -1  -2   80.19    6.80
   4   1   2   84.59    6.60
   4   1   2   91.09    6.00
   4   1   2   82.79    6.00
  -5  -1  -2  184.88   14.30
  -5  -1  -2  194.28   13.60
  -5  -1  -2  170.18   15.60
  -5  -1  -2  190.58   14.40
   5   1   2  216.08   13.70
   5   1   2  172.28   13.60
   5   1   2  198.88   13.70
   5   1   2  195.48   14.40
  -6  -1  -2  185.78   13.90
  -6  -1  -2  186.88   12.90
  -6  -1  -2  187.38   13.90
   6   1   2  181.58   14.00
   6   1   2  190.28   13.00
   6   1   2  189.88   13.10
   6   1   2  150.68   13.00
  -7  -1  -2    0.40    1.50
  -7  -1  -2    0.60    2.00
  -7  -1  -2    1.90    0.70
  -7  -1  -2   -0.70    2.20
   7   1   2    3.80    0.80
   7   1   2    0.80    0.60
  -8  -1  -2   10.90    3.20
  -8  -1  -2    9.80    2.80
  -8  -1  -2   11.20    2.70
   8   1   2   10.20    1.40
   8   1   2    7.20    1.30
  -9  -1  -2    0.00    2.20
  -9  -1  -2    0.30    2.00
  -9  -1  -2    0.50    2.50
   9   1   2   -0.90    0.60
   9   1   2   -0.40    0.80
 -10  -1  -2   -1.00    2.60
 -10  -1  -2    2.50    3.20
 -10  -1  -2   -1.20    2.40
  10   1   2    0.70    0.80
  10   1   2    0.30    0.90
 -11  -1  -2   63.29    7.40
 -11  -1  -2   69.39    7.90
 -11  -1  -2   62.39    8.00
  11   1   2   54.19    5.00
  11   1   2   58.49    5.00
 -12  -1  -2   -4.60    3.00
 -12  -1  -2    1.60    3.70
  12   1   2    0.90    1.20
  12   1   2   -0.70    1.10
 -13  -1  -2   14.70    4.90
  13   1   2    5.30    1.90
  13   1   2    5.50    1.80
 -12   2   2    9.30    4.90
  11  -2  -2   11.10    2.30
 -11   2   2   16.20    5.30
  10  -2  -2   21.00    2.80
  10  -2  -2   24.70    3.30
 -10   2   2   27.50    4.30
 -10   2   2   27.40    6.00
 -10   2   2   27.50    3.60
   9  -2  -2    4.70    1.30
   9  -2  -2    6.50    1.70
  -9   2   2    5.40    2.90
  -9   2   2    7.10    2.50
  -9   2   2    3.90    2.00
  -9   2   2    9.60    3.60
   8  -2  -2    2.10    1.00
   8  -2  -2    2.90    1.20
  -8   2   2    3.20    2.40
  -8   2   2    2.40    2.20
  -8   2   2    2.40    2.70
  -8   2   2    4.10    2.00
  -8   2   2    2.90    1.70
   7  -2  -2   65.39    5.50
   7  -2  -2   58.99    5.20
  -7   2   2   69.19    7.10
  -7   2   2   64.99    5.70
  -7   2   2   70.89    6.00
  -7   2   2   69.99    6.60
  -7   2   2   66.89    6.80
   6  -2  -2    5.70    1.20
   6  -2  -2    6.40    1.10
  -6   2   2    9.90    1.70
  -6   2   2   13.50    2.80
  -6   2   2    6.80    1.80
  -6   2   2    3.00    2.10
  -6   2   2    8.00    2.40
   5  -2  -2   70.69    6.50
   5  -2  -2   61.69    5.10
   5  -2  -2   65.59    5.40
  -5   2   2   64.89    6.40
  -5   2   2   69.49    5.40
  -5   2   2   63.59    6.00
  -5   2   2   69.99    4.80
  -5   2   2   68.99    5.80
  -5   2   2   60.89    6.10
   4  -2  -2    2.80    0.80
   4  -2  -2    3.10    0.60
   4  -2  -2    2.80    1.50
  -4   2   2    2.50    0.40
  -4   2   2    4.30    1.60
  -4   2   2    1.20    1.40
  -4   2   2    2.10    0.90
  -4   2   2    3.00    1.30
  -4   2   2    3.20    1.40
   3  -2  -2 3404.26  224.18
   3  -2  -2 2977.10  223.98
   3  -2  -2 3129.69  224.68
  -3   2   2 3193.18  224.18
  -3   2   2 3281.97  224.68
  -3   2   2 3349.76  223.88
  -3   2   2 3036.90  224.58
  -3   2   2 3111.99  224.38
   2  -2  -2   65.39    5.80
   2  -2  -2   57.99    4.80
   2  -2  -2   69.59    5.00
  -2   2   2   68.29    4.80
  -2   2   2   69.49    5.30
  -2   2   2   61.69    5.40
  -2   2   2   69.89    5.10
  -2   2   2   65.49    5.50
   1  -2  -2  155.78   10.80
   1  -2  -2  157.88   11.20
  -1   2   2  132.49   10.90
  -1   2   2  149.79   10.80
  -1   2   2  146.19   10.90
  -1   2   2  158.98   10.60
  -1   2   2  140.99   11.00
   0  -2  -2   12.10    1.60
   0  -2  -2    9.50    0.90
   0  -2  -2    8.60    1.00
   0   2   2    9.60    1.10
   0   2   2    9.20    1.10
   0   2   2    9.60    1.20
   0   2   2    9.70    0.80
   0   2   2    7.60    1.00
  -1  -2  -2 6211.98  443.46
  -1  -2  -2 6361.96  443.66
  -1  -2  -2 6373.76  443.56
   1   2   2 6353.76  443.36
   1   2   2 6177.38  443.56
   1   2   2 5900.01  443.26
   1   2   2 6419.96  443.66
   1   2   2 6672.53  443.66
  -2  -2  -2 1934.21  121.09
  -2  -2  -2 1611.94  121.29
   2   2   2 1590.84  120.99
   2   2   2 1778.12  120.89
   2   2   2 1680.03  120.99
   2   2   2 1720.53  120.89
  -3  -2  -2 1538.85  104.99
  -3  -2  -2 1287.97  104.19
  -3  -2  -2 1433.46  104.39
   3   2   2 1435.16  103.99
   3   2   2 1510.35  103.99
   3   2   2 1496.05  104.19
   3   2   2 1636.64  103.89
  -4  -2  -2  218.18   15.80
  -4  -2  -2  203.48   16.80
  -4  -2  -2  212.58   16.10
  -4  -2  -2  211.78   15.30
   4   2   2  207.58   15.40
   4   2   2  218.18   15.80
   4   2   2  235.38   15.40
  -5  -2  -2   46.10    5.60
  -5  -2  -2   45.50    3.80
  -5  -2  -2   48.60    4.60
   5   2   2   53.89    4.70
   5   2   2   49.30    4.00
   5   2   2   57.69    3.90
   5   2   2   56.59    3.90
  -6  -2  -2  130.29   12.00
  -6  -2  -2  130.29    9.60
  -6  -2  -2  138.09   10.60
  -6  -2  -2  136.19   10.60
   6   2   2  112.69    9.70
   6   2   2  143.09    9.70
   6   2   2  147.09    9.80
   6   2   2  134.39   10.60
  -7  -2  -2  193.98   18.40
  -7  -2  -2  215.88   16.90
  -7  -2  -2  251.07   17.00
  -7  -2  -2  219.48   15.80
   7   2   2  226.38   15.90
   7   2   2  216.38   15.90
  -8  -2  -2  221.58   17.30
  -8  -2  -2  221.88   16.00
  -8  -2  -2  246.28   17.90
  -8  -2  -2  235.28   17.40
   8   2   2  203.68   16.10
   8   2   2  219.08   16.10
  -9  -2  -2   -0.20    2.40
  -9  -2  -2    0.70    2.20
  -9  -2  -2    5.10    2.60
   9   2   2    4.20    0.90
   9   2   2    2.40    1.00
 -10  -2  -2    7.50    3.40
 -10  -2  -2    2.60    2.70
 -10  -2  -2    6.70    2.90
  10   2   2    3.40    1.30
  10   2   2    3.90    1.10
 -11  -2  -2   38.60    6.50
 -11  -2  -2   53.09    7.10
  11   2   2   40.80    4.00
  11   2   2   44.90    4.00
 -12  -2  -2    7.10    3.90
  12   2   2   12.60    2.10
  12   2   2   13.00    2.10
 -13  -2  -2   18.10    5.40
  13   2   2   18.00    2.60
  11  -3  -2   -1.60    1.60
 -11   3   2   -5.60    4.00
  10  -3  -2    1.80    1.50
 -10   3   2   -0.40    2.20
 -10   3   2    4.70    3.60
 -10   3   2   -2.70    3.40
 -10   3   2    2.20    2.80
   9  -3  -2   37.30    4.00
   9  -3  -2   33.80    3.40
  -9   3   2   45.80    5.10
  -9   3   2   28.70    5.30
  -9   3   2   33.40    4.30
  -9   3   2   44.40    6.50
   8  -3  -2   42.20    4.20
   8  -3  -2   38.00    3.70
  -8   3   2   64.39    6.70
  -8   3   2   44.00    5.10
  -8   3   2   48.70    5.90
  -8   3   2   49.10    4.60
   7  -3  -2  102.29    8.40
   7  -3  -2  113.79    8.80
  -7   3   2  118.29   10.40
  -7   3   2  111.59    9.00
  -7   3   2  113.99   10.10
  -7   3   2  121.49    9.40
   6  -3  -2   15.20    1.60
   6  -3  -2    9.70    1.70
  -6   3   2   11.10    2.20
  -6   3   2   17.50    2.80
  -6   3   2   20.60    3.80
  -6   3   2   14.00    3.10
   5  -3  -2    7.10    1.30
   5  -3  -2    5.50    1.00
  -5   3   2    8.50    2.60
  -5   3   2    7.50    1.90
  -5   3   2    9.30    1.70
  -5   3   2    9.80    2.50
   4  -3  -2   49.30    4.30
   4  -3  -2   60.59    5.50
   4  -3  -2   54.29    4.60
  -4   3   2   64.49    4.20
  -4   3   2   57.29    5.00
  -4   3   2   55.09    4.70
  -4   3   2   53.49    5.40
  -4   3   2   54.99    5.40
   3  -3  -2  119.89    9.10
   3  -3  -2  131.49   10.10
   3  -3  -2  128.59    9.50
  -3   3   2  120.89    9.70
  -3   3   2  119.99    9.90
  -3   3   2  122.69    9.50
  -3   3   2  143.29    9.10
   2  -3  -2  151.08   10.90
   2  -3  -2  161.48   11.40
  -2   3   2  167.68   10.60
  -2   3   2  125.79   11.20
  -2   3   2  137.39   11.20
  -2   3   2  144.19   11.10
  -2   3   2  147.79   11.00
   1  -3  -2  114.19    8.30
   1  -3  -2  117.49    8.80
  -1   3   2  103.49    8.60
  -1   3   2  123.99    8.20
  -1   3   2  105.79    8.60
  -1   3   2  113.79    8.50
  -1   3   2  109.79    8.40
   0  -3  -2  159.58   11.50
   0  -3  -2  160.08   11.10
   0   3   2  161.38   10.80
   0   3   2  149.79   11.20
   0   3   2  148.69   11.30
   0   3   2  150.28   11.30
   0   3   2  143.39   11.20
  -1  -3  -2   24.10    2.80
  -1  -3  -2   23.60    2.00
  -1  -3  -2   24.90    2.00
   1   3   2   23.10    2.30
   1   3   2   23.50    2.20
   1   3   2   26.60    1.80
   1   3   2   23.70    2.00
  -2  -3  -2   50.29    4.50
  -2  -3  -2   44.20    3.70
   2   3   2   52.89    3.60
   2   3   2   50.29    3.70
   2   3   2   46.10    3.90
   2   3   2   49.99    3.80
  -3  -3  -2    1.20    1.50
  -3  -3  -2    4.80    2.20
  -3  -3  -2    2.70    1.00
   3   3   2    3.40    0.50
   3   3   2    2.50    0.90
   3   3   2    1.80    0.60
   3   3   2    1.80    0.70
  -4  -3  -2  139.99   10.90
  -4  -3  -2  127.89    9.80
  -4  -3  -2  130.69   10.30
   4   3   2  133.79    9.90
   4   3   2  130.69    9.70
   4   3   2  122.49    9.60
   4   3   2  135.39    9.40
  -5  -3  -2    4.00    0.70
  -5  -3  -2    3.60    2.00
  -5  -3  -2    4.90    1.50
   5   3   2    4.40    0.70
   5   3   2    3.10    1.30
   5   3   2    4.40    0.60
   5   3   2    4.00    0.90
  -6  -3  -2    2.30    1.40
  -6  -3  -2    1.40    0.60
  -6  -3  -2    1.30    2.10
   6   3   2    1.40    0.70
   6   3   2    3.00    1.50
   6   3   2    1.00    0.50
   6   3   2    0.60    0.60
  -7  -3  -2 1836.32  127.99
  -7  -3  -2 1670.53  129.39
  -7  -3  -2 1785.52  126.99
  -7  -3  -2 1953.60  128.09
   7   3   2 1878.01  126.99
   7   3   2 1746.63  127.09
   7   3   2 1753.22  127.99
  -8  -3  -2   91.49    6.90
  -8  -3  -2  100.89    8.40
  -8  -3  -2   93.39   10.10
  -8  -3  -2   96.59    8.30
   8   3   2   84.89    7.00
   8   3   2   91.69    6.90
  -9  -3  -2  827.22   55.49
  -9  -3  -2  817.12   55.89
  -9  -3  -2  758.62   55.29
   9   3   2  684.03   53.99
   9   3   2  741.23   53.99
 -10  -3  -2   35.20    5.60
 -10  -3  -2   25.70    4.60
  10   3   2   29.10    2.70
  10   3   2   26.30    3.00
 -11  -3  -2   23.80    4.80
 -11  -3  -2   16.60    4.40
  11   3   2   10.50    1.80
  11   3   2   16.30    2.30
 -12  -3  -2    1.20    3.60
  12   3   2    3.50    1.40
 -13  -3  -2   -3.20    4.30
  13   3   2   -0.70    1.30
  11  -4  -2   -0.20    1.80
 -11   4   2   -0.70    5.10
  10  -4  -2   -0.10    1.50
 -10   4   2   -1.40    3.80
 -10   4   2    1.90    2.50
 -10   4   2    0.40    3.30
   9  -4  -2   18.90    2.80
  -9   4   2   22.30    4.80
  -9   4   2   22.90    4.00
  -9   4   2   11.70    3.00
   8  -4  -2    0.50    1.10
  -8   4   2   -2.90    2.10
  -8   4   2   -0.60    1.70
  -8   4   2   -1.00    2.60
   7  -4  -2    3.10    1.20
  -7   4   2    6.70    2.30
  -7   4   2    5.80    2.00
  -7   4   2    5.20    2.60
   6  -4  -2   27.30    3.00
   6  -4  -2   27.70    2.60
  -6   4   2   33.60    4.60
  -6   4   2   32.70    4.00
  -6   4   2   32.00    3.60
   5  -4  -2   23.30    2.60
   5  -4  -2   23.40    2.10
  -5   4   2   23.20    3.20
  -5   4   2   24.10    3.00
  -5   4   2   25.10    3.90
  -5   4   2   25.10    4.10
   4  -4  -2    5.80    0.80
   4  -4  -2    5.60    1.20
  -4   4   2    7.20    2.00
  -4   4   2    5.10    2.40
  -4   4   2    4.50    0.70
  -4   4   2    4.60    1.90
  -4   4   2    6.40    1.60
   3  -4  -2    0.70    0.30
   3  -4  -2    0.10    0.60
  -3   4   2    0.50    0.50
  -3   4   2    1.30    1.30
  -3   4   2    0.30    1.30
  -3   4   2    0.10    1.30
  -3   4   2    0.50    1.10
   2  -4  -2  244.38   17.30
  -2   4   2  245.48   17.70
  -2   4   2  235.88   17.50
  -2   4   2  227.98   17.70
  -2   4   2  230.98   17.80
  -2   4   2  250.17   17.10
   1  -4  -2  105.19    8.10
   1  -4  -2  102.59    7.70
  -1   4   2  104.89    8.20
  -1   4   2  113.59    7.60
  -1   4   2  101.09    8.00
  -1   4   2  102.49    8.00
  -1   4   2   94.59    7.80
   0  -4  -2  753.42   53.49
   0  -4  -2  755.52   53.89
   0   4   2  751.22   53.49
   0   4   2  714.43   53.79
   0   4   2  750.72   53.69
   0   4   2  820.72   53.89
  -1  -4  -2   21.00    1.70
  -1  -4  -2   19.30    2.50
  -1  -4  -2   19.70    1.70
   1   4   2   16.90    2.20
   1   4   2   18.50    2.00
   1   4   2   19.30    1.50
   1   4   2   19.30    1.80
  -2  -4  -2   15.40    1.40
  -2  -4  -2   19.30    2.50
   2   4   2   14.90    1.90
   2   4   2   16.00    1.30
   2   4   2   14.70    1.60
   2   4   2   13.90    1.60
  -3  -4  -2  254.07   18.20
  -3  -4  -2  248.88   17.70
   3   4   2  237.88   17.80
   3   4   2  253.57   17.50
   3   4   2  253.37   17.80
   3   4   2  230.98   17.70
  -4  -4  -2  410.16   26.40
  -4  -4  -2  330.07   24.90
  -4  -4  -2  375.36   25.50
   4   4   2  343.97   24.70
   4   4   2  323.57   24.90
   4   4   2  315.57   24.90
   4   4   2  351.36   25.10
  -5  -4  -2    5.50    2.40
  -5  -4  -2    1.70    1.30
   5   4   2    1.70    0.60
   5   4   2    1.30    0.80
   5   4   2    2.40    1.00
   5   4   2    2.90    0.50
   5   4   2    4.60    1.40
  -6  -4  -2  151.88   13.10
  -6  -4  -2  151.18   10.90
  -6  -4  -2  160.58   11.90
   6   4   2  147.59   11.00
   6   4   2  163.88   10.90
   6   4   2  132.99   11.10
   6   4   2  147.69   11.70
  -7  -4  -2    2.50    2.60
  -7  -4  -2    4.20    2.10
  -7  -4  -2    3.30    0.80
   7   4   2    3.30    0.60
   7   4   2    1.30    0.80
   7   4   2    3.50    1.80
  -8  -4  -2   68.29    5.50
  -8  -4  -2   74.89    7.00
  -8  -4  -2   78.59    6.90
  -8  -4  -2   71.29    8.30
   8   4   2   70.69    5.40
   8   4   2   70.49    5.60
  -9  -4  -2   88.79    9.00
   9   4   2  105.39    7.60
   9   4   2  103.59    7.80
 -10  -4  -2   14.80    4.00
 -10  -4  -2   13.40    3.50
  10   4   2   18.80    2.30
 -11  -4  -2    0.50    2.80
  11   4   2   -0.50    1.10
 -12  -4  -2   -0.30    3.10
  12   4   2    0.90    1.50
 -13  -4  -2    2.70    4.40
  13   4   2    3.20    1.70
  11  -5  -2    6.70    2.50
 -11   5   2   16.70    6.20
  10  -5  -2   19.60    3.40
 -10   5   2   19.10    4.80
 -10   5   2   27.20    6.60
   9  -5  -2    9.30    2.30
  -9   5   2   12.00    3.00
  -9   5   2   13.70    4.40
  -9   5   2   11.40    4.60
  -9   5   2    3.90    3.30
   8  -5  -2    3.90    1.60
  -8   5   2    6.80    4.00
  -8   5   2    1.00    2.50
  -8   5   2    7.50    2.30
  -8   5   2    0.80    2.90
   7  -5  -2    9.20    1.80
  -7   5   2    8.70    3.20
  -7   5   2   10.40    3.70
  -7   5   2    8.00    2.40
  -7   5   2   10.90    3.10
   6  -5  -2    3.20    1.20
  -6   5   2    3.50    2.60
  -6   5   2    8.00    2.40
  -6   5   2    5.80    2.60
  -6   5   2    4.80    1.80
   5  -5  -2    4.80    1.30
  -5   5   2    4.70    1.80
  -5   5   2    4.50    2.40
  -5   5   2    2.60    2.30
  -5   5   2    4.00    1.90
   4  -5  -2   20.20    2.20
  -4   5   2   14.90    3.30
  -4   5   2   20.70    3.00
  -4   5   2   22.70    3.50
  -4   5   2   17.00    2.50
   3  -5  -2   17.90    2.00
  -3   5   2   15.70    2.70
  -3   5   2   22.40    3.40
  -3   5   2   15.70    2.60
  -3   5   2   15.50    2.30
  -3   5   2   18.20    1.70
   2  -5  -2   48.10    3.90
  -2   5   2   52.39    4.50
  -2   5   2   47.30    4.40
  -2   5   2   48.80    4.60
  -2   5   2   45.60    4.20
  -2   5   2   43.70    3.70
   1  -5  -2    2.80    0.70
  -1   5   2    3.60    0.80
  -1   5   2    5.20    1.40
  -1   5   2    3.40    1.20
  -1   5   2    3.20    1.30
   0  -5  -2   39.60    3.00
   0   5   2   37.40    3.50
   0   5   2   40.70    3.60
   0   5   2   35.70    3.40
   0   5   2   35.30    3.10
  -1  -5  -2  261.57   17.70
  -1  -5  -2  270.37   17.70
  -1  -5  -2  240.78   18.20
   1   5   2  259.27   17.90
   1   5   2  215.38   17.50
   1   5   2  241.68   17.80
  -2  -5  -2    0.50    1.10
  -2  -5  -2    1.30    0.50
   2   5   2    1.40    0.70
   2   5   2    1.00    0.90
   2   5   2    2.50    0.80
   2   5   2    1.20    0.40
  -3  -5  -2   99.89    7.30
  -3  -5  -2  104.69    8.00
   3   5   2   94.59    7.20
   3   5   2   94.89    7.60
   3   5   2   92.09    7.50
   3   5   2  109.39    7.50
   4   5   2  379.86   24.80
   4   5   2  344.27   24.30
   4   5   2  301.87   24.60
   4   5   2  345.77   24.70
  -5  -5  -2  122.49    9.80
  -5  -5  -2  153.38   11.30
   5   5   2  105.49    9.30
   5   5   2  127.99    8.90
   5   5   2  128.39    9.60
   5   5   2  118.29    9.00
   5   5   2  120.59    9.50
  -6  -5  -2    3.20    2.60
  -6  -5  -2    0.50    1.40
  -6  -5  -2    1.70    0.70
   6   5   2    1.10    0.40
   6   5   2    1.50    1.50
   6   5   2    0.60    0.90
   6   5   2   -1.50    0.60
  -7  -5  -2   38.60    3.00
  -7  -5  -2   35.80    5.60
   7   5   2   34.30    4.20
   7   5   2   31.30    3.00
  -8  -5  -2   15.00    4.40
  -8  -5  -2   12.80    1.60
   8   5   2   12.80    1.70
  -9  -5  -2    5.60    3.60
  -9  -5  -2    6.40    2.60
   9   5   2    8.50    1.50
 -10  -5  -2    9.20    3.40
  10   5   2   11.40    1.90
 -11  -5  -2    7.50    3.70
  11   5   2    4.50    1.50
 -12  -5  -2   14.50    4.50
  12   5   2   16.50    2.50
 -13  -5  -2   24.30    5.90
  13   5   2   12.80    2.40
  10  -6  -2   72.59    7.50
 -10   6   2   85.49   10.10
 -10   6   2  100.79   10.80
   9  -6  -2   54.89    6.20
  -9   6   2   73.79    8.80
  -9   6   2   65.29    9.60
  -9   6   2   85.19    7.90
   8  -6  -2   57.29    5.90
  -8   6   2   74.69    7.40
  -8   6   2   72.59    8.10
  -8   6   2   67.49    9.00
   7  -6  -2   28.70    3.60
  -7   6   2   40.20    4.60
  -7   6   2   41.80    5.80
  -7   6   2   40.70    5.20
  -7   6   2   33.30    5.80
   6  -6  -2    4.50    1.30
  -6   6   2    1.10    2.10
  -6   6   2   -1.50    3.00
  -6   6   2    4.90    2.70
  -6   6   2    4.30    2.60
   5  -6  -2   88.79    7.40
  -5   6   2   94.49    8.20
  -5   6   2   92.49    9.00
  -5   6   2   89.69    8.50
  -5   6   2   93.59    7.80
   4  -6  -2   11.20    1.70
  -4   6   2   13.00    2.80
  -4   6   2   11.90    2.70
  -4   6   2   12.80    3.40
   3  -6  -2    0.40    0.80
  -3   6   2    1.10    0.80
  -3   6   2    2.70    1.90
  -3   6   2    0.60    1.60
  -3   6   2    2.80    2.00
   2  -6  -2   25.80    2.60
  -2   6   2   27.00    3.40
  -2   6   2   31.10    3.50
  -2   6   2   25.60    2.50
  -2   6   2   33.00    3.70
   1  -6  -2   68.09    5.10
  -1   6   2   67.29    5.50
  -1   6   2   66.09    5.70
  -1   6   2   71.29    5.80
  -1   6   2   52.69    5.00
   0  -6  -2   17.20    1.80
   0   6   2   15.00    2.00
   0   6   2   17.10    2.30
   0   6   2   22.10    2.80
   0   6   2   21.50    2.80
  -1  -6  -2    6.70    0.90
  -1  -6  -2    5.40    0.80
   1   6   2    5.90    1.20
   1   6   2    4.50    1.10
   1   6   2    3.90    1.30
  -2  -6  -2  169.48   11.10
  -2  -6  -2  147.19   11.10
   2   6   2  140.59   11.00
   2   6   2  156.78   11.70
   2   6   2  139.39   11.40
   2   6   2  175.68   11.50
  -3  -6  -2   36.80    2.80
   3   6   2   38.30    3.60
   3   6   2   29.90    3.20
   3   6   2   34.80    2.80
   3   6   2   43.50    3.40
   4   6   2   73.69    5.60
   4   6   2   65.79    5.90
   4   6   2   76.59    6.20
   4   6   2   83.09    6.10
  -5  -6  -2   59.69    6.40
   5   6   2   45.20    4.20
   5   6   2   37.50    3.40
   5   6   2   34.30    3.70
   5   6   2   46.50    4.20
  -6  -6  -2    2.30    2.60
   6   6   2    0.60    0.80
   6   6   2    0.50    1.30
   6   6   2    0.40    0.90
   6   6   2    0.10    1.10
  -7  -6  -2   92.89    9.50
  -7  -6  -2   94.99    7.00
   7   6   2   83.69    6.90
   7   6   2   92.99    8.00
  -8  -6  -2   81.29    9.10
  -8  -6  -2   82.09    6.30
   8   6   2   78.09    6.30
   8   6   2   80.59    7.60
  -9  -6  -2    4.00    3.40
   9   6   2    1.70    1.10
 -10  -6  -2   27.30    4.90
  10   6   2   24.50    3.00
 -11  -6  -2   28.90    5.10
  11   6   2   28.00    3.30
 -12  -6  -2    1.50    3.60
  12   6   2    2.60    1.40
   9  -7  -2   12.10    2.90
  -9   7   2   30.00    5.80
  -9   7   2   15.50    5.30
  -9   7   2   19.90    4.50
   8  -7  -2  139.99   12.60
  -8   7   2  168.28   14.60
  -8   7   2  176.48   14.00
  -8   7   2  176.08   15.10
   7  -7  -2    1.40    1.30
  -7   7   2    0.20    3.00
  -7   7   2   -1.50    2.90
  -7   7   2    1.70    3.00
   6  -7  -2    2.10    1.20
  -6   7   2    0.40    2.60
  -6   7   2   -1.80    3.00
  -6   7   2    2.70    2.30
   5  -7  -2   52.79    5.00
  -5   7   2   55.99    7.40
  -5   7   2   60.69    6.30
  -5   7   2   59.69    6.40
   4  -7  -2    8.80    1.70
  -4   7   2   13.00    3.50
  -4   7   2   10.00    2.90
  -4   7   2   11.10    2.80
   3  -7  -2   30.90    3.20
  -3   7   2   34.20    4.00
  -3   7   2   26.70    3.90
  -3   7   2   45.30    5.40
   2  -7  -2   19.20    2.20
  -2   7   2   22.50    3.50
  -2   7   2   15.90    2.00
  -2   7   2   16.90    2.90
  -2   7   2   14.50    2.60
   1  -7  -2  276.77   20.40
  -1   7   2  281.77   20.80
  -1   7   2  301.67   21.20
  -1   7   2  269.77   21.00
   0  -7  -2   35.70    3.00
   0   7   2   34.70    3.60
   0   7   2   43.40    4.20
   0   7   2   29.60    3.20
  -1  -7  -2   49.99    3.90
  -1  -7  -2   52.89    4.00
   1   7   2   57.79    4.40
   1   7   2   39.20    4.20
   1   7   2   48.10    4.80
   2   7   2   95.89    7.40
   2   7   2  117.09    8.40
   2   7   2  100.29    8.00
   3   7   2   92.39    7.60
   3   7   2   86.39    7.30
   3   7   2   88.09    6.80
   3   7   2  109.19    7.50
   4   7   2  296.47   18.90
   4   7   2  219.08   18.70
   4   7   2  266.07   19.10
   4   7   2  247.18   18.40
  -5  -7  -2    1.30    3.20
   5   7   2   -0.10    1.30
   5   7   2   -0.40    0.90
   5   7   2   -0.20    1.20
   5   7   2   -1.00    0.60
  -6  -7  -2   41.40    5.80
   6   7   2   33.70    3.20
   6   7   2   34.60    4.00
   6   7   2   40.10    4.20
  -7  -7  -2   13.80    1.70
  -7  -7  -2   11.30    3.90
   7   7   2    9.00    2.50
   7   7   2   10.30    1.60
  -8  -7  -2   22.70    5.10
  -8  -7  -2   24.80    2.50
   8   7   2   23.30    3.80
   8   7   2   14.90    2.20
  -9  -7  -2   29.40    6.00
   9   7   2   24.60    2.90
  10   7   2   -0.50    1.00
 -11  -7  -2    4.10    3.70
  11   7   2    3.10    1.50
 -12  -7  -2   -0.80    3.90
  12   7   2   -1.20    1.30
   9  -8  -2    0.60    1.80
  -9   8   2    4.30    3.80
  -9   8   2    7.70    5.00
  -9   8   2    8.10    4.10
   8  -8  -2   -0.70    1.70
  -8   8   2    4.30    3.50
  -8   8   2    5.30    3.60
  -8   8   2    3.20    4.40
   7  -8  -2    4.40    2.00
  -7   8   2   12.50    3.90
  -7   8   2    6.00    3.50
  -7   8   2   10.30    4.60
   6  -8  -2    1.50    1.50
  -6   8   2    2.10    3.10
  -6   8   2    6.70    3.20
  -6   8   2    2.20    2.80
   5  -8  -2   22.00    3.20
  -5   8   2   38.10    5.60
  -5   8   2   26.80    4.40
  -5   8   2   28.30    4.40
   4  -8  -2  276.27   21.40
  -4   8   2  289.57   22.30
  -4   8   2  311.57   22.90
  -4   8   2  293.27   22.20
   3  -8  -2   78.49    6.80
  -3   8   2   88.59    7.90
  -3   8   2   85.19    8.30
  -3   8   2   86.69    7.70
   2  -8  -2   40.90    3.70
  -2   8   2   37.70    4.50
  -2   8   2   43.70    5.20
  -2   8   2   39.50    4.70
   1  -8  -2    1.20    0.90
  -1   8   2    0.40    1.70
  -1   8   2    2.50    1.50
   0  -8  -2  215.48   15.70
   0   8   2  238.38   16.70
   0   8   2  196.68   16.40
   0   8   2  215.68   16.10
   1   8   2   34.00    3.40
   1   8   2   35.80    3.80
   1   8   2   29.30    3.20
   2   8   2   31.70    3.70
   2   8   2   41.00    4.30
   2   8   2   48.20    3.90
   3   8   2  133.49    8.90
   3   8   2  114.59    9.20
   3   8   2   91.59    8.70
   4   8   2    1.40    0.70
   4   8   2    0.50    1.30
   4   8   2   -1.20    1.20
   4   8   2   -0.30    1.00
   5   8   2  159.08   12.10
   5   8   2  133.69   11.10
   5   8   2  170.28   12.00
  -6  -8  -2   19.20    4.50
   6   8   2   14.60    2.60
   6   8   2   11.30    1.60
   6   8   2   14.30    2.60
  -7  -8  -2   79.79    6.00
  -7  -8  -2   89.29    9.30
   7   8   2   68.49    6.90
   7   8   2   63.89    5.80
  -8  -8  -2   26.10    5.80
  -8  -8  -2   23.60    2.80
   8   8   2   23.70    4.00
   8   8   2   26.00    2.70
   9   8   2   71.69    5.90
  10   8   2   -0.30    1.20
 -11  -8  -2   -1.30    3.60
  11   8   2   -0.70    1.40
 -12  -8  -2   -2.20    3.40
  12   8   2    1.70    1.50
   8  -9  -2   25.50    3.80
  -8   9   2   36.50    6.10
  -8   9   2   32.00    6.90
   7  -9  -2   -1.50    1.50
  -7   9   2   -2.30    3.90
  -7   9   2    5.20    3.30
  -7   9   2    6.90    3.70
   6  -9  -2   70.59    7.30
  -6   9   2   90.29    9.10
  -6   9   2   96.69    9.60
  -6   9   2   93.79    9.00
   5  -9  -2   14.00    2.50
  -5   9   2   18.60    4.50
  -5   9   2   15.30    3.90
  -5   9   2   15.90    3.90
   4  -9  -2   14.80    2.50
  -4   9   2   21.90    3.90
  -4   9   2   18.50    4.20
   3  -9  -2   72.79    6.30
  -3   9   2   72.79    7.20
  -3   9   2   78.39    7.70
   2  -9  -2  116.09    9.30
  -2   9   2  131.79   10.90
  -2   9   2  120.79   10.10
  -2   9   2  115.29   10.30
  -1   9   2  547.25   36.30
  -1   9   2  432.66   35.70
  -1   9   2  487.95   35.40
   0   9   2   25.20    3.60
   1   9   2    9.70    2.00
   1   9   2    6.60    2.10
   2   9   2   -0.70    1.10
   2   9   2   -0.40    1.50
   3   9   2    6.30    1.70
   3   9   2    3.00    1.70
   4   9   2    9.40    2.10
   4   9   2    5.10    2.00
   5   9   2   17.00    3.00
   5   9   2   15.20    2.70
   6   9   2  183.38   13.50
   6   9   2  152.18   12.30
   6   9   2  172.28   13.30
  -7  -9  -2   23.00    5.50
  -7  -9  -2   18.20    2.30
   7   9   2   13.20    1.90
   7   9   2   13.40    3.00
   7   9   2   14.20    3.10
  -8  -9  -2   17.30    2.40
   8   9   2   16.40    2.20
   8   9   2   16.50    3.50
   9   9   2    9.60    1.80
  10   9   2   -1.50    1.20
  11   9   2    5.80    1.90
   7 -10  -2    9.00    2.50
  -7  10   2    6.60    3.90
  -7  10   2   11.90    5.20
  -7  10   2   15.10    4.40
   6 -10  -2   11.10    2.50
  -6  10   2   24.10    5.30
  -6  10   2   16.30    4.10
  -6  10   2   10.30    3.80
   5 -10  -2   25.80    3.60
  -5  10   2   34.10    5.40
  -5  10   2   36.60    5.60
  -5  10   2   32.20    5.90
   4 -10  -2   14.60    2.40
  -4  10   2   19.10    4.80
  -4  10   2   14.50    3.80
  -4  10   2   12.00    3.60
  -3  10   2   -1.10    2.10
  -3  10   2   -2.40    2.10
  -3  10   2    1.50    3.00
  -2  10   2    8.90    3.00
  -2  10   2   17.10    3.20
  -2  10   2   17.70    4.10
  -1  10   2   76.49    7.00
  -1  10   2   59.29    6.00
  -1  10   2   55.49    6.50
   0  10   2    1.90    1.60
   0  10   2    5.10    2.30
   1  10   2    6.10    2.60
   1  10   2   13.10    2.40
   2  10   2    0.40    1.30
   2  10   2   -0.20    1.70
   3  10   2   44.20    5.30
   3  10   2   50.69    4.80
   4  10   2   55.89    5.40
   4  10   2   56.59    6.00
   5  10   2  105.89    9.50
   5  10   2  111.59    9.20
  -6 -10  -2    2.80    4.60
   6  10   2    6.80    2.50
   6  10   2    4.60    2.40
  -7 -10  -2  119.19   12.20
  -7 -10  -2  103.49    8.30
   7  10   2   98.09    9.30
   7  10   2   93.69    9.20
  -8 -10  -2   36.40    3.80
   8  10   2   27.90    4.80
   9  10   2   37.70    3.70
  10  10   2   15.50    2.30
  -5  11   2    7.30    3.70
  -5  11   2   11.20    5.10
  -5  11   2   11.40    3.70
  -4  11   2   17.90    3.90
  -4  11   2   16.30    4.20
  -4  11   2   24.20    5.30
  -3  11   2    3.00    2.60
  -3  11   2    1.00    3.30
  -3  11   2    0.90    2.70
  -2  11   2   17.60    3.80
  -2  11   2   27.00    5.00
  -2  11   2   26.40    4.10
  -1  11   2   -2.00    2.20
  -1  11   2   -0.10    1.80
   0  11   2   73.09    7.90
   0  11   2   83.79    7.20
   1  11   2   -1.10    2.10
   1  11   2    0.90    1.60
   2  11   2    1.80    2.20
   2  11   2    0.10    1.50
   3  11   2   12.70    3.10
   3  11   2   11.70    2.70
   4  11   2   29.80    4.00
   4  11   2   24.70    4.10
   5  11   2  149.88   12.30
   5  11   2  151.38   12.80
  -6 -11  -2   -1.80    5.10
   6  11   2    2.30    2.50
   6  11   2   -1.10    2.30
  -7 -11  -2  210.48   15.30
   7  11   2  202.38   16.40
   7  11   2  188.58   16.20
  -4  12   2   -2.70    2.30
  -4  12   2    1.40    3.90
  -4  12   2    3.70    3.40
  -3  12   2   15.10    5.10
  -3  12   2   16.60    3.70
  -3  12   2   11.30    4.10
  -2  12   2   50.99    5.90
  -2  12   2   32.90    5.60
  -1  12   2    8.20    2.80
  -1  12   2    4.90    3.10
   0  12   2   28.20    5.10
   0  12   2   37.50    4.50
   1  12   2   15.30    2.90
   1  12   2    5.20    3.00
   2  12   2   13.10    3.70
   2  12   2   17.90    3.20
   3  12   2    7.20    3.20
   3  12   2   12.40    2.90
   4  12   2    8.70    3.20
   4  12   2    2.90    2.30
   5  12   2   -1.60    2.10
   5  12   2    1.60    2.80
   6  12   2    4.60    2.70
   6  12   2    3.20    3.00
  -7 -12  -2    0.80    2.00
   7  12   2   -1.10    2.60
   7  12   2    3.50    3.10
  -2  13   2   -0.40    3.50
  -2  13   2   -2.90    2.30
  -1  13   2    1.60    2.40
  -1  13   2   -3.00    2.80
   0  13   2    7.50    2.70
   0  13   2    3.60    3.20
   1  13   2    7.10    2.60
   1  13   2    4.00    3.20
   2  13   2    3.00    2.30
   2  13   2    0.10    2.90
   3  13   2    1.40    2.10
   3  13   2    0.60    2.70
   4  13   2    2.70    2.90
   4  13   2   -1.30    2.30
   5  13   2    6.80    3.40
   5  13   2   -2.50    2.30
   6  13   2   11.30    3.80
   6  13   2    4.30    3.30
   4  13  -3   35.70    5.30
  -4 -13   3   37.40    4.60
   3  13  -3    4.60    3.60
   3  13  -3    0.90    2.10
   2  13  -3  159.18   13.80
   2  13  -3  139.89   11.80
   1  13  -3   20.00    4.90
   1  13  -3   17.40    3.10
   0  13  -3   40.10    4.30
   0  13  -3   34.50    6.10
  -1  13  -3    1.40    3.40
  -1  13  -3    1.50    1.50
   6  12  -3   -2.50    2.40
  -6 -12   3    2.70    2.00
   5  12  -3   -3.00    2.10
  -5 -12   3    0.10    2.00
   4  12  -3   21.60    3.70
   4  12  -3   11.50    4.10
  -4 -12   3   14.70    2.80
   3  12  -3    1.10    2.80
   3  12  -3    0.40    1.80
   2  12  -3   47.10    4.90
   2  12  -3   47.80    6.80
   1  12  -3   38.40    6.00
   1  12  -3   40.70    4.30
   0  12  -3  169.78   12.90
   0  12  -3  166.38   14.70
  -1  12  -3    2.40    1.50
  -1  12  -3    0.80    3.00
  -2  12  -3    1.60    1.40
  -2  12  -3    0.80    2.80
  -3  12  -3    3.50    1.80
  -3  12  -3    1.70    3.10
  -4  12  -3   13.00    4.20
  -4  12  -3   20.50    5.40
  -4  12  -3   13.10    2.70
   8  11  -3    7.10    4.00
  -8 -11   3   12.00    2.80
   7  11  -3    3.00    2.70
  -7 -11   3    1.60    1.90
   6  11  -3    1.40    2.50
  -6 -11   3    1.60    1.80
   5  11  -3   10.40    3.10
  -5 -11   3   14.10    2.60
   4  11  -3   24.50    3.90
   4  11  -3   32.30    5.40
  -4 -11   3   27.80    3.70
   3  11  -3   -1.40    1.40
   3  11  -3    1.40    2.50
   2  11  -3    5.90    3.10
   2  11  -3    3.20    1.50
   1  11  -3  138.89   10.70
   1  11  -3  136.99   12.30
   0  11  -3   39.70    3.80
   0  11  -3   39.60    5.60
  -1  11  -3    6.50    3.00
  -1  11  -3    5.50    1.50
  -2  11  -3   15.60    3.90
  -2  11  -3   18.50    2.60
  -3  11  -3   -0.20    2.70
  -3  11  -3    4.60    1.70
  -3  11  -3    0.20    2.90
  -4  11  -3    1.60    2.80
  -4  11  -3    1.20    3.20
  -4  11  -3    5.10    2.00
  -5  11  -3   47.80    7.00
  -5  11  -3   39.30    4.90
  -5  11  -3   39.40    6.00
  -6  11  -3   74.69    7.30
  -6  11  -3   69.19    9.40
   9  10  -3   -6.00    3.30
  -9 -10   3   -0.20    2.10
   8  10  -3    5.80    3.20
  -8 -10   3    6.30    2.00
   7  10  -3    8.60    3.20
  -7 -10   3   11.30    2.40
   6  10  -3   -0.70    2.00
  -6 -10   3    0.90    1.70
   5  10  -3    6.40    2.50
  -5 -10   3    6.30    2.00
   4  10  -3   14.50    2.90
   4  10  -3   12.30    3.60
  -4 -10   3   15.20    2.60
   3  10  -3   17.80    2.80
   3  10  -3   20.70    4.00
   2  10  -3   11.00    2.00
   2  10  -3    7.50    2.90
   1  10  -3    8.20    1.60
   1  10  -3    5.20    2.70
   0  10  -3   99.09    9.30
   0  10  -3  101.69    7.80
  -1  10  -3   42.40    5.50
  -1  10  -3   37.70    3.60
  -2  10  -3  115.29    9.50
  -2  10  -3  117.39   10.80
  -2  10  -3  145.89   11.30
  -3  10  -3   23.40    4.20
  -3  10  -3   27.70    4.80
  -3  10  -3   22.30    3.00
  -4  10  -3   35.50    5.70
  -4  10  -3   28.60    4.80
  -4  10  -3   32.30    3.80
  -5  10  -3   -0.40    1.80
  -5  10  -3    1.70    3.40
  -5  10  -3    2.40    2.60
  -6  10  -3    0.10    2.70
  -6  10  -3   -0.20    3.00
  -6  10  -3    2.70    2.00
  -7  10  -3   31.00    4.50
  -7  10  -3   50.29    7.20
   7 -10   3   20.30    3.30
 -10  -9   3    1.10    2.10
   9   9  -3   27.30    5.70
  -9  -9   3   49.20    4.70
   8   9  -3   37.80    6.10
  -8  -9   3   50.89    4.90
   7   9  -3  100.69   10.10
  -7  -9   3  114.79    8.90
   6   9  -3    3.70    2.30
  -6  -9   3    1.80    1.70
   5   9  -3  129.89   10.80
  -5  -9   3  126.99   10.10
   4   9  -3    3.70    1.70
   4   9  -3    3.60    2.50
  -4  -9   3    7.20    1.80
   3   9  -3    5.00    1.60
   3   9  -3    4.40    2.40
   2   9  -3    1.60    1.10
   2   9  -3    2.60    2.00
   1   9  -3    1.00    1.90
   1   9  -3    0.00    0.80
   0   9  -3   14.10    3.10
   0   9  -3   11.10    1.60
  -1   9  -3    1.50    1.90
  -1   9  -3    1.70    1.00
  -2   9  -3   78.99    7.20
  -2   9  -3   73.69    7.10
  -2   9  -3   70.59    5.90
  -3   9  -3   16.50    3.90
  -3   9  -3   15.00    3.10
  -3   9  -3   20.20    2.60
  -4   9  -3   53.39    6.50
  -4   9  -3   34.20    5.00
  -4   9  -3   42.90    4.30
   4  -9   3   43.80    3.90
  -5   9  -3   23.50    4.10
  -5   9  -3   23.30    3.40
  -5   9  -3   20.30    4.40
   5  -9   3   22.00    2.70
  -6   9  -3   49.10    5.90
  -6   9  -3   36.20    4.80
  -6   9  -3   48.40    6.90
   6  -9   3   35.80    4.00
  -7   9  -3   11.10    4.60
  -7   9  -3   15.20    3.20
   7  -9   3    9.20    2.20
  -8   9  -3    3.90    2.70
  -8   9  -3    4.10    3.90
   8  -9   3    0.10    1.80
  10   8  -3   33.80    4.10
 -10  -8   3   40.10    4.40
 -10  -8   3   41.50    6.50
   9   8  -3   -1.00    2.90
   9   8  -3    1.50    1.50
  -9  -8   3    1.00    1.70
   8   8  -3    9.10    3.40
  -8  -8   3    7.60    2.00
   7   8  -3    1.40    2.20
  -7  -8   3    3.50    1.60
   6   8  -3    3.40    2.00
  -6  -8   3    1.30    1.30
   5   8  -3   -0.30    1.60
  -5  -8   3    0.10    1.30
   4   8  -3   82.49    7.30
  -4  -8   3   88.09    7.00
   3   8  -3   67.79    5.70
   3   8  -3   60.49    6.50
   2   8  -3   22.90    3.60
   2   8  -3   22.70    2.60
   1   8  -3  293.17   22.70
   1   8  -3  305.87   21.60
   0   8  -3  120.09    9.10
   0   8  -3  128.69   10.30
  -1   8  -3   31.50    4.10
  -1   8  -3   25.30    3.70
  -1   8  -3   24.20    2.40
  -2   8  -3   -2.60    1.50
  -2   8  -3   -0.50    1.40
  -2   8  -3    1.10    0.90
   2  -8   3    0.20    0.60
  -3   8  -3   22.90    2.80
  -3   8  -3   36.00    4.60
  -3   8  -3   26.30    3.70
   3  -8   3   23.50    2.50
  -4   8  -3    0.90    2.10
  -4   8  -3    0.10    1.60
  -4   8  -3    1.80    1.30
   4  -8   3    0.20    0.90
  -5   8  -3   34.10    4.00
  -5   8  -3   36.70    5.60
  -5   8  -3   39.80    4.70
   5  -8   3   30.30    3.30
  -6   8  -3   31.60    4.70
  -6   8  -3   43.50    6.30
  -6   8  -3   35.10    4.60
   6  -8   3   35.90    3.70
  -7   8  -3   27.00    4.10
  -7   8  -3   28.00    5.50
   7  -8   3   23.00    3.00
  -8   8  -3    8.80    4.10
  -8   8  -3    9.60    3.20
   8  -8   3    8.10    2.00
  -9   8  -3   24.50    5.90
  -9   8  -3   26.00    4.80
   9  -8   3   18.00    3.20
  11   7  -3   12.00    2.40
 -11  -7   3   11.10    4.80
  10   7  -3    9.70    2.20
 -10  -7   3    8.10    2.20
 -10  -7   3   11.40    4.30
   9   7  -3   62.89    5.90
   9   7  -3   66.19    8.20
  -9  -7   3   72.39    6.20
   8   7  -3    1.50    2.70
   8   7  -3    0.20    1.30
  -8  -7   3    2.00    1.50
   7   7  -3   16.60    2.40
   7   7  -3   19.20    3.80
  -7  -7   3   19.00    2.60
   6   7  -3   -2.40    1.60
   6   7  -3   -1.20    0.90
  -6  -7   3    0.30    1.10
   5   7  -3   34.60    4.30
  -5  -7   3   38.60    3.60
   4   7  -3   26.70    3.30
  -4  -7   3   27.80    2.90
   3   7  -3   61.59    6.30
   3   7  -3   67.29    5.60
   2   7  -3   27.40    2.70
   2   7  -3   25.80    3.60
   1   7  -3   25.30    3.50
   1   7  -3   23.60    2.30
   0   7  -3    0.80    1.50
   0   7  -3    2.90    0.70
   0   7  -3    4.50    1.40
   0  -7   3    1.00    0.50
  -1   7  -3   51.89    4.30
  -1   7  -3   51.29    5.30
  -1   7  -3   55.39    4.70
  -1   7  -3   58.09    5.30
   1  -7   3   59.79    4.30
  -2   7  -3   13.50    1.90
  -2   7  -3   13.20    1.70
  -2   7  -3   13.70    2.50
  -2   7  -3   16.70    2.80
   2  -7   3   12.90    1.20
   2  -7   3   13.80    1.60
  -3   7  -3    1.70    1.50
  -3   7  -3    0.20    0.90
  -3   7  -3    1.00    1.70
   3  -7   3    0.10    0.60
  -4   7  -3   23.20    3.80
  -4   7  -3   21.70    3.20
  -4   7  -3   18.90    2.70
   4  -7   3   22.30    2.30
  -5   7  -3    0.00    1.20
  -5   7  -3   -3.00    2.00
  -5   7  -3   -1.20    1.50
   5  -7   3    1.00    0.80
  -6   7  -3  223.58   18.30
  -6   7  -3  220.08   17.90
  -6   7  -3  197.98   16.70
  -6   7  -3  243.48   17.10
   6  -7   3  214.78   16.30
  -7   7  -3   10.80    2.70
  -7   7  -3   11.80    3.70
  -7   7  -3    2.90    3.20
  -7   7  -3    7.20    2.70
   7  -7   3    6.30    1.60
  -8   7  -3    6.80    2.80
  -8   7  -3    9.90    3.70
   8  -7   3    6.50    1.80
  -9   7  -3    2.50    2.80
  -9   7  -3    1.30    3.40
   9  -7   3   -0.20    1.30
 -10   7  -3    3.00    4.00
 -10   7  -3    1.30    3.20
  10  -7   3   -2.80    1.50
  11   6  -3    1.40    1.50
 -11  -6   3    4.30    3.70
  10   6  -3   22.70    3.00
 -10  -6   3   28.80    5.20
 -10  -6   3   20.50    3.10
   9   6  -3    3.40    1.50
   9   6  -3   -0.30    2.90
  -9  -6   3    0.80    1.50
  -9  -6   3    2.80    3.00
   8   6  -3    4.40    1.50
   8   6  -3   -0.60    2.40
  -8  -6   3    0.50    1.30
   7   6  -3    1.50    1.10
   7   6  -3   -0.40    2.10
  -7  -6   3   -1.40    1.20
   6   6  -3   19.70    2.50
   6   6  -3   24.30    3.80
  -6  -6   3   19.30    2.50
   5   6  -3  212.38   15.80
   5   6  -3  215.88   16.60
  -5  -6   3  217.78   15.90
   4   6  -3  470.65   34.70
  -4  -6   3  486.05   34.30
   3   6  -3 1306.57   91.89
   3   6  -3 1235.08   92.39
  -3  -6   3 1350.86   91.79
   2   6  -3   11.40    2.10
   2   6  -3   10.50    2.30
   2   6  -3   13.10    1.60
   2   6  -3    8.40    1.50
   1   6  -3  726.13   48.60
   1   6  -3  673.03   48.30
   1   6  -3  647.74   49.10
   0   6  -3    6.60    1.70
   0   6  -3    5.10    0.80
   0  -6   3    4.40    0.70
  -1   6  -3   37.70    3.20
  -1   6  -3   38.70    3.90
  -1   6  -3   31.80    2.90
  -1   6  -3   41.90    3.90
   1  -6   3   38.80    3.00
  -2   6  -3   52.39    4.50
  -2   6  -3   57.99    4.60
  -2   6  -3   60.79    5.50
  -2   6  -3   63.79    5.40
   2  -6   3   62.09    4.60
  -3   6  -3  209.68   16.00
  -3   6  -3  196.68   14.70
  -3   6  -3  212.08   15.70
  -3   6  -3  183.48   14.70
  -3   6  -3  214.98   15.30
   3  -6   3  193.98   14.30
   3  -6   3  209.38   14.70
  -4   6  -3    7.70    2.50
  -4   6  -3   12.10    1.90
  -4   6  -3   13.20    3.20
  -4   6  -3   11.40    2.20
   4  -6   3   10.90    1.10
   4  -6   3    7.80    1.30
  -5   6  -3   32.50    3.80
  -5   6  -3   27.40    3.50
  -5   6  -3   27.90    4.50
  -5   6  -3   34.60    5.10
   5  -6   3   31.10    2.40
   5  -6   3   30.30    3.00
  -6   6  -3  131.59   11.90
  -6   6  -3  120.19   10.30
  -6   6  -3  140.59   10.40
  -6   6  -3  123.79   11.20
   6  -6   3  123.99    9.80
  -7   6  -3   12.50    4.10
  -7   6  -3   10.90    3.70
  -7   6  -3   10.80    2.40
  -7   6  -3    9.30    2.60
   7  -6   3   10.40    1.80
  -8   6  -3   54.69    7.60
  -8   6  -3   41.80    6.60
  -8   6  -3   48.40    5.70
   8  -6   3   41.20    4.20
  -9   6  -3    4.30    3.80
  -9   6  -3   -6.70    3.20
  -9   6  -3    3.70    2.70
   9  -6   3    0.70    1.30
 -10   6  -3    1.00    3.90
 -10   6  -3    2.80    4.30
 -10   6  -3    0.00    2.80
  10  -6   3    1.50    1.50
 -11   6  -3    1.70    3.90
 -11   6  -3   -5.90    3.90
 -11   6  -3    0.30    3.30
  11  -6   3   -1.70    1.50
 -12  -5   3   -2.10    3.80
  11   5  -3   62.99    5.90
 -11  -5   3   70.49    8.70
  10   5  -3   33.10    3.70
 -10  -5   3   30.10    3.60
 -10  -5   3   27.00    5.40
   9   5  -3   55.49    5.40
  -9  -5   3   63.79    7.40
  -9  -5   3   70.79    5.60
   8   5  -3   43.20    4.30
   8   5  -3   46.10    6.40
  -8  -5   3   50.39    4.40
   7   5  -3  110.79    9.90
  -7  -5   3  105.59    8.40
   6   5  -3   68.29    7.00
   6   5  -3   72.39    6.00
  -6  -5   3   77.79    6.10
   5   5  -3   36.70    4.30
   5   5  -3   37.50    3.30
  -5  -5   3   33.30    3.30
   4   5  -3  116.79    9.70
   4   5  -3  124.79   10.30
   4   5  -3  143.89    9.50
  -4  -5   3  130.99    9.90
   3   5  -3   18.40    1.90
   3   5  -3   12.30    2.00
  -3  -5   3   12.60    1.80
   2   5  -3    6.00    1.50
   2   5  -3    6.10    1.20
   2   5  -3    5.00    1.60
   2   5  -3    6.20    1.30
   1   5  -3   11.20    1.70
   1   5  -3    8.60    1.10
   1   5  -3    7.30    1.70
   1   5  -3    9.40    1.40
   0   5  -3   94.99    7.90
   0   5  -3  101.79    8.10
   0   5  -3  108.09    7.50
   0   5  -3   98.09    7.30
  -1   5  -3   15.70    2.20
  -1   5  -3   17.30    2.60
  -2   5  -3  447.46   33.80
  -2   5  -3  466.85   33.70
  -2   5  -3  491.15   34.20
   2  -5   3  466.35   33.20
  -3   5  -3    6.10    1.50
  -3   5  -3    7.10    2.60
  -3   5  -3    7.50    1.10
  -3   5  -3    6.20    1.00
  -3   5  -3    4.50    1.80
   3  -5   3    4.70    0.70
   3  -5   3    3.60    0.80
  -4   5  -3  270.67   19.90
  -4   5  -3  222.08   18.50
  -4   5  -3  260.47   18.70
  -4   5  -3  236.58   19.20
  -4   5  -3  259.97   18.40
   4  -5   3  258.37   18.30
   4  -5   3  267.37   18.00
  -5   5  -3   22.70    2.90
  -5   5  -3   27.50    3.20
  -5   5  -3   22.20    4.00
  -5   5  -3   19.30    4.10
   5  -5   3   23.40    2.50
   5  -5   3   28.00    2.10
  -6   5  -3  252.17   17.10
  -6   5  -3  212.38   17.00
  -6   5  -3  225.98   18.40
  -6   5  -3  214.68   17.90
   6  -5   3  234.28   16.20
   6  -5   3  211.98   16.50
  -7   5  -3   -2.80    2.20
  -7   5  -3    1.30    1.50
  -7   5  -3    0.70    1.70
  -7   5  -3    3.60    2.80
   7  -5   3    0.10    0.90
   7  -5   3    1.50    0.70
  -8   5  -3   14.60    4.20
  -8   5  -3   20.90    3.60
  -8   5  -3   14.40    4.00
   8  -5   3   11.80    2.00
  -9   5  -3    9.30    3.10
  -9   5  -3    6.00    4.20
  -9   5  -3    3.00    3.20
   9  -5   3    7.60    1.80
 -10   5  -3    6.60    3.40
 -10   5  -3    7.60    4.00
 -10   5  -3    9.30    4.70
  10  -5   3    8.00    1.80
 -11   5  -3    5.90    4.90
 -11   5  -3    7.00    3.70
 -11   5  -3    1.70    4.10
  11  -5   3    2.80    1.80
  12   4  -3    0.30    1.50
 -12  -4   3   -3.80    4.40
  11   4  -3    2.40    1.70
 -11  -4   3    0.10    3.30
  10   4  -3    2.90    1.50
 -10  -4   3    2.90    1.70
 -10  -4   3    5.70    3.20
   9   4  -3    2.80    1.40
  -9  -4   3    1.50    1.30
  -9  -4   3    2.90    2.70
   8   4  -3  113.49   10.50
   8   4  -3  110.69    8.70
  -8  -4   3  106.39    8.70
  -8  -4   3  116.49   10.00
   7   4  -3    7.10    2.90
   7   4  -3    6.50    1.40
   7   4  -3    5.50    1.10
   7   4  -3    7.40    1.50
  -7  -4   3    4.40    1.40
   6   4  -3   61.39    4.60
   6   4  -3   57.79    4.60
   6   4  -3   56.39    6.10
   6   4  -3   51.79    4.70
  -6  -4   3   55.19    4.80
   5   4  -3   32.40    4.20
   5   4  -3   39.10    3.10
   5   4  -3   38.60    3.10
   5   4  -3   30.90    3.30
  -5  -4   3   37.40    3.40
   4   4  -3   20.50    1.90
   4   4  -3   21.00    2.00
   4   4  -3   19.90    2.20
   4   4  -3   21.00    3.00
  -4  -4   3   20.60    2.20
   3   4  -3  393.46   28.80
   3   4  -3  364.86   29.30
   3   4  -3  445.16   29.60
  -3  -4   3  448.76   29.10
  -3  -4   3  380.36   29.00
   2   4  -3  264.47   17.30
   2   4  -3  225.88   17.10
  -2  -4   3  218.98   17.00
   1   4  -3   11.90    1.20
   1   4  -3    8.30    1.60
   1   4  -3   10.60    1.60
   1   4  -3   11.90    1.50
   0   4  -3   41.50    3.20
   0   4  -3   43.00    3.20
   0   4  -3   47.60    4.10
   0   4  -3   46.70    4.00
  -1   4  -3  827.62   57.29
  -1   4  -3  793.52   57.39
  -1   4  -3  829.42   57.29
  -1   4  -3  769.82   57.49
  -2   4  -3   -1.00    1.20
  -2   4  -3    1.60    1.10
  -2   4  -3   -0.20    1.30
  -2   4  -3    0.40    0.80
  -3   4  -3    5.50    1.60
  -3   4  -3    5.50    2.00
  -3   4  -3    7.30    1.30
  -3   4  -3    4.90    0.80
   3  -4   3    3.20    0.80
   3  -4   3    5.10    0.60
  -4   4  -3  343.77   25.60
  -4   4  -3  308.47   24.40
  -4   4  -3  348.47   24.40
  -4   4  -3  319.67   25.10
  -4   4  -3  385.06   24.60
   4  -4   3  361.36   24.30
   4  -4   3  360.16   24.00
   4  -4   3  289.07   24.00
  -5   4  -3  162.78   12.10
  -5   4  -3  136.99   12.60
  -5   4  -3  179.88   12.10
  -5   4  -3  150.98   13.20
  -5   4  -3  138.09   12.10
   5  -4   3  174.38   11.50
   5  -4   3  160.68   11.80
  -6   4  -3  409.36   34.80
  -6   4  -3  537.25   34.10
  -6   4  -3  452.15   35.30
  -6   4  -3  459.45   34.20
   6  -4   3  453.55   33.80
   6  -4   3  504.95   33.40
  -7   4  -3  380.26   28.90
  -7   4  -3  363.66   29.90
  -7   4  -3  339.67   29.40
  -7   4  -3  458.15   28.60
   7  -4   3  370.26   28.20
   7  -4   3  418.46   27.90
  -8   4  -3   50.99    5.40
  -8   4  -3   39.60    5.90
  -8   4  -3   47.00    6.90
   8  -4   3   42.20    4.00
   8  -4   3   43.50    3.60
  -9   4  -3   55.39    7.90
  -9   4  -3   46.50    7.00
  -9   4  -3   59.19    6.30
   9  -4   3   46.30    4.60
   9  -4   3   51.39    4.20
 -10   4  -3  293.07   22.40
 -10   4  -3  307.07   23.50
 -10   4  -3  268.77   23.00
  10  -4   3  265.97   20.80
 -11   4  -3    4.90    3.30
 -11   4  -3    6.70    4.60
 -11   4  -3    0.60    4.30
  11  -4   3    2.10    1.50
 -12   4  -3   32.90    7.10
 -12   4  -3   31.10    6.00
 -12   4  -3   38.80    7.30
  12  -4   3   27.50    3.80
  12   3  -3    0.90    1.60
 -12  -3   3    3.00    4.70
  11   3  -3    3.50    1.80
 -11  -3   3    1.60    4.00
  10   3  -3   10.40    2.10
 -10  -3   3   14.30    4.50
 -10  -3   3   12.30    2.30
   9   3  -3   14.00    2.00
   9   3  -3   12.70    2.20
  -9  -3   3   14.40    3.70
  -9  -3   3   17.00    2.40
   8   3  -3    1.60    2.70
   8   3  -3    0.60    1.00
   8   3  -3    2.70    1.00
  -8  -3   3    4.20    1.30
  -8  -3   3   -0.70    2.20
   7   3  -3    3.50    1.00
   7   3  -3    5.10    2.70
   7   3  -3    5.90    1.30
  -7  -3   3    4.70    1.40
  -7  -3   3    4.40    2.20
   6   3  -3   38.90    3.80
   6   3  -3   41.10    5.20
   6   3  -3   46.90    3.70
  -6  -3   3   43.00    3.90
   5   3  -3   20.20    2.20
   5   3  -3   22.60    2.30
   5   3  -3   23.40    2.10
   5   3  -3   16.70    3.10
  -5  -3   3   20.20    2.30
   4   3  -3   28.50    2.70
   4   3  -3   30.30    2.60
   4   3  -3   30.80    3.60
   4   3  -3   30.80    2.60
  -4  -3   3   31.70    3.40
  -4  -3   3   32.90    2.90
   3   3  -3   86.89    6.50
   3   3  -3   90.79    6.50
   3   3  -3   89.89    7.10
   3   3  -3   82.19    6.60
  -3  -3   3   86.19    6.60
   2   3  -3   76.09    6.20
   2   3  -3   74.59    5.90
   2   3  -3   83.59    5.90
  -2  -3   3   83.59    6.00
   1   3  -3  235.18   17.20
   1   3  -3  243.58   17.10
   1   3  -3  235.98   17.60
  -1  -3   3  242.08   17.20
   0   3  -3 2045.10  133.29
   0   3  -3 1752.32  133.19
   0   3  -3 1873.01  133.39
  -1   3  -3  248.98   18.60
  -1   3  -3  263.27   18.40
  -1   3  -3  241.78   18.50
  -1   3  -3  256.17   18.30
  -2   3  -3    7.70    1.30
  -2   3  -3    9.00    2.00
  -2   3  -3    8.20    1.60
  -2   3  -3    5.80    1.90
  -3   3  -3  125.09    9.80
  -3   3  -3  149.69   10.90
  -3   3  -3  145.39    9.80
  -3   3  -3  147.79   10.10
  -3   3  -3  122.39   10.40
  -3   3  -3  140.59   11.00
   3  -3   3  127.69    9.70
  -4   3  -3  167.38   14.00
  -4   3  -3  209.08   13.60
  -4   3  -3  182.98   13.60
  -4   3  -3  183.98   14.60
   4  -3   3  198.28   13.10
   4  -3   3  191.38   13.40
   4  -3   3  156.98   13.10
  -5   3  -3   11.00    1.60
  -5   3  -3    9.40    1.90
  -5   3  -3   11.60    3.00
  -5   3  -3    8.50    1.70
   5  -3   3    9.00    0.90
   5  -3   3    9.50    1.00
   5  -3   3    9.60    1.30
  -6   3  -3    6.70    2.30
  -6   3  -3    9.60    3.20
  -6   3  -3   10.60    2.10
   6  -3   3    7.90    1.30
   6  -3   3   10.00    1.10
  -7   3  -3  309.07   25.80
  -7   3  -3  352.26   24.90
  -7   3  -3  332.27   25.40
   7  -3   3  325.17   24.20
   7  -3   3  347.37   23.90
  -8   3  -3  233.68   19.70
  -8   3  -3  250.87   19.40
  -8   3  -3  241.48   18.60
   8  -3   3  231.98   17.70
   8  -3   3  248.18   17.40
  -9   3  -3    8.50    2.90
  -9   3  -3   12.50    4.30
  -9   3  -3   10.60    3.60
   9  -3   3    9.80    1.70
   9  -3   3   11.60    1.50
 -10   3  -3   64.99    7.50
 -10   3  -3   86.89    9.00
 -10   3  -3   87.79    8.90
  10  -3   3   57.49    5.70
  10  -3   3   66.69    5.40
 -11   3  -3   51.09    7.80
 -11   3  -3   53.59    7.10
  11  -3   3   43.70    4.30
  11  -3   3   37.20    3.90
 -12   3  -3   23.70    5.30
 -12   3  -3   18.60    5.30
  12  -3   3   12.10    2.40
  12   2  -3   21.80    3.10
 -12  -2   3   23.50    6.00
  11   2  -3   44.30    4.60
 -11  -2   3   45.90    7.30
  10   2  -3   21.10    2.90
  10   2  -3   22.70    3.00
 -10  -2   3   27.40    5.50
 -10  -2   3   28.90    3.20
   9   2  -3   42.80    4.30
   9   2  -3   48.40    4.30
  -9  -2   3   44.50    4.40
  -9  -2   3   49.99    6.70
   8   2  -3    5.80    1.30
   8   2  -3    9.10    1.60
  -8  -2   3    7.90    2.90
  -8  -2   3    6.90    1.60
   7   2  -3   13.80    3.30
   7   2  -3   12.80    1.70
   7   2  -3   11.70    1.80
  -7  -2   3   12.10    1.90
  -7  -2   3   11.10    2.80
   6   2  -3   11.20    2.80
   6   2  -3    7.10    1.40
   6   2  -3   11.00    1.50
  -6  -2   3    9.10    1.60
  -6  -2   3   10.20    2.60
   5   2  -3   49.30    4.00
   5   2  -3   44.10    4.00
   5   2  -3   44.80    5.20
  -5  -2   3   49.60    3.90
  -5  -2   3   50.59    4.10
  -5  -2   3   50.79    4.80
  -5  -2   3   51.69    5.00
   4   2  -3   22.20    3.30
   4   2  -3   24.20    2.40
   4   2  -3   27.70    2.30
  -4  -2   3   27.90    2.50
  -4  -2   3   26.20    3.00
   3   2  -3    0.00    0.50
   3   2  -3   -0.20    1.10
   3   2  -3   -0.10    0.40
   3   2  -3   -0.20    0.50
  -3  -2   3    0.80    0.90
  -3  -2   3   -0.50    0.70
   2   2  -3    0.30    0.90
   2   2  -3    0.90    1.00
   2   2  -3   -0.10    0.50
   2   2  -3    1.10    0.60
  -2  -2   3    0.00    0.70
   1   2  -3   13.40    1.70
   1   2  -3   17.50    1.60
   1   2  -3   16.60    1.60
   1   2  -3   14.10    1.80
  -1  -2   3   16.00    1.60
   0   2  -3  973.30   72.29
   0   2  -3 1042.00   72.29
   0   2  -3 1056.09   72.59
   0  -2   3 1041.60   72.39
  -1   2  -3    2.30    0.90
  -1   2  -3    1.30    1.10
  -1   2  -3    2.30    1.30
  -1   2  -3    2.30    0.80
  -2   2  -3    4.20    1.30
  -2   2  -3    4.10    1.80
  -2   2  -3    4.90    1.00
  -2   2  -3    4.40    1.60
  -3   2  -3  573.14   39.30
  -3   2  -3  501.55   38.70
  -3   2  -3  626.44   38.40
  -3   2  -3  531.05   38.40
  -3   2  -3  560.64   38.40
  -3   2  -3  537.45   39.00
   3  -2   3  519.75   38.20
   3  -2   3  487.05   38.20
  -4   2  -3   89.59    7.30
  -4   2  -3  109.79    7.10
  -4   2  -3   96.89    7.40
  -4   2  -3   92.99    7.70
  -4   2  -3   98.39    8.10
  -4   2  -3   87.19    8.20
   4  -2   3   86.49    6.80
   4  -2   3   97.99    6.90
  -5   2  -3   47.00    4.40
  -5   2  -3   50.69    4.50
  -5   2  -3   45.30    4.80
  -5   2  -3   50.89    5.50
   5  -2   3   54.89    3.80
   5  -2   3   49.70    3.60
   5  -2   3   46.40    3.90
  -6   2  -3   47.80    3.70
  -6   2  -3   46.00    4.80
  -6   2  -3   39.10    5.50
  -6   2  -3   40.50    4.20
   6  -2   3   42.70    3.30
   6  -2   3   38.80    3.50
  -7   2  -3    8.00    1.50
  -7   2  -3    2.70    2.20
  -7   2  -3    7.50    2.20
  -7   2  -3    0.70    2.80
   7  -2   3    5.10    0.90
   7  -2   3    4.40    1.00
  -8   2  -3   61.69    6.10
  -8   2  -3   57.99    7.00
  -8   2  -3   65.49    6.90
   8  -2   3   58.09    4.60
   8  -2   3   55.69    4.90
  -9   2  -3   48.20    5.80
  -9   2  -3   65.79    7.00
  -9   2  -3   49.10    6.40
   9  -2   3   44.50    4.20
   9  -2   3   45.10    3.90
 -10   2  -3    8.30    3.10
 -10   2  -3   10.10    4.10
 -10   2  -3    3.50    3.50
  10  -2   3    7.40    1.50
  10  -2   3    7.70    1.70
 -11   2  -3    1.70    4.00
 -11   2  -3    2.30    3.20
 -11   2  -3    6.70    3.90
  11  -2   3    0.70    1.20
  11  -2   3    0.40    1.10
 -12   2  -3   23.40    5.30
 -12   2  -3   10.30    5.40
 -12   2  -3    9.90    4.30
  12  -2   3    9.70    1.90
  12  -2   3   10.30    2.20
 -13   2  -3   27.20    6.40
 -13   2  -3   22.00    5.50
  13  -2   3   17.60    3.10
  12   1  -3    0.50    1.70
  12   1  -3    4.00    1.80
 -12  -1   3    7.00    5.30
  11   1  -3   47.60    5.30
  11   1  -3   63.39    5.50
 -11  -1   3   70.19    8.80
  10   1  -3   52.39    5.00
  10   1  -3   54.29    5.00
 -10  -1   3   54.29    5.20
 -10  -1   3   59.49    8.00
   9   1  -3  154.28   12.80
   9   1  -3  168.18   12.90
  -9  -1   3  189.28   13.10
  -9  -1   3  171.78   14.70
   8   1  -3   19.70    2.50
   8   1  -3   19.30    2.40
  -8  -1   3   23.20    4.20
  -8  -1   3   20.10    2.60
   7   1  -3   35.50    3.40
   7   1  -3   31.70    3.30
   7   1  -3   36.50    5.30
  -7  -1   3   43.50    3.60
  -7  -1   3   41.50    5.10
   6   1  -3   45.70    4.00
   6   1  -3   49.40    5.70
   6   1  -3   51.49    4.10
  -6  -1   3   45.10    4.30
  -6  -1   3   43.10    5.30
  -6  -1   3   47.30    5.00
  -6  -1   3   47.70    4.20
   5   1  -3    0.80    0.70
   5   1  -3   -0.10    1.60
   5   1  -3    0.40    0.70
  -5  -1   3    1.30    1.60
  -5  -1   3    1.70    1.00
  -5  -1   3    2.10    0.90
  -5  -1   3   -0.60    1.20
   4   1  -3   22.40    2.20
   4   1  -3   22.80    2.10
   4   1  -3   22.80    3.20
  -4  -1   3   25.30    3.10
  -4  -1   3   21.60    2.90
  -4  -1   3   23.20    2.30
   3   1  -3  245.38   18.90
   3   1  -3  260.17   18.30
  -3  -1   3  251.67   18.30
  -3  -1   3  260.57   18.70
   2   1  -3 1320.57   92.59
   2   1  -3 1246.48   92.99
   2   1  -3 1389.16   92.59
  -2  -1   3 1313.97   92.59
  -2  -1   3 1294.87   92.79
   1   1  -3   33.70    2.60
   1   1  -3   33.70    2.70
   1   1  -3   31.20    3.00
  -1  -1   3   31.70    2.60
   0   1  -3    4.80    0.80
   0   1  -3    5.00    0.60
   0   1  -3    4.50    1.20
   0   1  -3    5.40    0.90
   0  -1   3    4.80    0.70
  -1   1  -3   33.20    2.50
  -1   1  -3   21.80    2.80
  -1   1  -3   23.50    2.00
  -1   1  -3   24.70    2.00
   1  -1   3   21.70    2.00
   1  -1   3   25.70    1.90
  -2   1  -3  347.67   23.90
  -2   1  -3  355.76   24.00
  -2   1  -3  342.37   24.00
  -2   1  -3  341.67   24.40
   2  -1   3  301.57   23.90
  -3   1  -3  390.26   28.10
  -3   1  -3  349.37   27.80
  -3   1  -3  388.96   27.60
  -3   1  -3  421.66   27.20
  -3   1  -3  381.96   27.30
  -3   1  -3  399.06   27.40
   3  -1   3  372.96   27.10
   3  -1   3  362.56   27.10
  -4   1  -3  138.19   11.30
  -4   1  -3  135.19   10.50
  -4   1  -3  153.88   10.10
  -4   1  -3  136.09   11.00
  -4   1  -3  136.09   10.70
  -4   1  -3  140.99   10.60
   4  -1   3  138.19   10.00
   4  -1   3  135.39   10.00
  -5   1  -3   78.09    7.50
  -5   1  -3   79.29    7.10
  -5   1  -3   73.79    6.80
   5  -1   3   78.49    6.20
   5  -1   3   84.29    5.90
   5  -1   3   89.49    6.00
  -6   1  -3   48.10    5.60
  -6   1  -3   44.40    4.60
  -6   1  -3   57.49    3.90
  -6   1  -3   49.40    5.00
   6  -1   3   44.80    3.60
   6  -1   3   45.50    3.90
   6  -1   3   52.59    3.80
  -7   1  -3  282.57   18.90
  -7   1  -3  253.77   19.90
  -7   1  -3  256.67   20.60
  -7   1  -3  252.37   19.60
   7  -1   3  247.08   18.80
   7  -1   3  265.77   18.70
  -8   1  -3    0.80    2.50
  -8   1  -3    6.80    2.50
  -8   1  -3    3.00    2.00
   8  -1   3    1.10    0.80
   8  -1   3    2.60    0.80
  -9   1  -3  125.49   10.90
  -9   1  -3  124.99   11.60
  -9   1  -3  126.29   10.40
   9  -1   3  117.89    8.80
   9  -1   3  107.69    9.00
 -10   1  -3   -4.40    2.40
 -10   1  -3    5.10    3.60
 -10   1  -3    6.10    2.90
  10  -1   3    3.40    1.10
  10  -1   3    2.20    1.10
 -11   1  -3    4.00    4.20
 -11   1  -3    7.80    3.40
 -11   1  -3   17.50    4.80
  11  -1   3    7.70    1.60
  11  -1   3    6.60    1.70
 -12   1  -3    1.10    4.10
 -12   1  -3    7.00    3.80
 -12   1  -3    3.00    4.10
  12  -1   3    1.80    1.20
  12  -1   3    0.80    1.30
 -13   1  -3    2.00    4.20
 -13   1  -3    6.00    5.20
 -13   1  -3    6.80    5.30
  13  -1   3    5.70    1.70
  13  -1   3    2.30    1.90
  12   0  -3   49.99    5.60
  12   0  -3   57.49    5.40
 -12   0   3   81.79    9.90
  11   0  -3   50.89    4.90
  11   0  -3   48.50    5.00
 -11   0   3   61.69    8.60
  10   0  -3   32.50    3.90
  10   0  -3   36.30    3.80
 -10   0   3   35.60    4.80
 -10   0   3   44.40    4.40
 -10   0   3   40.20    6.80
   9   0  -3   19.10    2.60
   9   0  -3   22.90    2.60
  -9   0   3   16.30    2.60
  -9   0   3   26.80    5.20
   8   0  -3   29.80    2.80
   8   0  -3   25.30    3.00
  -8   0   3   27.00    3.10
  -8   0   3   27.50    4.90
   7   0  -3    9.60    1.60
   7   0  -3    9.00    1.60
  -7   0   3   12.80    3.10
  -7   0   3    9.70    1.70
  -7   0   3   12.00    2.40
  -7   0   3    7.30    2.70
   6   0  -3   19.40    2.10
   6   0  -3   18.10    3.70
   6   0  -3   12.20    1.90
  -6   0   3   16.20    3.00
  -6   0   3   19.80    2.20
  -6   0   3   16.60    1.80
  -6   0   3   20.00    2.60
  -6   0   3   12.70    3.10
   5   0  -3  319.47   25.20
   5   0  -3  342.77   24.20
   5   0  -3  335.67   24.00
  -5   0   3  341.27   24.20
  -5   0   3  371.16   25.00
  -5   0   3  336.17   24.90
  -5   0   3  309.07   23.90
   4   0  -3   98.79    7.10
   4   0  -3   90.29    8.00
   4   0  -3   87.29    6.90
  -4   0   3   94.59    7.60
  -4   0   3   91.09    7.10
  -4   0   3   97.09    7.70
   3   0  -3  934.11   61.89
   3   0  -3  816.32   61.79
   3   0  -3  842.92   62.49
  -3   0   3  866.21   62.19
  -3   0   3  871.01   62.29
  -3   0   3  917.61   61.89
   2   0  -3  405.26   31.10
   2   0  -3  456.25   30.60
  -2   0   3  430.16   30.80
  -2   0   3  457.75   30.70
  -2   0   3  387.56   30.50
  -2   0   3  443.66   30.60
   1   0  -3  148.29   10.10
   1   0  -3  128.79   10.50
   1   0  -3  142.39   10.10
  -1   0   3  122.99   10.00
  -1   0   3  141.79   10.10
  -1   0   3  143.79   10.20
  -1   0   3  146.49   10.10
   0   0  -3  135.09   10.50
   0   0  -3  147.99   10.50
   0   0  -3  142.09   10.70
   0   0  -3  143.49   10.50
   0   0   3  155.88   10.40
   0   0   3  153.88   10.30
   0   0   3  136.49   10.40
  -1   0  -3  942.21   63.99
  -1   0  -3  835.22   63.79
  -1   0  -3  919.11   64.49
   1   0   3  942.01   63.69
   1   0   3  888.51   63.79
  -2   0  -3  306.87   19.80
  -2   0  -3  283.97   19.60
  -2   0  -3  262.07   20.50
  -2   0  -3  267.47   19.50
   2   0   3  244.98   19.30
   2   0   3  277.97   19.40
   2   0   3  271.57   19.20
  -3   0  -3 1883.81  129.09
  -3   0  -3 1721.03  130.19
  -3   0  -3 1876.31  129.09
  -3   0  -3 1774.62  129.29
   3   0   3 1811.52  128.69
   3   0   3 1909.21  128.69
  -4   0  -3 1552.84  114.49
  -4   0  -3 1572.24  114.49
  -4   0  -3 1764.42  114.49
  -4   0  -3 1520.55  114.69
   4   0   3 1656.73  113.99
   4   0   3 1652.83  113.99
  -5   0  -3  204.38   16.90
  -5   0  -3  250.67   16.10
  -5   0  -3  222.28   17.20
  -5   0  -3  224.48   17.00
   5   0   3  230.38   16.20
   5   0   3  223.18   16.20
  -6   0  -3  223.98   18.30
  -6   0  -3  237.78   18.50
  -6   0  -3  243.48   19.20
  -6   0  -3  284.17   17.60
   6   0   3  229.98   17.70
   6   0   3  262.37   17.60
   6   0   3  232.88   17.50
  -7   0  -3   87.99    8.10
  -7   0  -3  100.59    8.90
  -7   0  -3   93.79    8.00
   7   0   3  101.19    6.90
   7   0   3  101.49    7.10
   7   0   3   77.79    6.70
  -8   0  -3  148.49   11.50
  -8   0  -3  132.09   11.60
  -8   0  -3  133.49   12.30
   8   0   3  137.59   10.30
   8   0   3  135.69   10.10
  -9   0  -3    2.50    2.20
  -9   0  -3    0.70    3.00
  -9   0  -3   -3.20    1.90
   9   0   3   -1.00    0.70
   9   0   3    1.90    0.80
 -10   0  -3   14.40    3.60
 -10   0  -3    9.60    3.80
 -10   0  -3   12.30    4.20
  10   0   3   12.60    1.90
  10   0   3   12.70    1.70
 -11   0  -3    3.30    3.30
 -11   0  -3    4.40    3.50
 -11   0  -3   -1.50    2.60
  11   0   3    0.30    1.10
  11   0   3    0.60    1.10
 -12   0  -3    3.20    4.30
 -12   0  -3    5.60    3.60
 -12   0  -3    7.60    4.20
  12   0   3    6.60    1.70
  12   0   3    8.00    1.70
 -13   0  -3    7.60    4.90
 -13   0  -3   13.20    5.30
  13   0   3    4.90    1.50
  13   0   3    2.20    1.70
  12  -1  -3   -0.90    1.60
 -12   1   3    0.00    4.40
  11  -1  -3   29.40    3.60
  11  -1  -3   33.30    4.00
 -11   1   3   37.50    7.20
  10  -1  -3    4.30    1.70
  10  -1  -3    2.40    1.40
 -10   1   3    3.30    3.60
 -10   1   3    6.10    2.80
 -10   1   3    3.20    2.20
   9  -1  -3   -0.60    1.10
   9  -1  -3    1.80    1.10
  -9   1   3    2.60    2.40
  -9   1   3   -1.20    1.60
  -9   1   3    2.30    3.40
   8  -1  -3   60.49    5.80
   8  -1  -3   62.39    5.50
  -8   1   3   75.69    6.10
  -8   1   3   67.09    7.30
  -8   1   3   86.49    8.30
  -8   1   3   71.29    6.40
   7  -1  -3   18.60    2.40
   7  -1  -3   18.10    2.10
  -7   1   3   17.30    2.40
  -7   1   3   18.20    3.90
  -7   1   3   14.60    3.40
   6  -1  -3   85.19    7.00
   6  -1  -3   98.99    7.30
   6  -1  -3   83.09    8.90
  -6   1   3   93.99    6.80
  -6   1   3   91.49    8.30
  -6   1   3   88.09    7.20
  -6   1   3  102.69    8.50
   5  -1  -3   43.60    3.70
   5  -1  -3   35.50    3.30
   5  -1  -3   38.80    4.90
  -5   1   3   39.70    3.20
  -5   1   3   45.10    3.80
  -5   1   3   44.20    4.70
  -5   1   3   40.30    4.50
   4  -1  -3  324.27   24.90
   4  -1  -3  366.96   25.10
   4  -1  -3  346.07   26.00
  -4   1   3  358.76   25.70
  -4   1   3  368.96   25.10
  -4   1   3  353.46   25.70
  -4   1   3  333.47   24.80
   3  -1  -3    3.40    0.70
   3  -1  -3    7.20    1.10
   3  -1  -3    4.60    1.80
  -3   1   3    3.60    1.40
  -3   1   3    3.10    1.00
  -3   1   3    3.30    0.60
  -3   1   3    4.60    1.40
   2  -1  -3  428.26   31.60
   2  -1  -3  471.85   31.00
  -2   1   3  414.56   31.30
  -2   1   3  452.15   31.00
  -2   1   3  441.16   31.20
  -2   1   3  405.46   30.80
   1  -1  -3  319.27   22.00
   1  -1  -3  300.67   22.50
   1  -1  -3  301.87   22.00
  -1   1   3  288.27   21.90
  -1   1   3  326.07   22.10
  -1   1   3  313.57   22.00
  -1   1   3  310.87   22.20
   0  -1  -3   -0.20    0.30
   0  -1  -3   -1.40    0.70
   0  -1  -3    0.20    0.40
   0   1   3    0.50    0.30
   0   1   3    0.80    0.40
   0   1   3    1.00    0.30
   0   1   3    1.40    0.60
  -1  -1  -3 1807.42  129.49
  -1  -1  -3 1755.22  129.29
   1   1   3 1781.32  129.19
   1   1   3 1950.40  129.19
   1   1   3 1889.21  129.19
  -2  -1  -3  193.18   14.60
  -2  -1  -3  192.68   14.00
   2   1   3  190.78   13.60
   2   1   3  187.18   13.60
   2   1   3  203.08   13.80
   2   1   3  180.98   13.60
   2   1   3  194.48   13.70
  -3  -1  -3  480.95   34.40
  -3  -1  -3  475.45   34.40
  -3  -1  -3  446.16   34.10
  -3  -1  -3  442.26   35.20
   3   1   3  489.15   33.80
   3   1   3  511.15   34.20
   3   1   3  507.85   33.90
  -4  -1  -3  502.65   35.80
  -4  -1  -3  426.46   36.70
  -4  -1  -3  476.55   35.50
  -4  -1  -3  465.35   35.70
   4   1   3  497.15   35.60
   4   1   3  563.94   35.10
   4   1   3  532.55   35.10
  -5  -1  -3   68.69    6.20
  -5  -1  -3   75.09    6.30
  -5  -1  -3   64.79    6.00
  -5  -1  -3   65.89    7.40
   5   1   3   79.49    5.40
   5   1   3   72.39    6.10
   5   1   3   74.59    5.40
  -6  -1  -3   98.89   11.30
  -6  -1  -3  140.89    8.80
  -6  -1  -3  117.99    9.80
  -6  -1  -3  131.59    8.90
   6   1   3  116.39    9.00
   6   1   3  132.49    9.00
   6   1   3  122.79    9.90
   6   1   3  108.89    8.90
  -7  -1  -3  235.18   17.90
  -7  -1  -3  239.38   17.80
  -7  -1  -3  244.68   18.50
   7   1   3  197.28   16.70
   7   1   3  249.58   16.70
   7   1   3  243.68   16.90
  -8  -1  -3   74.09    7.10
  -8  -1  -3   73.39    6.90
  -8  -1  -3   71.29    7.60
   8   1   3   69.79    5.60
   8   1   3   73.59    5.50
  -9  -1  -3    1.00    2.30
  -9  -1  -3    2.20    2.70
  -9  -1  -3    0.00    2.00
   9   1   3    0.30    0.80
   9   1   3    1.40    0.80
 -10  -1  -3    3.30    3.20
 -10  -1  -3    9.50    3.80
 -10  -1  -3    3.70    2.70
  10   1   3    5.50    1.30
  10   1   3    5.30    1.30
 -11  -1  -3   -1.20    3.30
 -11  -1  -3   -0.30    3.60
 -11  -1  -3    0.40    2.90
  11   1   3    3.20    1.20
  11   1   3    0.90    1.00
 -12  -1  -3    5.20    4.30
 -12  -1  -3    3.60    3.80
  12   1   3    4.70    1.40
  12   1   3    3.80    1.30
 -13  -1  -3   -0.40    4.80
 -13  -1  -3    7.10    4.80
  13   1   3    3.80    1.70
  13   1   3    3.60    1.60
  11  -2  -3   54.69    5.60
 -11   2   3   71.39    9.30
  10  -2  -3    0.90    1.30
  10  -2  -3    0.30    1.20
 -10   2   3    1.60    2.70
 -10   2   3    1.70    2.30
 -10   2   3    1.70    4.20
   9  -2  -3   24.80    2.90
   9  -2  -3   22.70    3.10
  -9   2   3   27.40    3.70
  -9   2   3   28.30    5.40
  -9   2   3   33.30    4.40
   8  -2  -3   32.40    3.70
   8  -2  -3   34.30    3.30
  -8   2   3   35.50    4.60
  -8   2   3   42.50    5.60
  -8   2   3   32.90    5.40
  -8   2   3   36.90    4.10
   7  -2  -3   59.59    5.00
   7  -2  -3   63.39    5.40
  -7   2   3   64.49    6.90
  -7   2   3   65.09    5.50
  -7   2   3   62.49    6.10
  -7   2   3   59.69    6.60
   6  -2  -3  251.97   18.70
   6  -2  -3  240.28   18.40
  -6   2   3  260.17   18.80
  -6   2   3  269.57   19.90
  -6   2   3  254.47   19.70
  -6   2   3  261.17   19.20
   5  -2  -3  940.71   69.39
   5  -2  -3  984.60   68.49
   5  -2  -3  878.01   68.09
  -5   2   3  958.00   69.19
  -5   2   3  950.50   69.19
  -5   2   3 1002.70   68.79
  -5   2   3 1014.60   68.49
  -5   2   3  985.60   67.89
   4  -2  -3   42.70    3.70
   4  -2  -3   45.00    4.90
   4  -2  -3   38.30    3.40
  -4   2   3   40.90    4.20
  -4   2   3   44.30    4.60
  -4   2   3   42.20    3.20
  -4   2   3   46.80    3.80
  -4   2   3   42.60    4.40
   3  -2  -3 1720.33  116.49
   3  -2  -3 1609.94  117.19
   3  -2  -3 1483.35  116.19
  -3   2   3 1577.04  116.89
  -3   2   3 1668.03  116.19
  -3   2   3 1773.62  116.49
  -3   2   3 1730.13  116.89
  -2   2   3   29.30    2.60
  -2   2   3   29.00    3.00
   1  -2  -3  355.86   24.60
   1  -2  -3  357.86   25.20
  -1   2   3  352.36   24.40
  -1   2   3  337.17   24.70
  -1   2   3  361.66   24.60
  -1   2   3  309.47   24.70
  -1   2   3  340.37   24.80
   0  -2  -3  150.08   10.60
   0  -2  -3  144.39   10.60
   0  -2  -3  148.49   11.10
   0   2   3  145.09   10.50
   0   2   3  144.59   10.60
   0   2   3  144.59   10.60
   0   2   3  149.09   10.80
   0   2   3  149.39   10.70
  -1  -2  -3   36.70    2.80
  -1  -2  -3   35.50    3.40
  -1  -2  -3   36.00    2.80
   1   2   3   33.50    2.80
   1   2   3   37.30    2.80
   1   2   3   32.00    2.50
   1   2   3   32.00    2.70
   1   2   3   35.60    2.70
  -2  -2  -3 3643.54  222.68
  -2  -2  -3 2669.33  221.68
  -2  -2  -3 3203.18  222.08
   2   2   3 3031.30  221.58
   2   2   3 3202.08  221.68
   2   2   3 3058.49  221.48
   2   2   3 3269.17  221.58
  -3  -2  -3   88.09    7.80
  -3  -2  -3   90.09    6.90
  -3  -2  -3   83.69    7.10
   3   2   3   91.49    6.40
   3   2   3   81.69    6.40
   3   2   3   87.49    6.60
   3   2   3   91.99    6.30
  -4  -2  -3  369.56   30.00
  -4  -2  -3  385.06   29.20
  -4  -2  -3  373.66   29.00
   4   2   3  402.56   28.90
   4   2   3  447.66   28.50
   4   2   3  428.56   28.60
  -5  -2  -3    8.60    2.00
  -5  -2  -3    8.40    0.80
  -5  -2  -3    8.80    1.80
  -5  -2  -3    8.30    2.70
   5   2   3    9.80    1.80
   5   2   3    9.70    1.10
   5   2   3   10.80    1.00
  -6  -2  -3    9.30    1.00
  -6  -2  -3   11.90    3.70
  -6  -2  -3    9.20    2.10
   6   2   3   10.50    1.30
   6   2   3   12.30    2.30
   6   2   3   11.70    1.20
   6   2   3   11.80    1.20
  -7  -2  -3    1.40    1.70
  -7  -2  -3    2.00    0.60
  -7  -2  -3    0.90    2.80
  -7  -2  -3    0.40    1.50
   7   2   3    2.00    0.70
   7   2   3    1.10    0.70
   7   2   3    1.80    0.60
  -8  -2  -3   22.20    3.50
  -8  -2  -3   15.30    3.10
   8   2   3   12.90    1.70
   8   2   3   18.00    1.80
   8   2   3   15.90    1.80
  -9  -2  -3  175.08   14.80
  -9  -2  -3  184.88   14.40
  -9  -2  -3  196.38   14.40
   9   2   3  168.78   12.90
   9   2   3  163.68   12.80
 -10  -2  -3   10.20    3.70
 -10  -2  -3   13.40    3.60
 -10  -2  -3    8.70    3.80
  10   2   3   10.60    1.60
  10   2   3   11.60    1.80
 -11  -2  -3   30.90    5.50
 -11  -2  -3   21.40    4.60
 -11  -2  -3   21.20    4.60
  11   2   3   18.00    2.40
  11   2   3   17.90    2.30
 -12  -2  -3    2.10    3.50
 -12  -2  -3    3.30    4.10
  12   2   3    1.00    1.10
  12   2   3    0.00    1.10
 -13  -2  -3   56.99    8.30
  13   2   3   54.39    5.00
  11  -3  -3   52.89    5.50
  10  -3  -3   71.69    7.50
 -10   3   3   98.19    8.80
 -10   3   3   94.39   10.80
 -10   3   3   96.59    8.30
   9  -3  -3   11.40    2.30
  -9   3   3   18.30    3.10
  -9   3   3   11.80    3.50
  -9   3   3   20.30    4.90
  -9   3   3   16.10    4.20
   8  -3  -3   94.79    7.90
   8  -3  -3   81.49    7.30
  -8   3   3  110.59    9.90
  -8   3   3   94.59    9.40
  -8   3   3  101.99    8.80
  -8   3   3  107.39    8.40
   7  -3  -3   77.09    6.60
   7  -3  -3   72.19    6.10
  -7   3   3   83.09    6.90
  -7   3   3   79.89    7.20
  -7   3   3   89.99    8.30
  -7   3   3   85.79    8.10
   6  -3  -3   10.60    1.40
   6  -3  -3    8.10    1.60
  -6   3   3   13.80    3.10
  -6   3   3   13.70    2.70
  -6   3   3   12.40    2.20
  -6   3   3   14.30    3.10
   5  -3  -3  261.77   21.00
   5  -3  -3  288.37   21.40
  -5   3   3  299.77   22.30
  -5   3   3  306.57   22.40
  -5   3   3  319.87   21.60
  -5   3   3  298.27   21.80
   4  -3  -3   14.50    1.60
   4  -3  -3   12.60    1.90
   4  -3  -3   20.00    3.30
  -4   3   3   17.50    3.00
  -4   3   3   18.10    3.10
  -4   3   3   17.20    2.50
  -4   3   3   16.60    2.20
  -4   3   3   18.70    1.40
   3  -3  -3   50.59    4.90
   3  -3  -3   50.09    4.00
  -3   3   3   49.60    4.40
  -3   3   3   44.10    4.60
  -3   3   3   46.00    3.60
  -3   3   3   47.40    4.10
   2  -3  -3    0.90    0.60
   2  -3  -3    4.60    1.70
  -2   3   3    2.30    0.90
  -2   3   3    2.10    1.30
  -2   3   3    2.70    0.50
  -2   3   3    1.80    1.30
  -2   3   3    3.70    1.40
   1  -3  -3 1639.74  116.19
   1  -3  -3 1690.13  116.69
  -1   3   3 1774.62  115.99
  -1   3   3 1556.34  116.39
  -1   3   3 1605.24  116.39
  -1   3   3 1621.14  116.39
  -1   3   3 1652.13  116.29
   0  -3  -3   27.40    3.20
   0  -3  -3   27.00    2.20
   0  -3  -3   23.40    2.20
   0   3   3   27.70    2.10
   0   3   3   22.30    2.30
   0   3   3   21.60    2.40
   0   3   3   20.00    2.40
   0   3   3   25.90    2.50
  -1  -3  -3  799.22   55.89
  -1  -3  -3  804.42   56.39
  -1  -3  -3  804.22   55.89
   1   3   3  790.82   55.69
   1   3   3  817.62   55.99
   1   3   3  842.12   55.79
   1   3   3  739.03   55.99
   1   3   3  731.83   55.89
  -2  -3  -3  136.29   10.10
  -2  -3  -3  119.59    9.40
   2   3   3  129.69    9.50
   2   3   3  133.39    9.20
   2   3   3  132.39    9.40
   2   3   3  127.09    9.50
  -3  -3  -3  170.38   12.90
  -3  -3  -3  180.28   12.50
   3   3   3  171.08   12.30
   3   3   3  184.68   12.10
   3   3   3  161.18   12.40
   3   3   3  153.58   12.30
  -4  -3  -3  821.02   58.69
  -4  -3  -3  732.93   58.29
  -4  -3  -3  838.62   59.49
   4   3   3  834.22   58.09
   4   3   3  824.92   58.29
   4   3   3  778.12   57.99
   4   3   3  922.41   57.89
  -5  -3  -3   21.00    3.90
  -5  -3  -3   22.00    2.70
  -5  -3  -3   21.60    1.80
  -5  -3  -3   24.50    3.30
   5   3   3   22.40    2.00
   5   3   3   19.60    2.60
   5   3   3   23.80    1.90
  -6  -3  -3  109.99   10.90
  -6  -3  -3  117.49    8.50
   6   3   3  126.69    8.60
   6   3   3  116.89    9.40
   6   3   3  114.29    8.70
   6   3   3  117.39    8.60
  -7  -3  -3   44.30    4.40
  -7  -3  -3   44.00    4.60
  -7  -3  -3   38.10    5.90
  -7  -3  -3   37.90    3.00
   7   3   3   42.60    3.30
   7   3   3   31.00    3.30
   7   3   3   40.50    3.20
  -8  -3  -3  120.69    9.60
  -8  -3  -3  111.29    9.40
  -8  -3  -3   98.19   11.00
   8   3   3  112.69    8.20
   8   3   3   97.89    8.20
   8   3   3  115.39    8.10
  -9  -3  -3   44.00    5.10
  -9  -3  -3   36.80    4.90
   9   3   3   33.40    3.00
   9   3   3   31.40    3.10
 -10  -3  -3    3.00    2.90
 -10  -3  -3    5.10    3.30
 -10  -3  -3    2.10    2.70
  10   3   3    2.30    1.10
  10   3   3    1.70    0.90
 -11  -3  -3   66.99    7.80
 -11  -3  -3   79.99    8.60
  11   3   3   66.59    5.50
  11   3   3   66.49    5.60
 -12  -3  -3   25.40    5.70
 -12  -3  -3   26.60    5.40
  12   3   3   18.80    2.80
 -13  -3  -3   29.70    6.30
  13   3   3   24.40    3.00
  11  -4  -3   17.40    3.10
 -11   4   3   11.70    5.80
  10  -4  -3   26.60    3.90
 -10   4   3   33.60    5.40
 -10   4   3   33.30    6.70
 -10   4   3   31.90    4.60
   9  -4  -3    1.00    1.70
  -9   4   3    1.70    2.20
  -9   4   3    2.10    3.70
  -9   4   3    3.80    3.40
  -9   4   3    4.30    2.90
   8  -4  -3    5.60    1.60
  -8   4   3    4.10    2.40
  -8   4   3    6.10    2.90
  -8   4   3    6.00    3.20
   7  -4  -3    0.20    1.00
  -7   4   3   -0.80    1.70
  -7   4   3    3.30    2.20
  -7   4   3   -0.10    2.40
   6  -4  -3    1.40    0.80
   6  -4  -3    0.30    1.00
  -6   4   3    1.30    1.60
  -6   4   3   -1.00    2.10
  -6   4   3    1.40    2.30
  -6   4   3    1.40    1.90
   5  -4  -3    5.60    0.90
   5  -4  -3    3.90    1.30
  -5   4   3    3.40    2.60
  -5   4   3    8.80    2.40
  -5   4   3    9.00    2.70
  -5   4   3    5.10    1.90
   4  -4  -3   26.00    2.60
  -4   4   3   30.20    4.10
  -4   4   3   21.50    2.90
  -4   4   3   25.00    2.10
  -4   4   3   27.80    3.60
  -4   4   3   19.50    3.50
   3  -4  -3   59.19    5.20
   3  -4  -3   50.19    4.20
  -3   4   3   52.99    3.80
  -3   4   3   47.90    4.90
  -3   4   3   47.30    4.50
  -3   4   3   47.30    4.70
  -3   4   3   41.90    4.90
   2  -4  -3   69.49    5.30
  -2   4   3   68.29    5.70
  -2   4   3   69.29    5.50
  -2   4   3   70.09    5.00
  -2   4   3   56.89    5.70
  -2   4   3   65.29    5.80
   1  -4  -3  970.90   67.19
   1  -4  -3  958.00   66.69
  -1   4   3  948.51   66.99
  -1   4   3  917.91   66.99
  -1   4   3  934.51   66.99
  -1   4   3  996.80   66.59
  -1   4   3  874.71   66.79
   0  -4  -3  150.08   11.10
   0  -4  -3  152.68   11.10
   0  -4  -3  149.29   11.70
   0   4   3  156.28   10.80
   0   4   3  162.48   11.40
   0   4   3  149.88   11.30
   0   4   3  144.09   11.40
   0   4   3  142.59   11.30
   0   4   3  159.88   11.00
  -1  -4  -3   53.29    4.90
  -1  -4  -3   51.09    4.10
  -1  -4  -3   52.19    4.10
   1   4   3   52.79    4.00
   1   4   3   55.49    3.80
   1   4   3   48.40    4.40
   1   4   3   51.99    4.30
  -2  -4  -3  406.16   30.00
  -2  -4  -3  402.86   30.60
   2   4   3  432.46   30.10
   2   4   3  404.46   30.20
   2   4   3  426.06   30.00
   2   4   3  459.55   29.80
  -3  -4  -3   22.40    3.00
  -3  -4  -3   21.50    2.10
   3   4   3   18.40    1.80
   3   4   3   18.90    1.90
   3   4   3   16.30    1.90
   3   4   3   18.10    1.50
  -4  -4  -3  333.57   24.40
  -4  -4  -3  342.97   24.90
   4   4   3  330.47   24.20
   4   4   3  357.16   24.00
   4   4   3  328.07   24.20
   4   4   3  337.67   24.40
  -5  -4  -3 1164.28   78.09
  -5  -4  -3 1129.19   76.99
  -5  -4  -3 1066.29   76.49
   5   4   3 1042.20   76.19
   5   4   3  990.90   76.19
   5   4   3 1101.39   75.99
   5   4   3 1063.89   76.49
  -6  -4  -3  107.49   10.40
  -6  -4  -3  110.59    8.10
   6   4   3  113.39    8.20
   6   4   3  109.99    9.00
   6   4   3  106.59    8.40
   6   4   3  118.79    8.10
  -7  -4  -3  453.45   32.90
  -7  -4  -3  439.86   31.70
  -7  -4  -3  445.16   34.50
   7   4   3  400.76   31.90
   7   4   3  427.76   32.70
   7   4   3  463.55   31.80
   7   4   3  495.65   31.80
  -8  -4  -3  145.69   14.30
  -8  -4  -3  174.18   12.90
  -8  -4  -3  179.68   12.80
   8   4   3  134.69   11.60
   8   4   3  151.38   11.50
   8   4   3  166.98   11.40
  -9  -4  -3  141.29   11.30
  -9  -4  -3  113.39   12.90
   9   4   3  129.99    9.80
   9   4   3  133.89    9.60
 -10  -4  -3   50.19    6.10
  10   4   3   41.80    3.90
 -11  -4  -3   25.60    5.40
 -11  -4  -3   30.00    5.10
  11   4   3   27.70    3.00
 -12  -4  -3    0.80    3.60
  12   4   3    1.90    1.30
 -13  -4  -3   -4.00    3.50
  13   4   3    0.90    1.60
  10  -5  -3    2.20    1.80
 -10   5   3    1.60    3.00
 -10   5   3    2.50    3.70
 -10   5   3    4.10    4.90
   9  -5  -3    0.90    1.70
  -9   5   3    0.10    3.20
  -9   5   3   -0.40    4.10
  -9   5   3    4.30    2.40
  -9   5   3    2.90    3.60
   8  -5  -3    3.90    1.70
  -8   5   3    4.30    2.80
  -8   5   3    2.70    3.80
  -8   5   3    7.20    2.40
  -8   5   3    2.60    3.40
   7  -5  -3    7.60    1.90
  -7   5   3   10.40    2.60
  -7   5   3    8.20    3.10
  -7   5   3    9.70    3.40
  -7   5   3    4.40    3.60
   6  -5  -3   48.70    4.60
  -6   5   3   53.99    5.80
  -6   5   3   51.69    6.10
  -6   5   3   52.69    6.90
  -6   5   3   48.00    5.10
   5  -5  -3    0.40    1.00
  -5   5   3    1.00    2.00
  -5   5   3    0.60    1.90
  -5   5   3   -1.80    1.60
  -5   5   3    0.70    2.50
   4  -5  -3    0.80    0.90
  -4   5   3    1.20    1.50
  -4   5   3    0.40    2.30
  -4   5   3   -0.70    1.70
  -4   5   3    2.50    1.90
   3  -5  -3  163.58   12.00
  -3   5   3  165.98   12.70
  -3   5   3  157.98   11.60
  -3   5   3  168.68   12.50
  -3   5   3  144.99   12.20
  -3   5   3  154.88   12.70
   2  -5  -3  133.29    9.80
  -2   5   3  122.29   10.00
  -2   5   3  128.69   10.20
  -2   5   3  130.69    9.50
  -2   5   3  134.19   10.40
  -2   5   3  129.09   10.30
   1  -5  -3  294.37   20.70
  -1   5   3  269.47   20.90
  -1   5   3  290.37   21.10
  -1   5   3  297.77   21.10
  -1   5   3  282.47   20.50
  -1   5   3  288.27   21.10
   0  -5  -3    9.90    1.30
   0  -5  -3   11.40    2.20
   0  -5  -3    8.30    1.20
   0   5   3   11.30    1.80
   0   5   3    7.60    1.50
   0   5   3   10.90    1.80
   0   5   3   11.30    1.30
  -1  -5  -3  397.86   30.00
  -1  -5  -3  432.86   29.40
  -1  -5  -3  424.06   29.40
   1   5   3  427.06   29.70
   1   5   3  392.46   29.10
   1   5   3  405.96   29.50
   1   5   3  415.96   29.80
  -2  -5  -3   13.30    1.50
  -2  -5  -3   16.40    1.50
  -2  -5  -3   13.60    2.40
   2   5   3   13.50    1.20
   2   5   3   16.20    1.80
   2   5   3   14.60    1.60
  -3  -5  -3   28.60    3.60
  -3  -5  -3   39.50    2.90
   3   5   3   26.70    2.80
   3   5   3   29.30    2.90
   3   5   3   34.90    3.00
   3   5   3   31.00    2.50
  -4  -5  -3   32.70    3.80
  -4  -5  -3   43.80    5.50
  -4  -5  -3   28.30    2.80
   4   5   3   26.10    2.80
   4   5   3   29.40    2.90
   4   5   3   27.10    2.70
   4   5   3   28.20    2.30
  -5  -5  -3  128.99    9.70
  -5  -5  -3  153.28   11.80
  -5  -5  -3  132.59   10.60
   5   5   3  126.59    9.70
   5   5   3  133.99   10.00
   5   5   3  123.39    9.40
   5   5   3  115.09    9.60
  -6  -5  -3   12.60    3.60
  -6  -5  -3   12.70    2.60
   6   5   3   12.90    1.50
   6   5   3    9.60    1.70
   6   5   3   13.20    1.90
   6   5   3   13.70    1.20
   6   5   3   12.50    2.30
  -7  -5  -3   78.39    8.80
  -7  -5  -3   80.29    5.80
   7   5   3   80.49    5.70
   7   5   3   73.89    6.90
   7   5   3   77.19    5.90
   7   5   3   65.29    6.00
  -8  -5  -3  210.18   17.60
   8   5   3  179.28   14.50
   8   5   3  203.78   14.30
  -9  -5  -3   35.80    4.90
  -9  -5  -3   35.00    6.60
   9   5   3   32.50    3.10
 -10  -5  -3   19.90    5.70
 -10  -5  -3   16.30    3.70
  10   5   3   18.00    2.30
 -11  -5  -3    3.00    2.90
 -11  -5  -3    4.80    3.70
  11   5   3    4.30    1.50
 -12  -5  -3   19.00    4.90
  12   5   3   13.60    2.30
 -13  -5  -3   11.70    4.80
  13   5   3    7.70    2.10
  10  -6  -3    4.30    2.20
 -10   6   3    1.70    4.20
   9  -6  -3    0.10    1.80
  -9   6   3   -4.70    3.30
  -9   6   3    4.20    3.60
  -9   6   3   -0.50    4.10
  -9   6   3   -6.20    2.70
   8  -6  -3    2.60    1.70
  -8   6   3   -0.80    3.80
  -8   6   3    1.70    3.10
  -8   6   3   -0.60    3.00
  -8   6   3    5.20    2.60
   7  -6  -3   10.40    2.10
  -7   6   3    5.60    2.80
  -7   6   3   12.60    3.60
  -7   6   3    8.90    3.50
  -7   6   3    9.70    4.20
   6  -6  -3   27.50    3.70
  -6   6   3   42.50    4.90
  -6   6   3   34.70    5.70
  -6   6   3   37.40    5.40
  -6   6   3   35.70    4.40
   5  -6  -3   25.80    3.20
  -5   6   3   28.00    3.70
  -5   6   3   30.80    4.10
  -5   6   3   23.40    4.40
  -5   6   3   29.30    4.70
   4  -6  -3  355.96   27.10
  -4   6   3  376.16   28.00
  -4   6   3  365.66   27.40
  -4   6   3  379.36   28.20
  -4   6   3  394.26   27.80
   3  -6  -3    5.00    1.20
  -3   6   3    4.50    1.00
  -3   6   3    3.50    1.80
  -3   6   3    3.20    2.30
  -3   6   3    1.90    1.80
  -3   6   3    6.90    2.30
   2  -6  -3    0.60    0.80
  -2   6   3    0.20    1.50
  -2   6   3   -2.70    1.30
  -2   6   3   -0.60    1.70
  -2   6   3    0.70    0.80
   1  -6  -3   28.00    2.70
  -1   6   3   34.90    3.40
  -1   6   3   22.80    3.30
  -1   6   3   25.70    2.50
  -1   6   3   28.90    3.30
   0  -6  -3   39.20    3.70
   0  -6  -3   43.60    3.60
   0   6   3   42.60    4.20
   0   6   3   41.20    3.60
   0   6   3   51.09    4.30
   0   6   3   44.70    4.10
  -1  -6  -3   13.50    1.50
  -1  -6  -3   14.80    1.60
   1   6   3   10.60    1.00
   1   6   3   17.00    2.00
   1   6   3   16.30    2.40
   1   6   3   12.30    1.60
  -2  -6  -3    6.60    1.00
  -2  -6  -3    6.60    1.00
   2   6   3    7.00    1.30
   2   6   3    6.20    0.70
   2   6   3    6.40    1.20
   2   6   3    7.90    1.60
  -3  -6  -3   18.30    3.00
   3   6   3   13.60    1.90
   3   6   3   19.90    2.30
   3   6   3   14.70    1.50
   3   6   3   22.20    2.30
  -4  -6  -3   10.70    1.40
   4   6   3    7.40    1.50
   4   6   3    6.70    1.50
   4   6   3    8.40    1.10
   4   6   3    8.10    1.60
  -5  -6  -3   23.60    4.60
   5   6   3   14.70    2.10
   5   6   3   14.30    1.50
   5   6   3   12.20    1.90
   5   6   3   13.70    2.20
  -6  -6  -3  102.89    9.40
   6   6   3   83.09    7.00
   6   6   3   85.99    6.50
   6   6   3   74.99    6.80
   6   6   3   91.69    7.40
  -7  -6  -3   11.70    4.00
  -7  -6  -3    8.60    1.20
   7   6   3    4.00    1.40
   7   6   3    5.80    2.10
   7   6   3    6.00    1.20
  -8  -6  -3    8.20    3.90
   8   6   3   12.50    1.70
  -9  -6  -3    5.30    3.80
   9   6   3    3.60    1.20
 -10  -6  -3    4.40    4.10
 -10  -6  -3    9.80    3.30
  10   6   3    5.70    1.40
 -11  -6  -3   15.60    4.10
  11   6   3   19.90    2.60
 -12  -6  -3    4.70    3.40
  12   6   3    6.90    1.80
 -13  -6  -3   -1.40    4.00
  13   6   3    1.90    1.50
   9  -7  -3    5.10    2.20
  -9   7   3    7.70    5.10
  -9   7   3    7.10    4.30
  -9   7   3    4.90    3.70
   8  -7  -3   15.80    2.90
  -8   7   3   13.10    4.30
  -8   7   3   22.30    4.80
  -8   7   3   24.30    5.40
   7  -7  -3   24.40    3.50
  -7   7   3   33.30    5.60
  -7   7   3   33.40    5.20
  -7   7   3   29.00    5.80
   6  -7  -3    6.40    1.90
  -6   7   3    3.60    2.70
  -6   7   3    9.70    3.40
  -6   7   3    0.40    2.90
   5  -7  -3   60.79    5.90
  -5   7   3   76.49    7.40
  -5   7   3   65.59    6.80
  -5   7   3   68.09    7.40
   4  -7  -3   73.19    6.70
  -4   7   3   90.09    7.90
  -4   7   3   82.59    8.00
  -4   7   3   83.29    7.60
   3  -7  -3    3.70    1.20
  -3   7   3    3.70    2.20
  -3   7   3    5.50    2.20
  -3   7   3    5.10    2.30
  -3   7   3    3.10    1.10
   2  -7  -3    1.40    0.90
  -2   7   3    1.10    1.80
  -2   7   3    1.70    1.60
  -2   7   3    2.80    1.10
  -2   7   3    4.00    2.10
   1  -7  -3  173.58   12.60
  -1   7   3  174.18   13.30
  -1   7   3  196.18   13.50
  -1   7   3  145.79   12.50
  -1   7   3  170.48   13.10
   0  -7  -3   27.40    2.60
   0  -7  -3   27.10    2.70
   0   7   3   32.00    3.60
   0   7   3   23.50    3.40
   0   7   3   22.80    3.00
   0   7   3   23.60    2.60
  -1  -7  -3    1.40    0.80
  -1  -7  -3    0.50    0.70
   1   7   3    0.70    0.90
   1   7   3   -0.80    1.00
  -2  -7  -3   23.10    2.00
  -2  -7  -3   17.40    2.00
   2   7   3   18.10    2.30
   2   7   3   24.30    2.50
   2   7   3   15.60    1.60
   2   7   3   25.80    3.00
   3   7   3    0.20    0.50
   3   7   3   -1.20    1.00
   3   7   3   -0.10    0.90
   3   7   3   -0.60    1.00
   4   7   3   69.79    5.70
   4   7   3   59.39    4.90
   4   7   3   76.69    5.70
   4   7   3   57.29    5.30
   5   7   3   49.80    4.50
   5   7   3   49.99    4.50
   5   7   3   38.00    4.00
   5   7   3   43.10    3.60
  -6  -7  -3   12.20    4.20
   6   7   3   11.70    2.40
   6   7   3   10.20    1.40
   6   7   3   10.70    1.90
   6   7   3    9.90    2.10
  -7  -7  -3   12.60    4.40
  -7  -7  -3   12.50    1.70
   7   7   3   16.40    2.90
   7   7   3   10.20    1.90
   7   7   3   11.80    1.60
  -8  -7  -3    4.90    3.70
   8   7   3    8.50    1.40
  -9  -7  -3   23.20    5.90
   9   7   3   17.80    2.30
 -10  -7  -3   13.50    5.00
  10   7   3   11.00    2.00
 -11  -7  -3    2.00    3.50
  11   7   3    0.00    1.30
 -12  -7  -3   66.79    8.60
  12   7   3   62.79    5.60
   8  -8  -3   66.29    7.20
  -8   8   3   88.89    9.10
  -8   8   3   88.09   10.20
  -8   8   3   91.79    9.70
   7  -8  -3   67.99    6.90
  -7   8   3   81.69    9.20
  -7   8   3   86.49    8.80
  -7   8   3   89.49    9.30
   6  -8  -3  177.58   15.70
  -6   8   3  220.68   17.30
  -6   8   3  224.08   17.80
  -6   8   3  217.98   17.00
   5  -8  -3   21.40    3.30
  -5   8   3   34.00    5.10
  -5   8   3   39.90    5.90
  -5   8   3   39.30    5.40
   4  -8  -3   13.20    2.30
  -4   8   3   12.90    3.80
  -4   8   3   17.70    3.50
  -4   8   3   18.60    3.70
   3  -8  -3   14.00    2.10
  -3   8   3   13.00    3.30
  -3   8   3   10.80    2.80
  -3   8   3   15.10    3.30
   2  -8  -3   15.60    2.10
  -2   8   3   15.30    3.00
  -2   8   3   10.70    2.80
  -2   8   3   13.20    1.90
  -2   8   3   21.00    3.70
   1  -8  -3   -1.00    0.80
  -1   8   3    0.00    1.60
  -1   8   3   -1.90    1.50
  -1   8   3    0.30    1.10
  -1   8   3    2.70    2.10
   0  -8  -3   20.00    2.30
   0  -8  -3   23.80    2.50
   0   8   3   29.30    3.90
   0   8   3   23.70    3.00
   0   8   3   15.10    2.40
   1   8   3    0.80    1.20
   1   8   3   -1.40    1.10
   1   8   3    1.60    1.60
   2   8   3   92.59    7.70
   2   8   3   74.69    7.10
   2   8   3  102.69    7.40
   3   8   3  424.76   29.40
   3   8   3  386.76   29.70
   4   8   3   83.89    6.60
   4   8   3   55.79    6.00
   4   8   3   71.79    5.60
   4   8   3   93.09    6.50
  -5  -8  -3   -5.00    3.40
   5   8   3    1.60    1.20
   5   8   3    1.50    1.50
   5   8   3    1.50    0.70
   5   8   3    0.40    1.30
  -6  -8  -3   33.70    6.30
   6   8   3   18.10    2.90
   6   8   3   20.30    2.20
   6   8   3   19.80    2.70
   6   8   3   23.60    3.40
  -7  -8  -3    9.60    4.40
   7   8   3    6.90    2.00
   7   8   3    4.60    2.00
   7   8   3    4.10    1.10
  -8  -8  -3   59.19    8.10
   8   8   3   41.70    4.00
  -9  -8  -3   37.40    7.30
   9   8   3   28.00    3.20
  10   8   3   19.30    2.60
 -11  -8  -3    6.90    3.70
  11   8   3    9.60    2.00
 -12  -8  -3    2.90    3.70
  12   8   3   -1.70    1.50
   7  -9  -3   41.80    5.10
  -7   9   3   48.30    7.60
  -7   9   3   46.60    6.90
  -7   9   3   56.09    7.00
   6  -9  -3   38.30    4.70
  -6   9   3   39.10    6.30
  -6   9   3   54.39    7.00
  -6   9   3   46.50    7.40
   5  -9  -3   10.70    2.30
  -5   9   3    8.50    4.30
  -5   9   3   13.50    3.90
  -5   9   3   12.00    3.80
   4  -9  -3  109.49    9.50
  -4   9   3  123.49   10.80
  -4   9   3  121.19   10.70
  -4   9   3  122.29   11.00
   3  -9  -3    1.00    1.30
  -3   9   3    6.70    3.20
  -3   9   3    0.80    2.10
  -3   9   3   -1.30    2.40
   2  -9  -3   40.60    4.20
  -2   9   3   50.29    5.40
  -2   9   3   46.10    6.10
   1  -9  -3  158.88   12.10
   1  -9  -3  146.09   12.00
  -1   9   3  164.28   12.70
  -1   9   3  176.48   13.40
   0   9   3  286.67   21.20
   0   9   3  318.67   20.80
   0   9   3  233.48   20.30
   1   9   3  115.89   10.80
   1   9   3  162.78   11.20
   1   9   3  151.38   11.60
   2   9   3   15.70    2.40
   2   9   3   10.90    2.50
   2   9   3   11.60    2.20
   3   9   3   13.90    2.30
   3   9   3    6.60    1.80
   3   9   3    9.50    2.30
   4   9   3   15.50    2.60
   4   9   3    8.00    1.90
   4   9   3   11.80    2.40
   5   9   3    5.10    2.10
   5   9   3    2.40    1.30
   5   9   3    2.40    1.80
  -6  -9  -3   47.70    7.80
   6   9   3   32.30    3.20
   6   9   3   35.60    4.40
   6   9   3   38.00    4.50
  -7  -9  -3    0.80    4.00
   7   9   3    0.10    0.90
   7   9   3   -0.90    1.50
   7   9   3   -1.20    2.10
  -8  -9  -3   18.20    5.40
   8   9   3   13.20    1.90
   9   9   3   -1.20    1.00
  10   9   3    0.30    1.30
  11   9   3    1.20    1.60
   6 -10  -3   -2.40    1.80
  -6  10   3   -1.60    2.90
  -6  10   3   -4.50    3.60
   5 -10  -3   12.20    2.70
  -5  10   3   18.70    5.10
  -5  10   3   17.90    4.40
   4 -10  -3    0.10    1.60
  -4  10   3   -1.60    3.20
  -4  10   3    2.10    2.80
  -3  10   3  160.38   13.60
  -3  10   3  167.48   14.20
  -2  10   3   -1.70    2.20
  -2  10   3    1.30    2.00
  -2  10   3    1.60    2.80
  -1  10   3   24.40    3.70
  -1  10   3   29.60    4.60
  -1  10   3   24.40    4.20
   0  10   3   37.90    4.40
   0  10   3   33.10    4.70
   1  10   3  102.99    8.20
   1  10   3   88.69    8.70
   2  10   3    1.10    1.50
   2  10   3   -0.10    1.60
   3  10   3   -0.50    1.50
   3  10   3   -0.80    1.70
   4  10   3   42.20    5.20
   4  10   3   40.20    4.60
   5  10   3   20.80    3.60
   5  10   3   25.50    3.80
  -6 -10  -3   23.60    6.80
   6  10   3   12.30    3.00
   6  10   3   14.30    3.10
  -7 -10  -3   98.29   11.00
   7  10   3   82.09    8.10
   7  10   3   76.39    7.90
  -8 -10  -3   11.00    5.60
  10  10   3   22.90    2.90
  -5  11   3    9.60    4.10
  -5  11   3    0.60    3.60
  -5  11   3    7.00    4.20
  -4  11   3   36.80    6.50
  -4  11   3   25.40    5.30
  -4  11   3   51.49    6.30
  -3  11   3  242.68   19.00
  -3  11   3  262.97   19.90
  -3  11   3  216.48   19.40
  -2  11   3    5.90    3.80
  -2  11   3    4.50    3.10
  -2  11   3    3.90    2.50
  -1  11   3   23.50    3.60
  -1  11   3   12.60    3.40
   0  11   3   11.70    2.80
   0  11   3   10.60    3.30
   1  11   3    2.50    2.40
   1  11   3    3.60    1.90
   2  11   3    1.20    2.00
   2  11   3    2.10    1.70
   3  11   3    5.20    2.50
   3  11   3    7.30    2.30
   4  11   3   10.00    3.20
   4  11   3   15.90    3.10
   5  11   3   30.30    4.80
   5  11   3   41.20    5.00
   6  11   3   89.99    8.70
   6  11   3   90.69    8.60
   7  11   3  252.87   20.00
   7  11   3  254.67   19.90
  -4  12   3    0.30    4.70
  -4  12   3   -2.30    2.80
  -3  12   3    2.30    3.40
  -3  12   3    2.30    2.70
  -3  12   3    8.30    4.50
  -2  12   3   23.90    4.30
  -2  12   3   11.50    4.00
  -1  12   3    1.50    2.80
  -1  12   3    1.10    2.40
   0  12   3   10.60    3.70
   0  12   3   13.90    3.10
   1  12   3   18.80    3.40
   1  12   3   11.10    3.60
   2  12   3    2.70    2.30
   2  12   3   -1.40    2.30
   3  12   3   99.69    8.70
   3  12   3   91.99    9.40
   4  12   3   52.99    6.30
   4  12   3   37.10    5.10
   5  12   3  145.69   12.20
   5  12   3  145.19   12.80
  -6 -12  -3   13.40    7.50
   6  12   3   11.50    3.60
   6  12   3    8.00    3.30
   7  12   3   -3.30    3.00
   7  12   3    0.90    2.60
  -1  13   3   -2.00    3.10
  -1  13   3    6.70    2.90
   0  13   3    9.30    3.10
   0  13   3    6.20    3.70
   1  13   3   -0.60    3.00
   1  13   3    0.30    2.20
   2  13   3   -0.70    2.90
   2  13   3    2.60    2.50
   3  13   3   13.50    3.20
   3  13   3    7.50    3.40
   4  13   3   26.90    4.90
   4  13   3   20.40    4.00
   5  13   3   -1.60    2.50
   5  13   3    1.40    3.10
   6  13   3    3.10    3.30
   6  13   3   -3.20    2.70
   2  13  -4  123.69   13.00
   1  13  -4   92.49   10.30
   1  13  -4   79.59    7.40
   0  13  -4   22.90    3.50
   0  13  -4   20.20    5.00
  -6 -12   4   -0.60    2.40
   5  12  -4    6.90    3.00
  -5 -12   4   13.00    2.70
   4  12  -4   79.19    8.20
  -4 -12   4   92.39    7.70
   3  12  -4    9.70    2.60
  -3 -12   4    9.20    2.60
   2  12  -4    1.30    1.60
   2  12  -4   -0.10    2.90
   1  12  -4    2.40    1.50
   1  12  -4    6.80    3.40
   0  12  -4    1.90    3.20
   0  12  -4    1.80    1.30
  -1  12  -4   36.90    3.70
  -1  12  -4   29.60    5.40
  -2  12  -4   -0.30    1.10
  -2  12  -4   -1.50    2.90
  -3  12  -4    1.20    1.40
  -3  12  -4    3.20    3.30
  -4  12  -4    4.90    3.60
  -4  12  -4    2.50    1.80
   7  11  -4    3.00    3.20
  -7 -11   4    4.50    2.60
   6  11  -4   -0.20    2.30
  -6 -11   4    0.20    2.00
   5  11  -4   19.10    3.90
  -5 -11   4   23.80    3.40
   4  11  -4   -0.60    1.80
  -4 -11   4    4.70    2.00
   3  11  -4    0.40    2.90
   3  11  -4    1.50    1.80
  -3 -11   4    3.10    2.00
   2  11  -4    0.90    1.40
   2  11  -4    2.70    2.70
   1  11  -4   66.59    5.90
   1  11  -4   69.89    7.90
   0  11  -4   37.60    3.70
   0  11  -4   36.70    5.60
  -1  11  -4    4.70    3.10
  -1  11  -4    4.40    1.40
  -2  11  -4   17.30    4.10
  -2  11  -4   16.00    2.30
  -3  11  -4   17.70    2.50
  -3  11  -4   13.90    3.80
  -4  11  -4    1.40    3.50
  -4  11  -4    2.10    1.50
  -4  11  -4    1.90    3.10
  -5  11  -4   33.20    5.80
  -5  11  -4   38.70    6.60
  -5  11  -4   37.50    4.40
  -6  11  -4  274.07   23.50
   8  10  -4    1.00    3.10
  -8 -10   4    1.50    2.20
   7  10  -4   -0.80    2.50
  -7 -10   4    1.50    1.80
   6  10  -4    0.10    2.30
  -6 -10   4    4.30    1.90
   5  10  -4    0.20    2.00
  -5 -10   4    1.20    1.90
   4  10  -4    2.90    1.90
  -4 -10   4    0.20    1.50
   3  10  -4   67.19    7.50
   3  10  -4   59.99    6.10
  -3 -10   4   76.79    6.20
   2  10  -4    3.30    2.40
   2  10  -4    0.50    1.30
   1  10  -4   39.40    5.70
   1  10  -4   45.20    4.10
   0  10  -4    5.50    1.30
   0  10  -4    5.80    2.70
  -1  10  -4    1.60    0.90
  -1  10  -4   -1.00    2.10
  -2  10  -4   31.80    3.10
  -2  10  -4   27.50    4.50
  -3  10  -4   19.60    2.60
  -3  10  -4   34.00    5.20
  -3  10  -4   19.90    4.10
  -4  10  -4   18.60    4.20
  -4  10  -4   29.10    3.30
  -4  10  -4   40.00    5.70
  -5  10  -4    7.60    3.40
  -5  10  -4   12.10    2.50
  -5  10  -4   20.30    4.80
  -6  10  -4    1.50    3.20
  -6  10  -4    1.60    1.90
  -7  10  -4    9.10    2.80
  -7  10  -4   10.00    4.40
   9   9  -4   -6.50    3.00
  -9  -9   4    1.30    2.10
   8   9  -4   10.70    4.10
  -8  -9   4   11.00    2.50
   7   9  -4   -3.60    2.20
  -7  -9   4   -0.40    1.70
   6   9  -4   -0.10    2.00
  -6  -9   4    0.30    1.40
   5   9  -4    8.50    2.60
  -5  -9   4    9.40    2.10
   4   9  -4    3.50    1.90
  -4  -9   4    2.00    1.60
   3   9  -4   11.00    3.30
   3   9  -4    9.30    2.10
  -3  -9   4    9.50    2.00
   2   9  -4    1.80    2.00
   2   9  -4    1.90    1.30
   1   9  -4   56.09    6.30
   1   9  -4   57.69    4.80
   0   9  -4  121.09   10.50
   0   9  -4  119.79    9.00
  -1   9  -4    7.60    1.30
  -1   9  -4    8.50    2.50
  -2   9  -4   10.80    2.90
  -2   9  -4    9.70    1.50
  -2   9  -4   13.70    3.30
  -3   9  -4   12.50    3.10
  -3   9  -4   14.60    2.00
  -3   9  -4   14.10    3.30
  -4   9  -4   49.80    6.20
  -4   9  -4   33.90    5.00
  -4   9  -4   39.70    4.00
   4  -9   4   39.70    3.70
  -5   9  -4    2.60    2.40
  -5   9  -4    0.10    1.40
  -5   9  -4    0.70    2.40
   5  -9   4    1.10    1.10
  -6   9  -4   -2.40    2.80
  -6   9  -4    0.80    1.70
   6  -9   4    1.90    1.30
  -7   9  -4   13.80    4.50
  -7   9  -4    8.50    2.70
   7  -9   4   10.10    2.20
  -8   9  -4   14.30    5.20
  -8   9  -4   27.40    4.30
   8  -9   4   17.00    2.90
 -10  -8   4    3.60    3.80
 -10  -8   4    5.60    2.30
   9   8  -4   48.60    7.60
  -9  -8   4   47.10    5.20
   8   8  -4   21.30    4.90
  -8  -8   4   20.40    3.10
   7   8  -4    1.70    2.60
  -7  -8   4   -2.00    1.40
   6   8  -4   30.50    4.70
  -6  -8   4   35.40    3.80
   5   8  -4    9.90    2.60
  -5  -8   4    8.00    2.00
   4   8  -4    2.20    1.60
  -4  -8   4    1.40    1.30
   3   8  -4    3.90    1.50
  -3  -8   4    5.60    1.50
   2   8  -4    3.40    2.10
   2   8  -4    2.00    1.20
   1   8  -4    0.30    0.80
   1   8  -4   -0.40    1.50
   0   8  -4    6.00    1.10
   0   8  -4    9.30    2.50
  -1   8  -4   68.69    6.50
  -1   8  -4   63.99    5.00
  -2   8  -4   37.80    4.60
  -2   8  -4   40.30    4.60
  -2   8  -4   33.50    3.10
   2  -8   4   38.90    3.20
  -3   8  -4    6.10    2.20
  -3   8  -4    5.20    2.40
  -3   8  -4    6.00    1.30
   3  -8   4    4.00    1.10
  -4   8  -4    9.80    1.90
  -4   8  -4   22.60    3.90
  -4   8  -4   14.60    2.90
   4  -8   4   14.40    1.90
  -5   8  -4    7.00    2.40
  -5   8  -4    7.10    1.90
  -5   8  -4    6.60    3.10
   5  -8   4    5.80    1.40
  -6   8  -4   36.40    4.30
  -6   8  -4   32.90    4.60
  -6   8  -4   40.00    6.00
   6  -8   4   31.70    3.60
  -7   8  -4    5.20    2.30
  -7   8  -4    8.60    3.90
   7  -8   4    5.20    1.50
  -8   8  -4   16.50    4.70
  -8   8  -4   14.40    3.40
   8  -8   4   12.20    2.30
  -9   8  -4    0.60    2.70
  -9   8  -4    4.20    4.20
   9  -8   4    3.20    1.70
 -10  -7   4    1.20    1.80
 -10  -7   4   -1.10    3.70
   9   7  -4   45.00    7.10
  -9  -7   4   54.39    5.30
   8   7  -4   14.70    3.90
  -8  -7   4   16.20    2.70
   7   7  -4   27.80    4.70
  -7  -7   4   31.10    3.60
   6   7  -4    8.80    3.00
  -6  -7   4   15.40    2.40
   5   7  -4   13.40    2.80
  -5  -7   4    9.60    1.90
   4   7  -4    3.70    1.60
  -4  -7   4    3.90    1.40
   3   7  -4  107.99    8.70
  -3  -7   4  107.99    8.40
   2   7  -4   11.20    2.50
   2   7  -4   14.10    2.00
   1   7  -4    0.70    1.60
   1   7  -4    0.30    0.70
   0   7  -4   70.69    5.40
   0   7  -4   67.89    6.50
   0  -7   4   75.39    5.40
  -1   7  -4   89.99    7.20
  -1   7  -4   81.49    7.30
  -1   7  -4   75.39    6.10
  -1   7  -4   83.69    6.40
   1  -7   4   85.99    6.20
  -2   7  -4   23.60    3.30
  -2   7  -4   16.90    1.80
  -2   7  -4   17.40    2.20
  -2   7  -4   21.60    3.10
   2  -7   4   19.20    2.00
  -3   7  -4  253.77   18.30
  -3   7  -4  255.67   18.10
  -3   7  -4  218.18   17.20
  -3   7  -4  226.28   17.10
   3  -7   4  223.68   16.90
   3  -7   4  256.27   17.30
  -4   7  -4    0.80    1.40
  -4   7  -4   -0.40    1.70
  -4   7  -4    4.10    2.80
  -4   7  -4    1.90    1.10
   4  -7   4    1.10    0.80
  -5   7  -4   74.69    7.40
  -5   7  -4   74.09    6.60
  -5   7  -4   62.49    6.00
  -5   7  -4   68.49    7.70
   5  -7   4   73.99    5.80
  -6   7  -4   34.80    5.40
  -6   7  -4   28.00    3.80
  -6   7  -4   36.40    4.40
  -6   7  -4   31.10    5.80
   6  -7   4   30.00    3.30
  -7   7  -4   24.70    5.30
  -7   7  -4   16.40    4.20
  -7   7  -4   16.40    3.20
   7  -7   4   12.50    2.10
  -8   7  -4    3.20    3.70
  -8   7  -4   -0.10    2.20
  -8   7  -4    4.60    3.50
   8  -7   4    0.10    1.20
  -9   7  -4    3.60    2.90
  -9   7  -4    7.40    4.50
  -9   7  -4    6.60    4.10
   9  -7   4    9.10    2.10
 -10   7  -4   -0.40    4.20
 -10   7  -4    1.70    3.00
  10  -7   4    1.30    1.80
 -11  -6   4    4.60    2.30
 -11  -6   4    5.60    4.20
  10   6  -4   71.19    6.70
 -10  -6   4   77.99    8.70
 -10  -6   4   82.69    7.00
   9   6  -4   13.50    4.40
   9   6  -4   15.60    2.40
  -9  -6   4   18.30    4.30
  -9  -6   4   12.20    2.50
   8   6  -4    0.80    2.80
   8   6  -4    3.30    1.50
  -8  -6   4    0.20    1.30
   7   6  -4    5.80    2.90
   7   6  -4   -1.10    1.00
  -7  -6   4    1.60    1.50
   6   6  -4   36.90    5.10
  -6  -6   4   36.90    3.70
   5   6  -4  156.48   12.90
  -5  -6   4  163.88   12.20
   4   6  -4   57.49    5.60
  -4  -6   4   60.49    5.10
   3   6  -4   53.99    4.90
  -3  -6   4   53.39    4.60
   2   6  -4    3.80    1.80
   2   6  -4    4.10    1.60
   2   6  -4    5.40    1.30
  -2  -6   4    8.50    1.50
   1   6  -4   51.59    5.30
   1   6  -4   59.29    4.60
   1   6  -4   46.80    4.70
   1   6  -4   52.59    4.20
   0   6  -4   23.90    3.30
   0   6  -4   27.20    2.50
   0   6  -4   28.70    3.40
   0   6  -4   26.40    2.20
  -1   6  -4  163.08   11.70
  -1   6  -4  142.19   11.70
  -1   6  -4  164.78   12.00
  -1   6  -4  154.88   10.80
  -1   6  -4  133.89   10.70
  -2   6  -4   10.60    2.30
  -2   6  -4   11.70    2.60
  -2   6  -4   10.30    2.20
   2  -6   4   12.60    1.40
  -3   6  -4   11.00    1.30
  -3   6  -4    9.50    2.20
  -3   6  -4   11.90    3.00
  -3   6  -4   11.80    2.60
  -3   6  -4   10.10    1.30
   3  -6   4    9.40    1.30
   3  -6   4    8.30    1.00
  -4   6  -4  228.38   16.90
  -4   6  -4  193.38   15.90
  -4   6  -4  229.68   17.60
  -4   6  -4  213.48   15.90
  -4   6  -4  232.38   16.50
   4  -6   4  226.48   15.90
   4  -6   4  210.68   15.50
  -5   6  -4    4.60    1.40
  -5   6  -4    1.70    1.50
  -5   6  -4    1.10    2.10
  -5   6  -4    0.10    2.20
   5  -6   4    2.40    1.00
   5  -6   4    3.60    0.70
  -6   6  -4   55.19    6.70
  -6   6  -4   61.29    5.90
  -6   6  -4   73.29    6.20
  -6   6  -4   56.99    7.30
   6  -6   4   67.49    4.90
   6  -6   4   69.29    5.50
  -7   6  -4   74.69    8.10
  -7   6  -4   75.59    7.00
  -7   6  -4   73.39    8.50
   7  -6   4   77.99    6.30
  -8   6  -4   35.30    4.90
  -8   6  -4   40.40    6.10
  -8   6  -4   37.10    6.50
   8  -6   4   38.40    3.90
  -9   6  -4    4.50    3.90
  -9   6  -4    3.90    3.90
  -9   6  -4   10.00    3.20
   9  -6   4    3.20    1.50
 -10   6  -4    1.10    2.90
 -10   6  -4    0.40    3.50
 -10   6  -4   -1.10    3.60
  10  -6   4   -1.60    1.30
 -11   6  -4    0.80    3.20
 -11   6  -4    4.70    5.00
 -11   6  -4    1.00    4.30
  11  -6   4    0.50    1.60
  11   5  -4    3.30    1.80
 -11  -5   4    0.70    4.10
 -11  -5   4    1.20    2.00
  10   5  -4   10.90    2.50
 -10  -5   4   19.60    3.00
 -10  -5   4   15.20    4.70
   9   5  -4   63.49    6.00
  -9  -5   4   73.09    6.20
  -9  -5   4   72.99    8.00
   8   5  -4   13.50    2.20
   8   5  -4   10.90    3.50
  -8  -5   4   12.60    3.30
  -8  -5   4   10.40    2.00
   7   5  -4  152.08   12.00
   7   5  -4  163.18   13.60
  -7  -5   4  162.78   12.20
   6   5  -4   12.30    3.20
   6   5  -4   11.90    1.90
  -6  -5   4   12.70    2.00
   5   5  -4  142.29   11.70
  -5  -5   4  143.29   10.90
   4   5  -4 1024.10   69.19
   4   5  -4  929.01   69.99
  -4  -5   4  981.50   69.49
   3   5  -4  135.79   10.50
  -3  -5   4  133.69   10.20
   2   5  -4 1018.50   79.19
   2   5  -4 1254.37   79.29
   2   5  -4 1156.08   79.49
  -2  -5   4 1049.09   79.09
   1   5  -4    1.40    0.70
   1   5  -4    0.80    0.90
   1   5  -4    2.90    1.40
   1   5  -4    2.20    1.50
   0   5  -4   34.50    2.60
   0   5  -4   36.60    3.80
   0   5  -4   35.40    3.70
   0   5  -4   32.10    2.80
  -1   5  -4   20.10    3.00
  -1   5  -4   19.50    2.60
  -1   5  -4   15.50    2.50
  -1   5  -4   14.60    2.50
  -2   5  -4    1.10    1.20
  -2   5  -4   -1.90    1.60
  -2   5  -4    0.20    1.20
  -2   5  -4    0.70    1.50
  -3   5  -4    1.20    2.10
  -3   5  -4    2.40    1.70
  -3   5  -4    3.30    1.30
  -3   5  -4    3.40    2.30
   3  -5   4    1.70    0.50
   3  -5   4    2.40    0.80
  -4   5  -4    4.00    1.20
  -4   5  -4    5.60    2.70
  -4   5  -4    4.60    1.50
  -4   5  -4    5.80    1.10
  -4   5  -4    2.50    2.00
   4  -5   4    4.90    0.70
   4  -5   4    4.90    1.10
  -5   5  -4   34.80    4.70
  -5   5  -4   35.50    3.40
  -5   5  -4   36.20    3.70
  -5   5  -4   27.70    4.90
   5  -5   4   32.60    3.00
   5  -5   4   32.00    2.70
  -6   5  -4   13.70    2.30
  -6   5  -4   13.60    3.20
  -6   5  -4   12.80    2.30
  -6   5  -4   10.50    3.60
   6  -5   4   15.10    1.50
   6  -5   4   13.10    1.90
  -7   5  -4  133.89   11.80
  -7   5  -4  126.59   12.40
  -7   5  -4  122.79   10.80
   7  -5   4  144.19    9.80
   7  -5   4  135.59   10.30
  -8   5  -4   12.80    3.00
  -8   5  -4   14.20    4.00
  -8   5  -4   11.20    4.40
   8  -5   4   14.40    1.60
   8  -5   4   14.60    2.20
  -9   5  -4    3.00    2.40
  -9   5  -4    1.60    3.30
  -9   5  -4    3.20    3.50
   9  -5   4    1.30    1.20
 -10   5  -4    9.30    4.30
 -10   5  -4    1.90    2.80
 -10   5  -4   -2.40    3.40
  10  -5   4    3.20    1.40
 -11   5  -4    8.30    5.60
 -11   5  -4    1.50    3.80
 -11   5  -4    6.50    3.70
  11  -5   4    7.30    2.00
  11   4  -4   76.39    6.80
 -11  -4   4   69.99    6.90
 -11  -4   4   86.29    9.30
  10   4  -4    2.70    1.50
 -10  -4   4   -0.10    3.60
 -10  -4   4    4.60    2.00
   9   4  -4    0.30    1.40
  -9  -4   4   -0.90    2.40
  -9  -4   4   -0.20    1.50
   8   4  -4   26.90    5.10
   8   4  -4   20.90    2.80
  -8  -4   4   24.20    4.30
  -8  -4   4   21.80    2.80
   7   4  -4   10.20    1.70
   7   4  -4   10.10    3.30
   7   4  -4    7.50    1.40
   7   4  -4   11.10    1.80
  -7  -4   4    8.60    1.90
  -7  -4   4   13.40    3.10
   6   4  -4  149.99   11.50
   6   4  -4  161.68   11.40
   6   4  -4  159.28   11.30
   6   4  -4  134.29   12.60
  -6  -4   4  149.09   11.60
   5   4  -4   -0.30    1.60
   5   4  -4   -0.50    0.70
   5   4  -4    0.00    0.80
   5   4  -4   -0.90    0.70
  -5  -4   4   -1.70    1.00
   4   4  -4    9.40    2.20
   4   4  -4    9.80    1.40
   4   4  -4   11.60    1.40
  -4  -4   4   10.00    1.60
   3   4  -4  143.49   11.60
   3   4  -4  158.68   11.10
  -3  -4   4  150.08   11.30
   2   4  -4    2.80    1.10
   2   4  -4    4.50    1.30
   2   4  -4    3.10    0.90
  -2  -4   4    2.30    0.90
   1   4  -4   23.20    2.20
   1   4  -4   22.80    2.30
   1   4  -4   27.20    2.60
  -1  -4   4   23.30    2.30
   0   4  -4   15.60    1.20
   0   4  -4   12.50    1.30
   0   4  -4   16.50    2.10
   0   4  -4   16.30    2.30
   0   4  -4   14.90    2.20
  -1   4  -4   81.79    6.30
  -1   4  -4   68.89    6.60
  -1   4  -4   81.39    6.50
  -1   4  -4   82.49    6.60
  -2   4  -4   43.00    4.00
  -2   4  -4   44.60    4.50
  -2   4  -4   40.70    4.40
  -2   4  -4   43.80    3.90
  -3   4  -4   49.70    4.20
  -3   4  -4   49.99    5.00
  -3   4  -4   46.10    4.90
  -3   4  -4   46.40    4.30
   3  -4   4   42.40    3.40
  -4   4  -4  899.71   65.89
  -4   4  -4  871.81   65.19
  -4   4  -4  992.40   65.19
  -4   4  -4 1041.60   65.49
  -4   4  -4  854.71   66.39
   4  -4   4  911.61   64.89
   4  -4   4  803.82   64.99
   4  -4   4  988.30   65.19
  -5   4  -4  104.09    9.80
  -5   4  -4  127.69    8.60
  -5   4  -4   93.29    9.00
  -5   4  -4  105.59    8.50
  -5   4  -4  102.39    8.30
   5  -4   4  116.69    8.20
   5  -4   4   97.59    7.80
   5  -4   4  113.99    7.90
  -6   4  -4   21.60    4.40
  -6   4  -4   22.50    2.80
  -6   4  -4   19.60    2.90
  -6   4  -4   18.90    3.70
   6  -4   4   21.30    2.40
   6  -4   4   24.30    2.00
  -7   4  -4  109.79   11.00
  -7   4  -4  113.79    9.40
  -7   4  -4  100.99   10.10
   7  -4   4  128.19    8.40
   7  -4   4  107.39    8.80
  -8   4  -4  184.38   14.50
  -8   4  -4  189.48   16.00
  -8   4  -4  159.18   15.10
   8  -4   4  180.98   13.70
   8  -4   4  193.08   13.30
  -9   4  -4    2.60    3.40
  -9   4  -4    2.70    2.90
  -9   4  -4    4.90    2.50
   9  -4   4    4.10    1.50
   9  -4   4    4.90    1.10
 -10   4  -4   32.10    6.00
 -10   4  -4   43.60    7.20
 -10   4  -4   37.00    5.60
  10  -4   4   34.20    3.30
  10  -4   4   35.30    3.90
 -11   4  -4   27.30    6.70
 -11   4  -4   30.00    6.30
 -11   4  -4   26.00    5.30
  11  -4   4   26.80    3.50
 -12   4  -4    7.70    4.80
 -12   4  -4    3.40    3.70
 -12   4  -4    1.80    5.30
  12  -4   4    4.90    1.90
  11   3  -4   37.90    4.40
 -11  -3   4   53.59    7.80
 -11  -3   4   37.20    4.40
  10   3  -4   41.50    4.40
 -10  -3   4   46.70    6.90
 -10  -3   4   50.39    4.90
   9   3  -4   -1.20    1.30
   9   3  -4    0.90    1.30
   9   3  -4    1.20    1.20
  -9  -3   4    2.10    2.90
  -9  -3   4    2.50    1.60
   8   3  -4   37.00    5.70
   8   3  -4   27.70    3.20
   8   3  -4   23.10    2.90
  -8  -3   4   29.50    4.70
  -8  -3   4   24.50    3.10
   7   3  -4    0.20    1.00
   7   3  -4    0.50    2.30
   7   3  -4   -0.10    1.00
   7   3  -4    2.20    1.00
  -7  -3   4    1.70    1.40
  -7  -3   4    3.50    2.50
   6   3  -4   41.30    5.70
   6   3  -4   47.50    4.10
   6   3  -4   50.99    4.00
   6   3  -4   42.20    4.00
  -6  -3   4   49.00    5.10
  -6  -3   4   43.40    4.10
   5   3  -4   -1.30    1.60
   5   3  -4    1.00    0.90
   5   3  -4    1.70    0.80
   5   3  -4   -1.30    0.70
  -5  -3   4   -0.30    0.90
   4   3  -4   15.40    1.70
   4   3  -4   15.70    2.80
   4   3  -4   14.30    1.80
   4   3  -4   11.40    1.70
  -4  -3   4   14.50    1.90
   3   3  -4    2.90    0.80
   3   3  -4    2.10    1.30
   3   3  -4    2.50    0.80
  -3  -3   4    3.40    1.00
   2   3  -4    6.30    1.40
   2   3  -4    5.90    1.00
   2   3  -4   10.30    1.20
  -2  -3   4    7.90    1.20
   1   3  -4  741.13   53.19
   1   3  -4  750.72   53.19
   1   3  -4  747.03   53.29
  -1  -3   4  767.82   53.19
   0   3  -4    0.90    0.40
   0   3  -4    0.30    0.80
   0   3  -4    1.50    1.10
   0   3  -4    0.90    0.40
   0  -3   4   -0.10    0.50
  -1   3  -4    9.60    1.60
  -1   3  -4    8.50    1.90
  -1   3  -4   10.10    1.80
  -1   3  -4   10.40    1.50
  -2   3  -4   13.20    1.80
  -2   3  -4   14.60    1.90
  -2   3  -4   11.10    2.20
  -2   3  -4   12.70    2.30
  -3   3  -4  544.65   33.80
  -3   3  -4  504.55   33.30
  -3   3  -4  496.05   34.70
  -3   3  -4  478.35   33.30
  -3   3  -4  433.66   33.90
  -3   3  -4  474.35   34.40
   3  -3   4  425.26   33.30
   3  -3   4  423.86   33.50
  -4   3  -4  734.93   57.39
  -4   3  -4  820.22   57.89
  -4   3  -4  818.82   58.09
  -4   3  -4  800.82   56.89
  -4   3  -4  833.32   56.89
  -4   3  -4  917.01   56.99
   4  -3   4  714.03   56.69
   4  -3   4  789.22   56.59
  -5   3  -4  264.07   16.80
  -5   3  -4  217.18   18.10
  -5   3  -4  241.88   18.00
  -5   3  -4  212.48   17.50
  -5   3  -4  220.08   17.00
   5  -3   4  230.88   16.70
   5  -3   4  211.68   16.40
   5  -3   4  240.38   16.40
  -6   3  -4  630.64   48.70
  -6   3  -4  742.53   47.20
  -6   3  -4  607.64   47.40
   6  -3   4  628.94   47.10
   6  -3   4  691.03   46.80
  -7   3  -4   12.10    2.50
  -7   3  -4    8.90    3.40
   7  -3   4   15.10    1.50
   7  -3   4   10.90    1.70
  -8   3  -4  149.69   12.40
  -8   3  -4  155.18   13.80
   8  -3   4  163.48   11.20
   8  -3   4  143.59   11.50
  -9   3  -4   20.30    3.90
  -9   3  -4   19.20    5.30
   9  -3   4   22.00    2.30
   9  -3   4   25.50    2.70
 -10   3  -4   16.70    4.80
 -10   3  -4   15.50    3.70
  10  -3   4   13.40    1.80
  10  -3   4   15.60    2.40
 -11   3  -4   53.99    8.20
 -11   3  -4   62.19    7.20
  11  -3   4   42.20    4.60
  11  -3   4   46.70    4.30
 -12   3  -4   81.69    9.20
 -12   3  -4   72.79   10.00
  12  -3   4   72.59    6.60
  12   2  -4    2.10    1.80
 -12  -2   4    4.90    4.60
  11   2  -4    1.20    1.50
 -11  -2   4    5.30    4.30
 -11  -2   4   -2.40    2.00
  10   2  -4    0.00    1.40
  10   2  -4    0.30    1.30
 -10  -2   4    1.70    3.40
 -10  -2   4    2.20    1.60
   9   2  -4   37.80    4.00
   9   2  -4   43.90    4.20
  -9  -2   4   41.30    4.30
  -9  -2   4   41.10    6.40
   8   2  -4    0.90    1.10
   8   2  -4    0.00    1.00
  -8  -2   4    1.20    1.40
  -8  -2   4   -1.80    2.20
   7   2  -4   86.69    6.60
   7   2  -4   74.29    6.50
   7   2  -4   79.99    8.40
  -7  -2   4   79.59    6.60
  -7  -2   4   86.09    7.80
   6   2  -4   15.80    3.70
   6   2  -4   15.40    2.00
   6   2  -4   14.50    2.00
  -6  -2   4   13.10    2.00
  -6  -2   4   16.70    3.20
   5   2  -4    4.70    2.40
   5   2  -4    4.60    1.20
   5   2  -4    5.00    1.20
   5   2  -4    4.60    1.10
  -5  -2   4    5.40    1.90
  -5  -2   4    5.90    1.30
   4   2  -4   33.30    2.80
   4   2  -4   28.10    3.90
   4   2  -4   27.90    2.80
   4   2  -4   31.00    2.80
  -4  -2   4   28.70    2.90
  -4  -2   4   30.30    3.40
   3   2  -4  526.75   36.70
   3   2  -4  479.75   37.30
   3   2  -4  536.75   36.70
  -3  -2   4  515.25   36.80
   2   2  -4    7.30    1.10
   2   2  -4    8.80    1.20
   2   2  -4    9.90    1.60
   2   2  -4    7.10    1.60
  -2  -2   4    7.00    1.20
   1   2  -4  118.89    9.90
   1   2  -4  144.99    9.90
   1   2  -4  137.39    9.70
   1   2  -4  125.59   10.10
  -1  -2   4  144.19    9.90
   0   2  -4  880.01   62.79
   0   2  -4  860.31   62.79
   0   2  -4  943.21   62.99
   0   2  -4  844.72   62.59
   0  -2   4  918.31   62.79
  -1   2  -4  238.18   17.40
  -1   2  -4  203.88   17.20
  -1   2  -4  274.87   17.20
  -1   2  -4  268.37   17.90
   1  -2   4  235.58   17.40
  -2   2  -4 1059.19   68.99
  -2   2  -4 1017.20   69.39
  -2   2  -4  997.80   69.59
  -2   2  -4  911.11   68.99
   2  -2   4  898.21   68.79
  -3   2  -4   52.69    5.20
  -3   2  -4   62.49    4.40
  -3   2  -4   63.99    4.50
  -3   2  -4   59.39    4.30
  -3   2  -4   63.39    5.60
  -3   2  -4   47.80    4.70
   3  -2   4   51.19    4.30
   3  -2   4   53.29    4.20
  -4   2  -4   23.50    3.40
  -4   2  -4   20.10    2.40
  -4   2  -4   21.20    2.20
  -4   2  -4   22.20    2.00
  -4   2  -4   19.90    3.40
   4  -2   4   19.40    1.80
   4  -2   4   20.40    1.70
  -5   2  -4   67.89    4.90
  -5   2  -4   69.39    6.40
  -5   2  -4   61.09    5.50
  -5   2  -4   63.19    5.90
  -5   2  -4   63.19    5.40
  -5   2  -4   60.39    6.50
   5  -2   4   61.29    4.70
   5  -2   4   64.39    4.70
  -6   2  -4    3.70    2.00
  -6   2  -4    2.10    2.50
  -6   2  -4    1.90    0.90
   6  -2   4    2.80    0.60
   6  -2   4    2.60    0.80
   6  -2   4    2.80    0.50
  -7   2  -4  263.77   20.40
  -7   2  -4  266.77   21.80
  -7   2  -4  250.07   20.70
   7  -2   4  301.37   19.50
   7  -2   4  268.27   19.70
  -8   2  -4   45.20    5.80
  -8   2  -4   38.20    6.20
  -8   2  -4   42.20    4.90
   8  -2   4   42.10    3.40
   8  -2   4   39.40    3.70
  -9   2  -4    0.10    2.50
  -9   2  -4   -1.10    2.00
  -9   2  -4    1.50    3.00
   9  -2   4   -0.40    0.70
   9  -2   4    0.00    0.80
 -10   2  -4   13.20    3.70
 -10   2  -4   12.20    4.40
 -10   2  -4   19.50    4.40
  10  -2   4   15.70    1.90
  10  -2   4   12.60    2.10
 -11   2  -4   52.79    6.80
 -11   2  -4   48.10    8.10
 -11   2  -4   50.89    7.20
  11  -2   4   40.50    4.00
  11  -2   4   44.10    4.40
 -12   2  -4    9.20    5.20
 -12   2  -4    8.20    4.40
 -12   2  -4   18.30    4.70
  12  -2   4   12.30    2.30
  12  -2   4   13.10    2.10
  12   1  -4    0.30    1.60
 -12  -1   4    0.40    5.10
  11   1  -4   -0.60    1.40
  11   1  -4   -0.50    1.40
 -11  -1   4    0.60    4.00
 -11  -1   4   -3.50    2.20
  10   1  -4   54.99    5.30
  10   1  -4   51.99    5.20
 -10  -1   4   57.69    5.70
 -10  -1   4   69.19    8.60
   9   1  -4   10.70    1.90
   9   1  -4   10.60    2.10
  -9  -1   4   14.20    2.40
  -9  -1   4    7.10    3.60
   8   1  -4   93.89    8.00
   8   1  -4  102.99    8.10
  -8  -1   4   98.19    8.10
  -8  -1   4  114.69   10.00
   7   1  -4   47.10    4.10
   7   1  -4   55.89    6.40
   7   1  -4   46.00    4.10
  -7  -1   4   44.50    4.30
  -7  -1   4   41.20    5.50
  -7  -1   4   41.40    3.80
   6   1  -4   23.70    2.60
   6   1  -4   26.30    4.60
   6   1  -4   23.20    2.50
  -6  -1   4   25.10    2.80
  -6  -1   4   26.40    4.00
   5   1  -4  304.57   21.40
   5   1  -4  282.37   22.50
   5   1  -4  271.57   21.20
  -5  -1   4  305.17   21.40
  -5  -1   4  309.87   22.10
  -5  -1   4  294.37   22.00
   4   1  -4   64.89    5.60
   4   1  -4   78.89    5.80
   4   1  -4   72.19    6.80
   4   1  -4   76.69    5.90
  -4  -1   4   71.89    6.30
  -4  -1   4   70.09    6.30
  -4  -1   4   76.59    5.80
   3   1  -4   51.89    4.10
   3   1  -4   46.30    4.90
   3   1  -4   50.29    4.10
  -3  -1   4   49.10    4.40
  -3  -1   4   48.30    4.10
  -3  -1   4   52.69    4.40
   2   1  -4   33.70    2.80
   2   1  -4   26.80    3.40
   2   1  -4   30.10    2.70
  -2  -1   4   32.30    2.90
  -2  -1   4   31.10    2.80
   1   1  -4   15.20    2.00
   1   1  -4   17.40    1.70
   1   1  -4   15.60    2.30
   1   1  -4   16.80    1.80
   1   1  -4   15.80    1.90
  -1  -1   4   15.70    1.70
   0   1  -4   12.30    1.40
   0   1  -4   13.30    1.80
   0   1  -4   13.20    2.20
   0   1  -4   13.30    1.60
   0  -1   4   11.00    1.30
   0  -1   4    9.50    1.30
  -1   1  -4   14.40    1.20
  -1   1  -4   14.00    1.20
  -1   1  -4   10.10    1.50
  -1   1  -4    8.70    2.50
   1  -1   4    9.20    1.30
   1  -1   4   11.10    1.20
  -2   1  -4   87.69    6.50
  -2   1  -4   77.99    6.50
  -2   1  -4   76.29    7.80
  -2   1  -4   98.39    7.00
   2  -1   4   85.09    6.40
   2  -1   4   92.99    6.30
  -3   1  -4   -0.50    1.30
  -3   1  -4    0.60    0.90
  -3   1  -4    0.20    0.60
  -3   1  -4   -0.40    0.90
   3  -1   4    0.90    0.30
   3  -1   4    0.10    0.40
   3  -1   4    0.10    0.30
  -4   1  -4   34.40    2.90
  -4   1  -4   26.70    4.00
  -4   1  -4   29.80    3.20
  -4   1  -4   31.30    3.20
  -4   1  -4   29.10    3.60
  -4   1  -4   33.20    2.50
   4  -1   4   29.90    2.40
   4  -1   4   30.20    2.50
  -5   1  -4   33.70    4.50
  -5   1  -4   23.80    3.10
  -5   1  -4   20.50    3.00
  -5   1  -4   25.70    3.70
  -5   1  -4   29.10    2.20
   5  -1   4   25.70    2.20
   5  -1   4   28.10    2.20
  -6   1  -4   37.90    4.80
  -6   1  -4   38.30    4.30
  -6   1  -4   39.20    5.50
   6  -1   4   38.10    3.40
   6  -1   4   41.40    3.00
   6  -1   4   39.90    3.10
  -7   1  -4    2.90    1.80
  -7   1  -4    2.70    2.00
  -7   1  -4    2.10    2.70
   7  -1   4    2.70    0.70
   7  -1   4    2.90    0.90
  -8   1  -4  148.39   13.30
  -8   1  -4  161.48   12.90
  -8   1  -4  162.78   14.10
   8  -1   4  173.48   11.70
   8  -1   4  153.18   11.90
  -9   1  -4   28.50    4.30
  -9   1  -4   26.50    5.60
  -9   1  -4   25.70    4.80
   9  -1   4   26.00    2.50
   9  -1   4   27.10    2.80
 -10   1  -4    0.20    2.70
 -10   1  -4    3.60    3.60
 -10   1  -4    4.70    2.70
  10  -1   4    0.40    1.00
  10  -1   4    2.30    1.00
 -11   1  -4   32.90    5.70
 -11   1  -4   43.40    7.10
 -11   1  -4   33.00    5.40
  11  -1   4   28.50    3.10
  11  -1   4   26.60    3.20
 -12   1  -4   61.99    9.20
 -12   1  -4   51.49    7.80
 -12   1  -4   46.90    7.00
  12  -1   4   48.80    4.70
  12  -1   4   56.19    5.00
 -13   1  -4    8.50    4.50
 -13   1  -4   10.30    5.60
 -13   1  -4   20.60    5.90
  13  -1   4   10.80    2.00
  13  -1   4   13.50    2.50
  11   0  -4  205.18   17.60
  11   0  -4  224.68   17.90
 -11   0   4  253.47   18.20
 -11   0   4  260.87   18.90
 -11   0   4  254.27   20.60
  10   0  -4    3.80    1.50
  10   0  -4   -0.70    1.40
 -10   0   4    0.40    3.70
 -10   0   4    1.40    2.10
 -10   0   4   -1.60    2.50
   9   0  -4    3.10    1.40
   9   0  -4    3.20    1.40
  -9   0   4    2.40    3.20
  -9   0   4   -0.40    1.90
   8   0  -4    1.50    1.10
   8   0  -4    1.60    1.20
  -8   0   4   -0.50    2.80
  -8   0   4   -1.10    1.30
   7   0  -4   10.90    1.90
   7   0  -4   15.10    2.00
  -7   0   4   16.20    2.20
  -7   0   4   14.90    3.60
   6   0  -4   10.00    1.60
   6   0  -4   10.50    3.20
   6   0  -4    6.40    1.30
  -6   0   4    6.90    1.20
  -6   0   4    7.60    2.60
  -6   0   4    7.40    1.60
  -6   0   4    7.50    2.60
   5   0  -4   40.40    3.80
   5   0  -4   44.70    5.40
   5   0  -4   47.70    4.00
  -5   0   4   46.10    5.10
  -5   0   4   44.30    4.00
  -5   0   4   50.79    5.00
  -5   0   4   45.10    3.70
   4   0  -4   61.69    5.00
   4   0  -4   59.69    6.20
   4   0  -4   67.39    5.10
  -4   0   4   67.79    5.80
  -4   0   4   56.19    4.90
  -4   0   4   71.99    5.30
  -4   0   4   65.19    5.80
   3   0  -4   15.70    1.70
   3   0  -4   14.50    1.80
   3   0  -4   12.90    2.50
  -3   0   4   12.10    2.00
  -3   0   4   15.30    2.20
  -3   0   4   15.30    1.80
  -3   0   4   12.70    1.40
   2   0  -4  147.79   10.60
   2   0  -4  155.58   10.60
   2   0  -4  129.69   11.10
  -2   0   4  150.18   10.80
  -2   0   4  151.88   10.60
  -2   0   4  136.79   10.60
  -2   0   4  129.19   10.40
   1   0  -4  244.78   17.10
   1   0  -4  248.68   17.10
   1   0  -4  223.88   17.60
  -1   0   4  240.48   17.00
  -1   0   4  234.78   17.00
  -1   0   4  247.58   17.10
  -1   0   4  219.28   17.00
   0   0  -4   33.40    3.30
   0   0  -4   25.60    3.10
   0   0  -4   30.80    2.70
   0   0  -4   27.20    2.60
   0   0  -4   30.50    2.60
   0   0   4   28.20    2.50
   0   0   4   30.60    2.50
   0   0   4   31.10    2.30
  -1   0  -4   22.10    2.60
  -1   0  -4   21.00    3.00
  -1   0  -4   21.20    2.10
   1   0   4   24.50    1.90
   1   0   4   24.10    2.00
  -2   0  -4   63.99    5.30
  -2   0  -4   61.79    6.50
  -2   0  -4   63.89    4.90
  -2   0  -4   77.59    5.50
   2   0   4   62.09    4.80
   2   0   4   66.59    4.90
  -3   0  -4   70.59    7.40
  -3   0  -4   75.39    5.80
  -3   0  -4   75.79    6.30
  -3   0  -4   80.49    6.10
   3   0   4   71.99    5.30
   3   0   4   74.19    5.40
   3   0   4   76.49    5.50
  -4   0  -4  458.75   35.80
  -4   0  -4  525.85   35.60
  -4   0  -4  466.45   35.50
  -4   0  -4  453.35   37.10
   4   0   4  528.85   35.00
   4   0   4  528.85   35.10
  -5   0  -4   93.79   10.10
  -5   0  -4  102.69    8.50
  -5   0  -4  105.69    8.50
  -5   0  -4   94.29    8.80
   5   0   4  113.19    7.70
   5   0   4  112.39    7.70
  -6   0  -4   76.49    6.90
  -6   0  -4   80.09    7.70
  -6   0  -4   77.29    7.40
  -6   0  -4   78.69    7.00
   6   0   4   82.79    5.90
   6   0   4   78.49    5.80
  -7   0  -4   -0.20    2.30
  -7   0  -4   -0.10    1.70
  -7   0  -4    0.80    1.60
   7   0   4    0.10    0.50
   7   0   4    0.90    0.70
   7   0   4   -0.30    0.50
  -8   0  -4  117.99   10.90
  -8   0  -4  113.69    9.70
  -8   0  -4  105.49    9.80
   8   0   4  120.39    8.40
   8   0   4  107.59    8.50
  -9   0  -4    1.80    2.10
  -9   0  -4    3.60    2.40
  -9   0  -4    9.40    3.80
   9   0   4    0.90    0.80
   9   0   4    1.10    0.70
 -10   0  -4    5.00    3.90
 -10   0  -4    9.30    3.40
 -10   0  -4    6.50    3.10
  10   0   4   11.40    1.70
  10   0   4    7.10    1.40
 -11   0  -4   79.29    8.30
 -11   0  -4   67.49    7.80
 -11   0  -4   78.79    8.80
  11   0   4   65.39    5.70
  11   0   4   59.99    5.50
 -12   0  -4   10.30    4.40
 -12   0  -4    7.80    4.00
 -12   0  -4    4.00    3.80
  12   0   4    8.90    1.80
  12   0   4    8.40    1.80
 -13   0  -4   55.49    7.90
 -13   0  -4   54.29    8.80
 -13   0  -4   69.19    9.30
  13   0   4   53.79    5.10
  13   0   4   53.79    5.20
  11  -1  -4   45.20    4.50
  11  -1  -4   43.80    4.90
 -11   1   4   38.10    5.20
 -11   1   4   40.70    5.80
 -11   1   4   52.49    7.80
  10  -1  -4    2.80    1.50
  10  -1  -4    1.20    1.40
 -10   1   4    7.00    4.40
 -10   1   4   -0.70    2.70
 -10   1   4   -1.80    2.20
   9  -1  -4    1.50    1.20
   9  -1  -4    0.30    1.20
  -9   1   4    1.40    3.20
  -9   1   4    3.30    2.00
  -9   1   4    2.30    2.60
   8  -1  -4    0.20    1.00
   8  -1  -4    0.90    1.20
  -8   1   4    1.20    1.70
  -8   1   4    1.30    2.00
  -8   1   4   -0.80    2.70
   7  -1  -4   20.90    2.70
   7  -1  -4   19.90    2.40
  -7   1   4   30.60    4.50
  -7   1   4   22.00    2.90
   6  -1  -4  410.16   29.40
  -6   1   4  415.46   30.40
  -6   1   4  417.26   29.40
  -6   1   4  398.36   28.90
  -6   1   4  392.76   30.20
   5  -1  -4  635.34   49.90
   5  -1  -4  738.43   50.29
   5  -1  -4  694.93   51.39
  -5   1   4  690.43   49.90
  -5   1   4  777.92   51.09
  -5   1   4  685.53   50.89
  -5   1   4  718.73   50.19
   4  -1  -4  488.55   35.90
   4  -1  -4  442.06   34.60
   4  -1  -4  537.05   34.90
  -4   1   4  466.75   34.60
  -4   1   4  487.35   35.30
  -4   1   4  510.85   34.80
  -4   1   4  479.15   35.40
   3  -1  -4   38.50    3.10
   3  -1  -4   32.90    4.10
  -3   1   4   32.60    2.80
  -3   1   4   37.20    3.20
  -3   1   4   33.20    3.60
  -3   1   4   32.00    3.50
   2  -1  -4   12.30    2.30
   2  -1  -4    9.50    1.30
   2  -1  -4    9.80    1.40
  -2   1   4   10.20    1.80
  -2   1   4    9.90    1.60
  -2   1   4    9.80    1.30
  -2   1   4   10.20    1.20
   1  -1  -4 2751.62  183.18
   1  -1  -4 2676.13  183.18
   1  -1  -4 2531.45  183.68
  -1   1   4 2426.36  183.08
  -1   1   4 2592.04  183.28
  -1   1   4 2677.03  183.18
  -1   1   4 2562.94  183.18
   0  -1  -4  139.49   10.30
   0  -1  -4  137.59   10.80
   0  -1  -4  144.69   10.30
   0   1   4  145.59   10.30
   0   1   4  137.99   10.00
   0   1   4  135.39   10.20
   0   1   4  142.69   10.20
  -1  -1  -4  480.35   36.10
  -1  -1  -4  526.35   36.50
   1   1   4  491.25   36.00
   1   1   4  513.85   36.10
   1   1   4  536.25   36.10
  -2  -1  -4  124.99   10.30
  -2  -1  -4  149.09   10.90
  -2  -1  -4  140.49   11.50
   2   1   4  152.58   10.40
   2   1   4  151.08   10.20
   2   1   4  145.89   10.30
   2   1   4  129.09   10.20
   2   1   4  154.08   10.40
  -3  -1  -4 1129.69   77.39
  -3  -1  -4 1154.88   77.39
  -3  -1  -4 1020.70   76.99
  -3  -1  -4 1011.70   78.29
   3   1   4 1169.58   76.89
   3   1   4 1078.79   76.79
   3   1   4 1072.99   76.69
  -4  -1  -4    1.40    1.40
  -4  -1  -4    1.70    1.40
  -4  -1  -4    2.40    2.00
  -4  -1  -4    0.90    0.90
   4   1   4    1.40    0.40
   4   1   4    0.80    0.40
  -5  -1  -4    0.00    1.90
  -5  -1  -4    2.90    1.60
  -5  -1  -4    0.70    1.10
  -5  -1  -4    1.50    1.40
   5   1   4    0.60    0.40
   5   1   4    0.70    0.40
  -6  -1  -4  183.78   15.00
  -6  -1  -4  163.18   16.60
  -6  -1  -4  196.48   15.30
  -6  -1  -4  205.98   15.30
   6   1   4  205.28   14.20
   6   1   4  215.98   14.20
  -7  -1  -4   56.09    5.80
   7   1   4   63.69    4.40
   7   1   4   51.89    4.40
   7   1   4   54.09    4.30
  -8  -1  -4   31.00    4.20
  -8  -1  -4   34.70    5.40
  -8  -1  -4   31.40    4.40
   8   1   4   35.60    2.80
   8   1   4   27.90    2.60
   8   1   4   29.80    2.80
  -9  -1  -4    7.30    3.30
  -9  -1  -4    4.80    2.60
  -9  -1  -4    8.90    2.70
   9   1   4    5.60    1.20
   9   1   4    5.70    1.20
 -10  -1  -4   53.49    7.60
 -10  -1  -4   54.89    6.30
 -10  -1  -4   45.90    6.40
  10   1   4   47.70    4.10
  10   1   4   47.90    4.20
 -11  -1  -4   -1.10    2.80
 -11  -1  -4    1.40    2.90
 -11  -1  -4   -4.30    2.90
  11   1   4    1.30    1.20
  11   1   4    1.50    1.10
 -12  -1  -4   12.40    5.20
 -12  -1  -4    8.90    4.20
 -12  -1  -4    5.20    3.70
  12   1   4   11.00    1.90
  12   1   4   11.10    1.90
 -13  -1  -4   22.20    5.70
 -13  -1  -4    8.90    4.80
  13   1   4    6.10    1.70
  13   1   4    8.30    1.80
  11  -2  -4   -0.20    1.50
 -11   2   4    3.90    2.90
 -11   2   4    6.80    5.00
  10  -2  -4   41.60    4.50
 -10   2   4   33.10    4.70
 -10   2   4   47.70    7.20
 -10   2   4   36.10    5.40
   9  -2  -4    1.70    1.20
   9  -2  -4    1.50    1.40
  -9   2   4    2.70    3.30
  -9   2   4    3.80    2.70
  -9   2   4   -2.40    1.80
   8  -2  -4   15.90    2.50
   8  -2  -4   11.90    1.90
  -8   2   4   13.60    3.20
  -8   2   4   13.00    4.10
  -8   2   4   11.20    2.50
   7  -2  -4   59.69    5.30
   7  -2  -4   53.39    4.90
  -7   2   4   67.99    7.20
  -7   2   4   64.69    5.70
  -7   2   4   54.99    6.60
  -7   2   4   69.29    6.30
   6  -2  -4  223.88   16.80
   6  -2  -4  200.18   16.40
  -6   2   4  224.08   17.30
  -6   2   4  238.38   17.90
  -6   2   4  243.08   17.90
  -6   2   4  239.98   16.90
   5  -2  -4  130.89   11.00
   5  -2  -4  153.58   11.50
   5  -2  -4  153.38   12.80
  -5   2   4  149.29   11.90
  -5   2   4  157.78   10.90
  -5   2   4  157.78   12.30
  -5   2   4  145.99   12.30
  -5   2   4  162.28   11.50
   4  -2  -4  786.02   54.49
   4  -2  -4  731.23   55.39
  -4   2   4  742.43   54.99
  -4   2   4  769.82   54.99
  -4   2   4  797.42   54.49
  -4   2   4  761.52   54.09
   3  -2  -4  178.48   13.70
   3  -2  -4  182.58   12.80
  -3   2   4  165.68   12.40
  -3   2   4  169.88   12.70
  -3   2   4  168.28   13.20
  -3   2   4  174.78   13.10
   2  -2  -4    1.50    1.70
   2  -2  -4    2.20    0.80
  -2   2   4    1.80    0.60
  -2   2   4    1.50    1.10
  -2   2   4    0.60    0.80
   1  -2  -4  271.57   20.00
   1  -2  -4  270.97   19.40
   1  -2  -4  293.57   19.40
  -1   2   4  233.68   19.30
  -1   2   4  262.77   19.20
  -1   2   4  277.17   19.60
  -1   2   4  274.57   19.30
   0  -2  -4  768.32   53.19
   0  -2  -4  760.62   52.69
   0  -2  -4  758.12   52.69
   0   2   4  746.43   52.49
   0   2   4  727.83   52.69
   0   2   4  730.73   52.59
   0   2   4  762.12   52.69
   0   2   4  698.73   52.49
  -1  -2  -4   36.10    4.20
  -1  -2  -4   40.40    3.50
  -1  -2  -4   38.80    3.40
   1   2   4   42.20    3.30
   1   2   4   42.80    3.50
   1   2   4   43.60    3.40
   1   2   4   44.70    3.30
  -2  -2  -4 1931.41  126.79
  -2  -2  -4 1620.14  126.29
   2   2   4 1873.81  126.29
   2   2   4 1750.92  125.99
   2   2   4 1713.43  126.09
   2   2   4 1720.83  126.19
   2   2   4 1942.91  126.19
  -3  -2  -4  822.32   60.09
  -3  -2  -4  843.62   59.39
  -3  -2  -4  884.41   59.19
   3   2   4  856.51   58.69
   3   2   4  792.72   58.89
   3   2   4  787.42   58.69
   3   2   4  847.32   58.79
  -4  -2  -4  394.46   28.30
  -4  -2  -4  354.06   29.10
  -4  -2  -4  371.46   28.10
   4   2   4  426.96   27.60
   4   2   4  362.06   27.40
   4   2   4  419.66   27.50
   4   2   4  382.96   27.80
  -5  -2  -4  366.56   27.50
  -5  -2  -4  341.87   29.00
  -5  -2  -4  380.96   27.90
  -5  -2  -4  349.17   27.70
   5   2   4  421.36   27.00
   5   2   4  370.56   27.50
   5   2   4  420.06   27.10
  -6  -2  -4    1.20    1.90
  -6  -2  -4    5.10    1.70
  -6  -2  -4    4.10    2.00
  -6  -2  -4    1.90    2.50
   6   2   4    4.70    0.70
   6   2   4    4.00    0.80
  -7  -2  -4  207.48   19.70
  -7  -2  -4  232.78   17.70
   7   2   4  229.08   16.80
   7   2   4  262.27   16.80
   7   2   4  228.48   16.80
  -8  -2  -4   26.60    4.00
  -8  -2  -4   21.00    3.50
  -8  -2  -4   20.30    5.50
   8   2   4   27.10    2.30
   8   2   4   23.40    2.30
   8   2   4   23.40    2.30
  -9  -2  -4   34.00    4.90
  -9  -2  -4   40.40    5.30
  -9  -2  -4   47.00    6.50
   9   2   4   41.60    3.50
   9   2   4   44.30    3.60
 -10  -2  -4    6.40    2.80
 -10  -2  -4    4.60    3.50
 -10  -2  -4    6.00    3.00
  10   2   4    2.90    1.20
  10   2   4    3.50    1.00
 -11  -2  -4   11.60    3.90
 -11  -2  -4   14.00    4.60
 -11  -2  -4    2.50    2.90
  11   2   4    5.30    1.40
  11   2   4    6.70    1.40
 -12  -2  -4   10.50    5.00
 -12  -2  -4   19.50    4.70
  12   2   4   10.00    1.90
  12   2   4    9.60    1.70
 -13  -2  -4   11.60    5.40
 -13  -2  -4   13.90    5.00
  13   2   4   13.70    2.20
  11  -3  -4   -0.10    1.80
  10  -3  -4   -1.00    1.40
 -10   3   4    0.30    3.00
 -10   3   4   -0.80    2.40
   9  -3  -4   75.39    6.90
  -9   3   4   77.69    7.20
  -9   3   4   75.59    7.70
  -9   3   4   76.39    9.00
   8  -3  -4   55.69    5.30
  -8   3   4   50.59    7.10
  -8   3   4   59.89    5.90
  -8   3   4   56.49    6.40
   7  -3  -4  195.58   16.60
   7  -3  -4  227.98   17.20
  -7   3   4  240.28   18.50
  -7   3   4  244.78   17.90
  -7   3   4  237.88   17.40
  -7   3   4  249.88   18.80
   6  -3  -4   20.50    2.30
   6  -3  -4   21.50    2.90
  -6   3   4   30.80    4.60
  -6   3   4   27.80    4.00
  -6   3   4   21.90    3.10
  -6   3   4   25.60    4.30
   5  -3  -4   67.99    5.80
  -5   3   4   70.09    6.40
  -5   3   4   67.69    7.00
  -5   3   4   73.49    6.00
  -5   3   4   65.19    6.80
   4  -3  -4  668.53   51.19
   4  -3  -4  717.23   50.29
  -4   3   4  713.13   50.29
  -4   3   4  707.83   50.59
  -4   3   4  679.93   50.89
  -4   3   4  734.83   49.80
   3  -3  -4    0.90    1.80
   3  -3  -4    0.30    0.70
  -3   3   4    1.20    1.60
  -3   3   4   -0.60    0.40
  -3   3   4    1.20    1.10
  -3   3   4   -1.30    1.40
  -3   3   4   -0.20    1.40
   2  -3  -4   24.90    2.30
   2  -3  -4   19.10    3.30
  -2   3   4   19.80    2.80
  -2   3   4   21.90    2.60
  -2   3   4   20.60    2.40
  -2   3   4   18.20    2.60
  -2   3   4   22.20    1.90
   1  -3  -4    4.00    1.90
   1  -3  -4    3.20    0.80
   1  -3  -4    1.80    0.80
  -1   3   4    3.10    1.10
  -1   3   4    2.90    1.10
  -1   3   4    2.40    0.60
  -1   3   4    3.40    1.00
  -1   3   4    2.30    1.20
   0  -3  -4    2.30    1.60
   0  -3  -4    3.90    1.00
   0  -3  -4    4.20    0.90
   0   3   4    3.00    1.20
   0   3   4    3.10    0.60
   0   3   4    2.80    0.90
   0   3   4    4.60    1.00
   0   3   4    5.70    1.20
  -1  -3  -4  141.69   10.90
  -1  -3  -4  137.89   10.20
  -1  -3  -4  134.49   10.20
   1   3   4  145.09   10.30
   1   3   4  141.39   10.30
   1   3   4  150.98   10.10
   1   3   4  133.09   10.20
   1   3   4  129.79    9.90
  -2  -3  -4 1246.68   86.69
  -2  -3  -4 1170.78   86.09
   2   3   4 1141.89   85.99
   2   3   4 1138.19   86.09
   2   3   4 1314.17   85.99
   2   3   4 1239.58   85.79
   2   3   4 1291.07   86.09
  -3  -3  -4  671.13   43.00
  -3  -3  -4  675.83   44.20
  -3  -3  -4  564.14   43.20
   3   3   4  604.54   42.50
   3   3   4  546.35   42.60
   3   3   4  559.14   42.70
   3   3   4  602.04   42.60
  -4  -3  -4   34.70    3.40
  -4  -3  -4   35.80    4.80
  -4  -3  -4   34.50    3.90
   4   3   4   34.00    2.80
   4   3   4   34.80    2.60
   4   3   4   30.20    2.70
   4   3   4   35.00    3.10
  -5  -3  -4   18.00    3.90
  -5  -3  -4   18.90    3.00
  -5  -3  -4   23.30    2.90
   5   3   4   20.80    2.50
   5   3   4   18.20    1.80
   5   3   4   22.60    1.80
   5   3   4   20.50    1.90
  -6  -3  -4  153.28   11.70
  -6  -3  -4  161.98   12.10
  -6  -3  -4  140.99   13.10
  -6  -3  -4  135.69   10.50
   6   3   4  164.88   10.70
   6   3   4  138.79   11.40
   6   3   4  145.09   10.80
  -7  -3  -4   10.70    3.70
  -7  -3  -4    9.50    2.50
   7   3   4    7.60    1.10
   7   3   4    8.60    1.10
   7   3   4   10.10    1.40
  -8  -3  -4  167.28   12.70
  -8  -3  -4  137.89   14.40
  -8  -3  -4  163.98   12.60
   8   3   4  161.08   11.30
   8   3   4  163.18   11.40
   8   3   4  136.99   11.40
  -9  -3  -4   26.70    4.20
  -9  -3  -4   20.60    5.80
  -9  -3  -4   20.70    3.70
   9   3   4   23.60    2.20
   9   3   4   19.50    2.30
   9   3   4   21.50    2.20
 -10  -3  -4    3.40    2.60
 -10  -3  -4    3.80    3.30
 -10  -3  -4    2.20    2.60
  10   3   4    2.10    0.80
  10   3   4    1.60    1.00
 -11  -3  -4    9.00    3.50
 -11  -3  -4    7.00    3.80
  11   3   4    3.90    1.10
  11   3   4    4.40    1.40
 -12  -3  -4   41.60    6.80
 -12  -3  -4   57.49    8.20
  12   3   4   43.60    4.30
 -13  -3  -4    5.70    4.30
 -13  -3  -4    7.00    5.40
  13   3   4    8.30    1.90
  10  -4  -4    7.00    2.00
 -10   4   4    5.00    4.90
 -10   4   4   11.40    3.40
 -10   4   4    6.60    3.90
   9  -4  -4    1.10    1.70
  -9   4   4   -0.10    4.00
  -9   4   4    0.10    2.80
  -9   4   4   -1.30    2.30
   8  -4  -4    2.40    1.60
  -8   4   4    1.60    3.10
  -8   4   4   -2.10    2.20
  -8   4   4    7.80    4.00
  -8   4   4    3.00    2.90
   7  -4  -4    1.50    1.40
  -7   4   4    2.30    2.60
  -7   4   4    1.80    3.20
  -7   4   4    1.10    2.30
  -7   4   4    3.00    2.00
   6  -4  -4    5.00    1.60
  -6   4   4    4.30    2.70
  -6   4   4    7.10    2.80
  -6   4   4    4.70    2.70
  -6   4   4    5.20    2.00
   5  -4  -4   26.20    2.90
  -5   4   4   22.70    4.10
  -5   4   4   21.60    3.10
  -5   4   4   22.70    3.60
  -5   4   4   25.60    4.20
   4  -4  -4  207.68   16.10
  -4   4   4  211.28   16.90
  -4   4   4  230.08   15.60
  -4   4   4  217.98   16.60
  -4   4   4  214.48   16.90
  -4   4   4  215.78   16.20
   3  -4  -4  145.09   11.00
  -3   4   4  126.19   11.50
  -3   4   4  143.59   11.70
  -3   4   4  149.39   11.20
  -3   4   4  157.08   10.60
  -3   4   4  149.19   11.50
   2  -4  -4  366.86   26.20
   2  -4  -4  374.66   27.00
  -2   4   4  342.67   26.60
  -2   4   4  358.16   26.50
  -2   4   4  361.06   26.60
  -2   4   4  344.37   26.30
  -2   4   4  394.76   25.90
   1  -4  -4   43.60    4.60
   1  -4  -4   40.50    3.70
   1  -4  -4   45.90    3.70
  -1   4   4   45.80    4.10
  -1   4   4   45.40    4.00
  -1   4   4   41.20    3.90
  -1   4   4   44.50    3.40
  -1   4   4   41.00    4.00
   0  -4  -4   72.69    5.60
   0  -4  -4   70.89    6.40
   0  -4  -4   74.79    5.60
   0   4   4   69.79    5.90
   0   4   4   78.59    5.80
   0   4   4   65.99    5.70
   0   4   4   75.39    5.40
   0   4   4   66.99    5.10
   0   4   4   71.19    5.80
  -1  -4  -4    8.00    1.20
  -1  -4  -4    6.80    1.90
  -1  -4  -4    7.20    1.20
   1   4   4    8.20    0.70
   1   4   4    6.70    1.00
   1   4   4    6.30    1.20
   1   4   4    5.60    1.30
   1   4   4    8.60    1.30
  -2  -4  -4  512.35   38.00
  -2  -4  -4  554.84   38.70
   2   4   4  538.15   38.10
   2   4   4  559.44   38.00
   2   4   4  562.34   37.70
   2   4   4  483.25   38.10
  -3  -4  -4 1509.35  112.99
   3   4   4 1614.04  112.29
   3   4   4 1705.03  112.09
   3   4   4 1541.25  112.39
  -4  -4  -4  110.39    9.30
  -4  -4  -4   93.49    7.60
  -4  -4  -4  103.29    8.30
   4   4   4  101.99    7.30
   4   4   4  102.79    7.10
   4   4   4   89.09    7.50
   4   4   4   86.49    7.20
  -5  -4  -4  183.78   14.70
  -5  -4  -4  158.58   12.90
  -5  -4  -4  169.28   13.50
   5   4   4  164.78   12.50
   5   4   4  169.68   12.50
   5   4   4  164.18   12.80
   5   4   4  188.48   12.30
  -6  -4  -4  274.57   20.30
  -6  -4  -4  292.77   21.20
  -6  -4  -4  327.17   21.90
  -6  -4  -4  263.87   22.70
   6   4   4  312.47   20.40
   6   4   4  270.47   21.10
   6   4   4  268.87   20.60
  -7  -4  -4  250.57   21.10
   7   4   4  243.78   18.30
   7   4   4  256.47   18.10
   7   4   4  259.17   18.20
  -8  -4  -4  171.18   16.90
  -8  -4  -4  210.48   15.00
  -8  -4  -4  198.88   15.10
   8   4   4  166.28   13.90
   8   4   4  196.98   13.70
   8   4   4  192.48   13.70
  -9  -4  -4  175.18   12.80
  -9  -4  -4  162.68   12.50
  -9  -4  -4  126.59   14.30
   9   4   4  148.09   11.10
   9   4   4  134.69   11.20
   9   4   4  157.18   11.00
 -10  -4  -4  261.37   19.10
  10   4   4  230.18   17.50
  10   4   4  235.58   17.40
 -11  -4  -4   50.29    7.00
 -11  -4  -4   67.99    8.30
  11   4   4   53.49    4.70
 -12  -4  -4   10.80    4.50
 -12  -4  -4   12.20    5.00
  12   4   4   10.30    1.90
 -13  -4  -4    5.70    4.80
  13   4   4    4.50    1.50
  10  -5  -4   22.20    3.70
 -10   5   4   26.70    4.50
 -10   5   4   29.70    5.40
 -10   5   4   23.10    6.50
   9  -5  -4   26.50    3.80
  -9   5   4   29.10    4.60
  -9   5   4   27.10    6.00
  -9   5   4   34.70    5.60
   8  -5  -4   -1.50    1.30
  -8   5   4    1.40    3.20
  -8   5   4    1.70    2.40
  -8   5   4    3.40    3.90
  -8   5   4    1.30    3.10
   7  -5  -4   14.50    2.50
  -7   5   4   17.00    3.40
  -7   5   4   17.00    4.30
  -7   5   4   17.10    3.80
  -7   5   4   17.60    4.30
   6  -5  -4    1.30    1.20
  -6   5   4    0.40    2.60
  -6   5   4    1.00    2.90
  -6   5   4    2.00    2.00
  -6   5   4    0.60    2.20
   5  -5  -4    0.10    1.10
  -5   5   4   -1.10    2.10
  -5   5   4   -0.20    1.90
  -5   5   4   -1.00    2.30
  -5   5   4    1.70    1.80
   4  -5  -4   38.70    3.80
  -4   5   4   34.40    4.20
  -4   5   4   42.50    5.20
  -4   5   4   40.30    4.60
  -4   5   4   37.60    4.90
   3  -5  -4  312.27   22.20
  -3   5   4  312.27   21.70
  -3   5   4  315.07   22.90
  -3   5   4  297.27   22.60
  -3   5   4  290.27   22.30
  -3   5   4  290.57   22.70
   2  -5  -4   47.70    4.30
  -2   5   4   49.20    4.70
  -2   5   4   54.49    4.00
  -2   5   4   47.90    4.90
  -2   5   4   48.50    5.00
  -2   5   4   51.99    5.10
   1  -5  -4   49.99    4.20
   1  -5  -4   47.00    5.10
   1  -5  -4   51.19    4.10
  -1   5   4   46.60    4.50
  -1   5   4   40.50    3.30
  -1   5   4   44.50    4.30
  -1   5   4   53.09    3.80
  -1   5   4   48.10    4.60
  -1   5   4   52.79    4.50
   0  -5  -4  463.55   32.80
   0  -5  -4  449.36   33.40
   0  -5  -4  453.75   32.80
   0   5   4  471.45   33.10
   0   5   4  437.66   33.10
   0   5   4  480.25   33.10
   0   5   4  484.25   32.30
   0   5   4  454.45   32.60
   0   5   4  428.16   32.90
  -1  -5  -4   54.09    5.30
  -1  -5  -4   47.20    4.20
  -1  -5  -4   50.59    4.20
   1   5   4   54.59    3.80
   1   5   4   51.69    4.40
   1   5   4   50.19    4.60
   1   5   4   53.79    4.20
  -2  -5  -4   22.90    2.50
  -2  -5  -4   35.70    4.00
  -2  -5  -4   26.60    2.40
   2   5   4   27.40    2.60
   2   5   4   27.90    2.00
   2   5   4   25.30    2.40
   2   5   4   22.90    2.70
  -3  -5  -4    0.40    1.70
   3   5   4   -0.40    0.60
   3   5   4    0.00    0.90
   3   5   4    0.90    0.90
   3   5   4    0.20    0.30
  -4  -5  -4  459.75   35.30
  -4  -5  -4  500.95   34.70
   4   5   4  507.75   34.20
   4   5   4  496.95   34.70
   4   5   4  455.05   34.60
   4   5   4  480.75   34.50
  -5  -5  -4  116.59    9.90
  -5  -5  -4   87.99    7.60
  -5  -5  -4   97.39    8.50
   5   5   4   97.69    7.00
   5   5   4   92.79    7.30
   5   5   4   90.39    7.30
   5   5   4   94.59    7.60
  -6  -5  -4  359.86   26.80
  -6  -5  -4  395.66   27.70
  -6  -5  -4  414.76   29.20
   6   5   4  348.57   26.50
   6   5   4  377.56   27.00
   6   5   4  362.26   26.30
   6   5   4  341.97   26.50
  -7  -5  -4   52.39    7.20
   7   5   4   57.09    4.20
   7   5   4   49.80    4.70
   7   5   4   59.39    4.40
  -8  -5  -4    2.40    3.30
   8   5   4   -1.10    0.90
   8   5   4   -0.40    0.50
   8   5   4    0.30    0.70
  -9  -5  -4   -1.30    2.00
  -9  -5  -4    2.10    3.50
   9   5   4    0.80    0.90
   9   5   4    3.10    1.20
 -10  -5  -4  158.28   12.30
 -10  -5  -4  115.59   13.70
  10   5   4  141.79   10.40
 -11  -5  -4    3.90    3.00
  11   5   4    1.00    1.30
 -12  -5  -4    5.20    3.90
 -12  -5  -4    1.40    4.10
  12   5   4    2.20    1.50
 -13  -5  -4    2.50    4.50
  13   5   4    9.60    1.90
   9  -6  -4   10.40    2.60
  -9   6   4    9.30    4.30
  -9   6   4   14.10    5.70
  -9   6   4    6.80    3.50
   8  -6  -4   19.30    3.10
  -8   6   4   23.40    4.90
  -8   6   4   21.60    4.00
  -8   6   4   18.50    5.40
  -8   6   4   16.70    4.60
   7  -6  -4    1.60    1.50
  -7   6   4    2.60    3.20
  -7   6   4    2.30    3.10
  -7   6   4    4.50    2.40
  -7   6   4    0.40    2.80
   6  -6  -4    2.60    1.40
  -6   6   4   -0.80    2.80
  -6   6   4    4.20    2.90
  -6   6   4    6.40    2.60
  -6   6   4    4.00    3.00
   5  -6  -4    2.20    1.40
  -5   6   4    4.60    2.50
  -5   6   4    4.10    2.20
  -5   6   4    1.20    2.40
  -5   6   4    2.90    2.60
   4  -6  -4   13.50    2.20
  -4   6   4   14.20    3.30
  -4   6   4   14.60    3.30
  -4   6   4   12.00    3.20
  -4   6   4   16.60    2.70
   3  -6  -4    0.20    1.10
  -3   6   4    3.20    2.00
  -3   6   4    2.10    1.70
  -3   6   4   -0.50    0.80
  -3   6   4    1.40    1.90
  -3   6   4   -0.40    1.90
   2  -6  -4   75.69    6.10
  -2   6   4   69.49    6.70
  -2   6   4   67.49    5.70
  -2   6   4   76.59    6.40
  -2   6   4   77.59    6.70
  -2   6   4   79.69    6.80
   1  -6  -4    4.40    1.10
   1  -6  -4    4.00    1.30
  -1   6   4    4.20    1.60
  -1   6   4    5.40    1.70
  -1   6   4    4.30    2.00
  -1   6   4    4.50    1.60
  -1   6   4    5.00    1.10
   0  -6  -4  352.46   25.40
   0  -6  -4  357.46   25.50
   0   6   4  338.07   25.30
   0   6   4  349.57   25.70
   0   6   4  328.37   25.80
   0   6   4  396.76   25.90
  -1  -6  -4    1.70    0.90
  -1  -6  -4    2.80    0.90
   1   6   4    3.10    0.90
   1   6   4    3.40    1.30
   1   6   4    1.80    0.30
   1   6   4    2.90    1.40
  -2  -6  -4    1.00    0.80
  -2  -6  -4    2.70    2.10
  -2  -6  -4    1.20    0.90
   2   6   4    0.90    1.10
   2   6   4    0.10    0.80
   2   6   4   -0.90    1.10
   2   6   4    1.10    0.40
  -3  -6  -4   66.69    5.30
  -3  -6  -4   64.39    6.40
   3   6   4   66.09    5.70
   3   6   4   65.89    5.40
   3   6   4   76.89    5.60
   3   6   4   66.39    5.00
  -4  -6  -4   27.00    2.70
  -4  -6  -4   24.40    3.60
   4   6   4   29.00    2.90
   4   6   4   22.30    2.00
   4   6   4   22.50    2.70
   4   6   4   20.40    2.50
  -5  -6  -4   -0.50    1.10
  -5  -6  -4   -0.50    2.70
   5   6   4   -0.30    0.80
   5   6   4   -0.70    0.50
   5   6   4   -0.20    0.90
   5   6   4    2.70    1.40
  -6  -6  -4   71.49    7.80
   6   6   4   56.39    4.60
   6   6   4   50.29    5.00
   6   6   4   64.09    5.60
   6   6   4   60.89    5.10
  -7  -6  -4   39.90    3.30
  -7  -6  -4   43.80    6.90
   7   6   4   42.30    3.30
   7   6   4   34.00    3.70
  -8  -6  -4   35.30    6.50
   8   6   4   24.60    3.10
   8   6   4   37.60    3.00
  -9  -6  -4   13.90    5.20
   9   6   4   15.80    2.20
   9   6   4   13.30    1.90
 -10  -6  -4    6.10    3.00
 -10  -6  -4    9.00    4.60
  10   6   4    6.70    1.60
 -11  -6  -4   16.00    5.90
 -11  -6  -4   11.20    3.80
  11   6   4   12.00    2.10
 -12  -6  -4   -0.90    3.40
  12   6   4   -0.60    1.30
 -13  -6  -4    0.00    4.30
  13   6   4    1.60    1.70
   9  -7  -4   -0.80    1.90
  -9   7   4    1.00    3.90
  -9   7   4    3.20    4.70
   8  -7  -4   -1.80    1.60
  -8   7   4   -2.80    3.30
  -8   7   4   -2.60    3.10
  -8   7   4    1.70    3.60
   7  -7  -4    0.90    1.60
  -7   7   4   -0.30    3.70
  -7   7   4   -3.40    2.90
  -7   7   4    2.70    3.40
  -7   7   4   -1.10    2.50
   6  -7  -4    3.40    1.70
  -6   7   4    4.20    3.10
  -6   7   4   -0.70    3.00
  -6   7   4    2.30    3.10
  -6   7   4   -1.70    2.30
   5  -7  -4   79.19    6.70
  -5   7   4   75.59    7.70
  -5   7   4   81.59    8.20
  -5   7   4   86.39    8.30
  -5   7   4   64.69    7.10
   4  -7  -4    1.60    1.20
  -4   7   4   -3.30    2.20
  -4   7   4    1.80    2.30
  -4   7   4    2.00    2.60
  -4   7   4    1.30    2.00
   3  -7  -4    2.00    1.10
  -3   7   4   -0.50    2.10
  -3   7   4    1.30    1.90
  -3   7   4   -0.30    2.00
   2  -7  -4   55.29    4.70
  -2   7   4   46.00    4.30
  -2   7   4   49.60    5.40
  -2   7   4   58.39    5.70
  -2   7   4   55.89    5.60
   1  -7  -4    3.90    1.50
   1  -7  -4    5.10    1.30
  -1   7   4    8.70    2.10
  -1   7   4    6.40    1.30
  -1   7   4    9.60    2.20
  -1   7   4    6.80    2.40
   0  -7  -4    1.50    1.00
   0  -7  -4    3.40    1.20
   0   7   4    2.00    1.80
   0   7   4    5.30    2.10
   0   7   4    1.20    1.50
   0   7   4    2.20    1.10
  -1  -7  -4   42.80    3.60
  -1  -7  -4   42.40    3.60
   1   7   4   41.50    4.00
   1   7   4   33.70    3.50
   1   7   4   42.00    4.50
  -2  -7  -4   79.29    5.70
  -2  -7  -4   66.99    5.70
   2   7   4   62.59    5.80
   2   7   4   73.09    6.40
   2   7   4   82.99    6.20
  -3  -7  -4   13.80    1.70
   3   7   4   12.20    1.30
   3   7   4   13.80    2.20
   3   7   4   11.50    1.90
   3   7   4   19.60    2.40
   4   7   4    3.00    1.40
   4   7   4    1.90    0.60
   4   7   4    1.10    1.20
   4   7   4    1.20    1.10
  -5  -7  -4   13.70    4.90
   5   7   4   11.80    2.30
   5   7   4    6.90    1.10
   5   7   4   10.00    1.90
   5   7   4    8.40    1.70
  -6  -7  -4   11.40    4.50
   6   7   4    7.60    1.20
   6   7   4    7.90    2.00
   6   7   4    3.10    1.40
   6   7   4    7.00    1.70
  -7  -7  -4   74.29    8.70
   7   7   4   65.69    6.00
   7   7   4   64.19    5.30
   7   7   4   75.69    6.60
   7   7   4   62.19    5.70
  -8  -7  -4   16.30    5.10
   8   7   4   13.40    1.80
   8   7   4   11.20    2.10
  -9  -7  -4   19.80    5.90
   9   7   4   20.30    2.40
 -10  -7  -4   25.60    6.80
  10   7   4   29.40    3.20
 -11  -7  -4   34.20    8.00
 -11  -7  -4   37.80    6.20
  11   7   4   32.60    3.50
 -12  -7  -4    1.80    3.80
  12   7   4    2.80    1.70
   8  -8  -4   16.60    3.40
  -8   8   4   26.50    6.20
  -8   8   4   18.70    5.00
  -8   8   4   21.00    5.30
   7  -8  -4   81.29    8.20
  -7   8   4   94.69    9.80
  -7   8   4  102.09   10.40
  -7   8   4  105.19   10.50
   6  -8  -4   39.60    4.60
  -6   8   4   36.10    5.90
  -6   8   4   36.40    6.30
  -6   8   4   41.90    6.40
   5  -8  -4   22.00    3.30
  -5   8   4   34.70    5.60
  -5   8   4   27.80    4.90
  -5   8   4   36.50    5.50
   4  -8  -4    3.30    1.60
  -4   8   4    7.10    3.00
  -4   8   4    5.10    3.10
  -4   8   4    9.60    3.30
   3  -8  -4  188.98   14.80
  -3   8   4  202.68   16.00
  -3   8   4  191.48   15.80
  -3   8   4  202.58   15.80
   2  -8  -4    3.70    1.40
  -2   8   4    3.80    2.50
  -2   8   4    5.40    2.60
  -2   8   4    2.70    1.20
  -2   8   4    7.60    2.60
   1  -8  -4    4.50    1.40
   1  -8  -4    6.40    1.60
  -1   8   4    7.00    2.30
  -1   8   4    4.90    2.30
  -1   8   4    3.10    1.40
  -1   8   4    5.30    2.30
   0  -8  -4   21.40    2.60
   0  -8  -4   16.40    2.20
   0   8   4   16.00    2.30
   0   8   4   17.50    2.80
   0   8   4   24.60    3.70
   0   8   4   21.40    3.30
  -1  -8  -4   45.90    4.00
  -1  -8  -4   48.90    4.10
   1   8   4   33.20    3.90
   1   8   4   54.09    4.60
   2   8   4   10.60    1.90
   2   8   4   13.20    2.50
   2   8   4   15.60    2.30
   3   8   4    3.10    1.50
   3   8   4    1.20    1.50
   3   8   4    1.50    1.20
   4   8   4   43.70    4.80
   4   8   4   60.29    5.30
   4   8   4   63.79    5.20
  -5  -8  -4   25.10    6.10
   5   8   4   18.30    2.80
   5   8   4   15.70    2.60
   5   8   4   15.30    1.70
   5   8   4   14.60    2.30
  -6  -8  -4    8.60    4.50
   6   8   4    4.30    1.00
   6   8   4    4.00    1.60
   6   8   4    4.00    1.90
   6   8   4    2.90    1.30
  -7  -8  -4   -0.40    3.20
   7   8   4    0.30    1.90
   7   8   4    0.60    1.50
   7   8   4   -0.90    0.70
   7   8   4    0.10    1.40
  -8  -8  -4   14.80    5.40
   8   8   4   13.60    1.80
   8   8   4   12.10    2.30
  -9  -8  -4    2.20    4.10
   9   8   4    1.50    1.00
 -10  -8  -4    4.20    4.60
  10   8   4    1.30    1.30
 -11  -8  -4   48.10    6.90
  11   8   4   39.30    4.10
 -12  -8  -4   -3.00    3.80
  12   8   4    0.70    1.50
   7  -9  -4   55.49    6.30
  -7   9   4   59.69    8.00
  -7   9   4   66.19    8.90
  -7   9   4   73.49    8.60
   6  -9  -4   10.70    2.60
  -6   9   4   14.80    5.00
  -6   9   4   14.90    4.40
  -6   9   4   12.70    4.10
   5  -9  -4   14.10    2.80
  -5   9   4   14.20    4.60
  -5   9   4   23.50    4.50
  -5   9   4   17.10    4.10
   4  -9  -4   63.09    6.30
  -4   9   4   68.79    7.80
  -4   9   4   79.89    7.90
  -4   9   4   74.09    7.90
   3  -9  -4  145.29   12.00
  -3   9   4  170.78   13.50
  -3   9   4  157.78   13.10
  -3   9   4  146.29   13.00
   2  -9  -4   40.20    4.50
   2  -9  -4   49.40    4.90
  -2   9   4   45.10    5.60
  -2   9   4   48.50    5.90
  -2   9   4   50.99    6.20
   1  -9  -4   67.69    5.90
   1  -9  -4   71.59    6.10
  -1   9   4   95.39    7.60
  -1   9   4   71.69    7.00
  -1   9   4   82.09    6.90
  -1   9   4   51.29    5.70
   0   9   4  169.58   12.90
   1   9   4   59.39    6.10
   1   9   4   47.30    5.20
   1   9   4   75.29    5.80
   2   9   4   11.20    2.20
   2   9   4   13.70    2.70
   2   9   4   18.60    2.80
   3   9   4    1.10    1.30
   3   9   4    1.60    1.60
   3   9   4    2.40    1.80
   4   9   4   59.19    5.60
   4   9   4   65.69    5.40
   4   9   4   40.80    4.70
  -5  -9  -4   22.60    6.10
   5   9   4   14.60    2.40
   5   9   4   15.80    2.90
   5   9   4   13.70    2.60
  -6  -9  -4    5.20    4.50
   6   9   4    5.40    1.90
   6   9   4    3.90    2.10
   6   9   4   -0.90    1.20
  -7  -9  -4   36.70    7.20
   7   9   4   26.70    2.70
   7   9   4   26.00    3.40
   7   9   4   32.70    4.20
  -8  -9  -4   -3.10    3.80
   8   9   4    1.20    1.00
  -9  -9  -4   -2.70    4.40
   9   9   4    2.10    1.20
  10   9   4    2.50    1.40
  11   9   4   -0.50    1.30
   6 -10  -4   48.10    5.90
  -6  10   4   64.89    8.70
  -6  10   4   66.39    7.70
  -6  10   4   59.19    7.80
   5 -10  -4   62.49    6.60
  -5  10   4   73.19    8.00
  -5  10   4   73.19    8.80
  -5  10   4   70.59    8.50
   4 -10  -4    3.20    2.00
  -4  10   4    7.90    3.80
  -4  10   4    2.50    3.10
  -4  10   4   -0.30    3.40
  -3  10   4    0.80    3.00
  -3  10   4    0.20    2.60
  -2  10   4   30.30    4.60
  -2  10   4   37.80    5.70
  -1  10   4   34.10    5.20
  -1  10   4   41.50    5.70
  -1  10   4   35.50    4.70
   0  10   4    2.30    2.40
   0  10   4    5.20    2.30
   0  10   4    3.20    1.60
   1  10   4   87.09    8.70
   1  10   4  113.89    9.80
   1  10   4  134.39    9.40
   2  10   4   32.70    4.50
   2  10   4   48.50    5.50
   2  10   4   60.09    5.10
   3  10   4    5.60    2.40
   3  10   4    3.60    1.70
   3  10   4    8.80    2.40
   4  10   4   -2.20    1.60
   4  10   4   -0.20    1.70
   4  10   4    0.20    1.50
   5  10   4   26.40    3.70
   5  10   4   20.90    3.10
   5  10   4   28.00    4.00
  -6 -10  -4  145.39   14.10
   6  10   4  116.39   10.20
   6  10   4  109.89   10.20
  -7 -10  -4   -4.60    4.20
  -8 -10  -4   36.50    8.20
  -9 -10  -4   -1.10    5.20
  -5  11   4   -0.90    3.50
  -5  11   4    2.20    4.30
  -4  11   4   43.80    6.70
  -4  11   4   28.30    5.70
  -4  11   4   43.60    6.10
  -3  11   4    1.40    3.60
  -3  11   4   -2.40    3.10
  -3  11   4    0.40    2.70
  -2  11   4    7.60    3.50
  -2  11   4    7.00    2.90
  -2  11   4    6.10    3.70
  -1  11   4    1.30    2.50
  -1  11   4    4.00    2.80
   0  11   4   66.99    6.60
   0  11   4   60.49    7.20
   1  11   4    2.60    2.40
   1  11   4    1.70    2.10
   2  11   4    2.80    2.50
   2  11   4    7.90    2.40
   3  11   4  113.79    9.30
   3  11   4  103.09    9.80
   4  11   4  152.28   11.90
   4  11   4  137.79   12.20
   5  11   4   32.30    4.60
   5  11   4   24.30    4.20
  -6 -11  -4   -0.50    5.90
   6  11   4    2.50    2.50
   6  11   4    4.20    2.60
  -7 -11  -4   38.80    8.60
  -8 -11  -4    9.30    6.50
  -3  12   4   -2.80    3.20
  -3  12   4   -0.50    2.80
  -3  12   4    0.20    4.20
  -2  12   4   -1.40    3.20
  -2  12   4   -1.10    2.60
  -1  12   4   10.20    3.80
  -1  12   4   12.80    3.60
   0  12   4    4.20    2.60
   0  12   4    2.20    3.10
   1  12   4   19.80    4.40
   1  12   4   16.50    3.50
   2  12   4    1.40    2.60
   2  12   4    1.20    2.30
   3  12   4   20.60    4.40
   3  12   4   32.70    4.60
   4  12   4    2.60    2.60
   4  12   4    2.30    2.90
   5  12   4  119.69   10.80
   5  12   4  108.89   10.20
  -6 -12  -4   71.59   11.70
   6  12   4   42.90    6.00
   6  12   4   48.00    6.40
  -7 -12  -4   48.70   10.40
  -1  13   4    1.00    2.70
   0  13   4    3.80    3.70
   0  13   4    9.20    3.20
   1  13   4    9.80    3.00
   1  13   4    9.00    3.80
   2  13   4   10.80    3.30
   2  13   4   13.50    4.10
   3  13   4   -3.30    2.40
   3  13   4   -2.00    2.90
   4  13   4   15.20    4.20
   4  13   4   17.50    3.90
  -5 -13  -4   30.10   10.30
   5  13   4   33.40    5.40
   5  13   4   33.70    5.50
  -6 -13  -4   -5.40    7.10
   6  13   4   -3.40    2.80
   4  12  -5   83.49    9.00
  -4 -12   5  109.89    8.60
   3  12  -5    1.10    2.10
  -3 -12   5   -0.30    2.10
   2  12  -5   32.50    4.30
  -2 -12   5   31.90    4.10
   1  12  -5   34.40    4.20
   1  12  -5   48.50    6.70
  -1 -12   5   35.80    4.40
   0  12  -5    9.70    3.60
   0  12  -5    4.60    1.60
  -1  12  -5    5.80    3.50
  -1  12  -5    5.20    1.60
  -2  12  -5    0.30    3.20
  -2  12  -5   -0.50    1.10
  -3  12  -5   25.80    5.50
  -3  12  -5   31.80    3.20
   6  11  -5   37.60    6.00
  -6 -11   5   40.90    4.80
   5  11  -5    3.20    2.50
  -5 -11   5    2.10    2.00
   4  11  -5    6.70    2.60
  -4 -11   5    2.60    2.00
   3  11  -5    6.90    2.30
  -3 -11   5    7.50    2.20
   2  11  -5   -1.50    1.30
  -2 -11   5   -1.80    1.70
   1  11  -5    3.00    3.00
   1  11  -5    0.50    1.40
   0  11  -5  173.48   13.30
   0  11  -5  186.18   15.30
  -1  11  -5   -1.00    2.60
  -1  11  -5   -0.50    1.00
  -2  11  -5    1.20    2.90
  -2  11  -5    1.60    1.00
  -3  11  -5    2.20    2.90
  -3  11  -5    3.00    1.20
  -4  11  -5    6.10    3.50
  -4  11  -5   12.60    4.20
  -4  11  -5   10.70    1.90
  -5  11  -5   21.20    4.90
  -5  11  -5   20.10    2.90
   8  10  -5    0.50    3.50
  -8 -10   5   -2.60    2.10
   7  10  -5    1.60    3.20
  -7 -10   5    3.80    2.20
   6  10  -5    0.70    2.60
  -6 -10   5   -0.40    1.70
   5  10  -5    2.30    2.30
  -5 -10   5    1.90    1.90
   4  10  -5    2.40    2.10
  -4 -10   5    1.40    1.60
   3  10  -5   25.90    3.70
  -3 -10   5   28.10    3.50
   2  10  -5    4.80    3.00
   2  10  -5    7.90    2.00
  -2 -10   5    5.80    1.90
   1  10  -5   74.49    6.40
   1  10  -5   80.69    8.30
   0  10  -5   24.50    2.70
   0  10  -5   23.20    4.20
  -1  10  -5   67.89    5.40
  -1  10  -5   71.19    7.70
  -2  10  -5   35.60    3.20
  -2  10  -5   43.20    5.90
  -3  10  -5   49.30    4.40
  -3  10  -5   54.49    6.90
  -3  10  -5   57.59    6.30
  -4  10  -5   37.00    5.60
  -4  10  -5   33.50    3.50
  -4  10  -5   38.00    5.50
  -5  10  -5  105.29    9.70
  -5  10  -5   89.99    7.90
  -5  10  -5  101.59   10.00
  -6  10  -5    2.20    3.70
  -6  10  -5    3.80    1.80
  -7  10  -5   35.70    4.70
  -7  10  -5   42.90    6.70
   9   9  -5    4.20    4.00
  -9  -9   5   -0.90    2.00
   8   9  -5    7.10    3.90
  -8  -9   5    7.50    2.20
   7   9  -5    5.30    3.30
  -7  -9   5   10.00    2.40
   6   9  -5   -0.90    2.20
  -6  -9   5    2.80    1.80
   5   9  -5    2.70    2.30
  -5  -9   5    0.60    1.70
   4   9  -5  100.09    8.90
  -4  -9   5  102.79    8.40
   3   9  -5   19.80    3.20
  -3  -9   5   24.10    3.10
   2   9  -5  104.39    8.70
  -2  -9   5  111.89    8.70
   1   9  -5    0.70    1.10
   1   9  -5    2.00    2.30
   0   9  -5   38.20    5.10
   0   9  -5   30.30    3.00
  -1   9  -5    4.20    1.00
  -1   9  -5    5.30    2.60
  -2   9  -5   -0.10    0.70
  -2   9  -5    0.30    2.20
  -3   9  -5  121.99    9.70
  -3   9  -5  124.79   11.30
  -3   9  -5  154.68   11.60
  -4   9  -5   24.70    4.20
  -4   9  -5   35.50    5.10
  -4   9  -5   24.70    2.90
  -5   9  -5    0.10    2.40
  -5   9  -5    0.60    1.40
  -5   9  -5    2.40    2.80
   5  -9   5    0.80    1.20
  -6   9  -5   41.50    6.00
  -6   9  -5   35.00    4.20
   6  -9   5   31.80    3.80
  -7   9  -5  243.68   19.30
  -7   9  -5  285.07   21.10
   7  -9   5  240.78   19.00
  -8   9  -5    6.30    2.70
  -8   9  -5    3.40    4.10
   8  -9   5    7.80    2.20
   9   8  -5   15.10    5.10
  -9  -8   5   14.60    2.90
   8   8  -5   -2.50    3.10
  -8  -8   5   -2.60    1.50
   7   8  -5   24.80    4.80
  -7  -8   5   18.30    3.10
   6   8  -5   33.00    5.10
  -6  -8   5   37.00    4.00
   5   8  -5   60.99    6.80
  -5  -8   5   74.39    6.10
   4   8  -5    0.50    1.50
  -4  -8   5   -0.50    1.20
   3   8  -5    2.40    1.50
  -3  -8   5   -0.30    1.40
   2   8  -5    9.20    1.90
  -2  -8   5    7.50    1.80
   1   8  -5    4.40    1.20
   1   8  -5    4.50    2.30
   0   8  -5    1.70    1.80
   0   8  -5    1.40    0.80
  -1   8  -5    0.90    1.90
  -1   8  -5    0.80    0.60
  -2   8  -5   -0.50    1.70
  -2   8  -5   -0.30    0.50
  -2   8  -5    0.10    1.70
   2  -8   5   -0.40    0.80
  -3   8  -5   24.20    3.60
  -3   8  -5   18.60    2.10
  -3   8  -5   23.20    3.60
   3  -8   5   18.90    2.30
  -4   8  -5   13.40    3.00
  -4   8  -5   20.00    3.80
  -4   8  -5   12.60    1.90
   4  -8   5   14.60    2.00
  -5   8  -5   11.70    3.40
  -5   8  -5    7.80    1.80
  -5   8  -5   12.00    2.90
   5  -8   5    8.10    1.70
  -6   8  -5    5.70    1.90
  -6   8  -5    9.20    3.30
   6  -8   5    7.20    1.70
  -7   8  -5   21.00    4.70
  -7   8  -5   16.20    3.20
   7  -8   5   17.60    2.60
  -8   8  -5    2.60    3.10
  -8   8  -5    0.10    2.20
   8  -8   5    1.60    1.50
  -9   8  -5    0.30    4.00
  -9   8  -5    2.60    2.60
   9  -8   5    0.70    1.60
 -10  -7   5   50.69    5.20
 -10  -7   5   35.10    6.40
   9   7  -5    1.70    3.90
  -9  -7   5   -2.80    3.30
  -9  -7   5    4.40    1.90
   8   7  -5    3.10    3.10
  -8  -7   5    2.80    2.00
   7   7  -5   -1.30    2.50
  -7  -7   5   -0.60    1.50
   6   7  -5  132.29   12.40
  -6  -7   5  157.08   11.50
   5   7  -5    1.40    1.90
  -5  -7   5    0.80    1.20
   4   7  -5    4.40    1.90
  -4  -7   5    5.70    1.60
   3   7  -5   27.80    3.50
  -3  -7   5   32.30    3.40
   2   7  -5   23.30    2.80
  -2  -7   5   23.00    2.70
   1   7  -5   22.70    3.60
   1   7  -5   29.80    2.80
  -1  -7   5   31.70    3.00
   0   7  -5    1.40    0.70
   0   7  -5    2.00    1.10
   0   7  -5    2.90    1.90
   0   7  -5    2.70    1.80
  -1   7  -5    2.60    0.60
  -1   7  -5   -0.60    1.90
  -1   7  -5    2.50    1.80
   1  -7   5    2.30    0.70
  -2   7  -5    1.20    0.80
  -2   7  -5    0.80    0.50
  -2   7  -5    0.00    1.50
  -2   7  -5    1.40    1.70
   2  -7   5    0.90    0.70
  -3   7  -5   19.60    3.20
  -3   7  -5   16.70    1.80
  -3   7  -5   15.40    1.70
  -3   7  -5   24.80    3.60
   3  -7   5   14.30    1.60
   3  -7   5   20.10    2.10
  -4   7  -5   42.30    5.70
  -4   7  -5   41.10    4.60
  -4   7  -5   33.90    3.40
  -4   7  -5   41.70    4.70
   4  -7   5   37.60    3.00
   4  -7   5   39.50    3.50
  -5   7  -5   25.20    4.90
  -5   7  -5   22.50    2.80
  -5   7  -5   26.20    4.20
  -5   7  -5   20.90    3.40
   5  -7   5   18.80    2.40
  -6   7  -5    7.90    2.00
  -6   7  -5    8.30    3.50
  -6   7  -5    7.80    3.20
   6  -7   5    7.40    1.60
  -7   7  -5   53.49    5.50
  -7   7  -5   59.59    6.80
  -7   7  -5   62.59    8.20
   7  -7   5   44.60    4.60
  -8   7  -5   31.40    4.50
  -8   7  -5   33.40    6.90
  -8   7  -5   29.60    5.50
   8  -7   5   31.10    3.70
  -9   7  -5    8.60    4.20
  -9   7  -5   13.60    5.30
  -9   7  -5    6.50    3.00
   9  -7   5    9.10    2.10
 -10   7  -5    6.80    3.60
 -10   7  -5    6.90    5.70
 -10   7  -5    5.90    4.30
  10  -7   5    9.00    2.30
 -10  -6   5   -2.20    3.20
 -10  -6   5   -2.30    1.90
   9   6  -5   83.09   10.00
  -9  -6   5   78.29    8.60
   8   6  -5    3.80    3.20
  -8  -6   5    1.00    1.60
   7   6  -5   21.80    4.60
  -7  -6   5   20.00    3.00
   6   6  -5   -1.60    2.00
  -6  -6   5   -3.00    1.20
   5   6  -5   68.19    6.90
  -5  -6   5   69.59    6.00
   4   6  -5   -0.20    1.50
  -4  -6   5    0.80    1.10
   3   6  -5   91.49    7.80
  -3  -6   5   96.19    7.50
   2   6  -5    0.60    1.00
   2   6  -5    2.30    1.60
  -2  -6   5   -0.70    0.90
   1   6  -5   68.09    6.10
   1   6  -5   70.09    5.60
   1   6  -5   63.79    5.40
  -1  -6   5   69.19    5.50
   0   6  -5  127.69    9.20
   0   6  -5  125.99    9.00
   0   6  -5  115.49   10.10
   0   6  -5  116.89   10.00
  -1   6  -5   12.30    2.40
  -1   6  -5   14.70    2.90
  -2   6  -5  373.46   29.10
  -2   6  -5  406.86   29.30
  -2   6  -5  388.66   28.90
  -2   6  -5  404.16   28.80
  -3   6  -5   38.60    4.30
  -3   6  -5   42.10    4.30
  -3   6  -5   48.30    5.60
   3  -6   5   37.80    3.30
   3  -6   5   31.30    2.90
  -4   6  -5    5.30    2.70
  -4   6  -5    3.30    1.00
  -4   6  -5    4.30    1.70
  -4   6  -5    4.70    2.20
  -4   6  -5    3.40    1.00
   4  -6   5    5.30    0.80
   4  -6   5    3.20    1.00
  -5   6  -5   11.00    3.30
  -5   6  -5   16.70    2.20
  -5   6  -5   17.40    2.90
  -5   6  -5   16.70    3.40
   5  -6   5   15.00    2.00
   5  -6   5   15.40    1.60
  -6   6  -5    1.40    2.10
  -6   6  -5   -2.20    1.20
  -6   6  -5   -1.50    2.40
   6  -6   5   -0.70    0.80
   6  -6   5   -0.40    0.50
  -7   6  -5   46.70    4.90
  -7   6  -5   37.10    5.90
  -7   6  -5   42.80    6.70
   7  -6   5   43.20    4.00
  -8   6  -5    0.80    3.40
  -8   6  -5    5.70    2.30
  -8   6  -5    1.20    2.90
   8  -6   5    2.60    1.40
  -9   6  -5   35.70    6.70
  -9   6  -5   30.50    4.90
  -9   6  -5   33.60    6.00
   9  -6   5   33.80    3.80
 -10   6  -5    6.10    3.70
 -10   6  -5    6.00    4.80
 -10   6  -5   13.70    3.80
  10  -6   5    7.70    2.10
 -11  -5   5    0.60    2.50
 -11  -5   5   12.10    5.10
 -10  -5   5  106.99   10.80
 -10  -5   5  110.19    9.10
  -9  -5   5    5.60    1.90
  -9  -5   5    8.60    3.50
   8   5  -5  109.39   11.10
  -8  -5   5   99.89   10.30
  -8  -5   5  119.39    9.10
   7   5  -5  104.29   10.30
  -7  -5   5  109.19    8.70
   6   5  -5   77.69    7.90
  -6  -5   5   78.59    6.70
   5   5  -5  142.19   12.00
  -5  -5   5  145.69   11.10
   4   5  -5   33.90    4.30
   4   5  -5   38.20    3.40
  -4  -5   5   34.70    3.50
   3   5  -5  294.37   22.50
  -3  -5   5  313.67   22.10
   2   5  -5   13.80    2.20
   2   5  -5   11.00    1.90
  -2  -5   5   10.10    1.70
   1   5  -5  455.45   30.10
   1   5  -5  411.16   29.70
   1   5  -5  379.66   29.50
  -1  -5   5  412.36   29.60
   0   5  -5    8.30    2.20
   0   5  -5   10.00    1.30
   0   5  -5   10.90    2.30
   0   5  -5   11.90    1.40
   0  -5   5   11.40    1.70
  -1   5  -5    3.90    2.10
  -1   5  -5    4.60    1.70
  -1   5  -5    5.70    1.80
  -1   5  -5    6.10    1.60
  -2   5  -5   -0.30    1.90
  -2   5  -5    0.70    1.30
  -2   5  -5    2.40    1.40
  -2   5  -5    3.50    1.80
  -3   5  -5  190.18   15.30
  -3   5  -5  206.08   16.00
  -3   5  -5  216.68   15.30
  -3   5  -5  195.08   15.90
  -4   5  -5   98.09    7.60
  -4   5  -5  104.79    7.60
  -4   5  -5  110.99    9.30
  -4   5  -5  112.19    8.30
  -4   5  -5   99.19    8.50
  -4   5  -5   99.79    9.20
   4  -5   5  104.39    7.70
   4  -5   5   96.99    7.40
   4  -5   5   90.09    7.60
  -5   5  -5   24.90    2.80
  -5   5  -5   22.70    3.70
  -5   5  -5   31.40    5.20
  -5   5  -5   32.10    3.40
   5  -5   5   27.50    2.70
   5  -5   5   28.50    2.30
  -6   5  -5   98.19    9.20
  -6   5  -5   73.19    8.00
  -6   5  -5   82.39    7.20
   6  -5   5   91.99    6.50
   6  -5   5   93.49    7.00
  -7   5  -5   99.49   10.10
  -7   5  -5   81.59    8.80
  -7   5  -5   92.89    8.00
   7  -5   5   99.09    7.00
   7  -5   5   93.59    7.50
  -8   5  -5   29.80    4.40
  -8   5  -5   28.80    5.00
  -8   5  -5   42.30    7.00
   8  -5   5   33.30    3.50
   8  -5   5   34.00    2.90
  -9   5  -5    1.80    2.90
  -9   5  -5   -1.90    3.50
  -9   5  -5    2.50    2.40
   9  -5   5    1.30    1.30
 -10   5  -5    0.30    3.60
 -10   5  -5    3.50    4.00
 -10   5  -5    0.20    2.60
  10  -5   5    2.60    1.50
 -11   5  -5   -1.40    4.30
 -11   5  -5    8.00    3.80
 -11   5  -5    0.60    3.80
  11  -5   5    9.50    2.10
 -11  -4   5   -0.30    4.30
 -11  -4   5   -3.30    2.10
 -10  -4   5   16.10    3.10
 -10  -4   5   18.50    4.80
  -9  -4   5    2.50    3.30
  -9  -4   5    3.60    1.80
   8   4  -5   37.50    6.10
  -8  -4   5   44.50    6.00
  -8  -4   5   36.70    4.00
   7   4  -5   19.10    4.00
  -7  -4   5   13.20    2.20
  -7  -4   5   14.20    3.40
   6   4  -5  185.58   13.20
   6   4  -5  169.58   14.70
   6   4  -5  175.58   13.20
  -6  -4   5  172.88   13.40
   5   4  -5   45.60    5.50
   5   4  -5   36.90    3.50
   5   4  -5   38.00    3.50
  -5  -4   5   33.90    3.60
   4   4  -5  189.68   14.70
   4   4  -5  221.28   14.70
   4   4  -5  189.18   15.60
  -4  -4   5  199.38   14.90
   3   4  -5  116.69    8.30
   3   4  -5  102.79    8.90
  -3  -4   5  106.39    8.40
   2   4  -5  514.55   36.70
   2   4  -5  525.95   37.10
   2   4  -5  483.25   37.00
  -2  -4   5  537.85   36.80
   1   4  -5   32.10    3.20
   1   4  -5   46.10    3.80
   1   4  -5   34.70    3.30
  -1  -4   5   37.30    3.20
   0   4  -5   11.00    1.40
   0   4  -5   10.80    1.30
   0   4  -5   16.70    2.00
   0   4  -5   13.10    2.20
   0  -4   5   12.30    1.50
  -1   4  -5   75.39    6.00
  -1   4  -5   75.59    6.60
  -1   4  -5   74.59    6.30
  -1   4  -5   72.09    6.30
  -2   4  -5   24.60    3.40
  -2   4  -5   22.20    2.70
  -2   4  -5   21.20    3.40
  -2   4  -5   20.70    2.50
  -3   4  -5    0.30    1.90
  -3   4  -5   -0.70    1.80
  -3   4  -5   -0.10    1.20
  -3   4  -5   -0.50    0.90
   3  -4   5   -1.30    0.50
  -4   4  -5   18.50    2.10
  -4   4  -5   23.20    2.60
  -4   4  -5   19.70    2.00
  -4   4  -5   20.70    3.90
  -4   4  -5   19.70    3.90
  -4   4  -5   15.90    2.80
   4  -4   5   18.00    1.90
   4  -4   5   15.70    1.60
  -5   4  -5   31.20    5.20
  -5   4  -5   27.80    3.10
  -5   4  -5   34.30    3.30
  -5   4  -5   33.60    3.30
  -5   4  -5   25.70    3.80
  -5   4  -5   37.30    5.00
   5  -4   5   27.70    2.50
   5  -4   5   29.00    2.80
   5  -4   5   29.00    2.40
  -6   4  -5   11.30    3.60
  -6   4  -5   12.70    2.90
  -6   4  -5   15.00    2.30
   6  -4   5   14.30    1.40
   6  -4   5   15.00    1.90
  -7   4  -5   -0.10    2.00
  -7   4  -5   -0.50    1.40
  -7   4  -5   -1.40    2.70
   7  -4   5    0.40    1.00
   7  -4   5    0.00    0.50
  -8   4  -5   50.69    7.50
  -8   4  -5   54.09    5.60
  -8   4  -5   45.40    6.10
   8  -4   5   50.59    4.70
   8  -4   5   58.19    4.30
  -9   4  -5   68.09    9.00
  -9   4  -5   55.69    7.20
  -9   4  -5   67.09    6.80
   9  -4   5   63.29    5.00
   9  -4   5   62.89    5.50
 -10   4  -5   -1.30    3.70
 -10   4  -5    2.10    2.60
 -10   4  -5    5.00    3.50
  10  -4   5    0.20    0.90
  10  -4   5   -2.60    1.00
 -11   4  -5    1.80    3.10
 -11   4  -5    3.20    4.20
 -11   4  -5   -6.40    4.40
  11  -4   5   -0.20    1.20
 -12   4  -5    2.40    4.50
 -12   4  -5    3.30    3.60
 -12   4  -5    1.40    4.30
  12  -4   5    2.20    1.60
 -11  -3   5   24.00    6.10
 -11  -3   5   18.50    3.30
  10   3  -5    0.30    1.40
 -10  -3   5   -2.10    1.80
 -10  -3   5    0.40    3.90
   9   3  -5    9.10    2.10
  -9  -3   5   11.80    4.10
  -9  -3   5    6.10    2.10
   8   3  -5   30.00    3.60
   8   3  -5   36.00    3.50
   8   3  -5   26.70    3.20
   8   3  -5   26.80    5.70
  -8  -3   5   26.00    4.70
  -8  -3   5   34.50    3.60
   7   3  -5   -0.20    1.00
   7   3  -5   -0.60    1.00
   7   3  -5   -1.00    2.30
   7   3  -5    0.00    1.00
  -7  -3   5   -1.70    1.20
  -7  -3   5    2.30    2.20
   6   3  -5   -0.30    0.90
   6   3  -5    1.00    2.20
   6   3  -5    0.40    1.10
  -6  -3   5   -0.30    1.10
  -6  -3   5    1.10    1.90
   5   3  -5  282.07   23.00
   5   3  -5  313.57   21.90
   5   3  -5  314.37   21.90
  -5  -3   5  293.47   22.10
   4   3  -5  217.48   18.00
   4   3  -5  247.88   17.10
   4   3  -5  238.38   17.10
  -4  -3   5  229.88   17.20
   3   3  -5    9.40    1.40
   3   3  -5    6.20    2.00
   3   3  -5    9.00    1.40
  -3  -3   5    4.80    1.30
   2   3  -5    1.10    0.80
   2   3  -5   -0.10    1.10
  -2  -3   5    0.30    0.80
   1   3  -5   44.90    3.90
   1   3  -5   39.40    3.60
   1   3  -5   44.70    3.70
  -1  -3   5   42.50    3.60
   0   3  -5   13.40    2.00
   0   3  -5    9.00    1.40
   0   3  -5   12.10    1.80
   0   3  -5    9.50    1.20
   0  -3   5   11.50    1.40
  -1   3  -5   10.50    0.80
  -1   3  -5   10.90    1.40
  -1   3  -5   12.70    2.10
  -1   3  -5    8.00    1.80
  -1   3  -5    6.80    0.90
   1  -3   5    7.10    1.10
  -2   3  -5    1.50    1.60
  -2   3  -5    0.20    1.40
  -2   3  -5    1.70    1.00
  -2   3  -5    0.80    0.80
   2  -3   5    1.10    0.60
  -3   3  -5  259.87   20.90
  -3   3  -5  283.47   19.60
  -3   3  -5  281.77   19.60
  -3   3  -5  277.87   20.20
  -3   3  -5  263.17   20.70
  -3   3  -5  297.07   20.10
   3  -3   5  257.67   19.80
  -4   3  -5  596.34   40.70
  -4   3  -5  559.14   41.70
  -4   3  -5  557.94   42.00
  -4   3  -5  639.54   40.90
  -4   3  -5  586.04   40.70
  -4   3  -5  561.04   41.20
   4  -3   5  525.05   40.50
   4  -3   5  547.45   40.40
  -5   3  -5  200.98   14.90
  -5   3  -5  216.28   16.60
  -5   3  -5  211.78   16.20
  -5   3  -5  229.38   14.90
  -5   3  -5  194.38   15.00
  -5   3  -5  180.38   15.40
   5  -3   5  198.28   14.40
   5  -3   5  190.08   14.50
  -6   3  -5 1295.07   94.39
  -6   3  -5 1191.28   93.49
   6  -3   5 1403.76   92.39
   6  -3   5 1343.37   92.69
  -7   3  -5    2.70    1.70
  -7   3  -5    0.80    2.70
  -7   3  -5    1.30    2.20
   7  -3   5    3.30    1.00
   7  -3   5    4.20    0.80
  -8   3  -5   17.80    3.30
  -8   3  -5   21.90    5.00
   8  -3   5   23.80    2.20
   8  -3   5   23.50    2.60
  -9   3  -5  103.19    9.70
  -9   3  -5  110.19   11.20
   9  -3   5  115.19    8.20
   9  -3   5  104.49    8.50
 -10   3  -5   83.39   10.40
 -10   3  -5   80.69    8.00
  10  -3   5   70.39    6.20
  10  -3   5   70.09    5.70
 -11   3  -5    2.80    4.40
 -11   3  -5    2.90    3.80
 -11   3  -5    0.90    2.90
  11  -3   5   -0.60    1.10
  11  -3   5   -0.40    1.10
 -12   3  -5   51.99    7.30
 -12   3  -5   48.70    8.50
 -12   3  -5   34.70    7.10
  12  -3   5   39.10    4.00
  12  -3   5   40.20    4.50
 -11  -2   5   16.40    3.50
 -11  -2   5   15.00    5.50
  10   2  -5   32.40    4.20
  10   2  -5   40.20    4.30
  10   2  -5   39.90    4.60
 -10  -2   5   47.80    7.40
 -10  -2   5   45.50    4.80
   9   2  -5   -0.20    1.40
   9   2  -5   -1.10    1.00
   9   2  -5   -1.80    1.10
  -9  -2   5   -1.70    1.50
  -9  -2   5    1.00    3.20
   8   2  -5    2.50    1.30
   8   2  -5    2.30    1.40
   8   2  -5    4.50    1.70
  -8  -2   5    3.50    1.80
  -8  -2   5    1.70    3.00
   7   2  -5   10.10    1.90
   7   2  -5    2.30    2.90
   7   2  -5    2.30    1.30
   7   2  -5    6.90    1.50
  -7  -2   5    5.40    2.80
  -7  -2   5    6.90    1.60
   6   2  -5   24.80    2.50
   6   2  -5   16.50    3.80
   6   2  -5   20.80    2.60
   6   2  -5   14.90    2.20
  -6  -2   5   17.70    2.50
  -6  -2   5   17.80    3.50
   5   2  -5   86.29    6.70
   5   2  -5   86.79    6.70
   5   2  -5   76.39    8.00
  -5  -2   5   85.69    7.50
  -5  -2   5   81.59    6.80
   4   2  -5  119.89    9.20
   4   2  -5  125.59    9.20
   4   2  -5  117.09   10.30
  -4  -2   5  121.59    9.70
  -4  -2   5  124.29    9.30
   3   2  -5  197.18   14.40
   3   2  -5  171.28   15.00
   3   2  -5  214.98   14.40
  -3  -2   5  196.28   14.40
   2   2  -5  270.67   20.50
   2   2  -5  272.87   21.00
   2   2  -5  306.17   20.50
  -2  -2   5  285.97   20.50
   1   2  -5  473.15   32.90
   1   2  -5  465.25   32.70
   1   2  -5  438.66   33.20
  -1  -2   5  467.05   32.90
   0   2  -5    0.40    0.50
   0   2  -5    0.40    0.80
   0   2  -5    1.00    0.90
   0   2  -5    0.80    0.90
   0  -2   5   -0.30    0.60
  -1   2  -5  324.87   21.40
  -1   2  -5  294.57   21.60
  -1   2  -5  285.47   22.00
   1  -2   5  285.57   21.60
   1  -2   5  310.67   21.50
  -2   2  -5  377.06   26.00
  -2   2  -5  376.86   26.60
  -2   2  -5  352.86   26.70
  -2   2  -5  363.06   25.90
   2  -2   5  359.66   25.90
   2  -2   5  354.56   26.00
  -3   2  -5  582.94   44.70
  -3   2  -5  665.53   44.60
  -3   2  -5  640.14   45.60
  -3   2  -5  605.94   45.30
  -3   2  -5  685.33   44.40
   3  -2   5  570.74   44.50
   3  -2   5  644.04   44.40
  -4   2  -5  366.06   23.90
  -4   2  -5  315.47   24.60
  -4   2  -5  347.17   25.00
  -4   2  -5  289.67   24.00
  -4   2  -5  351.36   23.70
   4  -2   5  327.07   23.60
   4  -2   5  318.47   23.50
  -5   2  -5   30.00    2.50
  -5   2  -5   22.10    3.90
  -5   2  -5   28.70    2.90
  -5   2  -5   25.30    3.20
  -5   2  -5   27.00    4.40
   5  -2   5   25.90    2.30
   5  -2   5   27.10    2.30
  -6   2  -5   -0.60    1.40
  -6   2  -5    1.70    2.70
  -6   2  -5    3.50    1.90
  -6   2  -5   -1.40    2.00
   6  -2   5   -0.60    0.50
   6  -2   5    0.30    0.50
  -7   2  -5   26.20    3.90
  -7   2  -5   41.80    4.60
  -7   2  -5   31.50    5.50
   7  -2   5   33.00    3.20
   7  -2   5   41.00    3.00
  -8   2  -5   -0.20    1.70
  -8   2  -5   -0.60    2.70
  -8   2  -5    4.00    2.50
   8  -2   5    0.10    0.70
   8  -2   5   -0.40    0.80
  -9   2  -5   12.10    3.10
  -9   2  -5   12.00    3.40
  -9   2  -5   13.30    4.80
   9  -2   5   10.60    1.40
   9  -2   5    7.40    1.60
 -10   2  -5   29.70    4.90
 -10   2  -5   27.10    4.90
 -10   2  -5   19.20    5.50
  10  -2   5   27.00    2.70
  10  -2   5   25.20    3.00
 -11   2  -5   23.50    6.00
 -11   2  -5   16.00    4.20
 -11   2  -5   15.20    4.70
  11  -2   5   13.80    1.90
  11  -2   5   11.80    2.20
 -12   2  -5   43.50    7.80
 -12   2  -5   38.50    6.70
 -12   2  -5   34.60    6.00
  12  -2   5   33.10    3.90
  12  -2   5   33.50    3.60
  11   1  -5    3.40    2.10
  11   1  -5   10.30    2.70
 -11  -1   5    5.70    2.80
 -11  -1   5   13.70    5.10
  10   1  -5   21.40    3.10
  10   1  -5   18.20    2.90
  10   1  -5   21.30    3.30
 -10  -1   5   15.00    5.20
 -10  -1   5   17.60    3.30
   9   1  -5    4.00    2.00
   9   1  -5    4.40    1.50
   9   1  -5    3.20    1.70
  -9  -1   5    4.40    2.00
  -9  -1   5   11.40    4.10
   8   1  -5   -0.80    1.30
   8   1  -5   -0.30    1.20
   8   1  -5    0.40    1.20
  -8  -1   5   -0.90    2.60
  -8  -1   5    1.30    1.80
   7   1  -5    0.90    1.00
   7   1  -5    0.80    1.40
   7   1  -5    1.50    2.60
   7   1  -5   -0.60    1.00
  -7  -1   5    1.40    0.90
  -7  -1   5    0.10    1.40
  -7  -1   5   -0.10    2.40
   6   1  -5   -0.10    1.20
   6   1  -5    0.40    0.90
   6   1  -5    0.10    2.40
   6   1  -5   -0.60    1.00
  -6  -1   5    1.30    1.00
  -6  -1   5    1.50    2.20
  -6  -1   5    0.10    1.20
   5   1  -5   12.30    3.20
   5   1  -5   10.70    1.70
   5   1  -5   11.60    1.90
  -5  -1   5   13.60    2.80
  -5  -1   5    8.20    1.80
  -5  -1   5   11.70    1.70
   4   1  -5   10.20    1.70
   4   1  -5    9.80    1.60
   4   1  -5    8.00    2.70
  -4  -1   5    8.00    1.60
  -4  -1   5    9.60    2.10
   3   1  -5   26.20    2.60
   3   1  -5   25.50    2.60
   3   1  -5   25.90    3.80
  -3  -1   5   25.90    2.60
  -3  -1   5   25.50    2.90
  -3  -1   5   25.00    2.80
   2   1  -5  140.49   11.80
   2   1  -5  154.58   11.20
   2   1  -5  142.49   11.10
   2   1  -5  151.48   11.20
  -2  -1   5  161.48   11.30
  -2  -1   5  162.48   11.30
   1   1  -5  371.86   30.20
   1   1  -5  403.96   30.40
   1   1  -5  453.75   30.20
   1   1  -5  428.56   30.20
   1   1  -5  426.06   30.70
  -1  -1   5  415.66   30.20
  -1  -1   5  461.45   30.20
   0   1  -5  464.15   35.00
   0   1  -5  496.85   34.40
   0   1  -5  482.75   34.70
   0  -1   5  503.05   34.30
   0  -1   5  469.35   34.40
  -1   1  -5  233.48   18.50
  -1   1  -5  257.17   18.70
  -1   1  -5  274.47   18.30
  -1   1  -5  251.57   19.50
   1  -1   5  247.98   18.40
   1  -1   5  272.37   18.40
  -2   1  -5  292.97   20.90
  -2   1  -5  283.07   20.70
  -2   1  -5  324.67   21.30
   2  -1   5  275.57   20.70
   2  -1   5  279.27   20.60
  -3   1  -5  397.86   31.80
  -3   1  -5  463.25   30.10
  -3   1  -5  392.76   30.00
  -3   1  -5  442.16   30.60
   3  -1   5  444.76   29.70
   3  -1   5  412.56   29.80
   3  -1   5  386.96   29.70
  -4   1  -5  112.49    7.50
  -4   1  -5   89.29    8.30
  -4   1  -5   92.59    7.70
  -4   1  -5   97.39    7.80
   4  -1   5  104.39    7.30
   4  -1   5   96.19    7.10
   4  -1   5   93.29    7.20
  -5   1  -5  202.78   15.90
  -5   1  -5  215.78   16.00
  -5   1  -5  233.88   15.70
  -5   1  -5  188.38   16.40
  -5   1  -5  226.28   17.10
   5  -1   5  215.08   15.30
   5  -1   5  210.58   15.30
  -6   1  -5   12.10    3.10
  -6   1  -5   11.90    2.50
  -6   1  -5    9.20    2.30
  -6   1  -5   11.90    3.40
   6  -1   5   11.00    1.20
   6  -1   5   13.00    1.30
  -7   1  -5   78.99    7.90
  -7   1  -5   66.79    6.50
  -7   1  -5   61.59    6.90
   7  -1   5   72.99    5.20
   7  -1   5   64.19    5.40
   7  -1   5   68.09    5.10
  -8   1  -5   76.39    7.30
  -8   1  -5   80.19    8.90
  -8   1  -5   84.99    7.60
   8  -1   5   83.09    6.00
   8  -1   5   72.99    6.20
  -9   1  -5   -2.00    2.90
  -9   1  -5    0.00    2.00
  -9   1  -5    0.40    2.20
   9  -1   5    2.70    0.90
   9  -1   5    2.20    1.10
 -10   1  -5   44.40    7.60
 -10   1  -5   48.80    6.20
 -10   1  -5   45.20    6.40
  10  -1   5   46.30    4.10
  10  -1   5   44.00    3.90
 -11   1  -5   49.10    6.50
 -11   1  -5   46.40    7.50
 -11   1  -5   30.40    6.10
  11  -1   5   38.60    3.60
  11  -1   5   40.20    4.00
 -12   1  -5   24.20    5.70
 -12   1  -5   22.10    5.00
 -12   1  -5   19.00    5.70
  12  -1   5   12.80    2.10
  12  -1   5   16.30    2.60
 -13   1  -5  103.59   10.60
 -13   1  -5   88.19   11.70
 -13   1  -5   97.79   10.60
  13  -1   5   90.39    7.70
  13  -1   5   82.49    7.30
  11   0  -5   10.90    2.90
  11   0  -5    8.10    2.40
 -11   0   5    8.40    3.10
 -11   0   5   12.00    3.80
 -11   0   5    9.60    4.70
  10   0  -5    5.30    1.90
 -10   0   5    6.60    2.50
 -10   0   5    5.50    3.10
 -10   0   5   15.00    4.80
   9   0  -5   16.00    2.60
   9   0  -5   17.70    2.50
  -9   0   5   12.70    4.40
  -9   0   5   16.40    3.10
   8   0  -5  130.09   10.40
   8   0  -5  115.89   10.10
  -8   0   5  142.69   10.60
  -8   0   5  152.18   12.40
   7   0  -5   27.00    3.20
   7   0  -5   24.00    2.80
  -7   0   5   27.40    3.20
  -7   0   5   24.70    4.40
   6   0  -5   39.50    3.90
   6   0  -5   52.49    4.30
   6   0  -5   42.70    6.20
  -6   0   5   42.10    3.80
  -6   0   5   46.60    4.30
  -6   0   5   44.90    5.60
   5   0  -5   52.19    6.40
   5   0  -5   44.10    4.00
   5   0  -5   45.00    4.20
  -5   0   5   42.60    5.00
  -5   0   5   41.40    3.70
  -5   0   5   42.30    4.20
   4   0  -5   28.70    2.90
   4   0  -5   26.70    2.90
   4   0  -5   28.80    4.20
  -4   0   5   26.50    2.60
  -4   0   5   31.20    3.70
  -4   0   5   32.60    3.70
  -4   0   5   28.90    3.10
   3   0  -5   43.60    3.90
   3   0  -5   42.40    4.90
   3   0  -5   47.80    3.90
  -3   0   5   39.50    3.60
  -3   0   5   43.00    4.20
  -3   0   5   46.40    3.80
  -3   0   5   43.90    4.20
   2   0  -5  130.79    9.30
   2   0  -5  114.19   10.00
   2   0  -5  125.59    9.30
  -2   0   5  128.49    9.20
  -2   0   5  108.59    9.10
  -2   0   5  131.59    9.40
  -2   0   5  122.29    9.30
   1   0  -5   49.99    5.00
   1   0  -5   62.69    4.90
   1   0  -5   52.79    4.40
   1   0  -5   52.79    4.40
  -1   0   5   55.09    4.30
  -1   0   5   49.90    4.30
  -1   0   5   52.09    4.20
  -1   0   5   55.09    4.40
   0   0  -5   77.49    6.40
   0   0  -5   86.29    6.40
   0   0  -5   78.69    6.90
   0   0  -5   91.39    7.10
   0   0   5   84.49    6.30
   0   0   5   80.79    6.30
  -1   0  -5  304.27   21.80
  -1   0  -5  282.47   22.30
  -1   0  -5  303.57   21.50
   1   0   5  301.87   21.30
   1   0   5  300.07   21.40
  -2   0  -5  126.69   11.10
  -2   0  -5  120.69    9.60
  -2   0  -5  141.39   10.20
   2   0   5  139.89    9.80
   2   0   5  140.69    9.60
  -3   0  -5   -0.10    1.80
  -3   0  -5    0.70    0.70
  -3   0  -5   -0.90    1.10
  -3   0  -5    0.80    1.20
   3   0   5    0.30    0.30
   3   0   5    0.60    0.50
   3   0   5    0.00    0.30
  -4   0  -5   38.00    4.30
  -4   0  -5   44.50    3.80
  -4   0  -5   40.00    5.60
  -4   0  -5   44.50    4.20
   4   0   5   43.60    3.30
   4   0   5   42.40    3.30
  -5   0  -5   43.70    4.20
  -5   0  -5   48.00    4.00
  -5   0  -5   40.00    4.70
  -5   0  -5   42.00    4.50
  -5   0  -5   36.00    6.10
   5   0   5   45.80    3.50
   5   0   5   47.40    3.50
  -6   0  -5    1.50    1.90
  -6   0  -5    4.80    1.70
  -6   0  -5    3.10    2.10
   6   0   5    4.90    0.80
   6   0   5    5.00    0.80
  -7   0  -5   97.69    9.00
  -7   0  -5  110.49    9.30
  -7   0  -5   94.39    9.90
  -7   0  -5  110.49    9.70
   7   0   5  107.99    7.80
   7   0   5  111.29    7.90
  -8   0  -5    2.70    2.30
  -8   0  -5    1.70    2.80
  -8   0  -5    2.70    2.00
   8   0   5    4.20    1.00
   8   0   5    4.70    1.00
  -9   0  -5   15.30    4.40
  -9   0  -5   18.60    3.60
  -9   0  -5   16.20    3.30
   9   0   5   15.40    2.00
   9   0   5   14.60    1.80
 -10   0  -5  147.89   12.40
 -10   0  -5  142.29   13.40
 -10   0  -5  155.18   12.80
  10   0   5  136.79   10.80
  10   0   5  138.09   10.60
 -11   0  -5   -0.30    4.10
 -11   0  -5    3.00    3.10
 -11   0  -5    1.20    3.10
  11   0   5    1.80    1.20
  11   0   5    1.80    1.20
 -12   0  -5    5.90    4.40
 -12   0  -5    8.00    3.80
 -12   0  -5    8.00    5.20
  12   0   5    7.00    1.70
  12   0   5    7.60    1.70
 -13   0  -5   14.40    5.50
 -13   0  -5   14.70    4.70
 -13   0  -5   23.90    5.90
  13   0   5   11.30    2.10
  13   0   5   14.00    2.40
  11  -1  -5   20.10    3.10
 -11   1   5   16.60    4.00
 -11   1   5   13.80    5.20
 -11   1   5   18.50    4.40
  10  -1  -5    3.50    1.90
 -10   1   5    4.20    2.70
 -10   1   5   -0.40    3.00
 -10   1   5    2.60    4.30
   9  -1  -5    2.50    1.60
  -9   1   5    1.90    2.00
  -9   1   5    0.10    3.50
  -9   1   5    1.70    2.60
   8  -1  -5  111.59    8.60
   8  -1  -5   84.09    7.90
  -8   1   5  108.69    8.60
  -8   1   5  117.19   10.20
   7  -1  -5   -1.80    1.00
  -7   1   5   -0.40    1.50
  -7   1   5   -1.90    2.50
   6  -1  -5   73.19    6.40
  -6   1   5   75.89    5.90
  -6   1   5   79.49    6.50
  -6   1   5   81.79    7.50
   5  -1  -5  226.98   15.60
   5  -1  -5  199.88   16.90
  -5   1   5  209.08   15.60
  -5   1   5  205.28   16.20
  -5   1   5  200.68   15.10
  -5   1   5  209.08   16.30
   4  -1  -5  169.98   12.80
   4  -1  -5  176.48   14.10
  -4   1   5  167.78   12.50
  -4   1   5  170.88   12.80
  -4   1   5  172.88   13.30
  -4   1   5  167.98   13.40
   3  -1  -5   97.09    9.10
   3  -1  -5  104.49    8.20
   3  -1  -5  111.69    8.20
  -3   1   5  100.09    7.90
  -3   1   5  108.29    8.10
  -3   1   5   98.59    8.50
  -3   1   5  117.59    8.50
   2  -1  -5  275.27   20.80
   2  -1  -5  285.57   20.00
   2  -1  -5  273.77   20.00
  -2   1   5  290.17   19.90
  -2   1   5  265.57   19.80
  -2   1   5  276.67   20.20
  -2   1   5  263.87   20.00
   1  -1  -5   42.60    3.70
   1  -1  -5   45.50    3.70
   1  -1  -5   42.80    4.50
  -1   1   5   41.10    3.50
  -1   1   5   41.10    3.70
  -1   1   5   44.30    3.60
   0  -1  -5  379.56   28.10
   0  -1  -5  379.66   27.50
   0  -1  -5  365.26   27.50
   0   1   5  407.46   27.10
   0   1   5  370.26   27.40
   0   1   5  381.66   27.40
   0   1   5  405.36   27.50
  -1  -1  -5   83.19    7.00
  -1  -1  -5   75.99    6.50
  -1  -1  -5   74.69    5.90
   1   1   5   74.59    5.80
   1   1   5   76.69    5.80
   1   1   5   77.49    5.70
  -2  -1  -5  383.26   28.40
  -2  -1  -5  350.66   27.20
  -2  -1  -5  344.17   26.90
  -2  -1  -5  404.36   27.70
   2   1   5  413.56   27.00
   2   1   5  392.16   27.10
  -3  -1  -5  377.26   26.30
  -3  -1  -5  338.67   25.70
  -3  -1  -5  325.27   27.20
  -3  -1  -5  406.56   26.30
   3   1   5  361.06   25.50
   3   1   5  383.26   25.70
   3   1   5  346.47   25.50
   3   1   5  352.96   25.50
  -4  -1  -5   53.49    4.70
  -4  -1  -5   54.09    6.40
  -4  -1  -5   59.89    5.40
  -4  -1  -5   52.49    5.20
   4   1   5   59.09    4.30
   4   1   5   64.99    4.50
  -5  -1  -5   69.99    8.20
  -5  -1  -5   63.09    6.70
  -5  -1  -5   76.49    6.80
  -5  -1  -5   70.59    6.20
   5   1   5   81.59    5.60
   5   1   5   81.89    5.70
  -6  -1  -5   47.00    5.20
  -6  -1  -5   39.60    5.40
  -6  -1  -5   49.00    4.80
  -6  -1  -5   39.70    7.20
   6   1   5   54.29    3.90
   6   1   5   50.99    3.80
  -7  -1  -5   16.30    2.90
  -7  -1  -5   17.80    5.10
  -7  -1  -5   13.20    3.00
  -7  -1  -5   13.10    3.30
   7   1   5   15.50    1.60
   7   1   5   17.40    1.70
  -8  -1  -5    2.00    2.70
  -8  -1  -5    4.70    2.20
   8   1   5    3.90    0.90
   8   1   5    3.60    0.80
   8   1   5    5.40    1.00
  -9  -1  -5   -1.10    3.00
  -9  -1  -5    0.70    2.10
  -9  -1  -5   -0.10    1.90
   9   1   5    0.20    0.60
   9   1   5    1.30    0.90
 -10  -1  -5   69.19    7.30
 -10  -1  -5   75.39    8.40
 -10  -1  -5   70.39    7.40
  10   1   5   62.69    5.30
  10   1   5   65.19    5.50
 -11  -1  -5   35.70    5.60
 -11  -1  -5   46.20    6.60
 -11  -1  -5   48.40    7.40
  11   1   5   33.30    3.40
  11   1   5   30.10    3.30
 -12  -1  -5    2.80    3.70
 -12  -1  -5    3.20    4.20
 -12  -1  -5   -0.70    3.10
  12   1   5    5.30    1.50
  12   1   5    3.20    1.40
 -13  -1  -5   -0.90    4.50
 -13  -1  -5    0.40    3.90
  13   1   5    1.00    1.30
  13   1   5   -0.70    1.40
  11  -2  -5    3.10    2.10
 -11   2   5   14.20    5.90
 -11   2   5    0.30    3.70
 -11   2   5    8.40    3.20
  10  -2  -5   23.70    3.60
 -10   2   5   30.50    5.10
 -10   2   5   21.70    5.60
 -10   2   5   22.90    4.10
   9  -2  -5   51.89    5.40
  -9   2   5   61.19    6.00
  -9   2   5   62.39    8.10
  -9   2   5   55.99    6.40
   8  -2  -5   78.39    7.50
  -8   2   5   94.59    8.40
  -8   2   5   87.79    9.50
  -8   2   5   94.39    7.80
   7  -2  -5  166.18   13.70
  -7   2   5  171.58   13.80
  -7   2   5  204.58   15.30
  -7   2   5  184.98   14.50
   6  -2  -5    4.40    1.40
  -6   2   5    2.10    1.50
  -6   2   5    3.80    2.40
  -6   2   5    2.00    2.10
   5  -2  -5  128.29    9.50
   5  -2  -5  110.89   11.40
  -5   2   5  123.89    9.50
  -5   2   5  120.59   10.20
  -5   2   5  115.49   10.20
  -5   2   5  116.89    8.90
   4  -2  -5    1.20    2.50
   4  -2  -5    1.60    1.10
  -4   2   5    1.90    1.80
  -4   2   5    0.50    1.20
  -4   2   5    2.50    0.80
  -4   2   5    1.90    1.80
   3  -2  -5  597.94   42.60
   3  -2  -5  621.14   42.50
   3  -2  -5  575.14   43.40
  -3   2   5  584.64   42.10
  -3   2   5  606.64   42.80
  -3   2   5  578.84   42.90
   2  -2  -5  112.69    8.80
   2  -2  -5  109.39    9.60
   2  -2  -5  125.29    8.80
  -2   2   5  105.79    9.00
  -2   2   5  117.09    8.70
  -2   2   5  113.49    8.40
   1  -2  -5  138.29   11.40
   1  -2  -5  140.69   10.60
   1  -2  -5  152.28   10.70
  -1   2   5  151.38   10.80
  -1   2   5  146.79   10.60
  -1   2   5  141.79   10.40
  -1   2   5  130.59   10.50
   0  -2  -5  465.55   34.40
   0  -2  -5  492.55   35.00
   0  -2  -5  475.25   34.40
   0   2   5  483.55   34.30
   0   2   5  489.55   34.40
   0   2   5  477.95   34.50
   0   2   5  498.35   34.10
   0   2   5  472.15   34.20
  -1  -2  -5   64.39    5.90
  -1  -2  -5   67.79    5.20
  -1  -2  -5   55.49    5.20
   1   2   5   71.69    5.10
   1   2   5   63.49    5.20
   1   2   5   67.19    5.10
   1   2   5   69.89    5.10
  -2  -2  -5   70.19    5.80
  -2  -2  -5   54.59    5.00
  -2  -2  -5   73.19    6.40
   2   2   5   66.79    4.90
   2   2   5   57.99    4.70
   2   2   5   64.49    4.80
   2   2   5   62.29    4.90
   2   2   5   67.19    4.90
  -3  -2  -5   76.99    7.90
  -3  -2  -5  101.69    7.10
  -3  -2  -5   96.69    7.30
   3   2   5   78.19    6.30
   3   2   5   86.29    6.20
   3   2   5   93.59    6.40
   3   2   5   78.09    6.20
   3   2   5   83.69    6.50
  -4  -2  -5   35.50    4.20
  -4  -2  -5   39.70    5.10
  -4  -2  -5   43.70    3.90
  -4  -2  -5   36.30    3.40
   4   2   5   37.50    2.90
   4   2   5   37.00    3.40
   4   2   5   41.70    3.10
   4   2   5   41.40    3.00
  -5  -2  -5  400.76   30.00
  -5  -2  -5  376.76   31.80
  -5  -2  -5  393.56   30.40
  -5  -2  -5  425.16   30.60
   5   2   5  460.35   29.50
   5   2   5  457.15   29.70
   5   2   5  389.36   30.00
  -6  -2  -5   -0.10    1.90
  -6  -2  -5    1.70    1.90
  -6  -2  -5   -0.40    1.10
  -6  -2  -5    1.90    2.60
   6   2   5    0.00    0.50
   6   2   5    0.20    0.60
  -7  -2  -5    7.50    2.20
  -7  -2  -5   10.70    2.90
  -7  -2  -5   10.50    2.60
  -7  -2  -5    8.40    3.90
   7   2   5    9.80    1.20
   7   2   5    9.70    1.30
  -8  -2  -5    0.50    3.00
  -8  -2  -5   -0.30    1.60
   8   2   5   -0.40    0.60
   8   2   5    0.30    0.70
   8   2   5   -0.60    0.60
  -9  -2  -5   -2.60    2.10
  -9  -2  -5    2.10    2.30
   9   2   5    1.60    0.90
   9   2   5    2.70    0.80
 -10  -2  -5   39.00    5.60
 -10  -2  -5   53.29    6.40
 -10  -2  -5   37.50    6.60
  10   2   5   44.00    3.80
  10   2   5   44.20    3.90
 -11  -2  -5   27.00    5.00
 -11  -2  -5   23.30    4.90
 -11  -2  -5   19.00    5.30
  11   2   5   19.60    2.40
  11   2   5   18.80    2.50
 -12  -2  -5   20.50    5.10
 -12  -2  -5   24.60    5.20
 -12  -2  -5   23.90    5.60
  12   2   5   18.60    2.50
  12   2   5   21.60    2.60
 -13  -2  -5   -0.90    4.70
 -13  -2  -5    5.50    4.70
  13   2   5    2.40    1.60
  13   2   5    3.20    1.30
  10  -3  -5   55.99    5.80
 -10   3   5   52.79    7.20
 -10   3   5   50.79    6.10
   9  -3  -5   20.60    3.30
  -9   3   5   13.90    4.10
  -9   3   5   19.10    3.60
   8  -3  -5    0.30    1.60
  -8   3   5    0.30    2.30
  -8   3   5    3.20    3.40
  -8   3   5    4.10    2.90
   7  -3  -5   51.29    5.10
  -7   3   5   51.59    5.80
  -7   3   5   46.30    6.70
  -7   3   5   55.89    5.40
   6  -3  -5   50.49    5.10
  -6   3   5   60.49    6.60
  -6   3   5   48.50    6.30
  -6   3   5   59.69    5.80
  -6   3   5   56.59    5.30
   5  -3  -5  438.76   31.90
  -5   3   5  431.06   31.90
  -5   3   5  427.86   32.30
  -5   3   5  461.65   32.80
   4  -3  -5  506.55   36.80
   4  -3  -5  499.35   38.20
  -4   3   5  494.65   37.50
  -4   3   5  526.65   37.20
  -4   3   5  534.65   36.30
  -4   3   5  501.55   36.80
   3  -3  -5  694.73   49.10
   3  -3  -5  699.73   50.09
  -3   3   5  690.13   49.10
  -3   3   5  642.94   49.40
  -3   3   5  708.33   48.70
  -3   3   5  685.43   49.50
  -3   3   5  688.33   49.40
   2  -3  -5    0.80    1.90
   2  -3  -5    1.80    0.90
   2  -3  -5    1.50    1.00
  -2   3   5    2.60    1.20
  -2   3   5    4.00    1.60
  -2   3   5    3.30    0.70
  -2   3   5    3.10    1.50
  -2   3   5    3.60    1.60
   1  -3  -5   55.09    4.50
   1  -3  -5   53.09    4.50
   1  -3  -5   56.89    5.50
  -1   3   5   54.19    4.70
  -1   3   5   51.49    4.40
  -1   3   5   48.80    4.60
  -1   3   5   48.90    4.40
  -1   3   5   55.79    4.10
   0  -3  -5  404.16   28.20
   0  -3  -5  388.16   28.80
   0  -3  -5  391.46   28.10
   0   3   5  392.46   27.90
   0   3   5  405.26   28.00
   0   3   5  395.16   28.30
   0   3   5  370.96   28.20
   0   3   5  390.36   28.10
  -1  -3  -5   16.80    2.00
  -1  -3  -5   20.60    3.00
  -1  -3  -5   17.90    1.90
   1   3   5   13.70    2.00
   1   3   5   18.40    1.70
   1   3   5   19.30    1.90
   1   3   5   17.10    2.00
  -2  -3  -5  801.22   58.19
  -2  -3  -5  826.02   58.89
   2   3   5  858.71   58.19
   2   3   5  746.93   58.09
   2   3   5  895.61   58.09
   2   3   5  801.22   57.89
   2   3   5  823.62   58.19
  -3  -3  -5   13.80    2.60
  -3  -3  -5   16.40    3.30
   3   3   5   12.00    1.60
   3   3   5   14.80    1.70
   3   3   5   16.60    1.50
   3   3   5   13.60    1.30
  -4  -3  -5   12.50    3.40
  -4  -3  -5   13.50    2.20
  -4  -3  -5   18.40    2.90
   4   3   5   16.50    1.30
   4   3   5   13.20    1.60
   4   3   5   13.90    1.50
   4   3   5   13.00    1.90
  -5  -3  -5  266.47   21.00
  -5  -3  -5  280.37   22.60
  -5  -3  -5  295.87   21.40
   5   3   5  252.97   20.60
   5   3   5  311.57   20.40
   5   3   5  253.87   20.10
   5   3   5  326.27   20.20
  -6  -3  -5   28.30    4.00
  -6  -3  -5   32.70    4.60
  -6  -3  -5   29.70    3.50
  -6  -3  -5   26.70    5.30
   6   3   5   33.00    2.90
   6   3   5   35.90    2.70
  -7  -3  -5    1.40    3.10
  -7  -3  -5    5.70    2.00
  -7  -3  -5    5.20    2.70
  -7  -3  -5    6.10    2.30
   7   3   5    4.70    1.10
   7   3   5    5.40    0.90
  -8  -3  -5    1.60    3.40
  -8  -3  -5   -0.90    1.50
   8   3   5    1.20    0.90
   8   3   5    1.40    0.80
   8   3   5    0.50    0.60
  -9  -3  -5   -1.20    1.90
  -9  -3  -5   -0.40    3.30
  -9  -3  -5   -3.10    1.70
   9   3   5    0.30    0.90
   9   3   5    0.50    0.70
   9   3   5   -0.40    0.60
 -10  -3  -5   82.69    7.90
  10   3   5   70.29    5.90
  10   3   5   73.19    5.90
 -11  -3  -5   68.09    9.00
 -11  -3  -5   74.29    7.90
 -11  -3  -5   69.59    8.20
  11   3   5   61.89    5.20
  11   3   5   55.79    5.10
 -12  -3  -5    9.00    4.60
 -12  -3  -5    1.40    3.80
  12   3   5    7.50    1.80
 -13  -3  -5   45.50    7.30
 -13  -3  -5   48.60    7.90
  13   3   5   43.10    4.40
  10  -4  -5    8.70    2.40
 -10   4   5    3.20    4.00
 -10   4   5    2.30    3.50
 -10   4   5    4.40    4.90
   9  -4  -5   37.50    4.60
  -9   4   5   36.50    5.80
  -9   4   5   27.80    6.00
  -9   4   5   28.10    4.80
   8  -4  -5   36.00    4.50
  -8   4   5   31.40    4.90
  -8   4   5   43.50    5.90
  -8   4   5   39.40    6.50
   7  -4  -5   15.30    2.80
  -7   4   5   27.70    4.60
  -7   4   5   26.20    5.10
  -7   4   5   22.80    3.70
   6  -4  -5   65.19    6.10
  -6   4   5   63.39    7.50
  -6   4   5   72.79    7.00
  -6   4   5   81.09    7.80
  -6   4   5   70.29    6.60
   5  -4  -5   29.30    3.40
  -5   4   5   29.40    3.70
  -5   4   5   36.50    5.10
  -5   4   5   31.30    4.30
  -5   4   5   27.20    4.50
   4  -4  -5   45.10    4.40
  -4   4   5   41.20    5.40
  -4   4   5   41.80    4.80
  -4   4   5   43.60    5.30
  -4   4   5   51.59    3.70
  -4   4   5   44.40    5.20
   3  -4  -5   29.80    3.10
  -3   4   5   26.60    3.40
  -3   4   5   29.50    2.60
  -3   4   5   31.30    3.80
  -3   4   5   28.70    3.90
  -3   4   5   33.20    4.20
   2  -4  -5   44.60    5.20
   2  -4  -5   37.20    3.70
   2  -4  -5   40.50    3.90
  -2   4   5   38.00    4.00
  -2   4   5   40.20    4.30
  -2   4   5   41.30    3.30
  -2   4   5   46.70    4.50
  -2   4   5   42.80    4.20
   1  -4  -5   25.80    2.80
   1  -4  -5   27.80    2.80
   1  -4  -5   23.60    3.60
  -1   4   5   27.10    3.10
  -1   4   5   26.70    3.20
  -1   4   5   26.40    2.90
  -1   4   5   29.60    2.40
  -1   4   5   24.80    2.90
   0  -4  -5   21.20    3.50
   0  -4  -5   21.40    2.30
   0  -4  -5   20.20    2.30
   0   4   5   18.80    2.60
   0   4   5   24.50    2.40
   0   4   5   23.00    2.50
   0   4   5   20.00    1.90
   0   4   5   20.30    2.40
  -1  -4  -5   46.30    3.90
  -1  -4  -5   43.80    3.90
  -1  -4  -5   53.39    5.10
   1   4   5   50.19    4.10
   1   4   5   49.50    4.30
   1   4   5   44.80    3.40
   1   4   5   44.40    4.00
  -2  -4  -5   23.80    3.50
  -2  -4  -5   22.80    2.40
   2   4   5   23.80    2.40
   2   4   5   25.90    1.90
   2   4   5   22.50    2.40
   2   4   5   22.00    2.10
   2   4   5   22.20    2.50
  -3  -4  -5   24.50    4.50
  -3  -4  -5   18.20    3.10
  -3  -4  -5   19.70    2.20
   3   4   5   16.40    2.10
   3   4   5   21.10    1.70
   3   4   5   18.60    1.90
   3   4   5   22.00    2.20
  -4  -4  -5  213.18   17.30
  -4  -4  -5  214.48   15.80
  -4  -4  -5  209.28   16.40
   4   4   5  190.18   15.30
   4   4   5  223.78   15.40
   4   4   5  202.38   15.50
   4   4   5  228.48   15.10
  -5  -4  -5   83.69    7.10
  -5  -4  -5   85.89    7.80
  -5  -4  -5   85.49    8.80
   5   4   5   76.39    6.40
   5   4   5   94.79    6.30
   5   4   5   90.59    6.50
   5   4   5   77.29    6.80
  -6  -4  -5  116.29    9.90
  -6  -4  -5  124.09   10.50
  -6  -4  -5  114.99   11.60
   6   4   5  123.59    9.20
   6   4   5  126.99    8.90
  -7  -4  -5  108.69   11.80
  -7  -4  -5  122.89   10.40
  -7  -4  -5  119.99    9.80
   7   4   5  109.79    8.80
   7   4   5  123.49    8.60
  -8  -4  -5    1.50    3.20
  -8  -4  -5    1.50    1.80
   8   4   5    1.20    0.70
   8   4   5    2.10    0.90
   8   4   5    2.20    0.80
  -9  -4  -5    3.20    2.40
  -9  -4  -5    8.50    2.60
  -9  -4  -5    5.20    4.00
   9   4   5    5.10    1.40
   9   4   5    5.50    1.10
   9   4   5    6.00    1.10
 -10  -4  -5  160.98   16.40
 -10  -4  -5  172.48   13.70
  10   4   5  154.58   11.90
  10   4   5  157.58   11.80
 -11  -4  -5   27.60    5.70
 -11  -4  -5   28.80    5.40
  11   4   5   22.90    2.80
 -12  -4  -5   13.80    4.80
 -12  -4  -5    5.70    3.70
  12   4   5    5.20    1.70
 -13  -4  -5   12.30    4.80
 -13  -4  -5   19.50    6.10
  13   4   5   12.70    2.30
   9  -5  -5    0.10    1.70
  -9   5   5    0.10    3.00
  -9   5   5   -1.30    3.50
  -9   5   5    4.80    4.70
   8  -5  -5    4.50    1.90
  -8   5   5    3.30    4.00
  -8   5   5    0.60    3.30
  -8   5   5    1.40    2.50
   7  -5  -5  116.59   10.30
  -7   5   5  119.49   11.90
  -7   5   5  147.39   11.60
  -7   5   5  123.49   10.90
   6  -5  -5   21.80    3.30
  -6   5   5   26.30    4.80
  -6   5   5   24.00    4.80
  -6   5   5   24.30    3.90
  -6   5   5   22.30    4.40
   5  -5  -5  144.69   11.60
  -5   5   5  146.99   11.90
  -5   5   5  154.68   12.80
  -5   5   5  145.79   12.80
  -5   5   5  155.98   12.50
   4  -5  -5  350.86   24.10
  -4   5   5  319.47   24.80
  -4   5   5  299.37   24.10
  -4   5   5  324.97   24.80
  -4   5   5  336.77   24.60
   3  -5  -5   -0.10    0.90
  -3   5   5   -1.50    1.70
  -3   5   5   -0.20    1.90
  -3   5   5   -2.30    1.40
  -3   5   5   -0.20    1.70
  -3   5   5   -0.20    0.70
   2  -5  -5   10.30    2.00
   2  -5  -5    9.20    1.80
  -2   5   5    6.70    2.30
  -2   5   5   15.90    2.60
  -2   5   5   10.40    2.30
  -2   5   5    9.00    2.10
  -2   5   5   12.60    1.40
   1  -5  -5    5.70    2.50
   1  -5  -5    1.80    1.20
   1  -5  -5    3.20    1.20
  -1   5   5    4.10    1.50
  -1   5   5    3.60    0.90
  -1   5   5    2.10    1.70
  -1   5   5    2.60    1.50
  -1   5   5    1.50    1.50
   0  -5  -5  201.98   15.90
   0  -5  -5  199.98   15.00
   0  -5  -5  203.08   15.00
   0   5   5  184.58   15.30
   0   5   5  204.98   14.40
   0   5   5  214.58   14.80
   0   5   5  190.28   15.10
   0   5   5  205.18   15.30
   0   5   5  225.38   15.20
  -1  -5  -5  240.48   17.50
  -1  -5  -5  238.78   18.40
  -1  -5  -5  237.38   17.50
   1   5   5  249.38   17.40
   1   5   5  250.47   17.70
   1   5   5  220.18   17.60
   1   5   5  247.88   17.00
   1   5   5  232.98   17.80
  -2  -5  -5   90.29    8.70
  -2  -5  -5   90.29    7.70
  -2  -5  -5   98.69    7.70
   2   5   5   92.09    7.90
   2   5   5  106.49    7.60
   2   5   5  109.09    7.20
   2   5   5  105.29    7.80
  -3  -5  -5   21.60    2.60
  -3  -5  -5   20.70    3.60
   3   5   5   30.00    2.60
   3   5   5   30.10    3.00
   3   5   5   25.20    2.80
   3   5   5   29.70    2.10
  -4  -5  -5 1836.32  128.99
  -4  -5  -5 1945.91  128.39
   4   5   5 1810.22  128.19
   4   5   5 1636.74  127.99
   4   5   5 1796.02  127.99
   4   5   5 1871.11  127.69
  -5  -5  -5    4.60    2.40
  -5  -5  -5    2.30    1.60
  -5  -5  -5    7.60    3.40
   5   5   5    2.90    1.00
   5   5   5    2.90    1.40
   5   5   5    4.60    0.80
   5   5   5    3.30    1.00
  -6  -5  -5  371.76   27.90
  -6  -5  -5  423.56   30.40
  -6  -5  -5  408.66   28.70
   6   5   5  356.56   28.10
   6   5   5  404.36   27.20
   6   5   5  372.86   27.50
   6   5   5  349.67   27.30
  -7  -5  -5    1.40    1.80
  -7  -5  -5   -0.30    2.90
  -7  -5  -5    2.60    2.50
   7   5   5   -0.40    1.00
   7   5   5    1.30    0.70
  -8  -5  -5   23.80    5.90
   8   5   5   32.70    2.80
   8   5   5   32.40    2.60
   8   5   5   28.00    3.00
  -9  -5  -5  127.19   13.20
  -9  -5  -5  125.59   10.90
   9   5   5  114.19    9.50
   9   5   5  130.99    9.40
 -10  -5  -5    4.40    4.10
 -10  -5  -5    2.90    2.90
  10   5   5    4.70    1.40
  10   5   5    4.60    1.20
 -11  -5  -5    7.10    3.20
  11   5   5    4.60    1.50
 -12  -5  -5    7.20    4.40
 -12  -5  -5   15.70    5.40
  12   5   5   10.80    1.90
 -13  -5  -5   11.60    5.00
  13   5   5   19.30    2.70
   9  -6  -5   -0.40    1.90
  -9   6   5   -2.60    4.60
  -9   6   5   -1.40    4.00
  -9   6   5   -0.70    3.20
   8  -6  -5    0.40    1.70
  -8   6   5   -0.60    3.70
  -8   6   5    0.10    3.90
  -8   6   5    8.70    3.20
   7  -6  -5   -1.60    1.70
  -7   6   5   -1.80    3.40
  -7   6   5    1.60    2.80
  -7   6   5   -2.70    3.60
  -7   6   5   -6.40    3.00
   6  -6  -5    3.80    1.90
  -6   6   5    4.10    3.30
  -6   6   5    7.70    3.50
  -6   6   5    2.50    2.70
  -6   6   5    4.70    3.30
   5  -6  -5   36.80    4.20
  -5   6   5   39.90    5.40
  -5   6   5   37.80    4.80
  -5   6   5   41.10    5.90
  -5   6   5   50.09    6.20
   4  -6  -5  115.39    9.40
  -4   6   5  123.59   10.50
  -4   6   5  114.29   10.10
  -4   6   5  106.59    9.60
  -4   6   5  120.39   10.40
   3  -6  -5  403.86   28.10
  -3   6   5  408.06   28.90
  -3   6   5  379.36   27.50
  -3   6   5  371.36   28.60
  -3   6   5  354.96   28.20
  -3   6   5  393.06   28.80
   2  -6  -5   14.90    2.30
   2  -6  -5   16.50    2.50
  -2   6   5   15.60    2.60
  -2   6   5   14.50    2.90
  -2   6   5   17.50    3.20
  -2   6   5   14.30    2.90
  -2   6   5   16.60    1.90
   1  -6  -5  169.68   12.40
   1  -6  -5  167.28   12.50
  -1   6   5  162.18   12.10
  -1   6   5  163.88   12.80
  -1   6   5  148.09   12.50
  -1   6   5  162.98   12.90
  -1   6   5  171.98   12.80
   0  -6  -5   33.20    3.50
   0  -6  -5   36.30    3.40
   0   6   5   34.90    3.80
   0   6   5   36.20    4.00
   0   6   5   35.00    3.20
   0   6   5   28.30    3.60
   0   6   5   39.40    3.80
  -1  -6  -5   77.79    5.90
  -1  -6  -5   74.49    5.90
   1   6   5   69.09    5.20
   1   6   5   64.69    6.30
   1   6   5   76.19    6.10
   1   6   5   70.49    5.70
  -2  -6  -5  107.49    8.70
  -2  -6  -5  120.69    8.70
  -2  -6  -5  107.99   10.10
   2   6   5  115.59    9.10
   2   6   5  106.19    8.70
   2   6   5  122.69    9.00
   2   6   5  118.29    8.20
  -3  -6  -5    8.50    2.70
  -3  -6  -5    7.60    1.50
   3   6   5    8.60    1.50
   3   6   5    9.80    1.00
   3   6   5   12.60    2.00
  -4  -6  -5   41.20    5.20
  -4  -6  -5   61.19    7.10
  -4  -6  -5   44.80    4.10
   4   6   5   36.80    3.70
   4   6   5   38.10    3.60
   4   6   5   36.40    3.10
   4   6   5   40.40    3.90
  -5  -6  -5   19.30    2.70
  -5  -6  -5   22.70    5.10
  -5  -6  -5   19.30    3.80
   5   6   5   19.00    2.60
   5   6   5   17.30    2.30
   5   6   5   20.20    1.80
   5   6   5   18.50    2.30
  -6  -6  -5  165.08   14.10
   6   6   5  152.48   10.70
   6   6   5  139.29   11.00
   6   6   5  139.09   11.00
   6   6   5  141.99   11.50
  -7  -6  -5   33.70    6.30
   7   6   5   28.70    2.70
   7   6   5   30.20    3.10
  -8  -6  -5   21.40    5.60
   8   6   5   23.70    2.90
   8   6   5   22.10    2.30
  -9  -6  -5   29.50    6.90
   9   6   5   34.40    3.10
   9   6   5   30.50    3.40
 -10  -6  -5   18.70    4.20
 -10  -6  -5   26.30    6.80
  10   6   5   26.80    2.80
  10   6   5   22.10    2.90
 -11  -6  -5   27.00    7.30
 -11  -6  -5   26.00    4.90
  11   6   5   25.50    3.00
 -12  -6  -5   37.00    6.10
  12   6   5   30.00    3.60
 -13  -6  -5   -0.60    4.30
  13   6   5    3.50    1.50
   8  -7  -5   10.90    2.80
  -8   7   5   13.60    4.90
  -8   7   5   11.40    5.10
  -8   7   5   14.50    4.30
   7  -7  -5    7.90    2.50
  -7   7   5   13.50    4.80
  -7   7   5    2.50    3.50
  -7   7   5   11.20    4.50
  -7   7   5    2.00    2.90
   6  -7  -5    2.00    1.90
  -6   7   5    4.00    3.60
  -6   7   5   10.00    3.00
  -6   7   5    1.50    3.20
  -6   7   5    2.80    3.30
   5  -7  -5    6.60    2.00
  -5   7   5    7.30    3.60
  -5   7   5    7.90    2.80
  -5   7   5    8.70    3.40
  -5   7   5    2.10    2.90
   4  -7  -5   39.60    4.40
  -4   7   5   34.70    5.20
  -4   7   5   43.30    5.70
  -4   7   5   39.10    4.90
  -4   7   5   47.90    5.80
   3  -7  -5   37.40    3.90
  -3   7   5   29.80    4.60
  -3   7   5   38.30    5.00
  -3   7   5   26.10    4.00
  -3   7   5   42.80    5.20
   2  -7  -5   48.00    4.90
   2  -7  -5   55.29    4.80
  -2   7   5   48.90    5.60
  -2   7   5   44.20    5.20
  -2   7   5   47.90    4.30
  -2   7   5   54.29    5.70
  -2   7   5   62.59    5.70
   1  -7  -5   -0.50    1.20
   1  -7  -5    0.00    1.10
  -1   7   5    1.60    1.80
  -1   7   5   -3.20    1.80
  -1   7   5    0.50    1.70
  -1   7   5   -0.40    1.00
   0  -7  -5    0.80    1.10
   0  -7  -5   -0.60    1.20
   0   7   5    0.60    1.50
   0   7   5    0.30    1.70
   0   7   5   -1.90    0.80
   0   7   5    0.00    1.40
  -1  -7  -5   17.70    2.20
  -1  -7  -5   13.70    2.00
   1   7   5   12.00    2.00
   1   7   5   16.20    2.50
   1   7   5   16.90    2.80
  -2  -7  -5   67.69    6.10
  -2  -7  -5   79.59    6.10
   2   7   5   71.69    6.10
   2   7   5   77.69    6.60
   2   7   5   81.89    6.40
  -3  -7  -5    2.50    1.10
   3   7   5    0.60    1.20
   3   7   5    2.20    1.40
   3   7   5    1.80    1.10
   3   7   5    0.60    0.50
   4   7   5   14.90    1.50
   4   7   5   15.50    2.30
   4   7   5   13.30    2.10
   4   7   5   20.80    2.80
  -5  -7  -5   21.50    5.40
   5   7   5   14.30    2.10
   5   7   5   13.10    2.10
   5   7   5   13.50    1.50
   5   7   5   16.00    2.40
  -6  -7  -5  109.09   10.40
   6   7   5   79.09    6.20
   6   7   5   84.59    7.20
   6   7   5   79.09    6.80
   6   7   5   74.49    6.60
  -7  -7  -5    0.20    3.20
   7   7   5   -2.40    1.20
   7   7   5   -0.90    0.70
  -8  -7  -5    8.20    4.70
   8   7   5    3.10    1.60
   8   7   5    5.60    1.20
  -9  -7  -5    3.90    4.40
   9   7   5    6.00    1.30
   9   7   5    4.40    1.70
 -10  -7  -5   14.00    5.60
 -10  -7  -5   14.60    4.10
  10   7   5   16.10    2.20
 -11  -7  -5   62.19    8.10
 -11  -7  -5   56.39   10.50
  11   7   5   68.79    5.60
 -12  -7  -5   29.30    5.80
  12   7   5   23.40    3.00
   7  -8  -5   46.50    5.60
  -7   8   5   50.59    7.40
  -7   8   5   54.69    8.00
   6  -8  -5    4.70    2.10
  -6   8   5    4.80    4.00
  -6   8   5   10.50    4.20
  -6   8   5   10.40    4.30
   5  -8  -5    2.70    1.80
  -5   8   5   -3.00    3.20
  -5   8   5    7.00    3.20
  -5   8   5    7.00    3.70
   4  -8  -5    0.60    1.60
  -4   8   5    2.50    2.90
  -4   8   5    1.80    2.80
  -4   8   5    0.30    2.70
   3  -8  -5   47.00    4.80
   3  -8  -5   39.60    4.90
  -3   8   5   41.40    5.70
  -3   8   5   59.39    6.10
  -3   8   5   45.00    5.60
   2  -8  -5    5.10    1.70
   2  -8  -5    5.50    1.80
  -2   8   5    3.00    1.30
  -2   8   5    5.10    2.80
  -2   8   5    6.40    2.70
  -2   8   5    1.30    2.30
   1  -8  -5   20.90    2.80
   1  -8  -5   19.90    2.70
  -1   8   5   16.00    2.40
  -1   8   5   23.90    3.80
  -1   8   5   27.00    3.80
  -1   8   5   28.40    3.90
   0  -8  -5    2.60    1.40
   0  -8  -5    4.40    1.60
   0   8   5    6.50    2.10
   0   8   5    3.00    2.20
   0   8   5    5.90    1.40
  -1  -8  -5    3.20    1.30
  -1  -8  -5    1.60    1.30
   1   8   5    1.70    1.60
   1   8   5    0.20    1.00
   1   8   5    2.50    2.00
   2   8   5    6.50    1.70
   2   8   5    9.20    2.00
   2   8   5    9.50    2.30
   3   8   5   10.10    2.00
   3   8   5   12.50    2.50
   3   8   5   12.40    2.20
   4   8   5  146.49   10.50
   4   8   5  111.99   10.00
   4   8   5  136.39   10.50
  -5  -8  -5   41.20    7.50
   5   8   5   29.40    3.70
   5   8   5   28.20    2.70
   5   8   5   29.50    3.30
   5   8   5   38.20    4.00
  -6  -8  -5   45.60    7.90
   6   8   5   40.30    4.40
   6   8   5   29.50    2.90
   6   8   5   31.70    3.60
   6   8   5   35.00    3.90
  -7  -8  -5    2.80    4.20
   7   8   5    4.50    1.10
   7   8   5    4.10    1.70
  -8  -8  -5  121.49   12.30
   8   8   5   86.29    8.10
   8   8   5  100.99    7.70
  -9  -8  -5    1.20    4.40
   9   8   5    1.20    1.40
   9   8   5   -1.30    1.00
 -10  -8  -5   25.80    7.50
  10   8   5   27.40    3.00
 -11  -8  -5    7.80    4.20
 -11  -8  -5   13.90    5.80
  11   8   5    6.90    1.60
 -12  -8  -5   22.60    5.60
  12   8   5   11.40    2.40
   7  -9  -5   23.40    3.90
  -7   9   5   24.90    6.30
  -7   9   5   17.90    5.40
   6  -9  -5   72.19    7.60
  -6   9   5   89.99    9.70
  -6   9   5   87.59    9.80
  -6   9   5   82.59    9.00
   5  -9  -5   -1.40    1.70
  -5   9   5   -0.90    3.10
  -5   9   5    1.80    3.50
  -5   9   5    0.00    3.30
   4  -9  -5   21.90    3.70
   4  -9  -5   34.70    4.50
  -4   9   5   33.80    5.70
  -4   9   5   35.80    5.60
  -4   9   5   30.20    5.10
   3  -9  -5   -0.10    1.90
   3  -9  -5    0.50    1.70
  -3   9   5    2.40    2.90
  -3   9   5    2.00    2.80
  -3   9   5   -2.80    2.40
   2  -9  -5   20.90    3.10
   2  -9  -5   19.00    2.80
  -2   9   5   23.30    4.40
  -2   9   5   13.80    3.80
  -2   9   5   17.60    3.70
   1  -9  -5   15.90    2.50
   1  -9  -5   21.10    2.90
  -1   9   5   14.10    3.50
  -1   9   5   24.20    3.70
  -1   9   5   29.20    4.40
  -1   9   5   12.60    2.30
   0   9   5   38.30    4.40
   0   9   5   58.49    5.80
   0   9   5   52.29    5.30
   1   9   5   11.70    2.10
   1   9   5   19.20    3.10
   2   9   5   56.19    5.10
   2   9   5   43.00    4.50
   2   9   5   51.19    5.50
   3   9   5  316.77   20.40
   3   9   5  274.57   20.60
   3   9   5  228.08   20.00
   4   9   5   17.40    2.70
   4   9   5   20.60    3.10
   4   9   5   19.70    3.00
  -5  -9  -5   15.40    5.80
   5   9   5    8.20    2.10
   5   9   5   18.70    3.10
   5   9   5   12.30    2.50
  -6  -9  -5    9.10    5.60
   6   9   5    4.40    2.30
   6   9   5    5.30    1.90
   6   9   5    2.80    1.60
  -7  -9  -5   22.90    6.40
   7   9   5   20.40    3.10
  -8  -9  -5   12.60    5.80
   8   9   5    6.80    1.40
   8   9   5    9.30    2.20
  -9  -9  -5    2.90    5.30
   9   9   5    3.40    1.30
 -10  -9  -5    1.10    5.10
  10   9   5    0.30    1.30
 -11  -9  -5   -1.60    3.60
  11   9   5   -0.20    1.40
   5 -10  -5   35.50    5.00
   5 -10  -5   38.70    5.40
  -5  10   5   51.19    6.90
  -5  10   5   63.09    7.70
  -5  10   5   50.99    7.50
   4 -10  -5   24.70    4.10
   4 -10  -5   38.60    4.80
  -4  10   5   45.30    6.50
  -4  10   5   35.90    5.90
  -4  10   5   41.90    6.30
   3 -10  -5   42.10    5.00
   3 -10  -5   32.70    4.50
  -3  10   5   38.80    5.90
  -3  10   5   51.39    6.40
  -3  10   5   49.40    6.50
  -2  10   5   -5.00    2.70
  -2  10   5    8.90    3.50
  -2  10   5   -1.80    2.40
  -1  10   5    6.90    1.80
  -1  10   5    6.40    2.70
   0  10   5  154.58   12.30
   0  10   5  145.69   12.90
   1  10   5   -4.10    1.90
   1  10   5   -1.10    1.70
   1  10   5   -1.60    1.50
   2  10   5   64.79    5.70
   2  10   5   42.70    4.90
   2  10   5   58.39    6.10
   3  10   5   51.89    5.60
   3  10   5   56.39    5.30
   3  10   5   39.70    4.80
   4  10   5    2.30    2.10
   4  10   5    0.90    1.70
   4  10   5    2.50    2.00
  -5 -10  -5    9.90    6.60
   5  10   5    7.70    2.50
   5  10   5    3.60    1.80
   5  10   5   12.50    2.90
  -6 -10  -5    7.50    6.10
   6  10   5    8.20    2.50
   6  10   5    6.10    2.00
  -7 -10  -5    5.80    5.20
   7  10   5    0.70    1.60
  -8 -10  -5   13.80    6.50
  -9 -10  -5   -1.70    5.10
 -10 -10  -5    4.00    6.30
  -4  11   5    5.40    3.40
  -4  11   5   11.00    4.80
  -3  11   5   25.10    4.80
  -3  11   5   37.80    6.30
  -2  11   5   34.10    5.80
  -2  11   5   44.10    6.10
  -1  11   5    7.70    3.70
  -1  11   5   15.40    3.70
   0  11   5   37.40    4.50
   0  11   5   56.49    5.80
   0  11   5   42.40    5.90
   1  11   5  233.08   17.70
   1  11   5  220.58   18.20
   2  11   5   70.49    7.40
   2  11   5   80.99    6.60
   2  11   5   47.20    5.60
   3  11   5   64.19    7.00
   3  11   5   62.89    6.50
   4  11   5   12.10    3.00
   4  11   5    8.90    2.30
   4  11   5   12.90    3.30
  -5 -11  -5    3.40    6.70
   5  11   5    0.60    2.50
   5  11   5   -1.80    2.10
   5  11   5    2.00    1.80
  -6 -11  -5   -2.00    6.10
   6  11   5    1.10    2.30
  -7 -11  -5    4.40    6.00
  -8 -11  -5   26.60    8.30
  -9 -11  -5    4.10    6.40
  -2  12   5   15.00    4.50
  -2  12   5   19.30    4.60
  -1  12   5    2.40    3.30
  -1  12   5   -2.30    2.60
   0  12   5    0.60    2.50
   0  12   5   -3.80    2.70
   1  12   5   30.80    5.30
   1  12   5   39.70    5.20
   2  12   5   17.40    4.20
   2  12   5   17.90    3.80
   3  12   5  164.08   14.60
   3  12   5  181.28   14.20
   4  12   5   -3.10    2.50
   4  12   5   -0.40    2.50
  -5 -12  -5    9.20    7.60
   5  12   5   19.20    4.00
  -6 -12  -5   -3.00    6.50
  -7 -12  -5   38.40    9.30
  -8 -12  -5   29.60    9.10
   0  13   5   -3.90    2.60
   1  13   5    3.80    2.80
   1  13   5    4.10    3.70
   2  13   5   32.80    5.10
   3  13   5    0.80    3.00
   3  13   5   -3.50    2.80
   4  13   5  155.98   13.80
   4  13   5  150.68   13.30
  -5 -13  -5   14.10    9.60
   5  13   5   25.30    4.90
   3  12  -6   17.40    3.60
  -3 -12   6   16.70    3.50
   2  12  -6   15.20    3.10
  -2 -12   6   14.60    3.10
   1  12  -6    4.40    2.00
  -1 -12   6   10.50    2.80
   0  12  -6    0.30    3.70
   0  12  -6    9.20    2.10
   0 -12   6    7.80    2.50
  -1  12  -6   12.20    4.30
  -1  12  -6    7.40    1.90
  -2  12  -6    8.50    3.90
  -2  12  -6    2.90    1.30
   5  11  -6   52.29    7.00
  -5 -11   6   52.89    5.60
   4  11  -6    8.10    3.00
  -4 -11   6    7.70    2.40
   3  11  -6   12.20    3.00
  -3 -11   6   13.20    2.90
   2  11  -6    1.90    1.80
  -2 -11   6    1.80    1.80
   1  11  -6   22.60    3.20
  -1 -11   6   20.30    3.10
   0  11  -6    3.60    3.30
   0  11  -6    1.80    1.40
   0 -11   6    2.50    1.80
  -1  11  -6   89.79    9.10
  -1  11  -6   77.69    6.50
  -2  11  -6    0.30    2.80
  -2  11  -6    1.50    0.90
  -3  11  -6   45.70    6.40
  -3  11  -6   33.20    3.10
  -4  11  -6    0.10    1.00
  -4  11  -6    1.60    3.30
  -5  11  -6   13.60    4.90
  -5  11  -6   15.70    2.20
   7  10  -6   19.00    4.80
  -7 -10   6   18.80    3.40
   6  10  -6    2.90    3.30
  -6 -10   6    5.20    2.30
   5  10  -6    0.00    2.40
  -5 -10   6    0.50    2.00
   4  10  -6    3.00    2.40
  -4 -10   6    3.20    2.10
   3  10  -6    9.10    2.50
  -3 -10   6    9.60    2.50
   2  10  -6    6.60    2.20
  -2 -10   6    9.10    2.30
   1  10  -6    8.20    1.90
  -1 -10   6    7.00    2.20
   0  10  -6   41.70    6.20
   0  10  -6   43.70    4.10
   0 -10   6   46.30    4.70
  -1  10  -6    7.80    3.30
  -1  10  -6    9.40    1.50
  -2  10  -6   92.29    7.00
  -2  10  -6   92.69    9.30
  -3  10  -6    7.90    3.40
  -3  10  -6   10.60    1.40
  -4  10  -6   24.30    4.80
  -4  10  -6   21.40    4.60
  -4  10  -6   21.40    2.40
  -5  10  -6   75.09    8.20
  -5  10  -6   71.89    6.00
  -6  10  -6   88.99    7.70
  -6  10  -6  104.69   10.00
   8   9  -6    0.90    3.80
  -8  -9   6    1.80    2.20
   7   9  -6   -2.70    2.80
  -7  -9   6   -1.00    2.00
   6   9  -6    0.10    2.70
  -6  -9   6   -0.50    1.60
   5   9  -6   16.50    3.90
  -5  -9   6   21.30    3.30
   4   9  -6   25.10    4.20
  -4  -9   6   28.00    3.50
   3   9  -6   32.90    4.30
  -3  -9   6   30.20    3.80
   2   9  -6   33.80    4.10
  -2  -9   6   41.10    4.20
   1   9  -6    6.10    1.60
  -1  -9   6    7.60    1.90
   0   9  -6   44.60    4.00
   0   9  -6   40.60    5.70
   0  -9   6   46.00    4.50
  -1   9  -6   35.40    3.10
  -1   9  -6   36.80    5.10
  -2   9  -6   22.80    4.20
  -2   9  -6   23.90    2.10
  -3   9  -6   88.19    8.70
  -3   9  -6   82.09    6.40
  -3   9  -6   93.09    8.30
  -4   9  -6    1.90    2.70
  -4   9  -6    2.80    1.00
  -4   9  -6    3.50    2.80
  -5   9  -6   70.59    6.10
  -5   9  -6   80.39    8.10
   5  -9   6   74.39    6.40
  -6   9  -6    1.80    1.50
  -6   9  -6    1.00    3.10
   6  -9   6    2.20    1.40
  -7   9  -6    0.60    1.80
  -7   9  -6    0.20    3.20
   7  -9   6    0.10    1.70
  -8   9  -6   26.90    4.70
  -8   9  -6   30.80    6.00
   8  -9   6   37.70    4.20
   9   8  -6    0.50    4.30
  -9  -8   6    1.00    2.00
  -9  -8   6   -3.70    3.70
   8   8  -6    5.30    4.00
  -8  -8   6    2.00    2.10
   7   8  -6    1.20    3.00
  -7  -8   6    0.10    1.70
   6   8  -6    4.30    2.80
  -6  -8   6    2.30    1.90
   5   8  -6   -0.30    2.20
  -5  -8   6    0.70    1.50
   4   8  -6   -0.10    1.80
  -4  -8   6    2.30    1.50
   3   8  -6   71.89    6.90
  -3  -8   6   79.89    6.60
   2   8  -6   24.30    3.20
  -2  -8   6   24.90    3.20
   1   8  -6  143.29   11.40
  -1  -8   6  158.28   11.60
   0   8  -6    0.10    0.80
   0   8  -6   -2.70    1.80
   0  -8   6    1.00    1.20
  -1   8  -6   23.50    4.00
  -1   8  -6   21.80    2.00
  -2   8  -6   20.40    3.70
  -2   8  -6   19.40    1.70
  -3   8  -6   11.00    1.30
  -3   8  -6    9.10    2.80
  -3   8  -6   13.10    3.00
   3  -8   6   12.60    1.80
  -4   8  -6    1.00    2.20
  -4   8  -6    0.70    0.90
  -4   8  -6   -0.10    2.10
   4  -8   6   -0.10    1.00
  -5   8  -6   36.40    3.80
  -5   8  -6   47.40    5.90
   5  -8   6   43.40    4.00
  -6   8  -6   32.50    3.90
  -6   8  -6   35.90    6.20
  -6   8  -6   37.40    5.60
   6  -8   6   38.30    3.80
  -7   8  -6    1.40    3.80
  -7   8  -6   -0.40    1.70
  -7   8  -6   -1.80    3.10
   7  -8   6    3.10    1.50
  -8   8  -6   13.50    5.30
  -8   8  -6   19.10    3.50
  -8   8  -6   20.10    5.10
   8  -8   6   17.70    2.70
  -9   8  -6   -1.30    2.60
  -9   8  -6    0.50    3.80
   9  -8   6    1.90    1.70
   9   7  -6    8.00    4.40
  -9  -7   6   -2.80    1.90
  -9  -7   6   -3.00    3.60
   8   7  -6   12.60    4.50
  -8  -7   6    5.90    2.30
   7   7  -6    9.20    3.90
  -7  -7   6    7.30    2.20
   6   7  -6   33.30    5.30
  -6  -7   6   30.90    3.80
   5   7  -6    7.70    2.90
  -5  -7   6    8.90    2.10
   4   7  -6   -1.20    1.60
  -4  -7   6   -1.30    1.10
   3   7  -6   12.30    2.50
  -3  -7   6   10.70    2.10
   2   7  -6    1.90    1.20
  -2  -7   6   -0.50    1.00
   1   7  -6    3.20    1.20
  -1  -7   6    1.40    1.20
   0   7  -6   19.20    2.10
   0   7  -6   22.40    3.50
   0  -7   6   19.00    2.50
  -1   7  -6   22.50    2.30
  -1   7  -6   23.90    2.00
  -1   7  -6   24.90    3.90
  -1   7  -6   27.30    4.00
  -2   7  -6    5.20    2.00
  -2   7  -6    0.80    2.30
  -2   7  -6    3.00    1.70
  -3   7  -6    6.40    2.20
  -3   7  -6    5.90    2.40
  -3   7  -6    4.20    2.10
   3  -7   6    3.30    1.10
   3  -7   6    3.80    0.80
  -4   7  -6   83.89    7.30
  -4   7  -6   85.39    8.20
  -4   7  -6   82.49    7.20
  -4   7  -6   69.59    5.70
  -4   7  -6   74.89    5.60
   4  -7   6   59.39    5.90
   4  -7   6   80.79    6.10
   4  -7   6   72.59    5.60
  -5   7  -6   17.20    4.20
  -5   7  -6   25.40    3.60
  -5   7  -6   20.10    2.50
  -5   7  -6   22.30    3.80
   5  -7   6   19.60    2.00
   5  -7   6   18.00    2.40
  -6   7  -6   77.19    7.00
  -6   7  -6   87.49    9.40
  -6   7  -6   93.19    8.50
   6  -7   6   84.49    7.00
  -7   7  -6    6.90    3.30
  -7   7  -6    5.00    4.00
  -7   7  -6    6.30    2.10
   7  -7   6    6.10    1.70
  -8   7  -6    1.80    2.20
  -8   7  -6    1.50    3.70
  -8   7  -6   -0.50    3.00
   8  -7   6   -0.40    1.10
  -9   7  -6   17.80    5.80
  -9   7  -6   19.00    3.80
  -9   7  -6   14.40    4.70
   9  -7   6   17.20    2.80
 -10   7  -6    1.90    4.30
  10  -7   6    2.70    1.90
 -10  -6   6   -4.40    2.20
 -10  -6   6   -1.70    3.40
  -9  -6   6    2.00    2.10
  -9  -6   6    0.10    3.10
   8   6  -6   58.79    8.00
  -8  -6   6   47.60    5.20
  -8  -6   6   50.69    6.80
   7   6  -6   36.80    5.70
  -7  -6   6   27.10    3.60
   6   6  -6    1.60    2.50
  -6  -6   6    4.40    1.70
   5   6  -6    1.70    2.10
  -5  -6   6   -1.10    1.40
   4   6  -6  170.88   14.10
  -4  -6   6  181.38   13.40
   3   6  -6    2.30    1.60
  -3  -6   6    2.50    1.30
   2   6  -6    0.00    1.10
   2   6  -6    1.30    1.70
  -2  -6   6    0.40    1.10
   1   6  -6   50.29    5.10
   1   6  -6   45.70    4.30
  -1  -6   6   50.19    4.40
   0   6  -6    1.80    0.90
   0   6  -6    0.30    1.90
   0   6  -6    1.90    0.80
   0  -6   6    3.90    1.20
  -1   6  -6    7.30    2.70
  -1   6  -6   11.20    1.10
  -1   6  -6    8.90    2.40
  -1   6  -6    9.10    1.20
   1  -6   6   12.80    1.80
  -2   6  -6   32.30    4.70
  -2   6  -6   37.20    4.60
  -2   6  -6   32.50    4.10
  -2   6  -6   34.50    3.80
  -3   6  -6   11.90    2.30
  -3   6  -6    9.50    2.70
  -3   6  -6   10.70    2.40
  -3   6  -6   11.50    3.30
  -4   6  -6    3.00    1.70
  -4   6  -6    0.60    0.80
  -4   6  -6    2.90    2.20
  -4   6  -6    0.10    2.20
  -4   6  -6    1.00    1.60
   4  -6   6    1.00    0.90
   4  -6   6    0.90    0.80
   4  -6   6    0.80    0.60
  -5   6  -6    0.60    1.00
  -5   6  -6    1.50    1.60
  -5   6  -6    2.10    2.70
  -5   6  -6   -0.30    1.70
   5  -6   6    0.70    0.60
   5  -6   6    0.60    0.90
  -6   6  -6   21.50    2.70
  -6   6  -6   21.50    3.80
  -6   6  -6   20.00    4.70
   6  -6   6   12.70    2.10
   6  -6   6   17.70    1.80
  -7   6  -6   19.30    3.10
  -7   6  -6   19.30    4.20
  -7   6  -6   15.90    4.90
   7  -6   6   17.70    2.50
   7  -6   6   21.20    2.00
  -8   6  -6   -4.00    3.30
  -8   6  -6    0.20    1.90
  -8   6  -6    0.80    2.90
   8  -6   6   -0.50    1.00
  -9   6  -6    1.00    4.10
  -9   6  -6    0.90    2.20
  -9   6  -6   -0.90    2.80
   9  -6   6    0.90    1.20
 -10   6  -6   24.90    5.60
 -10   6  -6   25.00    6.50
 -10   6  -6   29.10    4.90
  10  -6   6   20.40    3.00
 -10  -5   6   29.10    6.30
 -10  -5   6   29.10    3.90
  -9  -5   6    3.90    1.90
  -9  -5   6    1.10    3.30
   8   5  -6   92.29   10.30
  -8  -5   6   91.49    9.40
  -8  -5   6   95.29    8.00
   7   5  -6   45.30    6.60
  -7  -5   6   31.90    4.00
  -7  -5   6   31.20    5.00
   6   5  -6   30.40    4.90
  -6  -5   6   28.90    3.50
   5   5  -6  366.36   28.60
  -5  -5   6  388.96   27.60
   4   5  -6   76.09    7.50
   4   5  -6   84.19    6.50
  -4  -5   6   77.69    6.70
   3   5  -6   48.60    5.10
  -3  -5   6   50.49    4.50
   2   5  -6  124.69   10.20
  -2  -5   6  134.49   10.00
   1   5  -6   33.90    3.70
   1   5  -6   47.70    4.50
  -1  -5   6   41.30    3.60
   0   5  -6   45.30    4.60
   0   5  -6   40.40    3.50
   0   5  -6   39.80    3.50
   0  -5   6   42.90    3.80
  -1   5  -6   53.89    4.00
  -1   5  -6   53.99    5.60
  -1   5  -6   50.19    4.00
  -1   5  -6   51.09    5.00
   1  -5   6   56.39    4.50
  -2   5  -6   25.60    3.80
  -2   5  -6   24.20    3.30
  -2   5  -6   25.90    2.90
  -2   5  -6   22.90    4.00
  -3   5  -6    7.80    2.90
  -3   5  -6    2.60    2.40
  -3   5  -6    8.90    2.10
  -3   5  -6    7.70    1.90
   3  -5   6    7.90    1.40
  -4   5  -6   12.40    1.50
  -4   5  -6   16.50    3.70
  -4   5  -6   16.80    3.60
  -4   5  -6   13.00    2.50
  -4   5  -6   12.90    1.50
  -4   5  -6   13.00    2.30
   4  -5   6   11.00    1.60
   4  -5   6    8.50    1.20
  -5   5  -6    4.80    3.10
  -5   5  -6    1.90    1.60
  -5   5  -6    3.90    1.30
  -5   5  -6    2.60    1.90
  -5   5  -6    4.50    2.70
   5  -5   6    1.80    0.60
   5  -5   6    1.40    0.90
   5  -5   6    1.40    0.80
  -6   5  -6    6.00    2.20
  -6   5  -6    3.40    2.90
  -6   5  -6    6.50    1.70
   6  -5   6    5.20    0.90
   6  -5   6    5.60    1.40
  -7   5  -6    1.00    2.10
  -7   5  -6    3.20    1.70
  -7   5  -6   -1.70    3.00
   7  -5   6    1.80    1.10
   7  -5   6    2.80    0.80
  -8   5  -6   20.30    5.30
  -8   5  -6   18.10    4.20
  -8   5  -6   23.30    3.70
   8  -5   6   21.80    2.90
   8  -5   6   24.20    2.20
  -9   5  -6   12.70    5.20
  -9   5  -6   18.80    3.60
  -9   5  -6    7.30    3.80
   9  -5   6   11.90    1.70
   9  -5   6   14.00    2.30
 -10   5  -6    2.80    2.80
 -10   5  -6   -0.20    4.40
 -10   5  -6    3.70    3.70
  10  -5   6    1.80    1.30
 -11   5  -6    8.80    5.20
 -11   5  -6    2.50    4.00
 -11   5  -6   10.10    3.80
  11  -5   6    2.30    1.60
 -10  -4   6   -5.10    2.00
 -10  -4   6   -3.60    3.90
  -9  -4   6   88.09    9.90
  -9  -4   6   93.89    7.90
   8   4  -6  273.27   23.80
  -8  -4   6  296.47   22.90
  -8  -4   6  301.47   21.80
   7   4  -6   28.90    5.40
  -7  -4   6   28.80    3.60
  -7  -4   6   35.30    5.00
   6   4  -6  168.88   14.10
   6   4  -6  170.18   12.40
   6   4  -6  160.68   12.40
  -6  -4   6  164.48   13.20
  -6  -4   6  155.18   12.50
   5   4  -6   31.20    3.20
   5   4  -6   25.80    3.10
   5   4  -6   43.90    5.50
  -5  -4   6   33.80    3.40
   4   4  -6  247.88   19.90
   4   4  -6  280.67   19.00
   4   4  -6  240.78   18.90
  -4  -4   6  266.37   19.10
   3   4  -6    6.80    1.50
   3   4  -6    6.10    2.30
  -3  -4   6    6.70    1.50
   2   4  -6  393.56   28.90
   2   4  -6  393.96   29.40
  -2  -4   6  421.06   29.00
   1   4  -6    3.40    1.70
   1   4  -6    0.80    1.00
   1   4  -6    0.70    1.20
  -1  -4   6    0.70    0.90
   0   4  -6    0.60    0.70
   0   4  -6   -0.40    0.80
   0   4  -6    0.30    1.40
   0   4  -6    1.20    1.10
   0  -4   6    0.20    0.80
  -1   4  -6   41.60    4.30
  -1   4  -6   33.40    3.70
  -1   4  -6   33.30    2.60
  -1   4  -6   30.10    2.80
   1  -4   6   34.30    3.00
  -2   4  -6   19.10    3.40
  -2   4  -6   28.80    2.80
  -2   4  -6   23.90    3.70
   2  -4   6   24.50    2.40
  -3   4  -6   71.09    5.60
  -3   4  -6   65.09    6.50
  -3   4  -6   66.39    5.70
  -3   4  -6   58.39    6.40
   3  -4   6   60.49    5.20
  -4   4  -6  122.19   10.00
  -4   4  -6  113.89    8.10
  -4   4  -6  109.09    8.80
  -4   4  -6  113.99    8.60
  -4   4  -6  101.89    9.70
  -4   4  -6  112.59    8.00
   4  -4   6   97.59    8.10
   4  -4   6   95.99    7.90
  -5   4  -6  244.18   17.90
  -5   4  -6  239.38   16.40
  -5   4  -6  226.58   16.10
  -5   4  -6  203.18   16.70
  -5   4  -6  220.68   16.20
  -5   4  -6  226.28   17.90
   5  -4   6  201.48   15.80
   5  -4   6  209.58   15.70
  -6   4  -6   12.00    3.60
  -6   4  -6   12.00    3.50
  -6   4  -6   14.00    2.80
   6  -4   6   11.20    1.70
   6  -4   6   12.30    1.40
  -7   4  -6    0.90    1.60
  -7   4  -6   -0.10    2.90
  -7   4  -6   -0.40    1.70
   7  -4   6    0.70    0.60
   7  -4   6    0.80    0.90
  -8   4  -6   10.60    3.10
  -8   4  -6   15.10    4.50
  -8   4  -6   11.90    2.70
   8  -4   6   11.60    1.40
   8  -4   6    6.50    1.60
  -9   4  -6    6.20    3.10
  -9   4  -6    9.90    4.10
  -9   4  -6    7.60    2.80
   9  -4   6    5.40    1.60
   9  -4   6    6.50    1.30
 -10   4  -6  111.89    9.90
 -10   4  -6  102.29   11.40
 -10   4  -6  102.49   10.50
  10  -4   6   95.19    8.20
  10  -4   6  102.19    7.80
 -11   4  -6    3.10    3.00
 -11   4  -6   -2.70    4.60
 -11   4  -6   -1.40    3.40
  11  -4   6    2.10    1.60
  11  -4   6    1.60    1.30
 -10  -3   6   53.89    5.70
 -10  -3   6   59.49    8.10
  -9  -3   6   14.40    3.00
  -9  -3   6   10.90    4.50
   8   3  -6   -0.10    1.50
   8   3  -6   -1.70    1.30
   8   3  -6   -1.50    3.40
  -8  -3   6    0.40    2.80
  -8  -3   6   -0.70    1.20
  -8  -3   6   -1.00    1.50
   7   3  -6    5.50    1.70
   7   3  -6    5.30    1.60
   7   3  -6    6.50    3.70
  -7  -3   6    2.80    1.80
  -7  -3   6    2.80    2.80
   6   3  -6    5.50    2.90
   6   3  -6    3.30    1.40
   6   3  -6    1.60    1.30
  -6  -3   6    4.50    1.60
  -6  -3   6    4.40    2.50
   5   3  -6  125.29   11.80
   5   3  -6  139.19   10.50
   5   3  -6  143.39   10.40
  -5  -3   6  132.29   10.50
  -5  -3   6  135.59   11.10
   4   3  -6   50.49    4.50
   4   3  -6   54.19    4.60
   4   3  -6   45.80    5.60
  -4  -3   6   51.79    4.60
   3   3  -6   51.59    4.40
   3   3  -6   55.79    5.50
   3   3  -6   46.50    4.30
  -3  -3   6   48.00    4.40
   2   3  -6   68.89    6.20
   2   3  -6   66.79    5.50
  -2  -3   6   69.09    5.60
   1   3  -6  250.37   18.00
   1   3  -6  248.88   18.30
   1   3  -6  226.78   18.00
   1   3  -6  251.87   17.70
  -1  -3   6  256.77   18.00
   0   3  -6  360.16   26.80
   0   3  -6  334.67   26.50
   0   3  -6  395.96   26.80
   0  -3   6  396.76   26.60
  -1   3  -6    2.20    1.00
  -1   3  -6    2.20    0.60
  -1   3  -6    4.00    1.50
  -1   3  -6    2.90    1.60
   1  -3   6    1.80    0.80
  -2   3  -6  177.88   12.60
  -2   3  -6  162.78   12.40
  -2   3  -6  165.38   13.30
  -2   3  -6  197.68   12.20
  -2   3  -6  158.78   13.30
   2  -3   6  165.58   12.40
   2  -3   6  154.38   12.60
  -3   3  -6  313.47   22.90
  -3   3  -6  315.17   24.20
  -3   3  -6  358.76   22.80
  -3   3  -6  301.47   24.00
  -3   3  -6  332.67   23.30
   3  -3   6  294.87   23.00
   3  -3   6  317.87   22.90
  -4   3  -6    7.50    1.70
  -4   3  -6    6.30    2.50
  -4   3  -6    8.20    1.20
  -4   3  -6    9.10    2.80
  -4   3  -6    5.60    1.40
   4  -3   6    5.90    1.00
   4  -3   6    4.00    0.80
   4  -3   6    6.70    1.10
  -5   3  -6    1.70    1.60
  -5   3  -6    2.60    2.50
  -5   3  -6    0.80    2.20
  -5   3  -6    1.70    1.40
  -5   3  -6    2.10    1.10
   5  -3   6    1.00    0.60
   5  -3   6    2.20    0.80
  -6   3  -6    1.30    1.50
  -6   3  -6    2.50    3.00
  -6   3  -6   -1.00    2.30
  -6   3  -6    3.30    1.80
   6  -3   6    1.70    0.60
   6  -3   6    0.60    0.60
  -7   3  -6    1.80    2.00
  -7   3  -6    2.80    2.90
   7  -3   6    2.80    0.70
   7  -3   6    0.40    0.90
  -8   3  -6  108.39   10.70
  -8   3  -6  123.19   12.00
  -8   3  -6  120.39   10.20
   8  -3   6  133.09    9.10
   8  -3   6  120.29    9.40
  -9   3  -6    3.40    2.30
  -9   3  -6    4.60    2.80
  -9   3  -6    8.90    4.30
   9  -3   6    1.90    1.10
   9  -3   6    5.40    1.20
 -10   3  -6   16.20    4.40
 -10   3  -6   21.30    5.60
 -10   3  -6   18.00    4.10
  10  -3   6   16.60    2.50
  10  -3   6   18.50    2.10
 -11   3  -6   64.59    9.50
 -11   3  -6   48.70    7.70
 -11   3  -6   62.89    7.60
  11  -3   6   58.79    5.00
  11  -3   6   58.49    5.40
 -12   3  -6    2.30    4.70
 -12   3  -6    1.20    3.20
 -12   3  -6    2.60    4.40
  12  -3   6    2.00    1.50
  12  -3   6   -0.90    1.30
 -11  -2   6    1.30    2.80
 -11  -2   6    7.90    5.20
 -10  -2   6    1.50    2.30
 -10  -2   6   -7.40    3.70
   9   2  -6   -0.30    1.50
   9   2  -6    0.90    1.70
  -9  -2   6   -5.00    3.30
  -9  -2   6   -5.10    1.80
   8   2  -6    8.70    2.10
   8   2  -6    5.20    1.80
  -8  -2   6    7.70    2.20
  -8  -2   6    5.50    3.40
   7   2  -6   48.40    7.00
   7   2  -6   55.09    4.90
   7   2  -6   48.90    4.90
  -7  -2   6   60.49    6.50
  -7  -2   6   54.19    4.70
  -7  -2   6   49.60    4.90
   6   2  -6   52.49    4.40
   6   2  -6   45.80    4.40
   6   2  -6   49.60    6.80
  -6  -2   6   44.10    4.40
  -6  -2   6   54.29    5.60
  -6  -2   6   37.70    4.10
   5   2  -6  213.78   15.20
   5   2  -6  198.48   16.60
   5   2  -6  202.98   15.20
  -5  -2   6  206.88   15.80
  -5  -2   6  194.98   15.20
   4   2  -6    2.50    2.40
   4   2  -6    4.60    1.40
   4   2  -6    3.40    1.20
  -4  -2   6    4.10    1.90
  -4  -2   6    5.20    1.40
   3   2  -6   26.40    2.90
   3   2  -6   28.50    4.20
   3   2  -6   27.50    2.90
  -3  -2   6   25.10    2.80
   2   2  -6    5.20    1.40
   2   2  -6    7.70    2.20
   2   2  -6    6.70    1.40
  -2  -2   6    4.80    1.30
   1   2  -6   98.49    7.50
   1   2  -6  107.79    7.80
   1   2  -6   97.29    8.30
  -1  -2   6   98.49    7.70
   0   2  -6  270.47   19.00
   0   2  -6  252.07   18.70
   0   2  -6  236.88   18.50
   0   2  -6  262.47   18.80
   0  -2   6  255.67   18.60
   0  -2   6  265.67   18.50
  -1   2  -6  134.29   10.20
  -1   2  -6  137.59   10.50
  -1   2  -6  131.89    9.80
   1  -2   6  142.79    9.90
   1  -2   6  125.59   10.00
  -2   2  -6   83.89    7.70
  -2   2  -6   94.49    6.80
  -2   2  -6   85.39    7.00
  -2   2  -6   97.19    7.60
  -2   2  -6   97.69    6.60
   2  -2   6   85.89    6.90
   2  -2   6   83.79    6.70
  -3   2  -6  243.58   16.50
  -3   2  -6  218.88   17.40
  -3   2  -6  232.28   16.50
  -3   2  -6  212.98   17.10
   3  -2   6  213.78   16.30
   3  -2   6  227.78   16.20
  -4   2  -6  526.35   35.50
  -4   2  -6  512.15   36.70
  -4   2  -6  465.65   35.60
  -4   2  -6  437.86   36.20
   4  -2   6  489.65   35.20
   4  -2   6  525.45   35.10
   4  -2   6  503.15   35.10
  -5   2  -6 1373.66   94.99
  -5   2  -6 1173.58   93.69
  -5   2  -6 1243.78   94.39
  -5   2  -6 1471.15   93.49
  -5   2  -6 1350.36   93.69
   5  -2   6 1339.07   93.09
   5  -2   6 1294.17   93.19
  -6   2  -6    5.00    2.80
  -6   2  -6    3.60    2.60
  -6   2  -6    2.90    1.80
   6  -2   6    3.50    0.80
   6  -2   6    3.60    0.80
  -7   2  -6  343.47   25.20
  -7   2  -6  332.07   26.50
  -7   2  -6  351.96   26.10
   7  -2   6  348.57   24.10
   7  -2   6  318.17   24.40
  -8   2  -6    6.70    2.80
  -8   2  -6    5.40    3.50
  -8   2  -6    5.70    2.20
   8  -2   6    7.50    1.10
   8  -2   6    7.20    1.40
  -9   2  -6   -0.30    2.50
  -9   2  -6    1.60    2.10
  -9   2  -6    0.30    3.10
   9  -2   6   -0.20    0.80
   9  -2   6   -0.80    0.90
 -10   2  -6   24.90    4.60
 -10   2  -6   20.60    4.60
 -10   2  -6   20.70    5.60
  10  -2   6   21.00    2.80
  10  -2   6   24.00    2.50
 -11   2  -6    8.40    3.50
 -11   2  -6    6.70    4.30
  11  -2   6    8.20    1.50
  11  -2   6    9.00    1.90
 -12   2  -6   12.30    6.10
 -12   2  -6   17.40    4.50
  12  -2   6    9.60    2.00
  12  -2   6   11.80    2.20
 -11  -1   6   12.90    3.50
 -11  -1   6   16.80    4.60
 -11  -1   6   12.70    5.90
  10   1  -6    5.10    2.20
  10   1  -6    0.50    1.70
 -10  -1   6   -1.00    2.60
 -10  -1   6    5.90    4.60
   9   1  -6   14.80    2.80
   9   1  -6   10.20    2.30
  -9  -1   6   12.80    2.90
  -9  -1   6   12.80    4.30
   8   1  -6    1.70    1.40
   8   1  -6    3.90    1.70
  -8  -1   6    2.60    2.90
  -8  -1   6    0.90    2.00
   7   1  -6    1.20    1.40
   7   1  -6    1.10    1.30
   7   1  -6    0.90    3.30
  -7  -1   6   -1.90    1.30
  -7  -1   6   -2.70    2.30
  -7  -1   6   -0.90    1.10
   6   1  -6   31.90    3.50
   6   1  -6   30.50    3.40
   6   1  -6   28.10    5.20
  -6  -1   6   29.60    3.00
  -6  -1   6   30.20    3.50
  -6  -1   6   27.90    4.30
   5   1  -6    1.30    1.10
   5   1  -6   -0.10    1.10
   5   1  -6    3.10    2.40
  -5  -1   6   -0.50    1.80
  -5  -1   6   -0.10    0.90
  -5  -1   6    2.60    1.30
   4   1  -6  772.02   52.09
   4   1  -6  782.32   52.09
   4   1  -6  691.03   53.09
  -4  -1   6  746.53   52.09
  -4  -1   6  679.73   51.89
  -4  -1   6  702.63   52.29
   3   1  -6  287.57   19.80
   3   1  -6  279.77   19.80
   3   1  -6  256.37   20.70
  -3  -1   6  279.97   19.90
  -3  -1   6  245.48   19.60
  -3  -1   6  273.87   19.80
   2   1  -6  140.79   10.60
   2   1  -6  134.99   11.30
   2   1  -6  149.39   10.60
   2   1  -6  131.39   10.40
  -2  -1   6  147.39   10.50
  -2  -1   6  144.89   10.50
  -2  -1   6  132.89   10.40
   1   1  -6   59.99    4.70
   1   1  -6   53.89    5.30
   1   1  -6   49.90    4.70
   1   1  -6   51.99    4.90
  -1  -1   6   59.29    4.60
  -1  -1   6   54.69    4.60
  -1  -1   6   61.89    4.50
   0   1  -6    1.40    1.30
   0   1  -6    0.80    1.30
   0   1  -6   -1.00    0.70
   0  -1   6    0.50    0.70
   0  -1   6   -0.90    0.50
  -1   1  -6  234.18   18.40
  -1   1  -6  241.98   19.50
  -1   1  -6  262.27   18.70
  -1   1  -6  252.27   18.20
   1  -1   6  253.47   18.40
   1  -1   6  279.37   18.30
  -2   1  -6   18.90    2.30
  -2   1  -6   14.10    2.40
  -2   1  -6   17.30    1.50
  -2   1  -6   17.30    1.60
  -2   1  -6   11.70    3.20
   2  -1   6   14.10    1.70
   2  -1   6   14.60    1.60
  -3   1  -6    7.60    2.00
  -3   1  -6   10.80    1.20
  -3   1  -6    7.40    2.90
  -3   1  -6    9.80    1.80
  -3   1  -6    6.00    1.20
   3  -1   6    8.30    1.20
   3  -1   6    6.40    0.90
  -4   1  -6    1.90    0.80
  -4   1  -6    0.50    1.70
  -4   1  -6    1.90    1.10
  -4   1  -6    1.30    1.30
   4  -1   6    1.50    0.70
   4  -1   6    1.40    0.50
   4  -1   6    1.30    0.50
  -5   1  -6   17.10    3.60
  -5   1  -6    8.20    2.70
  -5   1  -6   14.50    2.50
  -5   1  -6   14.30    2.20
   5  -1   6   15.00    1.50
   5  -1   6   13.50    1.40
  -6   1  -6    0.30    2.70
  -6   1  -6    6.90    2.00
  -6   1  -6    9.40    2.40
  -6   1  -6   10.40    3.10
   6  -1   6    6.30    0.90
   6  -1   6    5.70    0.90
  -7   1  -6   25.90    3.80
  -7   1  -6   35.00    4.50
  -7   1  -6   22.40    5.00
  -7   1  -6   32.00    4.90
   7  -1   6   32.30    2.60
   7  -1   6   32.80    2.70
  -8   1  -6    1.60    2.80
  -8   1  -6    4.50    2.30
   8  -1   6    3.00    1.00
   8  -1   6    2.50    0.80
  -9   1  -6   61.39    6.90
  -9   1  -6   76.59    8.40
  -9   1  -6   61.79    6.70
   9  -1   6   64.59    5.40
   9  -1   6   64.79    5.10
 -10   1  -6   12.90    3.50
 -10   1  -6    9.20    3.70
 -10   1  -6    4.20    4.40
  10  -1   6    9.50    1.80
  10  -1   6   14.80    1.80
 -11   1  -6   94.29   10.50
 -11   1  -6   94.49    9.30
 -11   1  -6   92.99    9.50
  11  -1   6   84.49    6.90
  11  -1   6   84.29    7.20
 -12   1  -6   -0.50    3.90
 -12   1  -6    0.10    3.20
 -12   1  -6    1.70    3.80
  12  -1   6    0.70    1.30
  12  -1   6    1.00    1.20
 -13   1  -6   99.89   10.30
 -13   1  -6   76.69   11.10
 -13   1  -6   83.79   10.60
  13  -1   6   75.39    7.00
  13  -1   6   79.49    6.70
  10   0  -6    4.20    2.20
  10   0  -6   11.80    2.80
 -10   0   6   12.10    5.10
 -10   0   6    8.50    3.10
 -10   0   6   11.00    3.80
   9   0  -6   43.60    5.20
   9   0  -6   47.20    5.00
  -9   0   6   41.10    5.20
  -9   0   6   45.20    7.00
   8   0  -6   19.40    2.90
   8   0  -6   24.60    3.50
  -8   0   6   23.00    4.80
  -8   0   6   20.10    3.20
   7   0  -6   72.29    6.60
   7   0  -6   67.59    6.40
  -7   0   6   73.69    6.40
  -7   0   6   78.59    7.60
   6   0  -6    1.40    1.30
   6   0  -6    1.50    2.70
   6   0  -6    1.90    1.50
  -6   0   6    1.60    2.30
  -6   0   6    1.40    1.10
  -6   0   6   -0.80    1.50
   5   0  -6   37.30    5.70
   5   0  -6   46.80    4.20
   5   0  -6   45.20    4.30
  -5   0   6   34.50    4.70
  -5   0   6   41.60    4.10
  -5   0   6   42.40    3.80
   4   0  -6   58.89    4.80
   4   0  -6   57.99    4.90
   4   0  -6   52.79    6.30
  -4   0   6   48.40    4.50
  -4   0   6   51.19    4.70
  -4   0   6   50.69    5.20
   3   0  -6  252.07   20.90
   3   0  -6  282.77   20.00
   3   0  -6  289.77   20.00
  -3   0   6  276.07   20.10
  -3   0   6  277.47   19.90
  -3   0   6  254.07   19.70
   2   0  -6    9.60    1.90
   2   0  -6    5.30    2.10
   2   0  -6    8.20    1.40
   2   0  -6    5.80    1.30
  -2   0   6    6.20    1.30
  -2   0   6    6.10    1.40
  -2   0   6    6.20    1.20
   1   0  -6   43.90    4.20
   1   0  -6   38.00    4.50
   1   0  -6   39.70    3.70
   1   0  -6   41.90    3.70
  -1   0   6   44.10    3.60
  -1   0   6   43.70    3.40
  -1   0   6   42.60    3.70
   0   0  -6    2.10    1.60
   0   0  -6    1.40    0.90
   0   0  -6    3.10    1.50
   0   0  -6    1.70    0.90
   0   0   6    2.80    0.90
   0   0   6    2.20    0.80
  -1   0  -6   26.90    3.80
  -1   0  -6   28.10    3.30
  -1   0  -6   28.70    2.90
  -1   0  -6   25.50    2.60
   1   0   6   30.90    2.50
   1   0   6   28.60    2.60
  -2   0  -6    9.90    2.70
  -2   0  -6    8.40    1.90
   2   0   6    8.40    1.10
   2   0   6    8.50    1.20
  -3   0  -6  259.37   22.50
  -3   0  -6  245.58   20.60
  -3   0  -6  312.67   21.30
  -3   0  -6  327.27   21.60
   3   0   6  271.77   20.60
   3   0   6  300.27   20.50
   3   0   6  318.47   20.80
  -4   0  -6   42.10    6.10
  -4   0  -6   37.50    4.40
  -4   0  -6   43.10    4.30
  -4   0  -6   38.60    3.60
   4   0   6   40.70    3.30
   4   0   6   43.10    3.40
   4   0   6   45.30    3.10
  -5   0  -6  122.69    9.80
  -5   0  -6  139.79   10.30
  -5   0  -6  105.39   11.90
  -5   0  -6  107.09   10.30
   5   0   6  135.39    9.30
   5   0   6  138.29    9.30
  -6   0  -6   83.99    7.50
  -6   0  -6   71.59    9.80
  -6   0  -6   95.09    8.10
  -6   0  -6   83.69    8.20
   6   0   6   94.89    6.70
   6   0   6   99.39    6.80
  -7   0  -6    4.10    2.10
  -7   0  -6    8.40    2.50
  -7   0  -6    2.40    2.40
  -7   0  -6    4.30    2.80
   7   0   6    6.20    1.00
   7   0   6    6.00    1.00
  -8   0  -6   16.80    3.80
  -8   0  -6    9.40    4.00
  -8   0  -6   19.20    3.30
   8   0   6   16.40    1.70
   8   0   6   12.90    1.90
  -9   0  -6   12.30    3.10
  -9   0  -6   11.70    3.20
  -9   0  -6   10.50    4.20
   9   0   6    8.20    1.30
   9   0   6   10.50    1.60
 -10   0  -6   26.10    4.50
 -10   0  -6   21.30    4.50
 -10   0  -6   31.70    6.30
  10   0   6   19.30    2.60
  10   0   6   22.50    2.30
 -11   0  -6   76.09    8.30
 -11   0  -6   89.69    9.00
 -11   0  -6   68.99   10.00
  11   0   6   67.69    6.10
  11   0   6   71.89    5.90
 -12   0  -6    8.70    3.90
 -12   0  -6    8.00    5.20
 -12   0  -6   17.10    5.10
  12   0   6   10.00    1.90
  12   0   6    8.70    1.80
 -13   0  -6   47.50    7.70
 -13   0  -6   42.60    8.00
 -13   0  -6   43.70    7.30
  13   0   6   38.00    4.10
  13   0   6   30.70    3.80
  10  -1  -6   -2.40    2.20
  10  -1  -6   -1.80    1.80
 -10   1   6    2.10    2.80
 -10   1   6    0.30    3.30
 -10   1   6    2.20    4.10
   9  -1  -6   12.60    2.80
   9  -1  -6   18.10    3.40
  -9   1   6   19.10    4.10
  -9   1   6   15.60    4.90
  -9   1   6   12.00    3.00
   8  -1  -6    1.20    1.40
   8  -1  -6    1.40    1.80
  -8   1   6    0.70    2.10
  -8   1   6   -0.30    3.10
   7  -1  -6   11.70    2.50
   7  -1  -6   10.00    2.10
  -7   1   6   10.40    3.40
  -7   1   6   13.20    2.60
   6  -1  -6    8.40    2.00
   6  -1  -6    7.10    1.80
  -6   1   6    6.60    1.40
  -6   1   6    5.60    2.50
  -6   1   6    6.80    1.90
   5  -1  -6    9.00    3.30
   5  -1  -6    7.90    1.80
   5  -1  -6    6.80    1.90
  -5   1   6    8.80    1.90
  -5   1   6    7.10    2.40
  -5   1   6    5.30    1.30
   4  -1  -6   45.70    5.80
   4  -1  -6   42.40    3.60
   4  -1  -6   36.10    3.60
  -4   1   6   28.10    3.10
  -4   1   6   29.50    4.00
  -4   1   6   34.80    3.50
   3  -1  -6   45.80    4.10
   3  -1  -6   47.60    4.10
   3  -1  -6   54.19    6.20
  -3   1   6   39.30    3.60
  -3   1   6   38.80    4.50
  -3   1   6   41.30    3.90
  -3   1   6   39.50    4.10
   2  -1  -6  194.58   14.00
   2  -1  -6  171.58   14.80
   2  -1  -6  193.98   14.00
  -2   1   6  194.58   14.10
  -2   1   6  177.28   13.70
  -2   1   6  192.68   13.90
  -2   1   6  186.88   13.90
   1  -1  -6   16.70    2.00
   1  -1  -6   12.30    1.80
   1  -1  -6   12.70    2.70
  -1   1   6   12.80    1.60
  -1   1   6   15.60    2.00
  -1   1   6   13.00    1.60
  -1   1   6   13.00    1.70
   0  -1  -6  448.66   28.80
   0  -1  -6  381.76   27.80
   0  -1  -6  346.87   27.80
   0  -1  -6  362.16   28.40
   0   1   6  390.46   27.60
   0   1   6  398.76   27.70
   0   1   6  379.06   27.70
  -1  -1  -6  132.79   10.40
  -1  -1  -6  125.99    9.70
  -1  -1  -6  125.89   10.70
   1   1   6  132.09    9.50
   1   1   6  131.49    9.60
  -2  -1  -6    0.00    1.40
  -2  -1  -6    0.70    1.00
  -2  -1  -6    3.10    2.00
   2   1   6    1.40    0.60
   2   1   6    1.20    0.60
  -3  -1  -6   77.99    8.30
  -3  -1  -6   82.39    6.60
  -3  -1  -6  100.59    7.50
  -3  -1  -6   94.29    7.60
   3   1   6   88.79    6.60
   3   1   6   92.89    6.50
   3   1   6   86.69    6.50
   3   1   6   92.49    6.70
  -4  -1  -6  211.88   16.70
  -4  -1  -6  248.88   17.50
  -4  -1  -6  211.68   18.70
  -4  -1  -6  227.78   17.40
   4   1   6  236.78   16.50
   4   1   6  254.87   16.60
   4   1   6  222.08   16.30
  -5  -1  -6    0.30    1.20
  -5  -1  -6    0.60    1.80
  -5  -1  -6   -0.20    2.40
  -5  -1  -6    1.30    1.60
   5   1   6    1.70    0.60
   5   1   6    1.60    0.50
  -6  -1  -6   32.10    4.30
  -6  -1  -6   30.70    4.60
  -6  -1  -6   26.70    6.00
  -6  -1  -6   34.10    3.80
   6   1   6   35.50    2.90
   6   1   6   36.60    2.80
  -7  -1  -6   90.09    8.40
  -7  -1  -6   81.49   10.40
  -7  -1  -6   72.59    7.80
  -7  -1  -6   85.19    8.50
   7   1   6   96.99    6.80
   7   1   6  103.29    6.90
  -8  -1  -6   78.49    8.00
  -8  -1  -6   67.69    7.10
  -8  -1  -6   76.79    7.80
   8   1   6   84.49    5.90
   8   1   6   75.69    5.90
  -9  -1  -6  149.79   14.00
  -9  -1  -6  155.38   12.90
  -9  -1  -6  152.08   12.90
   9   1   6  166.18   11.40
   9   1   6  147.69   11.50
 -10  -1  -6    3.50    3.40
 -10  -1  -6    1.00    2.70
 -10  -1  -6   -2.80    2.10
  10   1   6    0.40    1.00
  10   1   6   -0.70    0.80
 -11  -1  -6  151.98   12.60
 -11  -1  -6  135.69   12.70
 -11  -1  -6  137.69   13.70
  11   1   6  140.49   10.30
  11   1   6  123.99   10.30
 -12  -1  -6   -1.00    4.00
 -12  -1  -6    0.90    3.60
 -12  -1  -6    1.80    4.10
  12   1   6   -0.80    1.10
  12   1   6    1.40    1.20
 -13  -1  -6    2.40    4.10
 -13  -1  -6   -1.60    5.00
 -13  -1  -6    0.80    4.00
  13   1   6   -0.40    1.20
  13   1   6   -0.80    1.20
  10  -2  -6  113.69   10.20
  10  -2  -6  115.49   10.60
 -10   2   6  121.99   12.90
 -10   2   6  126.09   11.30
 -10   2   6  121.69   10.50
   9  -2  -6   61.99    6.30
   9  -2  -6   64.19    6.70
  -9   2   6   49.60    7.80
  -9   2   6   71.09    7.00
  -9   2   6   59.89    7.40
   8  -2  -6   53.09    5.50
  -8   2   6   52.59    6.60
  -8   2   6   52.09    5.60
  -8   2   6   50.69    7.10
   7  -2  -6    4.40    1.90
  -7   2   6    4.40    2.10
  -7   2   6    8.30    3.30
  -7   2   6    8.70    3.10
   6  -2  -6   11.60    2.40
   6  -2  -6   11.40    2.10
  -6   2   6    8.40    3.00
  -6   2   6   12.20    3.10
  -6   2   6   18.80    2.70
   5  -2  -6    5.20    1.70
   5  -2  -6    4.90    1.90
  -5   2   6    7.10    1.90
  -5   2   6   11.60    1.40
  -5   2   6    7.20    2.60
   4  -2  -6   29.90    5.00
   4  -2  -6   27.70    3.20
   4  -2  -6   28.40    3.40
  -4   2   6   25.90    3.60
  -4   2   6   28.30    3.30
  -4   2   6   23.60    2.50
   3  -2  -6    6.50    1.50
   3  -2  -6    7.10    2.90
   3  -2  -6    5.50    1.40
  -3   2   6    5.00    1.10
  -3   2   6    3.40    1.60
  -3   2   6    7.10    2.10
   2  -2  -6   12.50    2.10
   2  -2  -6   19.50    3.70
   2  -2  -6   18.50    2.40
  -2   2   6   17.20    2.20
  -2   2   6   15.10    2.30
  -2   2   6   18.30    2.70
  -2   2   6   18.40    1.80
   1  -2  -6  411.56   28.80
   1  -2  -6  425.66   28.90
   1  -2  -6  380.66   29.60
  -1   2   6  389.26   28.60
  -1   2   6  413.76   28.70
  -1   2   6  404.26   28.90
  -1   2   6  374.66   28.50
   0  -2  -6  403.86   31.50
   0  -2  -6  430.36   31.60
   0  -2  -6  423.06   32.30
   0   2   6  444.96   31.40
   0   2   6  456.75   31.60
   0   2   6  426.06   31.40
   0   2   6  487.85   31.20
  -1  -2  -6    5.40    1.90
  -1  -2  -6    4.90    1.30
  -1  -2  -6    4.00    1.20
  -1  -2  -6    6.10    2.20
   1   2   6    5.40    0.90
   1   2   6    4.10    1.00
   1   2   6    4.30    0.90
   1   2   6    4.90    1.20
  -2  -2  -6  937.11   72.19
  -2  -2  -6 1045.20   72.79
  -2  -2  -6 1068.19   73.49
   2   2   6 1054.99   71.89
   2   2   6 1018.40   71.99
   2   2   6 1026.30   71.99
   2   2   6  987.30   71.99
  -3  -2  -6   92.89    6.40
  -3  -2  -6   72.99    7.40
  -3  -2  -6   60.99    5.40
  -3  -2  -6   79.19    6.60
   3   2   6   72.19    5.50
   3   2   6   72.29    5.40
   3   2   6   76.99    5.50
   3   2   6   66.19    5.60
   3   2   6   69.09    5.30
  -4  -2  -6    3.30    2.40
  -4  -2  -6   -1.00    1.30
  -4  -2  -6    0.00    0.80
  -4  -2  -6    1.90    1.90
   4   2   6    1.80    0.70
   4   2   6    1.90    0.60
   4   2   6    1.10    0.50
  -5  -2  -6    3.20    1.90
  -5  -2  -6    0.80    1.00
  -5  -2  -6    1.30    2.70
  -5  -2  -6    2.00    2.00
   5   2   6    0.00    0.50
   5   2   6    1.00    0.60
  -6  -2  -6   29.10    3.70
  -6  -2  -6   24.30    5.50
  -6  -2  -6   38.00    5.00
  -6  -2  -6   28.60    4.30
   6   2   6   42.00    3.10
   6   2   6   41.40    3.00
  -7  -2  -6    2.00    3.10
  -7  -2  -6    0.80    2.30
  -7  -2  -6    2.20    2.40
  -7  -2  -6    2.30    1.80
   7   2   6    3.40    0.80
   7   2   6    2.60    0.80
  -8  -2  -6   -0.70    1.80
  -8  -2  -6   -1.10    2.10
  -8  -2  -6   -0.70    2.30
  -8  -2  -6   -1.30    3.10
   8   2   6    0.70    0.80
   8   2   6   -0.90    0.50
  -9  -2  -6    3.80    2.50
  -9  -2  -6    3.20    2.40
   9   2   6    5.20    1.10
   9   2   6    3.50    1.00
 -10  -2  -6    1.80    3.20
 -10  -2  -6    2.90    2.50
 -10  -2  -6    1.20    2.40
  10   2   6    0.80    0.90
  10   2   6    1.00    0.90
 -11  -2  -6    3.40    3.80
 -11  -2  -6    1.10    3.00
 -11  -2  -6    1.20    2.80
  11   2   6   -0.30    0.90
  11   2   6    1.10    1.00
 -12  -2  -6    9.80    5.00
 -12  -2  -6    5.60    3.70
 -12  -2  -6   10.70    4.10
  12   2   6    7.60    1.70
  12   2   6    6.10    1.60
 -13  -2  -6    4.80    5.40
 -13  -2  -6    3.30    4.70
  13   2   6    1.00    1.30
  13   2   6    2.20    1.40
  10  -3  -6    8.80    2.80
  10  -3  -6    9.80    3.30
 -10   3   6   12.60    3.70
 -10   3   6    6.80    5.00
 -10   3   6    8.20    4.40
   9  -3  -6   27.20    3.80
  -9   3   6   19.90    4.80
  -9   3   6   13.20    3.80
   8  -3  -6   17.90    3.10
  -8   3   6   22.70    4.50
  -8   3   6   20.60    3.90
   7  -3  -6  269.17   20.80
  -7   3   6  268.57   21.50
  -7   3   6  291.87   21.10
   6  -3  -6    4.30    1.60
  -6   3   6    7.90    3.10
  -6   3   6    4.00    2.30
   5  -3  -6   21.40    3.10
   5  -3  -6   19.30    2.80
  -5   3   6   26.60    3.90
  -5   3   6   22.40    3.10
   4  -3  -6 1156.48   83.49
   4  -3  -6 1189.88   83.39
  -4   3   6 1252.37   82.79
  -4   3   6 1186.08   83.99
  -4   3   6 1164.58   83.79
  -4   3   6 1046.70   83.69
  -4   3   6 1207.78   83.39
   3  -3  -6   77.99    8.30
   3  -3  -6   81.19    7.00
   3  -3  -6   83.29    6.90
  -3   3   6   81.79    7.50
  -3   3   6   86.09    6.50
  -3   3   6   88.49    7.60
  -3   3   6   85.89    7.30
  -3   3   6   86.99    7.00
   2  -3  -6  246.58   17.40
   2  -3  -6  225.68   17.30
   2  -3  -6  229.38   18.40
  -2   3   6  234.38   17.30
  -2   3   6  228.68   17.60
  -2   3   6  243.18   17.00
  -2   3   6  235.68   17.60
  -2   3   6  228.98   17.40
   1  -3  -6   19.90    3.90
   1  -3  -6   20.30    2.50
   1  -3  -6   20.70    2.60
  -1   3   6   19.00    2.80
  -1   3   6   19.10    2.50
  -1   3   6   21.50    2.40
  -1   3   6   24.80    3.00
  -1   3   6   23.40    2.20
   0  -3  -6   67.79    6.70
   0  -3  -6   62.59    5.50
   0  -3  -6   61.19    5.60
   0   3   6   74.89    5.40
   0   3   6   68.69    5.70
   0   3   6   70.29    5.80
   0   3   6   69.89    5.50
   0   3   6   71.09    5.30
  -1  -3  -6    8.30    2.50
  -1  -3  -6    6.10    1.40
  -1  -3  -6    7.80    1.50
   1   3   6   11.00    1.60
   1   3   6    7.40    1.30
   1   3   6    7.60    1.20
   1   3   6    6.10    1.50
  -2  -3  -6   60.29    5.70
  -2  -3  -6   52.59    4.70
  -2  -3  -6   68.69    6.60
   2   3   6   54.39    4.50
   2   3   6   55.69    4.60
   2   3   6   50.49    4.20
   2   3   6   60.99    4.50
   2   3   6   58.29    4.70
  -3  -3  -6  676.43   48.50
  -3  -3  -6  729.23   49.60
   3   3   6  658.33   47.30
   3   3   6  639.14   47.50
   3   3   6  656.33   47.60
   3   3   6  612.94   47.40
   3   3   6  727.83   47.60
  -4  -3  -6  162.48   12.60
  -4  -3  -6  168.28   12.10
  -4  -3  -6  138.99   13.30
   4   3   6  143.19   11.20
   4   3   6  169.78   11.40
   4   3   6  144.69   11.50
   4   3   6  158.88   11.10
  -5  -3  -6    6.80    2.60
  -5  -3  -6    7.90    3.30
  -5  -3  -6    4.60    1.80
   5   3   6    6.60    0.90
   5   3   6    7.00    1.10
  -6  -3  -6   60.89    7.90
  -6  -3  -6   59.49    5.80
  -6  -3  -6   62.49    7.00
  -6  -3  -6   53.89    6.20
   6   3   6   73.79    5.30
   6   3   6   78.29    5.20
  -7  -3  -6   85.19    7.60
  -7  -3  -6   87.99    8.50
  -7  -3  -6   72.69    9.60
  -7  -3  -6   85.19    8.10
   7   3   6   91.89    6.80
   7   3   6   96.59    6.70
  -8  -3  -6   16.30    3.60
  -8  -3  -6   15.90    5.20
  -8  -3  -6   13.60    3.40
  -8  -3  -6   19.40    3.20
   8   3   6   18.80    1.80
   8   3   6   15.10    2.00
  -9  -3  -6   20.90    3.90
  -9  -3  -6   23.10    6.10
   9   3   6   23.60    2.20
   9   3   6   22.70    2.30
   9   3   6   18.40    2.30
 -10  -3  -6    2.10    2.70
 -10  -3  -6    0.90    2.60
  10   3   6    2.60    1.10
  10   3   6    1.60    0.90
 -11  -3  -6    3.90    3.40
 -11  -3  -6    3.90    4.10
 -11  -3  -6    6.30    3.40
  11   3   6    3.50    1.10
  11   3   6    2.40    1.20
 -12  -3  -6    7.50    4.20
 -12  -3  -6    6.10    4.70
  12   3   6    7.60    1.70
  12   3   6    7.70    1.60
 -13  -3  -6    8.60    5.00
 -13  -3  -6   -2.70    4.20
  13   3   6    3.60    1.50
   9  -4  -6   -0.60    2.00
  -9   4   6    2.00    3.20
  -9   4   6    2.90    3.80
  -9   4   6    9.10    4.80
   8  -4  -6   49.00    5.20
  -8   4   6   45.90    5.60
  -8   4   6   41.20    6.50
  -8   4   6   35.10    6.60
   7  -4  -6   15.40    3.00
  -7   4   6   15.50    4.40
  -7   4   6   23.00    4.70
  -7   4   6   15.20    3.50
   6  -4  -6   63.79    6.10
  -6   4   6   65.79    6.40
  -6   4   6   57.99    7.20
  -6   4   6   67.09    6.90
   5  -4  -6   40.90    4.20
  -5   4   6   32.20    4.20
  -5   4   6   34.80    5.20
  -5   4   6   37.80    5.00
   4  -4  -6   99.99    8.40
   4  -4  -6  106.69    8.60
  -4   4   6  101.69    9.00
  -4   4   6  100.79    8.50
  -4   4   6   98.09    9.00
  -4   4   6   95.89    9.20
  -4   4   6  107.99    7.70
   3  -4  -6   13.10    2.40
   3  -4  -6   12.90    2.20
  -3   4   6   18.20    3.20
  -3   4   6   14.70    2.60
  -3   4   6   19.60    3.10
  -3   4   6   14.60    3.00
  -3   4   6   18.10    1.80
   2  -4  -6  137.59   10.50
   2  -4  -6  129.99   11.60
   2  -4  -6  142.29   10.50
  -2   4   6  126.49   10.80
  -2   4   6  135.29   10.50
  -2   4   6  129.19   10.50
  -2   4   6  138.99   10.00
  -2   4   6  136.89   10.90
   1  -4  -6    6.80    2.80
   1  -4  -6    7.80    1.60
   1  -4  -6    7.00    1.50
  -1   4   6    6.60    1.90
  -1   4   6    8.90    2.20
  -1   4   6    9.40    1.80
  -1   4   6    7.30    1.80
  -1   4   6    8.10    1.20
   0  -4  -6    1.60    2.10
   0  -4  -6   -0.50    1.00
   0  -4  -6    2.10    1.30
   0   4   6   -0.70    1.10
   0   4   6    0.60    1.10
   0   4   6    0.10    1.40
   0   4   6    0.10    1.00
   0   4   6    1.10    0.70
  -1  -4  -6   91.39    7.50
  -1  -4  -6   93.79    7.50
  -1  -4  -6   95.69    8.70
   1   4   6   95.49    7.00
   1   4   6  107.79    7.70
   1   4   6   89.99    7.70
   1   4   6   91.09    7.50
   1   4   6  102.89    7.30
  -2  -4  -6  250.17   18.20
  -2  -4  -6  249.88   19.10
   2   4   6  272.57   18.00
   2   4   6  232.38   18.20
   2   4   6  246.08   17.70
   2   4   6  232.08   18.10
   2   4   6  260.27   18.20
  -3  -4  -6  722.63   57.39
  -3  -4  -6  839.02   58.29
   3   4   6  837.52   56.99
   3   4   6  877.91   57.29
   3   4   6  764.62   57.29
   3   4   6  810.52   57.39
  -4  -4  -6  581.44   40.50
  -4  -4  -6  563.14   42.10
  -4  -4  -6  537.15   40.90
   4   4   6  584.34   39.60
   4   4   6  510.15   40.00
   4   4   6  584.44   39.90
  -5  -4  -6   64.69    7.90
  -5  -4  -6   58.49    6.10
  -5  -4  -6   71.39    7.10
   5   4   6   77.99    5.20
   5   4   6   76.89    5.50
   5   4   6   61.39    5.20
  -6  -4  -6   47.50    7.20
  -6  -4  -6   57.29    6.50
  -6  -4  -6   49.70    5.60
   6   4   6   60.19    4.70
   6   4   6   63.39    4.40
  -7  -4  -6   21.70    3.10
  -7  -4  -6   15.90    4.60
  -7  -4  -6   19.80    3.90
  -7  -4  -6   18.10    3.30
   7   4   6   17.80    1.80
   7   4   6   16.10    2.10
  -8  -4  -6   49.50    8.30
  -8  -4  -6   54.29    5.70
  -8  -4  -6   72.49    7.10
  -8  -4  -6   68.09    6.30
   8   4   6   52.59    4.80
   8   4   6   58.79    4.60
  -9  -4  -6    0.80    2.20
  -9  -4  -6    2.30    3.70
   9   4   6   -1.00    0.90
   9   4   6   -0.60    0.70
   9   4   6    0.70    0.70
 -10  -4  -6   30.40    7.30
 -10  -4  -6   17.90    4.20
 -10  -4  -6   33.20    5.10
  10   4   6   32.60    2.90
  10   4   6   32.00    3.00
 -11  -4  -6   23.60    5.00
  11   4   6   18.10    2.40
 -12  -4  -6    1.50    4.00
 -12  -4  -6   -0.50    3.70
  12   4   6   -0.90    1.10
 -13  -4  -6   34.70    6.80
 -13  -4  -6   33.40    7.20
  13   4   6   23.70    3.10
   9  -5  -6    2.70    2.20
  -9   5   6   -3.70    3.80
  -9   5   6   -3.30    4.30
  -9   5   6   -2.50    3.10
   8  -5  -6   26.90    3.90
  -8   5   6   29.00    4.70
  -8   5   6   25.40    5.20
  -8   5   6   27.00    5.80
   7  -5  -6   25.30    3.90
  -7   5   6   28.20    4.50
  -7   5   6   19.90    5.10
  -7   5   6   27.60    5.10
   6  -5  -6  115.19   10.00
  -6   5   6  125.49   10.90
  -6   5   6  120.79   10.40
  -6   5   6  125.19   11.40
   5  -5  -6    4.20    1.80
  -5   5   6    8.50    3.20
  -5   5   6    4.80    3.00
  -5   5   6    4.50    2.30
  -5   5   6    4.10    2.70
   4  -5  -6    8.00    1.90
   4  -5  -6    5.70    2.00
  -4   5   6    9.30    2.80
  -4   5   6   14.10    3.20
  -4   5   6   13.40    3.40
  -4   5   6    8.30    2.40
   3  -5  -6   10.60    2.20
   3  -5  -6   10.70    2.40
  -3   5   6   10.30    1.50
  -3   5   6    9.70    2.60
  -3   5   6   13.50    2.90
  -3   5   6   13.60    3.10
  -3   5   6   16.30    3.20
   2  -5  -6  115.69    9.10
   2  -5  -6  111.89    9.10
  -2   5   6  106.99    9.40
  -2   5   6  117.49    9.70
  -2   5   6  117.59    8.60
  -2   5   6  122.29    9.80
  -2   5   6  112.69    9.40
   1  -5  -6    9.90    1.90
   1  -5  -6   11.10    2.00
  -1   5   6   18.40    3.00
  -1   5   6   17.00    2.80
  -1   5   6   16.90    2.50
  -1   5   6   12.20    2.30
  -1   5   6   16.30    1.80
   0  -5  -6   97.29    7.70
   0  -5  -6   97.99    7.80
   0  -5  -6   94.39    8.90
   0   5   6   90.89    7.80
   0   5   6   92.09    7.00
   0   5   6   89.39    8.00
   0   5   6  100.49    7.40
   0   5   6  107.89    7.70
   0   5   6   98.69    7.90
  -1  -5  -6   13.80    2.10
  -1  -5  -6   12.90    3.40
  -1  -5  -6   11.60    2.00
   1   5   6   14.40    1.70
   1   5   6   13.50    2.50
   1   5   6   12.70    2.10
   1   5   6   14.50    1.20
   1   5   6   11.50    2.10
  -2  -5  -6  281.67   20.80
  -2  -5  -6  258.27   21.70
   2   5   6  276.67   21.00
   2   5   6  284.87   20.90
   2   5   6  306.47   20.70
   2   5   6  299.57   20.30
  -3  -5  -6 1157.58   83.09
  -3  -5  -6 1029.20   82.09
   3   5   6 1182.98   82.19
   3   5   6 1241.48   81.69
   3   5   6 1129.49   82.19
   3   5   6 1217.88   82.09
  -4  -5  -6  209.28   16.50
  -4  -5  -6  182.88   14.90
  -4  -5  -6  199.28   14.10
   4   5   6  157.68   13.50
   4   5   6  190.88   13.20
   4   5   6  185.78   13.50
   4   5   6  172.48   13.70
  -5  -5  -6  165.28   15.10
  -5  -5  -6  183.18   14.10
  -5  -5  -6  165.78   13.10
   5   5   6  150.28   12.40
   5   5   6  182.78   12.20
   5   5   6  172.38   12.50
  -6  -5  -6  234.28   17.50
  -6  -5  -6  190.88   16.60
  -6  -5  -6  218.28   18.90
   6   5   6  213.48   16.00
   6   5   6  234.28   15.70
  -7  -5  -6   -0.70    3.00
  -7  -5  -6   -1.40    1.80
  -7  -5  -6    4.10    2.60
   7   5   6    0.70    0.70
   7   5   6    0.40    1.10
  -8  -5  -6    2.50    2.50
  -8  -5  -6   -2.00    1.80
  -8  -5  -6   -0.10    1.90
  -8  -5  -6   -2.10    2.70
   8   5   6    0.60    1.10
   8   5   6   -0.30    0.70
  -9  -5  -6   54.69    8.50
  -9  -5  -6   57.69    6.00
   9   5   6   46.80    4.60
   9   5   6   58.79    4.50
 -10  -5  -6   96.79   11.80
 -10  -5  -6  103.99    9.40
  10   5   6   85.29    7.50
  10   5   6   99.39    7.40
 -11  -5  -6  136.39   15.90
 -11  -5  -6  163.48   13.20
  11   5   6  141.59   11.00
 -12  -5  -6   -0.20    4.20
 -12  -5  -6   -0.10    3.70
  12   5   6    4.00    1.50
 -13  -5  -6    4.90    4.70
 -13  -5  -6    3.50    5.00
  13   5   6    1.70    1.30
   8  -6  -6    8.10    2.70
  -8   6   6    4.60    4.50
  -8   6   6    3.50    4.00
  -8   6   6    5.10    3.40
   7  -6  -6   27.90    4.10
  -7   6   6   32.60    5.90
  -7   6   6   28.50    4.60
  -7   6   6   24.50    5.10
   6  -6  -6    0.20    1.80
  -6   6   6   10.60    3.80
  -6   6   6    2.10    3.20
  -6   6   6    6.60    2.90
   5  -6  -6    7.60    2.30
   5  -6  -6    4.30    1.80
  -5   6   6    3.90    3.20
  -5   6   6    6.10    3.40
  -5   6   6    8.30    3.00
  -5   6   6    8.30    3.40
   4  -6  -6    0.40    1.50
   4  -6  -6   -1.40    1.70
  -4   6   6    0.20    2.70
  -4   6   6   -0.10    2.20
  -4   6   6    0.00    2.40
  -4   6   6    2.60    2.50
   3  -6  -6    2.80    1.80
   3  -6  -6    1.20    1.40
  -3   6   6    1.10    1.00
  -3   6   6    2.70    2.00
  -3   6   6    0.40    2.10
  -3   6   6    2.20    2.30
  -3   6   6    1.70    2.10
   2  -6  -6   -0.10    1.20
   2  -6  -6   -0.70    1.30
  -2   6   6    0.30    2.00
  -2   6   6   -1.40    1.50
  -2   6   6    1.80    2.10
  -2   6   6   -0.30    1.70
  -2   6   6    0.50    0.80
   1  -6  -6  105.99    8.60
   1  -6  -6  107.09    8.60
  -1   6   6  105.99    9.00
  -1   6   6  113.39    8.90
  -1   6   6   99.29    9.20
  -1   6   6  109.39    8.20
  -1   6   6  106.29    8.90
   0  -6  -6  214.88   16.10
   0  -6  -6  213.18   16.10
   0   6   6  201.18   16.20
   0   6   6  214.88   15.80
   0   6   6  205.98   16.60
   0   6   6  209.38   16.30
   0   6   6  254.97   16.40
  -1  -6  -6    7.50    1.70
  -1  -6  -6    8.80    1.80
   1   6   6    7.80    2.00
   1   6   6    5.50    1.90
   1   6   6    8.80    1.50
  -2  -6  -6  166.18   12.40
  -2  -6  -6  142.29   12.30
   2   6   6  177.68   12.30
   2   6   6  175.08   11.70
   2   6   6  172.88   12.50
   2   6   6  148.89   12.60
  -3  -6  -6  586.94   45.20
  -3  -6  -6  593.84   46.20
   3   6   6  632.44   45.20
   3   6   6  633.74   45.40
   3   6   6  666.63   44.70
   3   6   6  681.33   45.40
  -4  -6  -6   60.59    6.90
  -4  -6  -6   79.79    8.70
  -4  -6  -6   65.09    5.90
   4   6   6   64.59    5.60
   4   6   6   62.29    5.20
   4   6   6   58.99    5.40
   4   6   6   61.69    4.70
  -5  -6  -6   67.29    7.50
  -5  -6  -6   71.79    6.40
  -5  -6  -6   92.69    9.40
   5   6   6   66.19    5.80
   5   6   6   69.59    5.80
   5   6   6   71.69    5.40
  -6  -6  -6    1.90    1.90
  -6  -6  -6    4.70    3.60
   6   6   6    5.90    1.00
   6   6   6    5.30    1.40
  -7  -6  -6   19.50    5.30
   7   6   6   11.50    1.90
   7   6   6   10.50    1.40
  -8  -6  -6    3.30    3.60
   8   6   6    2.40    1.20
   8   6   6    0.30    0.80
  -9  -6  -6   59.89    6.10
  -9  -6  -6   54.99    8.60
   9   6   6   53.69    4.50
   9   6   6   47.90    4.90
 -10  -6  -6   34.50    7.80
 -10  -6  -6   34.20    5.10
  10   6   6   34.40    3.40
  10   6   6   31.20    3.60
 -11  -6  -6   63.59    7.80
 -11  -6  -6   60.29   10.60
  11   6   6   62.49    5.30
 -12  -6  -6    0.30    3.70
  12   6   6   -0.50    1.30
   8  -7  -6    0.60    2.80
   8  -7  -6    0.60    2.20
  -8   7   6    3.30    4.60
  -8   7   6   -2.00    3.70
  -8   7   6   -3.60    3.10
   7  -7  -6    4.90    2.40
   7  -7  -6    7.70    3.20
  -7   7   6    9.50    3.90
  -7   7   6    6.80    4.30
  -7   7   6    8.20    4.30
   6  -7  -6   62.09    6.20
   6  -7  -6   50.69    6.50
  -6   7   6   67.59    7.90
  -6   7   6   49.40    6.70
  -6   7   6   67.49    7.90
   5  -7  -6   -2.70    1.40
   5  -7  -6   -0.30    1.90
  -5   7   6   -0.80    2.80
  -5   7   6    1.10    2.80
  -5   7   6   -0.60    2.40
  -5   7   6   -0.50    3.20
   4  -7  -6  109.39    9.80
   4  -7  -6  118.39   10.10
  -4   7   6  125.19   10.90
  -4   7   6  109.69   10.30
  -4   7   6  133.29   11.10
  -4   7   6  118.39   10.90
   3  -7  -6   23.50    3.50
   3  -7  -6   23.50    3.30
  -3   7   6   25.30    3.80
  -3   7   6   21.50    4.10
  -3   7   6   25.20    4.20
  -3   7   6   23.30    4.10
   2  -7  -6   -0.50    1.30
   2  -7  -6   -1.50    1.20
  -2   7   6   -1.20    1.80
  -2   7   6    1.30    2.20
  -2   7   6    4.60    2.70
  -2   7   6    0.90    1.00
  -2   7   6    2.20    2.10
   1  -7  -6    3.80    1.70
   1  -7  -6    3.70    1.60
  -1   7   6    3.10    1.30
  -1   7   6    5.50    2.00
  -1   7   6    7.10    2.20
  -1   7   6    3.40    2.10
  -1   7   6    2.60    2.50
   0  -7  -6    4.20    1.50
   0  -7  -6    5.70    1.80
   0   7   6    5.80    2.40
   0   7   6    8.00    2.20
   0   7   6    6.80    1.40
  -1  -7  -6   71.79    5.80
  -1  -7  -6   61.49    5.70
   1   7   6   61.19    6.20
   1   7   6   66.39    5.50
   1   7   6   74.59    6.10
  -2  -7  -6   13.50    2.10
  -2  -7  -6   11.60    2.10
   2   7   6   16.60    2.80
   2   7   6   12.90    1.90
   2   7   6   16.10    2.50
  -3  -7  -6  127.39   10.50
   3   7   6  134.59   10.50
   3   7   6  154.38   10.80
  -4  -7  -6  152.78   10.70
   4   7   6  129.69   10.40
   4   7   6  142.19   10.50
   4   7   6  122.09    9.60
   4   7   6  128.69   10.20
  -5  -7  -6    5.70    4.40
   5   7   6    2.10    1.30
   5   7   6    0.60    0.60
   5   7   6    2.00    1.40
  -6  -7  -6    1.60    3.40
   6   7   6   -0.30    0.70
   6   7   6   -0.30    1.10
  -7  -7  -6   82.49    9.90
   7   7   6   68.79    5.50
   7   7   6   65.99    5.90
  -8  -7  -6   62.99    9.60
   8   7   6   60.99    5.50
   8   7   6   61.69    5.00
  -9  -7  -6    2.00    3.90
   9   7   6    0.10    1.30
   9   7   6   -1.20    0.80
 -10  -7  -6    0.20    2.70
 -10  -7  -6    6.80    4.90
  10   7   6    3.50    1.40
  10   7   6    4.90    1.70
 -11  -7  -6   18.90    6.70
 -11  -7  -6   21.50    4.80
  11   7   6   17.40    2.50
 -12  -7  -6   36.60    6.40
 -12  -7  -6   48.30    9.60
  12   7   6   45.60    4.40
   7  -8  -6    2.00    2.90
   7  -8  -6   -0.50    2.40
  -7   8   6    1.40    4.20
  -7   8   6   -1.00    4.20
   6  -8  -6   -1.40    2.20
   6  -8  -6   -0.80    1.90
  -6   8   6    0.30    3.60
  -6   8   6    8.00    4.20
   5  -8  -6    1.00    2.50
   5  -8  -6    3.10    2.10
  -5   8   6    3.20    3.80
  -5   8   6    3.10    3.50
  -5   8   6   -0.70    3.20
   4  -8  -6    5.50    2.20
   4  -8  -6    4.40    1.90
  -4   8   6    1.00    3.00
  -4   8   6    2.90    3.10
  -4   8   6    5.80    3.20
   3  -8  -6   26.70    3.70
   3  -8  -6   30.60    4.10
  -3   8   6   38.00    5.30
  -3   8   6   37.20    5.20
  -3   8   6   33.70    5.00
   2  -8  -6  131.29   10.70
   2  -8  -6  142.09   10.90
  -2   8   6  160.68   11.70
  -2   8   6  140.59   11.60
  -2   8   6  134.49   11.60
  -2   8   6  109.59   10.10
   1  -8  -6    2.90    1.80
   1  -8  -6    3.90    1.70
  -1   8   6    2.90    2.20
  -1   8   6    3.20    2.70
  -1   8   6    0.90    1.30
  -1   8   6    1.10    1.90
   0  -8  -6    0.60    1.40
   0  -8  -6    1.50    1.50
   0   8   6    1.20    1.30
   0   8   6    1.20    1.90
   0   8   6   -1.40    1.90
  -1  -8  -6    5.60    1.70
  -1  -8  -6   10.90    1.90
   1   8   6    6.20    2.10
   1   8   6    4.30    2.40
   1   8   6    1.40    1.40
  -2  -8  -6   -0.10    1.20
   2   8   6   -1.90    1.00
   2   8   6   -2.00    1.40
   3   8   6    8.60    2.00
   3   8   6    6.70    1.70
   3   8   6    6.40    2.10
   4   8   6   37.90    4.50
   4   8   6   48.30    4.70
   4   8   6   44.50    4.20
  -5  -8  -6   44.60    7.80
   5   8   6   28.70    3.30
   5   8   6   26.50    3.50
  -6  -8  -6   20.80    6.40
   6   8   6   16.30    2.50
   6   8   6   13.80    1.70
  -7  -8  -6   52.59    9.50
   7   8   6   51.89    4.40
   7   8   6   57.59    5.10
  -8  -8  -6    1.80    4.10
   8   8   6   -0.70    1.30
   8   8   6   -0.50    0.80
  -9  -8  -6   16.40    6.20
   9   8   6   19.10    2.80
   9   8   6   14.90    2.10
 -10  -8  -6   13.20    6.40
  10   8   6    6.60    1.60
  10   8   6    7.30    2.10
 -11  -8  -6   24.50    5.20
 -11  -8  -6   31.30    8.30
  11   8   6   29.40    3.30
 -12  -8  -6    9.20    6.30
 -12  -8  -6    8.00    4.20
  12   8   6    8.20    2.00
   6  -9  -6   14.00    3.20
   6  -9  -6   18.60    3.80
  -6   9   6   16.30    5.40
  -6   9   6   24.10    5.60
   5  -9  -6   25.40    4.20
   5  -9  -6   19.40    3.60
  -5   9   6   18.40    4.70
  -5   9   6   25.80    5.40
   4  -9  -6    8.40    2.40
   4  -9  -6   12.70    3.00
  -4   9   6   13.40    4.10
  -4   9   6   14.40    4.40
  -4   9   6   12.10    4.30
   3  -9  -6    9.70    2.60
   3  -9  -6   18.90    3.30
  -3   9   6   17.40    4.30
  -3   9   6   24.30    4.70
  -3   9   6   17.90    4.30
   2  -9  -6   14.30    2.80
   2  -9  -6   18.80    3.20
  -2   9   6   25.00    4.60
  -2   9   6   22.30    4.30
  -2   9   6   18.30    3.70
   1  -9  -6   29.90    3.90
   1  -9  -6   28.70    3.70
  -1   9   6   42.20    5.30
  -1   9   6   36.70    4.80
  -1   9   6   23.80    3.20
  -1   9   6   32.80    5.10
   0  -9  -6   10.50    2.50
   0  -9  -6   22.00    2.90
   0   9   6   21.70    4.10
   0   9   6   22.50    3.50
   0   9   6   13.80    2.40
   1   9   6   28.40    3.50
   1   9   6   40.00    4.50
   2   9   6    7.60    1.80
   2   9   6    5.30    2.10
   2   9   6   10.80    2.70
   3   9   6    3.90    1.60
   3   9   6   13.80    2.60
   3   9   6    9.40    2.60
   4   9   6    0.80    1.30
   4   9   6   -1.10    1.60
   4   9   6   -0.20    1.80
  -5  -9  -6   34.20    7.80
   5   9   6   18.90    3.10
   5   9   6   18.90    2.80
  -6  -9  -6   12.30    5.70
  -7  -9  -6   26.90    7.10
   7   9   6   18.00    3.10
  -8  -9  -6    7.30    5.20
   8   9   6    3.20    1.90
  -9  -9  -6    4.40    5.00
   9   9   6    5.40    1.40
   9   9   6    3.70    1.80
 -10  -9  -6   26.20    7.90
  10   9   6   22.70    2.80
 -11  -9  -6    6.20    4.80
 -11  -9  -6   15.40    7.60
  11   9   6   12.90    2.20
   5 -10  -6    9.10    3.20
   5 -10  -6    5.10    2.70
  -5  10   6   13.50    4.30
  -5  10   6    2.80    4.50
   4 -10  -6    1.80    2.40
   4 -10  -6   -2.80    2.00
  -4  10   6   -1.10    3.70
  -4  10   6    8.60    4.40
  -4  10   6    2.00    3.60
   3 -10  -6   33.20    4.60
   3 -10  -6   35.90    4.90
  -3  10   6   41.40    6.10
  -3  10   6   30.90    5.30
  -3  10   6   49.99    6.80
  -2  10   6   70.39    7.70
  -2  10   6   57.89    7.30
  -2  10   6   64.19    7.90
  -1  10   6    9.90    3.80
  -1  10   6    6.30    3.10
   0  10   6   30.20    4.40
   0  10   6   11.70    2.60
   1  10   6   49.40    5.10
   1  10   6   28.90    4.00
   1  10   6   42.00    5.50
   2  10   6   -1.30    1.60
   2  10   6    2.40    2.10
   2  10   6    2.00    2.30
   3  10   6   27.30    4.10
   3  10   6   28.20    3.90
   3  10   6   23.50    3.40
   4  10   6    0.70    2.00
   4  10   6    2.40    2.30
   4  10   6   -2.30    1.40
  -5 -10  -6   86.79   11.40
   5  10   6   56.39    5.90
   5  10   6   46.10    5.30
  -6 -10  -6   -2.80    5.20
   6  10   6   -2.80    1.40
  -7 -10  -6    0.10    5.40
   7  10   6    2.60    1.80
  -8 -10  -6   -0.20    5.50
   8  10   6    3.80    1.90
  -9 -10  -6    3.60    6.00
 -10 -10  -6    7.40    6.60
  -3  11   6   -2.80    2.90
  -3  11   6   -2.60    3.90
  -2  11   6   -1.80    3.00
  -1  11   6    1.80    3.30
  -1  11   6    1.60    2.90
   0  11   6   37.90    4.90
   0  11   6   57.89    7.10
   0  11   6   62.29    6.40
   1  11   6  147.89   12.10
   1  11   6  139.69   12.70
   2  11   6  115.29    9.80
   2  11   6  106.39   10.20
   3  11   6   14.60    3.60
   3  11   6   27.30    4.30
   3  11   6   12.90    2.70
   4  11   6   36.20    5.00
   4  11   6   32.10    4.20
  -5 -11  -6   60.29   11.10
   5  11   6   48.40    5.40
   5  11   6   45.50    6.00
  -6 -11  -6   -3.20    6.20
   6  11   6    0.60    1.80
  -7 -11  -6   -0.50    6.30
   7  11   6    0.50    1.80
  -8 -11  -6   39.10   10.00
  -9 -11  -6    8.20    7.50
  -2  12   6   -3.00    3.20
  -1  12   6   47.80    7.30
  -1  12   6   62.79    7.30
   0  12   6   -2.00    3.00
   0  12   6   -1.00    2.70
   1  12   6   15.80    3.10
   1  12   6   33.30    4.70
   1  12   6   17.30    4.30
   2  12   6   28.30    5.00
   2  12   6   35.40    5.00
   2  12   6   19.90    3.40
   3  12   6    9.90    2.70
   3  12   6   14.20    3.70
   4  12   6    9.20    2.50
   4  12   6   10.70    3.50
  -5 -12  -6   -4.80    6.10
   5  12   6    1.20    1.90
   5  12   6   -2.30    2.50
  -6 -12  -6    1.70    7.10
  -7 -12  -6   11.40    8.00
   2  13   6   91.89   10.10
   3  13   6   32.90    5.60
   4  13   6   14.40    4.40
   4  11  -7   15.70    4.00
  -4 -11   7   14.70    3.10
   3  11  -7    0.70    2.20
  -3 -11   7   -0.80    2.00
   2  11  -7    3.80    2.30
  -2 -11   7    2.50    2.40
   1  11  -7    4.70    2.10
  -1 -11   7    4.90    2.20
   0  11  -7   -0.30    1.40
   0 -11   7    2.20    1.80
  -1  11  -7    7.60    1.80
   1 -11   7    8.70    2.60
  -2  11  -7    5.10    3.80
  -2  11  -7    2.70    1.20
   2 -11   7    4.90    2.30
  -3  11  -7   24.20    5.30
  -3  11  -7   21.80    2.20
   3 -11   7   16.40    3.10
  -4  11  -7    0.20    0.80
   6  10  -7    3.50    3.40
  -6 -10   7    6.90    2.80
   5  10  -7   10.10    3.70
  -5 -10   7   12.00    2.90
   4  10  -7   -2.50    2.30
  -4 -10   7   -1.80    1.90
   3  10  -7   -0.10    1.90
  -3 -10   7    0.00    1.70
   2  10  -7   -1.10    1.70
  -2 -10   7    1.00    1.90
   1  10  -7    5.30    1.90
  -1 -10   7    5.30    2.20
   0  10  -7   76.89    6.70
   0 -10   7   82.19    7.10
  -1  10  -7   23.60    2.70
   1 -10   7   22.50    3.20
  -2  10  -7   -0.20    3.20
  -2  10  -7    1.10    0.90
   2 -10   7    1.00    1.60
  -3  10  -7   11.40    1.30
  -3  10  -7   10.90    3.70
  -4  10  -7   28.40    2.40
  -5  10  -7   53.99    4.40
  -5  10  -7   51.19    7.00
  -6  10  -7    5.00    1.50
  -6  10  -7    1.20    3.50
   7   9  -7   -0.50    3.50
  -7  -9   7    0.30    2.10
   6   9  -7    9.20    3.90
  -6  -9   7    9.10    2.70
   5   9  -7   56.99    7.20
  -5  -9   7   60.89    6.10
   4   9  -7    3.10    2.60
  -4  -9   7    6.10    2.20
   3   9  -7    5.50    2.30
  -3  -9   7   10.70    2.40
   2   9  -7    0.80    1.70
  -2  -9   7   -0.30    1.40
   1   9  -7    0.60    1.40
  -1  -9   7    2.10    1.60
   0   9  -7   -1.60    1.00
   0  -9   7   -0.60    1.40
  -1   9  -7  124.49    9.60
   1  -9   7  134.39   10.20
  -2   9  -7   63.79    5.20
  -2   9  -7   74.39    7.80
   2  -9   7   76.09    6.20
  -3   9  -7  324.27   25.20
  -4   9  -7   -0.80    0.60
  -4   9  -7    3.30    2.70
  -4   9  -7    1.40    2.70
  -5   9  -7   91.39    7.30
  -5   9  -7  108.89    9.50
  -6   9  -7   22.00    4.70
  -6   9  -7   20.30    2.70
   6  -9   7   22.50    3.00
  -7   9  -7    3.50    1.90
  -7   9  -7    5.00    3.80
   7  -9   7    3.00    1.90
   8   8  -7    1.30    3.90
  -8  -8   7    1.30    2.30
   7   8  -7    3.30    3.50
  -7  -8   7   -0.20    1.90
   6   8  -7    0.10    3.10
  -6  -8   7   -0.50    1.80
   5   8  -7   59.19    7.50
  -5  -8   7   57.49    5.60
   4   8  -7  118.99   11.30
  -4  -8   7  140.89   10.60
   3   8  -7   20.50    3.60
  -3  -8   7   19.90    3.00
   2   8  -7  143.89   12.10
  -2  -8   7  161.48   11.90
   1   8  -7   24.10    3.10
  -1  -8   7   21.70    3.00
   0   8  -7    9.90    1.80
   0  -8   7    9.50    2.00
  -1   8  -7   53.89    4.40
   1  -8   7   53.69    5.00
  -2   8  -7    3.70    2.70
   2  -8   7    8.30    1.90
  -3   8  -7   14.00    3.30
   3  -8   7   12.10    1.60
   3  -8   7   16.60    2.10
  -4   8  -7   28.40    4.40
  -4   8  -7   38.50    5.00
   4  -8   7   27.40    3.20
  -5   8  -7    9.40    3.20
  -5   8  -7    9.40    1.60
   5  -8   7    9.20    1.90
  -6   8  -7   21.30    2.90
  -6   8  -7   28.10    4.80
  -6   8  -7   14.90    4.90
   6  -8   7   24.20    3.00
  -7   8  -7   35.40    5.70
  -7   8  -7   32.60    6.30
  -7   8  -7   27.60    3.90
   7  -8   7   38.10    4.00
  -8   8  -7   -2.00    4.10
  -8   8  -7    2.60    3.50
  -8   8  -7    4.80    2.30
   8  -8   7   -0.10    1.60
   9   7  -7    3.90    5.10
  -9  -7   7   -0.60    2.20
   8   7  -7   21.30    5.20
  -8  -7   7   14.40    3.00
   7   7  -7    9.20    4.20
  -7  -7   7    7.20    2.30
   6   7  -7    9.80    3.50
  -6  -7   7   11.50    2.50
   5   7  -7   33.60    5.20
  -5  -7   7   28.40    3.80
   4   7  -7   52.09    6.30
  -4  -7   7   61.39    5.40
   3   7  -7   14.40    3.00
  -3  -7   7   13.00    2.30
   2   7  -7   12.80    2.60
  -2  -7   7   17.10    2.50
   1   7  -7   -0.10    1.10
  -1  -7   7   -0.90    1.10
   0   7  -7    1.70    1.10
   0  -7   7    1.20    1.30
  -1   7  -7    6.60    2.60
  -1   7  -7    0.50    0.80
   1  -7   7    2.00    1.20
  -2   7  -7    4.80    2.60
   2  -7   7    1.30    1.20
  -3   7  -7    0.50    1.80
  -3   7  -7    1.30    2.80
  -3   7  -7    1.30    2.40
  -3   7  -7    2.60    2.10
   3  -7   7    2.80    1.00
   3  -7   7    1.50    0.70
  -4   7  -7   82.19    8.30
  -4   7  -7   87.39    7.50
  -4   7  -7   82.89    7.70
   4  -7   7   87.49    6.60
   4  -7   7   73.79    6.00
   4  -7   7   71.09    6.40
  -5   7  -7    6.20    2.60
  -5   7  -7    4.20    1.20
  -5   7  -7    3.20    2.90
   5  -7   7    2.20    0.80
   5  -7   7    4.40    1.30
  -6   7  -7    1.60    3.40
  -6   7  -7    5.90    2.70
  -6   7  -7    4.70    1.60
   6  -7   7    4.70    1.60
  -7   7  -7   -0.30    3.70
  -7   7  -7   -1.90    2.50
  -7   7  -7   -0.40    1.60
   7  -7   7   -0.50    1.20
  -8   7  -7   33.70    6.80
  -8   7  -7   33.00    4.50
  -8   7  -7   30.80    5.50
   8  -7   7   34.70    3.90
  -9   7  -7   68.69    8.10
  -9   7  -7   58.29    6.90
  -9   7  -7   58.79    9.50
   9  -7   7   64.19    6.00
  -9  -6   7    1.10    2.00
   8   6  -7    8.60    4.30
  -8  -6   7    0.10    3.50
  -8  -6   7    6.80    2.40
   7   6  -7    3.30    3.40
  -7  -6   7   -2.20    2.80
  -7  -6   7    1.80    1.80
   6   6  -7    8.00    3.40
  -6  -6   7    5.50    2.00
   5   6  -7    1.50    2.60
  -5  -6   7    4.00    1.70
   4   6  -7    1.30    2.10
  -4  -6   7    2.60    1.50
   3   6  -7   37.10    4.90
  -3  -6   7   39.60    3.90
   2   6  -7    4.10    1.90
  -2  -6   7    5.10    1.50
   1   6  -7   11.30    2.10
   1   6  -7    9.40    2.70
  -1  -6   7   10.90    1.90
   0   6  -7   43.00    3.90
   0   6  -7   41.60    5.30
   0  -6   7   41.90    4.00
  -1   6  -7    3.80    1.00
  -1   6  -7    3.20    0.90
  -1   6  -7   -0.40    2.10
   1  -6   7    3.10    1.30
  -2   6  -7    1.70    1.90
  -2   6  -7    0.00    2.20
   2  -6   7    1.30    1.10
  -3   6  -7  101.09    8.10
  -3   6  -7   96.89    8.90
  -3   6  -7   82.09    8.30
  -3   6  -7  101.79    7.80
   3  -6   7   88.49    7.10
   3  -6   7   74.99    7.10
  -4   6  -7   43.90    4.50
  -4   6  -7   48.20    5.00
  -4   6  -7   40.90    3.20
  -4   6  -7   37.50    3.30
  -4   6  -7   47.60    6.30
  -4   6  -7   42.90    5.70
   4  -6   7   36.90    3.30
   4  -6   7   38.50    3.70
  -5   6  -7   74.69    6.90
  -5   6  -7   80.49    8.30
   5  -6   7   67.89    5.60
   5  -6   7   76.29    6.10
  -6   6  -7    2.30    2.30
  -6   6  -7    1.50    1.40
  -6   6  -7    2.80    3.20
   6  -6   7    1.30    0.80
   6  -6   7    6.00    1.50
  -7   6  -7   92.19    8.00
  -7   6  -7   93.29    9.00
  -7   6  -7   89.29   10.50
   7  -6   7   97.79    7.80
   7  -6   7   95.89    7.10
  -8   6  -7    7.40    3.40
  -8   6  -7    6.90    2.40
  -8   6  -7    4.90    4.50
   8  -6   7    4.00    1.60
  -9   6  -7   11.70    3.90
  -9   6  -7   10.00    3.00
  -9   6  -7    6.30    4.90
   9  -6   7   11.20    2.10
 -10   6  -7   40.70    5.80
 -10   6  -7   40.50    6.80
 -10   6  -7   32.30    7.30
  10  -6   7   46.70    4.60
  -9  -5   7  188.88   14.90
   8   5  -7    6.70    4.40
  -8  -5   7   -1.10    1.70
  -8  -5   7    3.10    3.50
   7   5  -7   35.20    6.10
  -7  -5   7   28.60    3.80
  -7  -5   7   25.10    4.70
   6   5  -7    6.70    3.20
  -6  -5   7    3.50    1.70
   5   5  -7  116.99   10.90
  -5  -5   7  120.89    9.60
   4   5  -7   20.70    3.90
   4   5  -7   25.80    3.20
  -4  -5   7   31.00    3.20
   3   5  -7   24.80    3.70
  -3  -5   7   15.80    2.50
   2   5  -7   14.80    2.70
   2   5  -7   10.50    2.50
  -2  -5   7   13.30    2.00
   1   5  -7   28.00    3.40
   1   5  -7   29.70    3.80
  -1  -5   7   25.50    2.90
   0   5  -7   37.50    3.80
   0   5  -7   41.10    4.70
   0  -5   7   39.70    3.60
  -1   5  -7  142.39   11.60
  -1   5  -7  145.89   11.00
  -1   5  -7  128.09   10.10
  -1   5  -7  134.59   10.30
   1  -5   7  148.59   10.50
  -2   5  -7  247.08   20.00
  -2   5  -7  240.08   18.60
  -2   5  -7  277.77   18.40
  -2   5  -7  277.27   19.90
   2  -5   7  255.77   18.90
  -3   5  -7   -0.30    1.90
  -3   5  -7    3.70    2.30
  -3   5  -7   -0.20    1.20
   3  -5   7   -1.20    0.90
   3  -5   7    0.60    0.90
  -4   5  -7    3.60    1.00
  -4   5  -7    6.50    3.10
  -4   5  -7    4.80    0.90
  -4   5  -7    5.40    2.70
  -4   5  -7    3.30    1.60
   4  -5   7    4.60    1.10
   4  -5   7    1.90    1.10
   4  -5   7    3.50    0.80
  -5   5  -7   14.90    2.70
  -5   5  -7   12.80    3.60
  -5   5  -7   13.30    1.90
  -5   5  -7    6.70    3.30
   5  -5   7    8.00    1.40
   5  -5   7    9.20    1.20
  -6   5  -7    3.70    2.20
  -6   5  -7    4.20    2.80
   6  -5   7    2.60    0.70
   6  -5   7    2.30    1.10
  -7   5  -7    9.10    4.10
  -7   5  -7    4.70    1.90
  -7   5  -7    5.40    2.50
   7  -5   7    5.60    1.50
   7  -5   7    7.00    1.10
  -8   5  -7   -0.60    3.70
  -8   5  -7   -1.30    1.70
  -8   5  -7    1.00    2.50
   8  -5   7    0.40    1.10
   8  -5   7    1.20    0.80
  -9   5  -7   -3.40    3.70
  -9   5  -7    2.00    3.00
  -9   5  -7    2.60    2.30
   9  -5   7   -0.40    0.90
   9  -5   7    0.20    1.30
 -10   5  -7    2.70    3.30
 -10   5  -7   -6.10    3.80
 -10   5  -7   -0.40    2.50
  10  -5   7    1.40    1.30
 -11   5  -7   -1.40    3.90
 -11   5  -7   -4.10    4.20
  11  -5   7   -0.10    1.40
 -10  -4   7    6.60    2.80
  -9  -4   7    8.70    2.50
   8   4  -7    8.40    4.50
  -8  -4   7    2.30    1.80
  -8  -4   7    7.90    3.70
  -8  -4   7    3.70    2.20
   7   4  -7  124.99   12.30
  -7  -4   7  131.59   11.30
  -7  -4   7  122.79   10.30
   6   4  -7   32.10    3.30
   6   4  -7   22.50    4.60
   6   4  -7   17.30    2.80
  -6  -4   7   24.80    3.20
  -6  -4   7   21.40    4.00
   5   4  -7   72.69    5.90
   5   4  -7   59.49    7.30
   5   4  -7   62.29    5.90
  -5  -4   7   72.09    6.00
   4   4  -7   22.30    2.70
   4   4  -7   23.90    4.10
  -4  -4   7   16.90    2.60
   3   4  -7   23.90    2.90
   3   4  -7   24.40    3.80
  -3  -4   7   21.80    2.80
   2   4  -7   37.40    3.90
   2   4  -7   35.80    4.50
  -2  -4   7   45.60    3.90
   1   4  -7  223.18   16.90
  -1  -4   7  225.38   16.50
   0   4  -7   -0.10    1.10
   0   4  -7   -0.30    1.10
   0   4  -7   -0.30    0.80
   0   4  -7   -1.80    1.60
   0  -4   7   -1.10    0.80
  -1   4  -7   47.30    4.00
  -1   4  -7   47.70    4.60
  -1   4  -7   41.40    3.60
  -1   4  -7   49.60    5.10
   1  -4   7   44.30    3.90
  -2   4  -7   48.80    5.50
  -2   4  -7   47.60    5.30
  -2   4  -7   50.29    4.30
  -2   4  -7   53.69    3.90
   2  -4   7   51.39    4.30
   2  -4   7   52.19    4.50
  -3   4  -7    2.60    0.90
  -3   4  -7    2.50    2.20
  -3   4  -7    2.50    0.60
  -3   4  -7    4.40    2.50
  -3   4  -7    1.40    1.20
   3  -4   7    2.50    0.90
   3  -4   7    1.40    0.90
  -4   4  -7   51.29    4.30
  -4   4  -7   59.99    6.30
  -4   4  -7   53.39    4.80
  -4   4  -7   49.20    5.90
  -4   4  -7   58.49    4.10
   4  -4   7   53.39    4.20
   4  -4   7   45.10    4.00
   4  -4   7   43.50    4.30
  -5   4  -7   53.29    6.80
  -5   4  -7   43.60    4.40
  -5   4  -7   46.10    6.30
  -5   4  -7   51.69    4.90
   5  -4   7   50.39    3.80
   5  -4   7   47.00    4.00
  -6   4  -7   18.90    4.20
  -6   4  -7   12.80    2.80
  -6   4  -7   21.50    4.60
  -6   4  -7   16.90    2.70
   6  -4   7   17.00    1.70
  -7   4  -7   18.50    4.50
  -7   4  -7   11.10    3.00
   7  -4   7   12.70    2.00
   7  -4   7   13.00    1.60
  -8   4  -7    9.00    2.50
  -8   4  -7    5.20    2.80
  -8   4  -7    6.10    4.00
   8  -4   7    9.90    1.80
   8  -4   7   11.30    1.40
  -9   4  -7    2.10    4.30
  -9   4  -7    3.60    3.00
  -9   4  -7    4.60    2.40
   9  -4   7    2.80    1.40
   9  -4   7    5.20    1.20
 -10   4  -7   12.00    4.10
 -10   4  -7   10.30    4.80
 -10   4  -7   12.60    3.60
  10  -4   7   12.80    1.70
  10  -4   7   10.20    2.00
 -11   4  -7   13.30    4.10
 -11   4  -7    9.30    4.40
 -11   4  -7   13.90    5.80
  11  -4   7   13.90    2.00
  11  -4   7   13.40    2.40
 -10  -3   7   29.00    4.30
  -9  -3   7   51.19    5.40
  -8  -3   7    4.70    3.60
  -8  -3   7    6.40    2.20
   7   3  -7  310.27   24.90
   7   3  -7  314.37   22.90
  -7  -3   7  291.57   22.70
  -7  -3   7  322.67   23.00
  -7  -3   7  308.77   23.90
   6   3  -7    4.60    3.20
   6   3  -7    7.20    1.80
   6   3  -7    2.60    1.70
  -6  -3   7    6.00    1.80
  -6  -3   7    2.90    2.40
   5   3  -7   79.89    6.20
   5   3  -7   72.59    6.20
   5   3  -7   59.59    7.60
  -5  -3   7   67.09    6.10
  -5  -3   7   67.69    6.70
   4   3  -7  205.48   18.00
   4   3  -7  212.08   16.90
   4   3  -7  253.47   17.00
  -4  -3   7  240.18   17.30
  -4  -3   7  223.68   17.00
   3   3  -7   95.59    7.20
   3   3  -7   86.89    7.20
   3   3  -7   83.69    8.20
  -3  -3   7   86.89    7.20
   2   3  -7  162.18   13.90
   2   3  -7  188.68   13.30
  -2  -3   7  176.48   13.20
   1   3  -7   25.70    3.00
   1   3  -7   22.40    3.40
  -1  -3   7   28.90    2.90
   0   3  -7  255.17   20.50
   0   3  -7  309.97   20.80
   0   3  -7  282.87   21.00
   0  -3   7  287.87   20.70
   0  -3   7  283.97   20.50
  -1   3  -7   10.30    2.30
  -1   3  -7   10.00    1.40
  -1   3  -7   12.30    2.60
  -1   3  -7    9.40    1.90
   1  -3   7   11.30    1.50
   1  -3   7   11.50    1.80
  -2   3  -7   71.79    6.70
  -2   3  -7   69.79    6.70
  -2   3  -7   69.79    5.90
  -2   3  -7   80.19    5.50
   2  -3   7   67.59    5.60
   2  -3   7   70.09    5.90
  -3   3  -7   62.69    6.70
  -3   3  -7   65.79    5.50
  -3   3  -7   74.09    5.00
  -3   3  -7   66.49    5.50
  -3   3  -7   61.69    6.60
   3  -3   7   62.69    5.20
   3  -3   7   64.29    5.40
  -4   3  -7   96.89    8.70
  -4   3  -7   96.09    7.10
  -4   3  -7   90.09    7.20
  -4   3  -7   86.59    8.40
   4  -3   7   88.29    6.60
   4  -3   7   79.19    6.60
   4  -3   7   87.79    6.80
  -5   3  -7   14.20    2.20
  -5   3  -7   21.10    4.20
  -5   3  -7   14.90    3.40
  -5   3  -7   12.30    2.30
   5  -3   7    9.90    1.30
   5  -3   7   11.00    1.50
  -6   3  -7   18.70    4.30
  -6   3  -7   17.00    2.80
  -6   3  -7   18.50    3.10
  -6   3  -7   12.80    3.70
   6  -3   7   16.70    1.90
   6  -3   7   19.70    1.80
  -7   3  -7   16.90    4.10
  -7   3  -7   16.60    4.50
  -7   3  -7    9.10    2.70
  -7   3  -7   14.40    2.80
   7  -3   7   15.80    1.60
   7  -3   7   12.70    1.80
  -8   3  -7    9.80    4.20
  -8   3  -7    2.00    2.50
  -8   3  -7    8.50    2.40
   8  -3   7    7.50    1.60
   8  -3   7    8.10    1.20
  -9   3  -7  177.68   13.90
  -9   3  -7  162.18   15.70
  -9   3  -7  154.98   14.30
   9  -3   7  186.08   12.50
   9  -3   7  161.18   12.90
 -10   3  -7   22.50    5.00
 -10   3  -7   38.80    7.30
 -10   3  -7   29.20    4.80
  10  -3   7   35.60    3.10
  10  -3   7   34.10    3.70
 -11   3  -7    1.00    3.70
 -11   3  -7    2.10    2.80
 -11   3  -7   -3.30    4.50
  11  -3   7   -0.20    1.10
  11  -3   7   -0.60    1.10
 -12   3  -7   -0.30    4.70
 -12   3  -7    3.10    4.30
 -12   3  -7    2.20    3.50
  12  -3   7    2.90    1.50
  12  -3   7    3.90    1.50
 -10  -2   7    2.90    2.50
   9   2  -7   -0.50    2.00
   9   2  -7    0.40    1.80
  -9  -2   7   -4.80    2.00
   8   2  -7   -1.90    1.60
   8   2  -7    0.00    1.70
  -8  -2   7   -4.20    1.50
  -8  -2   7    0.10    3.20
   7   2  -7    2.60    1.70
   7   2  -7    0.00    1.50
   7   2  -7    1.90    3.30
  -7  -2   7    0.40    2.80
  -7  -2   7   -3.20    1.50
  -7  -2   7    2.90    1.30
   6   2  -7    6.10    1.80
   6   2  -7    9.80    3.40
   6   2  -7    3.30    1.70
  -6  -2   7    5.40    1.40
  -6  -2   7    2.50    2.40
  -6  -2   7    5.50    1.80
   5   2  -7  184.88   13.70
   5   2  -7  174.68   15.20
   5   2  -7  188.08   13.70
  -5  -2   7  168.88   13.70
  -5  -2   7  186.68   14.30
  -5  -2   7  174.98   13.50
   4   2  -7   42.20    5.50
   4   2  -7   39.70    3.90
   4   2  -7   38.70    3.80
  -4  -2   7   38.40    3.80
  -4  -2   7   33.30    3.50
  -4  -2   7   35.50    4.30
   3   2  -7    1.50    2.40
   3   2  -7    9.60    1.80
   3   2  -7    7.00    1.70
  -3  -2   7    5.20    1.70
  -3  -2   7    6.50    1.50
  -3  -2   7    7.30    1.60
   2   2  -7  100.89    7.60
   2   2  -7   98.29    8.50
   2   2  -7   85.99    7.50
  -2  -2   7  103.09    7.60
  -2  -2   7   87.59    7.40
   1   2  -7  383.36   28.70
   1   2  -7  362.96   27.80
   1   2  -7  398.86   28.10
  -1  -2   7  418.36   28.00
  -1  -2   7  380.76   28.00
   0   2  -7   80.49    6.80
   0   2  -7   73.49    6.70
   0   2  -7   90.59    7.40
   0   2  -7   87.39    6.90
   0  -2   7   86.49    6.60
   0  -2   7   93.19    6.80
  -1   2  -7   15.70    2.60
  -1   2  -7   12.60    1.70
  -1   2  -7   16.60    2.80
  -1   2  -7   13.70    2.40
   1  -2   7   14.90    1.80
   1  -2   7   13.80    1.90
  -2   2  -7  468.15   34.20
  -2   2  -7  469.45   34.80
  -2   2  -7  500.45   34.70
  -2   2  -7  497.65   33.80
   2  -2   7  464.05   33.80
   2  -2   7  450.95   34.00
  -3   2  -7  177.98   12.70
  -3   2  -7  162.38   13.90
  -3   2  -7  157.18   13.60
  -3   2  -7  197.18   12.50
  -3   2  -7  171.18   13.00
   3  -2   7  157.68   12.70
   3  -2   7  171.18   12.50
  -4   2  -7  288.57   22.70
  -4   2  -7  279.77   21.70
  -4   2  -7  298.67   23.10
  -4   2  -7  317.17   21.90
   4  -2   7  313.07   21.30
   4  -2   7  313.47   21.60
   4  -2   7  279.87   21.30
  -5   2  -7  132.29   11.70
  -5   2  -7  114.59   11.00
  -5   2  -7  138.19   10.30
  -5   2  -7  117.09   10.10
   5  -2   7  131.89    9.50
   5  -2   7  138.69    9.70
  -6   2  -7  539.95   44.10
  -6   2  -7  537.15   43.30
  -6   2  -7  613.54   43.40
  -6   2  -7  655.43   45.10
   6  -2   7  621.84   42.60
   6  -2   7  638.54   42.70
  -7   2  -7    0.20    2.60
  -7   2  -7    1.90    1.90
  -7   2  -7    1.50    1.90
  -7   2  -7    1.10    2.90
   7  -2   7    3.10    0.80
  -8   2  -7   12.00    3.80
  -8   2  -7   15.20    3.30
  -8   2  -7   12.50    4.70
   8  -2   7   14.40    2.10
   8  -2   7   19.20    1.80
  -9   2  -7   -1.80    2.00
  -9   2  -7   -7.10    3.40
   9  -2   7    1.80    0.90
   9  -2   7    0.20    0.80
 -10   2  -7   20.90    6.10
 -10   2  -7   13.30    3.50
  10  -2   7   15.60    2.30
  10  -2   7   20.40    2.20
 -11   2  -7   48.30    6.70
 -11   2  -7   46.80    8.20
  11  -2   7   41.70    4.30
  11  -2   7   46.60    4.10
 -12   2  -7   13.90    5.00
 -12   2  -7   21.80    4.80
 -12   2  -7   22.90    6.60
  12  -2   7   16.20    2.20
  12  -2   7   15.50    2.40
  10   1  -7   -1.20    2.00
  10   1  -7    0.70    2.30
 -10  -1   7   -7.80    2.50
   9   1  -7    1.30    1.90
   9   1  -7    6.10    2.50
  -9  -1   7    2.20    2.40
   8   1  -7   65.79    6.10
   8   1  -7   59.09    5.80
  -8  -1   7   51.49    7.30
  -8  -1   7   55.59    5.80
   7   1  -7   53.39    5.30
   7   1  -7   57.09    5.30
  -7  -1   7   46.10    5.20
  -7  -1   7   54.09    6.70
   6   1  -7   31.50    3.70
   6   1  -7   35.90    6.00
   6   1  -7   27.90    3.40
  -6  -1   7   24.70    4.20
  -6  -1   7   25.00    3.40
  -6  -1   7   21.20    2.90
   5   1  -7    4.90    1.70
   5   1  -7    3.00    1.50
   5   1  -7   -1.00    2.50
  -5  -1   7    4.50    1.40
  -5  -1   7    2.50    1.50
  -5  -1   7    7.50    2.40
   4   1  -7    2.20    2.60
   4   1  -7    1.30    1.30
   4   1  -7    2.60    1.40
  -4  -1   7    2.70    1.80
  -4  -1   7    1.40    1.10
  -4  -1   7    1.20    1.40
   3   1  -7    5.00    1.50
   3   1  -7    4.70    2.60
   3   1  -7    7.10    1.60
  -3  -1   7    8.20    1.60
  -3  -1   7    6.10    1.30
  -3  -1   7    6.30    1.80
   2   1  -7   43.80    4.10
   2   1  -7   46.30    4.20
   2   1  -7   36.60    5.10
  -2  -1   7   42.00    3.80
  -2  -1   7   43.30    3.90
  -2  -1   7   42.60    3.90
   1   1  -7    1.30    1.10
   1   1  -7   -0.70    1.70
   1   1  -7    1.40    1.40
   1   1  -7    0.80    1.10
  -1  -1   7    0.20    0.90
  -1  -1   7    0.40    0.80
  -1  -1   7   -0.40    0.90
   0   1  -7    1.90    1.60
   0   1  -7    0.30    1.10
   0   1  -7   -2.00    1.40
   0  -1   7    0.20    0.80
   0  -1   7   -0.70    0.70
  -1   1  -7  106.19    8.10
  -1   1  -7   89.89    7.60
  -1   1  -7   87.89    7.30
  -1   1  -7   89.59    8.70
   1  -1   7   97.39    7.40
   1  -1   7  109.09    7.30
  -2   1  -7   26.50    2.40
  -2   1  -7   21.60    4.40
  -2   1  -7   24.40    3.20
  -2   1  -7   26.40    3.50
   2  -1   7   26.10    2.40
   2  -1   7   25.10    2.50
  -3   1  -7 1596.94  116.39
  -3   1  -7 1729.63  116.99
  -3   1  -7 1689.93  117.39
  -3   1  -7 1382.26  118.39
  -3   1  -7 1860.11  116.49
   3  -1   7 1652.33  116.39
   3  -1   7 1646.74  116.59
  -4   1  -7    4.30    1.80
  -4   1  -7    3.60    1.20
  -4   1  -7    4.80    2.20
   4  -1   7    5.30    0.80
   4  -1   7    4.30    1.00
   4  -1   7    3.50    0.70
  -5   1  -7    5.30    1.90
  -5   1  -7    4.70    2.60
  -5   1  -7    1.70    1.40
  -5   1  -7    4.60    2.60
   5  -1   7    4.30    0.90
   5  -1   7    3.30    0.80
  -6   1  -7   88.59    9.40
  -6   1  -7   91.79    9.00
  -6   1  -7  103.49    8.50
   6  -1   7  101.89    7.40
   6  -1   7   97.69    7.30
  -7   1  -7  130.29   11.00
  -7   1  -7  116.39   12.20
  -7   1  -7  130.09   11.20
  -7   1  -7  126.49   11.80
   7  -1   7  148.89   10.00
   7  -1   7  141.89   10.00
  -8   1  -7   25.40    4.20
  -8   1  -7   19.00    5.20
  -8   1  -7   20.70    3.70
  -8   1  -7   27.50    5.20
   8  -1   7   31.40    2.50
  -9   1  -7    1.20    2.30
  -9   1  -7   -1.70    3.00
  -9   1  -7    0.50    2.10
   9  -1   7    0.70    1.00
   9  -1   7    1.30    0.80
 -10   1  -7    4.50    2.80
 -10   1  -7    0.20    2.40
 -10   1  -7   -1.40    3.60
  10  -1   7    0.70    1.00
  10  -1   7    2.10    1.00
 -11   1  -7    8.00    3.50
 -11   1  -7    6.30    5.10
 -11   1  -7    9.70    3.80
  11  -1   7    9.80    1.70
  11  -1   7    5.90    1.70
 -12   1  -7   19.70    5.90
 -12   1  -7   16.90    4.50
 -12   1  -7   15.20    5.10
  12  -1   7   16.30    2.30
  12  -1   7   16.20    2.50
  10   0  -7    1.90    2.20
  10   0  -7    1.50    2.50
 -10   0   7   -1.20    2.30
 -10   0   7    3.90    3.50
   9   0  -7    0.30    2.10
   9   0  -7   -1.90    1.70
  -9   0   7   -4.90    2.50
   8   0  -7   -0.40    1.90
   8   0  -7   -0.90    1.60
  -8   0   7    1.60    2.10
  -8   0   7   -0.30    3.20
   7   0  -7   95.69    8.50
   7   0  -7  100.39    8.60
  -7   0   7   98.79    9.70
  -7   0   7  107.89    8.60
   6   0  -7   95.29    7.50
   6   0  -7   90.99    7.50
   6   0  -7   83.49    9.50
  -6   0   7   85.09    6.90
  -6   0   7   82.39    7.40
  -6   0   7   79.39    8.20
   5   0  -7  135.39   10.30
   5   0  -7  123.29   11.90
   5   0  -7  127.89   10.30
  -5   0   7  140.59   10.90
  -5   0   7  125.59    9.90
  -5   0   7  126.79   10.20
   4   0  -7  234.08   16.50
   4   0  -7  217.18   17.80
   4   0  -7  228.28   16.50
  -4   0   7  221.38   16.60
  -4   0   7  218.28   16.40
  -4   0   7  197.08   16.10
   3   0  -7   21.00    4.00
   3   0  -7   16.10    2.50
   3   0  -7   24.20    2.80
  -3   0   7   18.60    2.50
  -3   0   7   17.70    2.60
  -3   0   7   16.80    2.30
   2   0  -7    7.80    1.80
   2   0  -7    7.80    2.70
   2   0  -7   12.20    2.00
   2   0  -7   10.90    2.20
  -2   0   7   12.40    1.80
  -2   0   7    8.70    1.50
  -2   0   7    9.70    1.70
   1   0  -7    6.20    2.00
   1   0  -7    3.70    1.30
   1   0  -7    2.80    1.30
   1   0  -7    5.10    2.40
  -1   0   7    5.00    1.20
  -1   0   7    6.00    1.00
  -1   0   7    5.00    1.20
   0   0  -7    3.10    1.20
   0   0  -7    0.70    1.80
   0   0  -7    3.50    1.90
   0   0   7    3.10    1.10
   0   0   7    4.50    1.00
  -1   0  -7   40.70    4.70
  -1   0  -7   45.40    4.30
  -1   0  -7   43.30    5.20
   1   0   7   53.29    3.90
   1   0   7   45.20    3.90
  -2   0  -7  384.66   33.30
  -2   0  -7  472.65   32.60
   2   0   7  460.95   31.90
   2   0   7  464.65   31.70
  -3   0  -7  484.65   32.50
  -3   0  -7  369.56   33.40
  -3   0  -7  460.45   32.20
  -3   0  -7  427.06   31.30
   3   0   7  465.55   31.60
   3   0   7  449.16   31.40
  -4   0  -7    2.10    1.90
  -4   0  -7    4.20    2.00
  -4   0  -7    2.10    3.10
   4   0   7    2.40    0.60
   4   0   7    1.90    0.70
   4   0   7    3.50    1.00
  -5   0  -7    9.00    2.40
  -5   0  -7    4.40    3.70
  -5   0  -7    5.20    1.50
  -5   0  -7    5.50    2.30
   5   0   7    6.50    1.00
   5   0   7    7.40    1.20
  -6   0  -7   43.90    4.40
  -6   0  -7   46.90    5.30
  -6   0  -7   39.10    7.70
  -6   0  -7   36.30    5.40
   6   0   7   45.10    3.60
   6   0   7   49.20    3.70
  -7   0  -7    0.40    1.60
  -7   0  -7    3.90    2.80
  -7   0  -7    2.80    2.30
   7   0   7    2.30    0.80
   7   0   7    1.80    0.70
  -8   0  -7    5.00    2.80
  -8   0  -7    1.70    2.10
  -8   0  -7    4.20    3.00
  -8   0  -7    4.60    2.50
   8   0   7    4.00    0.90
  -9   0  -7    8.10    4.00
  -9   0  -7    9.80    3.10
   9   0   7   12.30    1.80
   9   0   7   12.30    1.60
 -10   0  -7   -1.10    2.20
 -10   0  -7    3.40    3.00
 -10   0  -7    6.50    4.00
  10   0   7    1.80    1.10
  10   0   7    1.20    1.00
 -11   0  -7   -4.00    3.20
 -11   0  -7    2.90    3.80
 -11   0  -7    1.90    3.00
  11   0   7    2.40    1.10
  11   0   7   -0.50    0.90
 -12   0  -7   15.10    4.80
 -12   0  -7   13.50    5.70
 -12   0  -7   11.30    4.10
  12   0   7   16.90    2.40
  12   0   7   15.80    2.20
 -13   0  -7  175.38   16.60
  13   0   7  153.98   12.40
  10  -1  -7    1.70    2.50
  10  -1  -7   -0.40    2.10
 -10   1   7   -5.00    2.50
 -10   1   7   -0.20    3.30
   9  -1  -7    3.90    2.10
   9  -1  -7    4.70    2.50
  -9   1   7    5.90    3.00
  -9   1   7   -0.10    3.50
   8  -1  -7   57.39    6.20
   8  -1  -7   72.09    6.70
  -8   1   7   66.09    7.50
  -8   1   7   56.09    6.50
   7  -1  -7   25.60    3.60
   7  -1  -7   29.90    4.10
  -7   1   7   35.20    5.10
  -7   1   7   21.30    3.80
   6  -1  -7   14.60    2.70
   6  -1  -7   13.40    2.50
  -6   1   7   11.70    3.10
  -6   1   7    8.80    2.40
   5  -1  -7    5.40    3.10
   5  -1  -7    5.70    1.70
   5  -1  -7    5.10    1.70
  -5   1   7    6.70    2.40
  -5   1   7    5.40    1.40
  -5   1   7    5.60    1.80
   4  -1  -7  109.49    8.90
   4  -1  -7  102.49   10.40
   4  -1  -7  109.69    8.80
  -4   1   7  112.79    9.10
  -4   1   7  110.09    8.70
  -4   1   7  107.89    8.40
   3  -1  -7  265.57   21.50
   3  -1  -7  282.47   20.30
   3  -1  -7  280.37   20.30
  -3   1   7  260.07   19.90
  -3   1   7  275.67   20.20
  -3   1   7  279.77   20.10
   2  -1  -7   21.50    2.80
   2  -1  -7   21.00    4.00
   2  -1  -7   22.80    2.70
  -2   1   7   18.60    2.30
  -2   1   7   18.00    2.40
   1  -1  -7   39.00    5.00
   1  -1  -7   32.70    3.50
   1  -1  -7   28.90    3.50
   1  -1  -7   40.80    4.50
  -1   1   7   31.70    3.10
  -1   1   7   29.90    3.10
   0  -1  -7   20.50    3.60
   0  -1  -7   22.00    2.80
   0  -1  -7   18.40    2.60
   0  -1  -7   26.70    3.70
   0   1   7   22.00    2.40
   0   1   7   21.30    2.30
  -1  -1  -7   -1.00    1.60
  -1  -1  -7   -0.70    1.10
  -1  -1  -7   -0.90    1.70
   1   1   7   -0.30    0.70
   1   1   7    0.60    0.80
  -2  -1  -7  132.39   10.90
  -2  -1  -7  155.48   11.60
  -2  -1  -7  132.79   12.30
   2   1   7  146.19   10.70
   2   1   7  152.78   10.50
  -3  -1  -7   53.49    5.40
  -3  -1  -7   53.39    5.10
  -3  -1  -7   47.20    6.40
   3   1   7   53.29    4.20
   3   1   7   43.90    3.90
   3   1   7   57.09    4.00
  -4  -1  -7   43.90    3.80
  -4  -1  -7   40.20    6.40
  -4  -1  -7   48.70    4.90
  -4  -1  -7   49.70    5.10
   4   1   7   43.80    3.50
   4   1   7   51.39    3.90
   4   1   7   43.20    3.40
   4   1   7   45.20    3.60
  -5  -1  -7   -0.60    1.90
  -5  -1  -7    0.50    1.00
  -5  -1  -7   -0.80    2.70
  -5  -1  -7    1.20    1.80
   5   1   7    0.70    0.70
   5   1   7    0.60    0.50
  -6  -1  -7  113.99    9.80
  -6  -1  -7  103.69    8.90
  -6  -1  -7   93.69    9.70
  -6  -1  -7   93.79   11.30
   6   1   7  121.49    8.30
   6   1   7  127.29    8.40
  -7  -1  -7    9.50    4.50
  -7  -1  -7    7.30    2.90
  -7  -1  -7   11.40    3.10
  -7  -1  -7   10.10    2.40
   7   1   7   12.40    1.50
   7   1   7   10.60    1.30
  -8  -1  -7   53.09    6.30
  -8  -1  -7   49.20    6.30
  -8  -1  -7   46.40    5.60
   8   1   7   53.89    4.30
   8   1   7   57.59    4.30
  -9  -1  -7    1.60    3.40
  -9  -1  -7    0.30    2.60
  -9  -1  -7   -0.40    2.20
   9   1   7    0.80    0.80
   9   1   7    0.80    0.90
 -10  -1  -7  130.59   11.50
 -10  -1  -7  119.89   11.30
 -10  -1  -7  114.09   12.30
  10   1   7  122.19    9.60
  10   1   7  134.79    9.50
 -11  -1  -7   79.49    9.20
 -11  -1  -7   73.89    8.00
 -11  -1  -7   72.59    8.20
  11   1   7   68.09    5.50
  11   1   7   57.49    5.60
 -12  -1  -7    0.00    3.80
 -12  -1  -7    1.20    3.50
 -12  -1  -7    5.90    5.00
  12   1   7    2.90    1.30
  12   1   7    1.00    1.20
 -13  -1  -7    3.00    4.80
 -13  -1  -7    0.40    5.00
 -13  -1  -7   -0.20    4.10
  13   1   7    0.40    1.40
  13   1   7   -0.20    1.30
  10  -2  -7    5.30    2.80
  10  -2  -7   -0.20    2.10
 -10   2   7    0.30    2.80
 -10   2   7   -2.40    3.40
   9  -2  -7   10.10    2.70
   9  -2  -7   11.10    3.20
  -9   2   7    6.90    3.30
  -9   2   7   15.90    4.30
   8  -2  -7    4.20    2.20
   8  -2  -7    0.30    1.70
  -8   2   7    1.20    3.00
  -8   2   7    0.10    2.30
   7  -2  -7   47.80    5.40
   7  -2  -7   48.40    5.20
  -7   2   7   50.49    6.70
  -7   2   7   50.49    6.70
  -7   2   7   57.89    5.80
   6  -2  -7    5.20    1.90
   6  -2  -7    6.60    2.30
  -6   2   7    3.60    2.00
  -6   2   7    5.70    2.80
  -6   2   7    7.90    3.00
   5  -2  -7    5.20    1.70
   5  -2  -7    7.50    2.00
  -5   2   7    5.30    1.30
  -5   2   7    5.80    2.60
  -5   2   7    2.90    1.80
   4  -2  -7   18.70    2.80
   4  -2  -7   22.10    4.70
   4  -2  -7   20.80    2.80
  -4   2   7   16.30    2.70
  -4   2   7   20.70    2.30
   3  -2  -7    5.50    2.90
   3  -2  -7    0.30    1.20
   3  -2  -7    1.20    1.40
  -3   2   7    2.30    1.00
  -3   2   7    0.30    1.60
  -3   2   7    1.10    1.40
   2  -2  -7  139.09   10.20
   2  -2  -7  120.99   11.40
   2  -2  -7  142.59   10.30
  -2   2   7  114.49    9.90
  -2   2   7  132.29    9.80
  -2   2   7  131.59   10.00
   1  -2  -7   50.09    4.80
   1  -2  -7   53.59    4.80
   1  -2  -7   51.99    6.10
  -1   2   7   53.49    4.20
  -1   2   7   55.09    4.40
  -1   2   7   51.49    4.70
   0  -2  -7   20.50    2.60
   0  -2  -7   20.30    3.80
   0  -2  -7   27.00    4.20
   0  -2  -7   16.90    2.50
   0   2   7   18.20    2.20
   0   2   7   17.10    2.10
  -1  -2  -7   15.40    2.30
  -1  -2  -7   16.40    3.20
  -1  -2  -7   16.60    3.60
   1   2   7   16.30    2.30
   1   2   7   16.90    1.90
   1   2   7   14.30    1.90
  -2  -2  -7    1.00    1.20
  -2  -2  -7   -0.30    1.80
  -2  -2  -7    1.30    2.10
   2   2   7    0.40    0.70
   2   2   7   -0.70    1.00
   2   2   7    1.10    0.80
  -3  -2  -7    1.00    2.00
  -3  -2  -7    2.90    2.70
  -3  -2  -7    3.60    0.70
   3   2   7    1.40    0.80
   3   2   7    3.30    1.10
   3   2   7    3.00    0.70
   3   2   7    3.20    0.90
  -4  -2  -7   11.70    2.50
  -4  -2  -7   11.40    1.60
  -4  -2  -7   11.80    2.90
  -4  -2  -7    9.20    3.70
   4   2   7   13.20    1.30
   4   2   7   14.90    1.70
   4   2   7   12.10    1.40
   4   2   7   11.00    1.30
  -5  -2  -7   17.70    4.50
  -5  -2  -7   19.60    3.40
  -5  -2  -7   20.10    2.60
  -5  -2  -7   25.80    4.00
   5   2   7   25.30    2.30
   5   2   7   23.30    2.00
  -6  -2  -7   71.49    6.70
  -6  -2  -7   53.19    5.30
  -6  -2  -7   43.70    7.30
  -6  -2  -7   55.09    6.10
   6   2   7   66.59    4.80
   6   2   7   62.29    4.60
  -7  -2  -7   86.19    8.50
  -7  -2  -7   98.49    9.00
  -7  -2  -7   86.89    7.90
  -7  -2  -7   69.99   10.30
   7   2   7  101.99    7.20
   7   2   7  102.39    7.00
  -8  -2  -7   20.80    6.40
  -8  -2  -7   36.50    5.30
  -8  -2  -7   33.50    4.50
  -8  -2  -7   36.50    5.20
   8   2   7   36.90    3.20
   8   2   7   37.00    3.00
  -9  -2  -7   -0.40    2.40
  -9  -2  -7    2.60    4.00
  -9  -2  -7    0.30    2.20
   9   2   7    1.70    0.90
   9   2   7    0.70    0.70
   9   2   7   -1.90    0.80
 -10  -2  -7  123.29   12.20
 -10  -2  -7  127.59   11.20
 -10  -2  -7  122.89   11.20
  10   2   7  133.39    9.30
  10   2   7  110.99    9.30
 -11  -2  -7   -0.30    2.70
 -11  -2  -7   -1.40    2.70
 -11  -2  -7   -1.60    4.10
  11   2   7   -1.40    1.00
  11   2   7   -0.80    0.90
 -12  -2  -7    0.70    4.60
 -12  -2  -7    8.70    4.40
 -12  -2  -7    6.30    3.80
  12   2   7    7.40    1.60
  12   2   7    8.10    1.70
 -13  -2  -7    5.30    4.80
 -13  -2  -7    5.90    4.60
  13   2   7    2.30    1.60
  13   2   7   -1.20    1.20
   9  -3  -7   71.79    7.30
   9  -3  -7   75.39    7.80
  -9   3   7   73.19    8.30
  -9   3   7   65.69    7.60
   8  -3  -7    0.10    2.10
   8  -3  -7    0.00    1.80
  -8   3   7    4.10    3.80
  -8   3   7   -2.30    2.70
   7  -3  -7    0.80    1.60
   7  -3  -7    1.80    2.10
  -7   3   7   -1.70    3.00
  -7   3   7    0.00    2.40
  -7   3   7    1.50    2.90
   6  -3  -7    7.10    2.50
   6  -3  -7    8.20    2.30
  -6   3   7    5.40    2.30
  -6   3   7    5.50    3.20
  -6   3   7    2.80    2.90
   5  -3  -7   14.90    2.80
   5  -3  -7   11.60    2.40
  -5   3   7   12.40    2.60
  -5   3   7   14.20    3.50
  -5   3   7   11.20    3.20
   4  -3  -7    3.60    1.70
   4  -3  -7    2.90    1.70
  -4   3   7    4.10    1.10
  -4   3   7    5.40    2.30
  -4   3   7    3.90    2.50
  -4   3   7    3.50    1.80
   3  -3  -7  139.09   12.40
   3  -3  -7  142.29   11.10
   3  -3  -7  146.99   11.00
  -3   3   7  139.29   11.40
  -3   3   7  133.69   10.80
  -3   3   7  140.39   10.40
  -3   3   7  131.39   11.10
   2  -3  -7   13.80    2.30
   2  -3  -7   17.50    2.60
   2  -3  -7   17.00    3.80
  -2   3   7   18.20    2.00
  -2   3   7   15.80    3.10
  -2   3   7   16.50    2.40
  -2   3   7   14.30    2.40
   1  -3  -7  258.67   20.00
   1  -3  -7  283.97   21.20
   1  -3  -7  267.07   20.00
  -1   3   7  268.27   20.20
  -1   3   7  270.97   20.20
  -1   3   7  269.27   19.60
  -1   3   7  276.17   19.70
  -1   3   7  280.87   19.90
   0  -3  -7  377.36   26.90
   0  -3  -7  381.46   27.90
   0  -3  -7  352.46   26.90
   0   3   7  342.17   27.00
   0   3   7  379.86   26.60
   0   3   7  379.36   26.80
   0   3   7  382.76   26.90
  -1  -3  -7  328.57   24.80
  -1  -3  -7  329.87   23.90
  -1  -3  -7  296.87   23.80
   1   3   7  336.97   23.70
   1   3   7  340.87   23.70
   1   3   7  314.57   23.80
   1   3   7  343.17   23.60
  -2  -3  -7  115.69    9.90
  -2  -3  -7  108.89    8.70
   2   3   7  113.79    8.50
   2   3   7  109.79    8.70
   2   3   7  106.59    8.20
   2   3   7  120.79    8.50
  -3  -3  -7  211.48   15.90
  -3  -3  -7  204.78   16.80
  -3  -3  -7  176.48   14.80
   3   3   7  198.78   14.30
   3   3   7  199.68   14.60
   3   3   7  186.78   14.50
   3   3   7  224.98   14.60
  -4  -3  -7   39.70    5.10
  -4  -3  -7   30.10    5.50
  -4  -3  -7   29.50    3.00
  -4  -3  -7   32.90    3.90
   4   3   7   36.30    2.90
   4   3   7   28.50    2.80
   4   3   7   32.10    2.60
  -5  -3  -7    1.40    1.90
  -5  -3  -7    0.30    2.70
  -5  -3  -7    1.50    2.50
  -5  -3  -7    2.90    1.30
   5   3   7    0.50    0.50
   5   3   7   -0.60    0.70
  -6  -3  -7   37.10    4.00
  -6  -3  -7   40.80    4.70
  -6  -3  -7   27.10    5.90
  -6  -3  -7   40.80    5.50
   6   3   7   42.50    3.20
   6   3   7   43.40    3.50
  -7  -3  -7   15.00    4.80
  -7  -3  -7   20.30    3.90
  -7  -3  -7   13.10    2.60
  -7  -3  -7   19.80    3.70
   7   3   7   19.50    1.90
   7   3   7   20.70    2.20
  -8  -3  -7   80.99    7.90
  -8  -3  -7   73.59   10.20
  -8  -3  -7   85.89    8.50
  -8  -3  -7   97.99    9.10
   8   3   7   98.89    6.80
   8   3   7   88.79    6.90
  -9  -3  -7   14.80    3.40
  -9  -3  -7   22.60    4.40
  -9  -3  -7   33.70    5.10
  -9  -3  -7   13.20    5.30
   9   3   7   21.60    2.20
   9   3   7   23.60    2.20
   9   3   7   20.10    2.50
 -10  -3  -7   11.80    5.40
 -10  -3  -7   10.40    3.50
 -10  -3  -7    4.30    2.80
  10   3   7    9.50    1.50
  10   3   7    7.90    1.40
 -11  -3  -7   -1.20    4.00
 -11  -3  -7    4.20    3.30
 -11  -3  -7    0.70    3.40
  11   3   7    5.30    1.30
  11   3   7    1.90    1.30
 -12  -3  -7    4.20    4.70
 -12  -3  -7    9.80    4.40
  12   3   7    6.50    1.40
  12   3   7    3.30    1.50
 -13  -3  -7    3.80    5.20
 -13  -3  -7    2.80    4.00
  13   3   7   -2.80    1.20
   9  -4  -7   83.69    8.10
   9  -4  -7   90.09    8.60
  -9   4   7   69.09    8.60
  -9   4   7   82.09    9.70
   8  -4  -7   38.50    5.40
   8  -4  -7   39.80    5.10
  -8   4   7   41.00    5.40
  -8   4   7   36.40    6.20
   7  -4  -7   28.40    4.30
   7  -4  -7   19.20    3.60
  -7   4   7   21.60    4.70
  -7   4   7   22.30    4.00
   6  -4  -7   32.50    4.40
   6  -4  -7   25.70    3.80
  -6   4   7   29.10    5.10
  -6   4   7   34.90    4.70
  -6   4   7   38.50    5.60
   5  -4  -7   14.60    2.90
   5  -4  -7   15.70    2.70
  -5   4   7   17.00    3.80
  -5   4   7   21.10    4.10
  -5   4   7   18.60    3.20
   4  -4  -7   17.80    3.10
   4  -4  -7   15.80    2.80
  -4   4   7   18.30    2.00
  -4   4   7   18.60    3.60
  -4   4   7   14.30    3.10
  -4   4   7   17.50    3.70
   3  -4  -7  135.99   10.80
   3  -4  -7  135.09   10.70
  -3   4   7  135.29   10.00
  -3   4   7  126.29   10.80
  -3   4   7  138.69   10.80
  -3   4   7  131.69   11.20
   2  -4  -7  256.07   19.30
   2  -4  -7  250.17   19.30
  -2   4   7  268.47   19.30
  -2   4   7  256.07   19.60
  -2   4   7  240.88   19.20
  -2   4   7  279.37   18.80
   1  -4  -7   13.70    3.60
   1  -4  -7   15.30    2.40
   1  -4  -7   18.30    2.60
  -1   4   7   13.60    2.50
  -1   4   7   17.10    3.00
  -1   4   7   18.20    2.10
  -1   4   7   17.30    2.30
  -1   4   7   13.80    2.50
   0  -4  -7   46.50    4.60
   0  -4  -7   47.40    6.20
   0  -4  -7   49.30    4.60
   0   4   7   48.30    4.10
   0   4   7   49.80    4.80
   0   4   7   46.50    4.50
   0   4   7   48.00    4.60
  -1  -4  -7   47.10    5.80
  -1  -4  -7   37.20    3.80
  -1  -4  -7   30.50    3.70
   1   4   7   41.80    4.00
   1   4   7   40.60    3.70
   1   4   7   42.60    3.40
   1   4   7   34.50    3.00
   1   4   7   34.50    3.60
  -2  -4  -7   90.89    8.60
  -2  -4  -7   64.99    7.30
  -2  -4  -7   71.79    6.10
   2   4   7   70.59    5.40
   2   4   7   75.29    6.00
   2   4   7   74.69    6.10
   2   4   7   61.89    5.80
   2   4   7   73.39    5.70
  -3  -4  -7   53.39    6.00
  -3  -4  -7   50.29    6.70
  -3  -4  -7   39.90    4.40
   3   4   7   49.40    4.30
   3   4   7   49.50    4.10
   3   4   7   47.30    3.70
   3   4   7   51.79    4.10
  -4  -4  -7   22.50    3.30
  -4  -4  -7   15.30    3.70
  -4  -4  -7   19.60    4.70
   4   4   7   17.50    1.70
   4   4   7   17.70    2.20
   4   4   7   19.10    2.10
  -5  -4  -7   11.00    4.00
  -5  -4  -7   15.90    2.90
  -5  -4  -7    7.00    3.00
   5   4   7    9.70    1.20
   5   4   7    8.90    1.50
  -6  -4  -7   19.60    3.80
  -6  -4  -7   24.70    5.60
  -6  -4  -7   25.80    3.30
  -6  -4  -7   25.80    4.60
   6   4   7   30.20    2.50
   6   4   7   31.10    2.80
  -7  -4  -7   67.69    6.80
  -7  -4  -7   65.89    7.30
  -7  -4  -7   64.19    9.30
  -7  -4  -7   75.49    8.10
   7   4   7   85.99    5.80
   7   4   7   82.19    6.10
  -8  -4  -7    1.00    3.40
  -8  -4  -7    0.60    2.00
  -8  -4  -7    0.80    2.20
  -8  -4  -7    2.70    2.60
   8   4   7   -0.90    1.10
   8   4   7    3.50    1.00
  -9  -4  -7    5.40    2.90
  -9  -4  -7   11.40    3.30
  -9  -4  -7    4.50    2.50
  -9  -4  -7    3.30    4.30
   9   4   7    6.30    1.20
   9   4   7    2.90    0.80
   9   4   7    2.10    1.30
 -10  -4  -7   66.99   10.30
 -10  -4  -7   77.79    8.40
 -10  -4  -7   77.49    8.10
  10   4   7   66.29    6.20
  10   4   7   83.29    6.20
  10   4   7   79.59    6.00
 -11  -4  -7   13.40    4.10
  11   4   7   14.40    2.10
 -12  -4  -7   22.10    6.00
 -12  -4  -7   10.00    4.30
  12   4   7   12.50    2.10
 -13  -4  -7    3.20    4.70
 -13  -4  -7    5.60    5.20
  13   4   7    1.10    1.40
   8  -5  -7   -3.50    2.00
   8  -5  -7    2.00    2.80
  -8   5   7   -4.20    3.30
  -8   5   7   -1.70    4.00
   7  -5  -7   52.99    6.00
   7  -5  -7   56.49    6.60
  -7   5   7   53.99    7.40
  -7   5   7   45.40    6.40
   6  -5  -7   35.90    4.80
   6  -5  -7   44.80    5.40
  -6   5   7   45.40    5.60
  -6   5   7   47.00    6.50
   5  -5  -7   -0.50    1.60
   5  -5  -7    0.90    2.00
  -5   5   7   -3.60    2.30
  -5   5   7    4.10    3.10
  -5   5   7    1.00    2.40
   4  -5  -7    2.80    1.80
   4  -5  -7    6.30    2.30
  -4   5   7    2.10    2.60
  -4   5   7    3.90    2.20
  -4   5   7    3.70    2.80
   3  -5  -7  272.17   21.20
   3  -5  -7  286.97   21.20
  -3   5   7  316.67   20.50
  -3   5   7  253.77   21.20
  -3   5   7  265.87   21.60
  -3   5   7  293.77   21.40
   2  -5  -7  175.78   13.80
   2  -5  -7  173.68   13.80
  -2   5   7  161.98   13.80
  -2   5   7  180.68   13.90
  -2   5   7  187.98   14.30
  -2   5   7  173.78   14.20
  -2   5   7  196.88   13.30
   1  -5  -7   10.20    2.10
   1  -5  -7   12.00    2.20
  -1   5   7    9.00    1.50
  -1   5   7    9.00    2.60
  -1   5   7   11.40    2.10
  -1   5   7    8.50    2.20
  -1   5   7    8.00    2.20
   0  -5  -7  158.98   12.60
   0  -5  -7  172.18   12.70
   0  -5  -7  164.78   13.90
   0   5   7  175.58   13.00
   0   5   7  171.38   12.80
   0   5   7  143.59   11.80
   0   5   7  177.48   12.20
   0   5   7  160.98   12.70
  -1  -5  -7  340.17   24.10
  -1  -5  -7  310.07   24.00
  -1  -5  -7  343.07   25.30
   1   5   7  306.37   24.00
   1   5   7  316.37   24.20
   1   5   7  320.77   23.30
   1   5   7  350.66   23.70
   1   5   7  345.27   24.10
  -2  -5  -7  267.47   20.50
  -2  -5  -7  260.57   19.30
   2   5   7  275.27   19.10
   2   5   7  266.27   19.30
   2   5   7  243.98   19.20
   2   5   7  250.57   19.40
   2   5   7  267.87   18.60
  -3  -5  -7   14.20    2.40
  -3  -5  -7   20.10    4.20
  -3  -5  -7   25.90    5.30
   3   5   7   19.40    2.20
   3   5   7   12.40    2.40
   3   5   7   20.50    1.70
  -4  -5  -7  285.27   22.90
  -4  -5  -7  306.37   20.80
  -4  -5  -7  281.57   21.50
   4   5   7  244.78   20.00
   4   5   7  277.67   19.70
   4   5   7  272.97   20.10
  -5  -5  -7  123.99   12.70
  -5  -5  -7  122.59   10.60
  -5  -5  -7  132.19   11.60
   5   5   7  135.59   10.00
   5   5   7  134.89    9.50
  -6  -5  -7   61.19    8.30
  -6  -5  -7   53.39    5.90
  -6  -5  -7   51.69    6.90
   6   5   7   62.39    5.20
   6   5   7   64.59    4.70
  -7  -5  -7   49.99    7.70
  -7  -5  -7   43.10    5.50
  -7  -5  -7   60.49    6.80
   7   5   7   54.59    4.10
   7   5   7   47.40    4.40
  -8  -5  -7   -0.70    1.80
  -8  -5  -7    0.60    2.90
  -8  -5  -7    0.80    3.20
  -8  -5  -7   -1.20    2.00
   8   5   7   -1.10    1.00
   8   5   7    2.40    0.90
  -9  -5  -7   49.90    5.80
  -9  -5  -7   47.80    9.20
   9   5   7   44.20    4.00
   9   5   7   49.10    4.50
   9   5   7   53.49    4.20
 -10  -5  -7   24.00    6.80
 -10  -5  -7   34.90    5.10
  10   5   7   37.90    3.30
  10   5   7   26.20    3.30
 -11  -5  -7   15.60    6.50
 -11  -5  -7    9.30    4.00
  11   5   7    9.10    1.90
 -12  -5  -7   -1.50    3.80
  12   5   7   -0.50    1.40
   8  -6  -7    1.50    2.30
   8  -6  -7    0.20    2.80
  -8   6   7   -4.20    3.90
  -8   6   7    1.00    3.50
   7  -6  -7   73.59    7.60
   7  -6  -7   82.49    8.10
  -7   6   7   80.09    8.40
  -7   6   7   97.29    9.80
   6  -6  -7    6.50    2.80
   6  -6  -7    2.80    2.20
  -6   6   7    0.10    2.70
  -6   6   7    6.90    3.80
   5  -6  -7   77.49    7.20
   5  -6  -7   73.59    6.90
  -5   6   7   65.29    7.60
  -5   6   7   73.49    8.00
  -5   6   7   71.09    8.30
   4  -6  -7    3.70    2.10
   4  -6  -7    0.90    1.80
  -4   6   7   -1.10    2.10
  -4   6   7    3.40    2.50
  -4   6   7    1.20    2.60
   3  -6  -7   34.70    4.20
   3  -6  -7   42.10    4.50
  -3   6   7   36.40    4.90
  -3   6   7   36.40    3.40
  -3   6   7   37.00    5.40
  -3   6   7   35.80    4.80
   2  -6  -7   24.80    3.40
   2  -6  -7   21.50    3.10
  -2   6   7   23.00    3.60
  -2   6   7   27.00    4.10
  -2   6   7   28.80    2.80
  -2   6   7   25.30    3.70
  -2   6   7   23.70    4.20
   1  -6  -7    1.60    1.70
   1  -6  -7    1.80    1.60
  -1   6   7    5.00    1.80
  -1   6   7    3.20    2.00
  -1   6   7    2.40    2.50
  -1   6   7   -0.10    1.90
  -1   6   7    1.70    1.10
   0  -6  -7  184.08   13.50
   0  -6  -7  167.48   13.50
   0   6   7  173.28   14.00
   0   6   7  173.58   13.60
   0   6   7  183.98   13.70
   0   6   7  173.38   13.00
  -1  -6  -7    1.00    1.50
  -1  -6  -7    1.00    1.40
   1   6   7    1.90    2.10
   1   6   7    4.70    1.20
   1   6   7   -0.50    1.50
   1   6   7   -0.80    1.60
  -2  -6  -7  321.87   24.80
   2   6   7  334.97   24.90
   2   6   7  336.57   25.10
   2   6   7  357.36   24.70
   2   6   7  350.36   24.10
  -3  -6  -7  210.48   17.40
  -3  -6  -7  229.18   19.00
   3   6   7  246.08   17.30
   3   6   7  257.37   16.80
   3   6   7  227.48   17.50
  -4  -6  -7  726.93   59.09
  -4  -6  -7  908.61   61.29
  -4  -6  -7  886.71   58.49
   4   6   7  753.82   57.89
   4   6   7  803.82   57.49
  -5  -6  -7  195.38   16.60
  -5  -6  -7  180.18   14.80
  -5  -6  -7  172.08   13.60
   5   6   7  149.49   12.90
   5   6   7  179.78   12.50
   5   6   7  172.78   13.00
  -6  -6  -7   22.70    5.70
  -6  -6  -7   20.30    3.40
   6   6   7   23.10    2.10
   6   6   7   20.60    2.70
  -7  -6  -7   20.20    5.60
   7   6   7   19.00    2.60
   7   6   7   20.40    2.10
  -8  -6  -7   -0.50    3.60
   8   6   7    1.00    0.80
   8   6   7   -1.20    1.20
  -9  -6  -7   -2.00    3.60
  -9  -6  -7   -2.90    2.30
   9   6   7    0.20    1.00
   9   6   7    0.00    1.40
 -10  -6  -7    8.70    5.90
 -10  -6  -7   15.30    3.90
  10   6   7   14.30    2.10
  10   6   7   13.10    2.40
 -11  -6  -7   16.20    6.50
 -11  -6  -7   27.30    4.90
  11   6   7   14.40    2.30
 -12  -6  -7   34.90    6.30
 -12  -6  -7   28.60    8.30
  12   6   7   31.30    3.50
   7  -7  -7   11.10    3.10
   7  -7  -7   19.70    3.80
  -7   7   7   16.70    4.60
  -7   7   7   22.70    5.70
   6  -7  -7    2.80    2.60
   6  -7  -7    1.40    2.20
  -6   7   7   -1.00    3.80
  -6   7   7    2.00    3.20
   5  -7  -7    3.20    1.90
   5  -7  -7    2.30    2.20
  -5   7   7    8.30    3.80
  -5   7   7    5.60    3.00
   4  -7  -7    2.10    2.00
   4  -7  -7    0.00    2.10
  -4   7   7    1.40    3.10
  -4   7   7    6.00    2.70
  -4   7   7    0.20    2.90
   3  -7  -7    7.40    2.60
   3  -7  -7    4.10    2.10
  -3   7   7    7.70    2.90
  -3   7   7    9.60    3.60
  -3   7   7    7.60    2.80
   2  -7  -7   56.19    5.70
   2  -7  -7   52.79    5.40
  -2   7   7   50.89    4.70
  -2   7   7   51.39    6.10
  -2   7   7   61.79    6.30
  -2   7   7   43.00    5.60
  -2   7   7   65.19    5.90
   1  -7  -7    1.90    1.80
   1  -7  -7    2.90    1.70
  -1   7   7    5.10    2.20
  -1   7   7    2.50    2.00
  -1   7   7    3.10    2.00
  -1   7   7    3.80    2.80
  -1   7   7    5.80    1.40
   0  -7  -7    3.20    1.80
   0  -7  -7   10.00    2.20
   0   7   7    7.20    2.30
   0   7   7    8.60    3.00
   0   7   7    9.80    1.70
  -1  -7  -7  443.76   33.70
  -1  -7  -7  471.75   33.70
   1   7   7  456.35   33.50
   1   7   7  504.35   34.00
   1   7   7  454.95   34.20
  -2  -7  -7   74.59    6.40
   2   7   7   77.39    6.60
   2   7   7   66.89    6.70
   2   7   7   74.09    6.10
  -3  -7  -7  137.39   11.10
   3   7   7  149.19   11.10
   3   7   7  149.49   11.50
  -4  -7  -7   10.90    2.60
  -4  -7  -7   15.00    5.70
   4   7   7    5.60    1.80
   4   7   7    7.60    1.00
   4   7   7    7.80    1.70
  -5  -7  -7   41.80    7.50
   5   7   7   30.80    2.80
   5   7   7   31.20    3.50
   5   7   7   35.10    3.60
  -6  -7  -7   13.30    5.20
   6   7   7   14.10    2.20
   6   7   7   13.40    1.60
  -7  -7  -7   37.10    7.50
   7   7   7   29.70    2.70
   7   7   7   25.70    3.30
  -8  -7  -7    3.40    4.10
   8   7   7   -1.10    1.30
   8   7   7    0.90    1.00
  -9  -7  -7   25.80    7.30
   9   7   7   24.60    3.20
   9   7   7   23.60    2.70
 -10  -7  -7    6.30    5.60
 -10  -7  -7   -4.70    3.00
  10   7   7    0.00    1.20
  10   7   7    1.20    1.60
 -11  -7  -7   56.39   10.60
 -11  -7  -7   55.79    7.50
  11   7   7   49.90    5.00
  11   7   7   49.40    4.70
 -12  -7  -7    3.10    5.20
 -12  -7  -7    3.10    3.80
  12   7   7    2.70    1.60
   6  -8  -7   13.00    3.50
   6  -8  -7   12.00    3.20
  -6   8   7    3.00    4.30
  -6   8   7   14.20    4.20
   5  -8  -7    0.40    2.20
   5  -8  -7    2.70    2.70
  -5   8   7   -0.20    3.50
  -5   8   7    2.60    4.00
   4  -8  -7    5.40    2.70
   4  -8  -7    4.90    2.40
  -4   8   7   -3.30    3.00
  -4   8   7    8.40    4.20
   3  -8  -7    3.40    2.30
   3  -8  -7    0.90    1.90
  -3   8   7   -5.60    2.60
  -3   8   7   -2.90    2.50
  -3   8   7   -0.60    2.50
   2  -8  -7   19.00    3.20
   2  -8  -7   23.90    3.60
  -2   8   7   27.50    4.80
  -2   8   7   15.20    2.50
  -2   8   7   22.10    4.00
  -2   8   7   23.40    3.90
   1  -8  -7   11.80    2.50
   1  -8  -7    5.10    2.10
  -1   8   7   12.70    3.00
  -1   8   7   10.10    3.50
  -1   8   7   12.10    2.90
  -1   8   7    4.10    1.50
   0  -8  -7  112.69    9.90
   0  -8  -7  130.59   10.00
   0   8   7  134.39   10.40
   0   8   7  105.79    9.50
   0   8   7  132.59   10.70
  -1  -8  -7   10.10    2.20
  -1  -8  -7    9.50    2.30
   1   8   7   11.60    2.70
   1   8   7    9.00    1.90
   1   8   7    8.60    3.00
  -2  -8  -7   80.29    6.40
   2   8   7   72.39    6.80
   2   8   7   63.29    6.10
   2   8   7   73.49    6.60
   3   8   7   63.19    5.60
  -4  -8  -7    3.00    4.70
   4   8   7    1.60    1.70
   4   8   7   -0.10    1.40
  -5  -8  -7   -1.50    4.10
   5   8   7    1.30    1.30
   5   8   7    1.50    1.50
  -6  -8  -7   40.10    8.20
   6   8   7   31.80    3.70
  -7  -8  -7   56.99    9.70
   7   8   7   41.30    3.70
   7   8   7   40.10    4.30
  -8  -8  -7    0.80    4.70
   8   8   7   -1.80    0.80
   8   8   7    0.00    1.60
  -9  -8  -7   13.80    6.10
   9   8   7   20.10    3.20
   9   8   7   20.10    2.40
 -10  -8  -7    1.60    3.10
 -10  -8  -7    1.40    5.00
  10   8   7    1.80    1.90
  10   8   7    0.70    1.20
 -11  -8  -7  140.79   16.20
 -11  -8  -7  156.88   13.10
  11   8   7  132.49   10.30
  11   8   7  119.19   10.60
   5  -9  -7   -2.00    2.70
   5  -9  -7   -2.80    2.20
  -5   9   7    5.90    4.30
   4  -9  -7    0.20    2.60
   4  -9  -7    1.20    2.20
  -4   9   7    6.30    3.90
   3  -9  -7   51.49    6.00
   3  -9  -7   48.30    5.70
  -3   9   7   59.89    7.60
   2  -9  -7   -0.20    2.10
   2  -9  -7   -1.00    1.90
  -2   9   7    1.20    3.20
   1  -9  -7    4.90    2.30
   1  -9  -7    8.40    2.50
  -1   9   7    4.50    1.70
  -1   9   7    6.80    2.90
  -1   9   7   10.10    3.60
   0  -9  -7    0.70    1.70
   0  -9  -7   -1.50    1.70
   0   9   7   -1.20    2.10
   0   9   7   -0.80    1.30
   0   9   7   -2.20    2.30
   1   9   7   10.80    2.40
   1   9   7   15.90    3.20
   1   9   7   25.20    4.30
   2   9   7   17.60    2.80
   3   9   7   32.00    4.30
   3   9   7   26.20    3.50
   4   9   7  255.97   19.10
   4   9   7  242.78   18.70
  -5  -9  -7   16.70    6.60
   5   9   7   10.50    2.50
   5   9   7    8.00    2.10
  -6  -9  -7   66.19   10.10
   6   9   7   44.30    5.00
  -7  -9  -7   -4.60    5.00
   7   9   7   -0.90    1.60
  -8  -9  -7   32.00    8.50
   8   9   7   20.70    3.30
  -9  -9  -7   -2.90    4.70
   9   9   7   -0.40    1.80
 -10  -9  -7    7.00    5.80
  10   9   7    6.30    2.00
 -11  -9  -7    3.00    6.30
 -11  -9  -7   -0.30    4.20
  11   9   7    3.30    1.60
   4 -10  -7   16.70    3.80
   4 -10  -7   12.40    3.20
  -4  10   7    8.30    4.40
   3 -10  -7   11.20    3.10
   3 -10  -7    3.00    2.60
  -3  10   7    6.70    4.40
  -2  10   7   -2.70    3.10
  -1  10   7   88.29    9.40
   0  10   7   -0.20    2.70
   0  10   7   -0.50    1.60
   1  10   7    0.70    1.70
   2  10   7    9.00    2.20
   2  10   7    9.00    3.10
   3  10   7    0.20    2.20
   3  10   7    0.70    1.80
   4  10   7    0.00    1.80
   4  10   7   -2.30    1.90
  -5 -10  -7    8.80    6.30
   5  10   7    3.80    2.00
   5  10   7    6.40    2.60
  -6 -10  -7   12.00    6.70
   6  10   7    5.20    2.20
  -7 -10  -7    4.20    6.30
   7  10   7   -0.20    1.80
  -8 -10  -7   -1.80    5.20
   8  10   7   -0.70    2.00
  -9 -10  -7    4.20    6.20
   9  10   7    2.50    2.00
 -10 -10  -7    1.60    6.30
   0  11   7   17.40    3.40
   0  11   7   31.10    5.30
   1  11   7    5.00    2.30
   1  11   7   15.20    4.00
   2  11   7   43.60    5.70
   2  11   7   31.10    4.30
   3  11   7   -1.60    1.80
   3  11   7   -1.40    2.50
   4  11   7    7.50    2.90
   4  11   7    3.50    2.30
  -5 -11  -7   -2.90    6.70
   5  11   7   -0.20    2.10
  -6 -11  -7   33.40    9.70
   6  11   7   17.70    3.30
  -7 -11  -7    5.20    6.90
   7  11   7    6.80    2.50
  -8 -11  -7    0.80    6.50
   8  11   7    5.80    2.30
  -9 -11  -7    6.90    7.50
   0  12   7   31.40    5.70
   1  12   7   50.39    5.50
   2  12   7    0.40    3.00
   2  12   7    3.40    2.10
   3  12   7   37.20    5.40
   3  12   7   27.60    4.00
   4  12   7   22.90    3.60
   4  12   7   21.30    4.40
  -5 -12  -7   -9.00    6.20
   5  12   7   -1.20    2.00
  -6 -12  -7   14.30    9.10
   6  12   7    8.70    2.60
  -7 -12  -7   -1.70    7.00
   2  11  -8    0.40    2.40
  -2 -11   8    2.30    2.00
   1  11  -8   -0.40    2.10
  -1 -11   8    1.50    2.20
   0  11  -8   -0.80    1.80
   0 -11   8   -0.30    1.80
  -1  11  -8   -1.70    1.50
   1 -11   8    1.00    2.00
  -2  11  -8   11.90    2.00
   2 -11   8   11.40    2.70
   4  10  -8    1.20    3.00
  -4 -10   8    0.20    2.00
   3  10  -8    7.20    3.00
  -3 -10   8   -0.20    2.30
   2  10  -8   32.40    4.90
  -2 -10   8   39.90    4.60
   1  10  -8   -0.20    1.90
  -1 -10   8   -1.10    1.80
   0  10  -8   -2.20    1.40
   0 -10   8    3.10    1.90
  -1  10  -8   62.89    5.60
   1 -10   8   62.79    6.00
  -2  10  -8   15.60    2.00
   2 -10   8   12.90    2.80
   3 -10   8    5.60    2.30
   6   9  -8    3.80    3.70
  -6  -9   8   -1.20    2.30
   5   9  -8    2.60    3.10
  -5  -9   8   -3.00    2.20
   4   9  -8   18.90    4.40
  -4  -9   8   18.10    3.20
   3   9  -8   27.00    4.50
  -3  -9   8   21.80    3.60
   2   9  -8    3.20    2.50
  -2  -9   8    4.30    2.00
   1   9  -8   -0.90    1.70
  -1  -9   8    0.30    1.60
   0   9  -8   44.30    4.70
   0  -9   8   48.90    4.90
  -1   9  -8   32.60    3.70
   1  -9   8   41.10    4.10
  -2   9  -8  160.08   12.20
   2  -9   8  176.28   13.00
   3  -9   8  148.99   11.70
  -6   9  -8   13.10    1.90
   7   8  -8    8.30    4.20
  -7  -8   8    0.00    2.00
   6   8  -8   40.20    6.50
  -6  -8   8   27.80    4.10
   5   8  -8   23.10    4.90
  -5  -8   8   19.40    3.30
   4   8  -8   43.40    6.40
  -4  -8   8   52.59    5.40
   3   8  -8    5.50    2.80
  -3  -8   8   13.90    2.50
   2   8  -8    3.90    2.10
  -2  -8   8    0.70    1.80
   1   8  -8   52.09    5.60
  -1  -8   8   58.19    5.30
   0   8  -8   11.70    2.40
   0  -8   8   18.50    2.70
  -1   8  -8    4.90    1.50
   1  -8   8    4.70    1.80
  -2   8  -8  122.09    9.10
   2  -8   8  122.79    9.70
   3  -8   8    2.70    1.00
   3  -8   8    4.10    1.60
   3  -8   8    0.40    1.50
   4  -8   8   65.39    5.70
  -5   8  -8    3.80    3.50
  -5   8  -8    5.50    2.80
   5  -8   8    0.70    1.40
  -6   8  -8   17.00    2.40
  -6   8  -8   16.60    3.90
  -6   8  -8   13.70    4.60
   6  -8   8   17.20    2.70
  -7   8  -8   -1.30    4.00
  -7   8  -8    0.50    1.60
   7  -8   8   -1.40    1.40
  -8   8  -8   52.79    6.00
  -8   8  -8   62.19    9.60
   8  -8   8   64.09    5.90
   8   7  -8    3.30    4.60
  -8  -7   8    3.70    2.50
   7   7  -8   54.49    8.10
  -7  -7   8   53.99    5.80
   6   7  -8   -0.10    2.90
  -6  -7   8    0.20    2.10
   5   7  -8  102.79   10.10
  -5  -7   8   97.49    8.60
   4   7  -8    3.30    2.70
  -4  -7   8    0.20    1.80
   3   7  -8   51.39    6.20
  -3  -7   8   59.59    5.40
   2   7  -8   19.00    3.50
  -2  -7   8   18.50    2.90
   1   7  -8    0.00    1.70
  -1  -7   8   -0.40    1.20
   0   7  -8    6.00    1.80
   0  -7   8    5.50    1.60
  -1   7  -8   25.80    4.40
  -1   7  -8   23.00    2.80
   1  -7   8   23.80    3.00
  -2   7  -8   -0.40    2.60
  -2   7  -8    0.20    0.90
   2  -7   8    0.70    1.20
  -3   7  -8   51.79    5.80
  -3   7  -8   37.60    6.10
   3  -7   8   45.40    4.40
   3  -7   8   47.50    4.50
  -4   7  -8   12.90    2.90
  -4   7  -8   11.10    4.10
  -4   7  -8    8.00    3.40
   4  -7   8    7.70    1.30
   4  -7   8    8.90    1.90
   4  -7   8    8.80    1.70
  -5   7  -8    1.90    3.30
  -5   7  -8    2.60    1.10
  -5   7  -8    0.20    2.20
   5  -7   8    4.40    1.50
   5  -7   8    4.40    1.00
  -6   7  -8    0.30    2.30
  -6   7  -8    1.70    1.40
  -6   7  -8    1.20    3.30
   6  -7   8    2.20    1.40
  -7   7  -8    0.00    1.70
  -7   7  -8   -4.10    3.60
  -7   7  -8    1.70    2.50
   7  -7   8   -0.60    1.40
  -8   7  -8    5.30    4.50
  -8   7  -8    6.70    2.30
   8  -7   8    2.80    1.70
  -9   7  -8   48.30    5.90
  -9   7  -8   39.50    7.70
   9  -7   8   47.00    4.90
   8   6  -8   15.50    5.70
  -8  -6   8   13.50    3.20
   7   6  -8    6.00    4.30
  -7  -6   8   -1.10    1.70
   6   6  -8    4.90    3.50
  -6  -6   8   -0.60    1.60
   5   6  -8    1.80    2.70
  -5  -6   8   -1.60    1.50
   4   6  -8   81.39    8.30
  -4  -6   8   80.99    7.10
   3   6  -8   36.70    5.00
  -3  -6   8   32.00    3.80
   2   6  -8   18.60    3.20
  -2  -6   8   14.60    2.40
   1   6  -8   32.70    4.60
   1   6  -8   33.70    4.20
  -1  -6   8   32.20    3.50
   0   6  -8    3.70    2.40
   0   6  -8   -0.30    1.30
   0  -6   8    0.20    1.00
  -1   6  -8   25.60    4.40
  -1   6  -8   21.10    2.80
   1  -6   8   26.30    2.80
  -2   6  -8   53.69    5.90
  -2   6  -8   53.79    6.70
  -2   6  -8   53.29    4.50
  -2   6  -8   63.49    4.80
   2  -6   8   57.99    5.30
   2  -6   8   62.79    5.10
  -3   6  -8   41.30    3.30
  -3   6  -8   38.50    5.90
  -3   6  -8   40.50    3.00
  -3   6  -8   39.70    5.40
   3  -6   8   40.20    3.90
   3  -6   8   34.30    3.70
  -4   6  -8   22.40    4.30
  -4   6  -8   20.30    3.10
  -4   6  -8   14.50    1.70
  -4   6  -8   18.60    4.40
   4  -6   8   13.10    1.70
   4  -6   8   11.00    2.00
  -5   6  -8   13.40    2.00
  -5   6  -8   12.80    3.80
  -5   6  -8   13.90    2.90
  -5   6  -8   17.80    4.40
   5  -6   8   16.70    1.80
   5  -6   8   11.90    1.90
  -6   6  -8   66.29    7.00
  -6   6  -8   73.89    8.90
   6  -6   8   73.89    5.70
   6  -6   8   81.19    6.40
  -7   6  -8   40.30    4.50
  -7   6  -8   39.60    6.90
  -7   6  -8   38.30    5.50
   7  -6   8   47.50    4.30
   7  -6   8   40.40    3.50
  -8   6  -8    0.80    1.90
  -8   6  -8    5.00    4.50
  -8   6  -8    4.80    2.90
   8  -6   8    0.40    1.30
   8  -6   8    1.30    0.90
  -9   6  -8   38.60    7.80
  -9   6  -8   34.80    5.00
   9  -6   8   35.20    4.10
 -10   6  -8   -1.50    4.10
  10  -6   8    0.10    1.50
  -9  -5   8    2.40    2.20
   8   5  -8   10.90    4.90
  -8  -5   8   -0.80    2.10
  -8  -5   8    0.60    1.90
   7   5  -8   13.40    4.60
  -7  -5   8    9.50    2.70
   6   5  -8   12.00    4.30
  -6  -5   8    9.10    2.50
   5   5  -8   29.40    5.10
  -5  -5   8   23.00    3.30
   4   5  -8  130.09   11.40
  -4  -5   8  122.79   10.00
   3   5  -8   12.90    3.10
  -3  -5   8   10.70    2.10
   2   5  -8   51.49    5.10
   2   5  -8   36.80    4.80
  -2  -5   8   39.80    4.10
   1   5  -8   -0.30    2.00
   1   5  -8    2.10    1.70
  -1  -5   8    0.60    1.30
   0   5  -8   19.40    3.50
   0   5  -8   18.00    2.80
   0  -5   8   16.00    2.30
  -1   5  -8    3.20    2.40
  -1   5  -8    1.30    1.30
   1  -5   8    1.60    1.20
   1  -5   8   -0.10    1.30
  -2   5  -8    1.30    0.60
  -2   5  -8    0.80    1.00
  -2   5  -8   -2.40    2.10
  -2   5  -8   -1.70    1.80
   2  -5   8   -0.60    1.00
   2  -5   8    0.50    1.00
  -3   5  -8   -1.60    1.90
  -3   5  -8   -2.00    2.10
  -3   5  -8    1.70    1.40
  -3   5  -8    0.40    0.60
  -3   5  -8    0.70    0.90
   3  -5   8    1.40    1.00
   3  -5   8    2.20    1.10
  -4   5  -8   40.80    4.10
  -4   5  -8   29.00    5.30
  -4   5  -8   33.70    5.30
  -4   5  -8   39.60    3.40
   4  -5   8   38.40    3.60
   4  -5   8   34.10    3.50
   4  -5   8   37.90    3.20
  -5   5  -8    1.50    2.60
  -5   5  -8   -0.30    1.30
  -5   5  -8    0.90    1.60
  -5   5  -8    0.40    2.40
   5  -5   8    1.10    1.00
   5  -5   8    1.40    0.70
  -6   5  -8  121.29   11.10
  -6   5  -8  115.39    9.10
  -6   5  -8  116.59   11.10
  -6   5  -8  108.29    9.50
   6  -5   8  109.79    8.40
  -7   5  -8    5.10    2.40
  -7   5  -8    4.30    3.70
   7  -5   8    3.20    1.00
   7  -5   8    2.30    1.30
  -8   5  -8   34.70    4.50
  -8   5  -8   36.10    5.30
  -8   5  -8   29.40    6.30
   8  -5   8   39.10    3.90
   8  -5   8   38.60    3.30
  -9   5  -8   16.60    3.50
  -9   5  -8   10.70    5.00
  -9   5  -8   19.10    4.30
   9  -5   8   22.40    2.30
   9  -5   8   17.80    2.80
 -10   5  -8   36.60    5.20
 -10   5  -8   24.30    6.90
  10  -5   8   35.20    4.00
  -9  -4   8   -4.40    2.40
   8   4  -8   28.10    6.50
  -8  -4   8   23.30    3.60
  -8  -4   8   27.80    3.50
   7   4  -8   78.79    9.70
  -7  -4   8   71.49    6.40
  -7  -4   8   64.69    6.40
   6   4  -8    6.70    3.60
  -6  -4   8    0.40    1.80
  -6  -4   8    2.80    1.70
   5   4  -8   43.00    4.50
   5   4  -8   44.20    6.40
  -5  -4   8   40.70    4.50
   4   4  -8   73.39    6.20
   4   4  -8   62.19    7.40
  -4  -4   8   67.69    6.10
   3   4  -8   49.50    4.70
   3   4  -8   46.40    5.70
  -3  -4   8   45.80    4.60
   2   4  -8    3.00    1.60
   2   4  -8    2.00    2.10
  -2  -4   8    3.70    1.40
   1   4  -8   35.30    4.60
   1   4  -8   55.19    5.10
  -1  -4   8   39.90    4.00
   0   4  -8    2.40    1.60
   0   4  -8    0.50    2.00
   0  -4   8    1.20    1.30
   0  -4   8    1.20    1.10
  -1   4  -8   74.29    6.80
  -1   4  -8   60.69    6.00
  -1   4  -8   67.49    5.90
   1  -4   8   67.79    5.50
   1  -4   8   66.19    5.80
  -2   4  -8    0.40    1.20
  -2   4  -8    3.40    2.00
  -2   4  -8   -1.10    1.80
  -2   4  -8    1.30    0.80
   2  -4   8    1.50    1.00
   2  -4   8    0.50    1.00
  -3   4  -8    2.00    2.10
  -3   4  -8    1.40    1.10
  -3   4  -8    1.60    2.30
  -3   4  -8    1.60    1.20
  -3   4  -8    1.40    0.70
   3  -4   8    1.60    1.20
   3  -4   8    2.10    1.00
  -4   4  -8   25.80    2.80
  -4   4  -8   18.60    4.00
  -4   4  -8   25.10    3.00
  -4   4  -8   20.70    4.10
   4  -4   8   19.30    2.40
   4  -4   8   21.00    2.40
   4  -4   8   20.60    2.10
  -5   4  -8   -0.80    2.60
  -5   4  -8    1.00    1.50
  -5   4  -8    1.50    2.50
  -5   4  -8    1.80    1.40
   5  -4   8    1.20    1.00
   5  -4   8    1.20    0.70
  -6   4  -8   -0.40    2.80
  -6   4  -8   -1.70    2.40
  -6   4  -8   -0.70    1.50
  -6   4  -8    0.50    1.50
   6  -4   8   -2.00    0.60
  -7   4  -8    9.80    4.10
  -7   4  -8    8.60    2.30
  -7   4  -8    8.10    2.60
  -7   4  -8   11.00    4.30
   7  -4   8    9.20    1.70
   7  -4   8    8.40    1.30
  -8   4  -8   26.80    4.60
  -8   4  -8   38.70    6.70
  -8   4  -8   30.90    4.20
   8  -4   8   37.80    3.00
   8  -4   8   30.00    3.50
  -9   4  -8    0.50    2.60
  -9   4  -8   -3.10    1.80
  -9   4  -8   -0.30    4.10
   9  -4   8    0.30    0.90
   9  -4   8   -1.50    1.10
 -10   4  -8    1.00    3.30
 -10   4  -8   -1.30    2.40
 -10   4  -8    1.90    3.90
  10  -4   8   -0.40    1.10
  10  -4   8    0.50    1.20
 -11   4  -8   19.40    4.10
 -11   4  -8    8.80    5.30
  11  -4   8   16.00    2.20
  11  -4   8   13.00    2.40
  -9  -3   8    4.40    2.40
  -8  -3   8  317.87   23.80
   7   3  -8   19.00    3.30
   7   3  -8   35.50    6.70
   7   3  -8   27.30    3.60
  -7  -3   8   27.30    3.40
  -7  -3   8   37.40    4.10
   6   3  -8   91.29    9.50
   6   3  -8   72.89    7.20
   6   3  -8   94.89    7.40
  -6  -3   8   81.89    7.30
  -6  -3   8   79.59    7.10
   5   3  -8   14.30    2.50
   5   3  -8   10.60    2.30
   5   3  -8   18.50    4.30
  -5  -3   8    8.90    2.00
  -5  -3   8   10.90    2.30
   4   3  -8   10.00    2.30
   4   3  -8   14.90    3.90
   4   3  -8   18.00    2.50
  -4  -3   8   14.90    2.40
  -4  -3   8   15.20    2.30
   3   3  -8    7.90    2.80
   3   3  -8    8.50    1.90
  -3  -3   8    8.40    1.90
  -3  -3   8    6.20    1.70
   2   3  -8   11.60    2.10
   2   3  -8    9.90    3.00
  -2  -3   8    9.50    1.90
  -2  -3   8   12.00    2.10
   1   3  -8  231.78   18.60
   1   3  -8  253.77   19.40
  -1  -3   8  259.27   18.70
  -1  -3   8  268.67   18.60
   0   3  -8   95.39    7.50
   0   3  -8   72.69    7.00
   0  -3   8   74.69    6.30
   0  -3   8   77.99    6.50
  -1   3  -8   85.29    7.50
  -1   3  -8   76.99    7.10
  -1   3  -8   79.69    7.00
   1  -3   8   77.39    6.40
   1  -3   8   84.69    6.70
  -2   3  -8    9.50    2.00
  -2   3  -8    6.70    2.40
  -2   3  -8    9.80    2.70
   2  -3   8    8.80    1.50
   2  -3   8    6.50    1.50
  -3   3  -8  392.46   32.00
  -3   3  -8  418.36   32.10
  -3   3  -8  452.35   31.20
   3  -3   8  445.16   30.80
   3  -3   8  439.16   31.10
  -4   3  -8   50.59    4.20
  -4   3  -8   50.29    4.50
  -4   3  -8   44.50    5.90
  -4   3  -8   45.80    6.10
   4  -3   8   46.30    4.10
   4  -3   8   41.90    3.70
  -5   3  -8   24.10    3.10
  -5   3  -8   24.10    4.60
  -5   3  -8   28.60    3.30
  -5   3  -8   17.20    4.00
   5  -3   8   25.10    2.50
   5  -3   8   22.20    2.20
  -6   3  -8    2.70    1.70
  -6   3  -8    2.90    1.80
  -6   3  -8   -2.50    2.10
  -6   3  -8   -1.90    2.60
   6  -3   8    5.20    1.00
   6  -3   8    2.80    1.00
  -7   3  -8    5.30    2.20
  -7   3  -8    4.80    2.10
  -7   3  -8    5.10    3.00
  -7   3  -8   -0.80    3.30
   7  -3   8    5.30    1.10
  -8   3  -8    8.70    3.80
  -8   3  -8    9.90    4.10
  -8   3  -8    7.80    2.70
   8  -3   8    6.30    1.10
   8  -3   8    5.40    1.50
  -9   3  -8   17.00    3.90
  -9   3  -8   15.20    3.50
  -9   3  -8   13.50    4.80
   9  -3   8   17.30    2.10
   9  -3   8   20.60    2.60
 -10   3  -8   24.30    4.90
 -10   3  -8   29.20    4.70
 -10   3  -8   34.90    7.20
  10  -3   8   29.20    2.90
  10  -3   8   29.90    3.50
 -11   3  -8    3.30    5.20
 -11   3  -8    9.30    3.50
  11  -3   8    4.70    1.50
  11  -3   8    4.70    1.70
  -9  -2   8    8.30    2.90
   8   2  -8   32.60    4.60
   8   2  -8   49.60    5.30
  -8  -2   8   42.50    5.20
   7   2  -8    2.40    3.70
   7   2  -8    3.80    2.00
   7   2  -8    0.00    2.00
  -7  -2   8    2.70    1.60
  -7  -2   8    1.20    2.10
   6   2  -8    0.30    3.40
   6   2  -8    1.30    1.80
   6   2  -8    4.70    1.90
  -6  -2   8    1.20    1.80
  -6  -2   8    0.80    1.50
   5   2  -8    0.40    1.40
   5   2  -8    0.40    1.50
   5   2  -8    0.60    2.90
  -5  -2   8   -0.10    1.40
  -5  -2   8    1.30    1.20
   4   2  -8   29.00    3.50
   4   2  -8   29.10    3.50
   4   2  -8   30.10    5.10
  -4  -2   8   25.30    3.00
  -4  -2   8   25.50    3.20
   3   2  -8   27.30    3.20
   3   2  -8   21.50    4.30
   3   2  -8   21.50    3.00
  -3  -2   8   27.00    3.00
  -3  -2   8   21.30    2.90
   2   2  -8   -0.30    2.10
   2   2  -8    2.40    1.50
  -2  -2   8    1.70    1.10
  -2  -2   8    0.00    1.20
   1   2  -8  186.78   14.30
   1   2  -8  189.38   15.10
  -1  -2   8  185.18   14.20
  -1  -2   8  198.58   14.20
   0   2  -8    1.60    1.40
   0   2  -8    2.20    2.00
   0   2  -8    0.90    1.30
   0  -2   8    0.50    1.10
   0  -2   8    0.80    1.00
  -1   2  -8   95.29    7.20
  -1   2  -8   66.89    6.80
  -1   2  -8   72.99    6.90
   1  -2   8   74.69    6.30
   1  -2   8   81.19    6.20
  -2   2  -8  571.84   41.00
  -2   2  -8  539.85   41.30
  -2   2  -8  604.94   41.40
   2  -2   8  567.44   40.40
   2  -2   8  554.04   40.60
  -3   2  -8   66.29    6.50
  -3   2  -8   63.29    5.90
  -3   2  -8   69.19    6.80
   3  -2   8   70.59    5.50
   3  -2   8   63.49    5.20
  -4   2  -8    7.60    2.10
  -4   2  -8    5.80    2.50
  -4   2  -8    6.10    3.00
   4  -2   8    7.10    1.10
   4  -2   8    8.20    1.40
  -5   2  -8    0.40    2.20
  -5   2  -8    2.00    2.50
  -5   2  -8    4.20    1.40
  -5   2  -8   -0.70    1.60
   5  -2   8    1.20    1.00
   5  -2   8    0.60    0.70
  -6   2  -8   94.19    8.50
  -6   2  -8  102.79    8.90
  -6   2  -8   99.99    9.70
  -6   2  -8  101.59   10.20
   6  -2   8  109.69    7.80
   6  -2   8  110.29    7.90
  -7   2  -8   98.29    8.60
  -7   2  -8   87.29    8.30
  -7   2  -8  103.09   10.50
  -7   2  -8   94.09    9.50
   7  -2   8  105.49    7.40
  -8   2  -8    0.80    2.00
  -8   2  -8   -0.20    2.80
  -8   2  -8    2.00    2.20
  -8   2  -8   -0.70    2.70
   8  -2   8    0.20    0.60
  -9   2  -8    0.60    2.40
  -9   2  -8    7.30    4.80
   9  -2   8    2.50    1.00
   9  -2   8    1.20    1.10
 -10   2  -8   31.90    5.00
 -10   2  -8   41.80    7.70
 -10   2  -8   24.60    4.90
  10  -2   8   28.00    3.20
  10  -2   8   29.70    3.00
 -11   2  -8    3.10    5.30
 -11   2  -8   12.10    3.70
  11  -2   8    9.40    1.60
  11  -2   8    4.70    1.60
 -12   2  -8   14.50    5.50
 -12   2  -8   12.70    4.30
  12  -2   8    6.10    1.80
  12  -2   8   12.50    1.90
   9   1  -8   10.60    2.90
   9   1  -8   16.90    3.30
  -9  -1   8   11.90    3.20
   8   1  -8   10.50    2.70
   8   1  -8   11.70    2.80
  -8  -1   8    6.30    2.90
   7   1  -8   77.59    6.90
   7   1  -8   66.59    6.70
  -7  -1   8   68.29    6.70
   6   1  -8   -0.10    1.70
   6   1  -8    4.10    3.40
   6   1  -8    3.10    1.90
  -6  -1   8    2.60    1.50
  -6  -1   8    1.40    1.70
   5   1  -8    2.30    3.10
   5   1  -8    3.90    1.90
   5   1  -8    7.30    2.00
  -5  -1   8    2.20    1.80
  -5  -1   8    5.90    1.60
   4   1  -8    3.80    2.90
   4   1  -8    5.80    1.90
   4   1  -8    6.40    1.90
  -4  -1   8    6.30    1.70
  -4  -1   8    8.10    1.80
   3   1  -8  162.48   12.30
   3   1  -8  147.19   13.40
   3   1  -8  171.88   12.30
  -3  -1   8  143.69   11.90
  -3  -1   8  161.98   12.10
   2   1  -8    2.10    1.50
   2   1  -8    4.40    1.70
   2   1  -8    6.30    2.70
  -2  -1   8    6.10    1.50
  -2  -1   8    3.60    1.30
   1   1  -8  370.16   27.30
   1   1  -8  379.06   28.30
  -1  -1   8  363.46   27.20
  -1  -1   8  393.76   27.20
   0   1  -8  312.77   22.40
   0   1  -8  270.37   23.10
   0   1  -8  322.57   23.20
   0  -1   8  306.97   22.30
   0  -1   8  320.27   22.20
  -1   1  -8 1013.50   81.39
  -1   1  -8 1213.18   80.89
  -1   1  -8 1052.49   80.29
   1  -1   8 1165.78   80.19
   1  -1   8 1212.58   79.99
  -2   1  -8    3.70    2.80
  -2   1  -8    2.80    2.10
  -2   1  -8    2.00    1.90
   2  -1   8    6.50    1.40
   2  -1   8    5.30    1.10
  -3   1  -8  541.15   46.20
  -3   1  -8  651.93   44.60
  -3   1  -8  642.64   45.00
   3  -1   8  629.34   44.10
   3  -1   8  622.14   43.80
  -4   1  -8   15.70    2.80
  -4   1  -8   13.30    3.30
   4  -1   8   15.80    1.60
   4  -1   8   17.60    2.00
  -5   1  -8  145.19   13.10
  -5   1  -8  149.49   13.50
  -5   1  -8  172.08   12.80
   5  -1   8  152.78   11.60
   5  -1   8  174.08   11.90
  -6   1  -8   31.70    4.30
  -6   1  -8   25.00    3.40
  -6   1  -8   33.90    5.50
  -6   1  -8   23.40    4.50
   6  -1   8   32.30    2.70
   6  -1   8   32.80    2.80
  -7   1  -8   65.09    8.40
  -7   1  -8   80.89    7.60
  -7   1  -8   72.49    8.00
  -7   1  -8   68.99    6.90
   7  -1   8   82.09    6.00
   7  -1   8   84.59    6.10
  -8   1  -8    7.10    3.70
  -8   1  -8    4.60    2.50
  -8   1  -8    5.30    3.60
   8  -1   8    5.60    1.10
  -9   1  -8   -1.10    2.40
  -9   1  -8    2.30    3.40
   9  -1   8    0.00    1.00
   9  -1   8    0.20    0.80
 -10   1  -8   99.39   11.10
 -10   1  -8   92.09    9.40
  10  -1   8  106.39    7.70
  10  -1   8   96.89    7.90
 -11   1  -8   11.90    5.80
 -11   1  -8   21.30    4.30
  11  -1   8   16.60    2.50
  11  -1   8   18.20    2.30
 -12   1  -8    7.40    5.20
 -12   1  -8   18.00    4.70
  12  -1   8    8.20    1.90
  12  -1   8    9.40    1.80
   9   0  -8    0.70    2.20
   9   0  -8    5.20    2.70
  -9   0   8   -2.10    3.00
   8   0  -8   32.30    4.40
   8   0  -8   25.70    3.90
  -8   0   8   22.50    4.10
   7   0  -8    1.00    1.80
   7   0  -8   -0.90    1.90
  -7   0   8    1.10    2.00
   6   0  -8   23.30    3.40
   6   0  -8   16.70    3.00
  -6   0   8   18.10    2.90
  -6   0   8   15.80    2.40
   5   0  -8    2.00    1.60
   5   0  -8    2.80    3.10
   5   0  -8   -0.10    1.40
  -5   0   8    0.60    1.30
  -5   0   8    0.00    1.60
   4   0  -8   75.69    6.70
   4   0  -8   80.49    6.80
   4   0  -8   79.29    8.50
  -4   0   8   70.19    6.40
  -4   0   8   73.99    6.30
   3   0  -8  141.49   11.10
   3   0  -8  141.99   11.10
   3   0  -8  135.69   12.40
  -3   0   8  138.69   10.70
  -3   0   8  144.59   10.90
   2   0  -8    6.90    2.00
   2   0  -8    7.00    1.90
   2   0  -8    8.70    3.10
  -2   0   8    8.70    1.80
  -2   0   8    8.70    1.60
   1   0  -8    3.90    2.50
   1   0  -8    2.10    1.80
   1   0  -8    1.20    1.30
   1   0  -8    1.50    1.40
  -1   0   8    1.00    1.00
  -1   0   8    3.00    1.40
   0   0  -8   41.20    5.10
   0   0  -8   34.00    3.80
   0   0  -8   28.80    4.40
   0   0   8   37.50    3.40
   0   0   8   35.20    3.30
  -1   0  -8   38.90    4.20
  -1   0  -8   47.30    5.10
  -1   0  -8   43.30    5.40
   1   0   8   41.70    3.70
   1   0   8   43.70    3.90
  -2   0  -8  348.37   25.40
   2   0   8  335.97   24.60
   2   0   8  338.67   24.40
  -3   0  -8    1.10    2.70
  -3   0  -8   -0.30    1.80
  -3   0  -8    2.10    2.00
   3   0   8    0.20    0.90
   3   0   8    1.50    0.80
  -4   0  -8  164.08   12.80
  -4   0  -8  135.59   14.10
  -4   0  -8  165.98   12.60
   4   0   8  173.08   11.70
   4   0   8  147.29   11.40
  -5   0  -8    2.50    3.10
  -5   0  -8    2.20    2.20
  -5   0  -8    3.10    2.20
   5   0   8    1.80    0.90
   5   0   8    1.90    0.70
  -6   0  -8  136.89   15.10
  -6   0  -8  134.99   13.20
  -6   0  -8  162.98   13.00
   6   0   8  164.18   11.60
   6   0   8  176.88   11.80
  -7   0  -8  138.09   11.50
  -7   0  -8  134.79   12.20
  -7   0  -8  129.69   12.40
   7   0   8  164.38   10.90
   7   0   8  148.69   10.70
  -8   0  -8  120.09   10.70
  -8   0  -8  128.39   12.30
  -8   0  -8  126.39   11.40
  -8   0  -8  120.59   11.60
   8   0   8  133.19    9.60
   8   0   8  135.79    9.60
  -9   0  -8    0.00    3.00
  -9   0  -8   -0.50    2.20
  -9   0  -8    6.70    2.80
  -9   0  -8    1.50    3.80
   9   0   8    1.00    0.90
   9   0   8    0.30    0.80
 -10   0  -8   61.49    7.30
 -10   0  -8   64.59    7.30
 -10   0  -8   61.49    9.00
  10   0   8   72.39    5.20
  10   0   8   56.29    5.30
 -11   0  -8   -1.00    3.70
 -11   0  -8   -0.70    2.70
 -11   0  -8    0.20    3.50
  11   0   8    0.80    1.20
  11   0   8    1.60    1.10
 -12   0  -8   -0.90    3.20
 -12   0  -8    2.20    5.20
  12   0   8    4.10    1.50
  12   0   8    4.40    1.30
   9  -1  -8    4.10    2.80
   9  -1  -8   -2.30    2.00
  -9   1   8   -3.00    2.80
  -9   1   8    2.20    4.00
   8  -1  -8    4.10    2.70
   8  -1  -8    7.40    2.60
  -8   1   8    6.40    3.70
  -8   1   8    2.80    2.90
   7  -1  -8   17.50    3.10
   7  -1  -8   17.00    3.30
  -7   1   8   13.20    3.40
   6  -1  -8    5.70    2.20
   6  -1  -8    3.30    2.20
  -6   1   8    1.60    2.10
   5  -1  -8    1.50    3.40
   5  -1  -8   -2.00    1.60
   5  -1  -8    0.70    1.60
  -5   1   8    0.00    1.20
  -5   1   8    0.70    1.60
   4  -1  -8   10.20    2.30
   4  -1  -8   12.40    2.50
   4  -1  -8   12.80    4.30
  -4   1   8   11.10    1.80
  -4   1   8   13.20    2.40
   3  -1  -8    0.90    3.00
   3  -1  -8    5.40    1.70
   3  -1  -8    5.00    1.70
  -3   1   8    5.00    1.40
  -3   1   8    5.50    1.60
   2  -1  -8    1.30    1.50
   2  -1  -8    4.70    2.20
   2  -1  -8    1.40    1.40
   2  -1  -8    7.50    3.10
  -2   1   8    4.50    1.40
  -2   1   8    3.90    1.30
   1  -1  -8  186.38   16.00
   1  -1  -8  203.58   15.00
   1  -1  -8  212.88   15.90
   1  -1  -8  189.18   14.90
  -1   1   8  196.38   14.70
  -1   1   8  196.98   14.70
   0  -1  -8  179.38   13.90
   0  -1  -8  147.89   12.80
   0  -1  -8  163.08   12.80
   0  -1  -8  164.18   13.80
   0   1   8  180.08   12.50
   0   1   8  176.18   12.60
  -1  -1  -8   12.20    2.90
  -1  -1  -8   11.30    2.10
  -1  -1  -8   12.60    3.20
   1   1   8    8.80    1.60
   1   1   8    9.10    1.60
  -2  -1  -8  162.38   13.40
  -2  -1  -8  178.18   14.20
  -2  -1  -8  158.38   14.80
   2   1   8  191.18   13.00
   2   1   8  191.98   13.20
  -3  -1  -8    1.50    1.90
  -3  -1  -8    2.90    2.70
  -3  -1  -8    2.40    2.20
   3   1   8    1.50    0.80
   3   1   8    1.80    0.60
   3   1   8    0.80    0.90
  -4  -1  -8   38.50    6.80
  -4  -1  -8   54.19    5.60
  -4  -1  -8   44.80    5.30
   4   1   8   46.70    3.90
   4   1   8   45.90    3.70
  -5  -1  -8   37.20    4.90
  -5  -1  -8   32.00    6.30
  -5  -1  -8   39.40    4.90
   5   1   8   39.00    3.30
   5   1   8   47.50    3.60
  -6  -1  -8    3.10    3.60
  -6  -1  -8    5.40    1.60
  -6  -1  -8    1.70    2.40
  -6  -1  -8    5.10    2.70
   6   1   8    5.10    1.00
   6   1   8    5.50    1.10
  -7  -1  -8    0.10    2.40
  -7  -1  -8   -2.10    2.80
  -7  -1  -8    0.90    2.30
  -7  -1  -8   -1.00    1.50
   7   1   8    0.20    0.80
   7   1   8   -0.60    0.60
  -8  -1  -8   -0.40    2.60
  -8  -1  -8    1.70    2.50
  -8  -1  -8    3.10    2.00
   8   1   8    1.70    0.80
   8   1   8    2.80    1.00
  -9  -1  -8    7.80    3.80
  -9  -1  -8    3.30    2.50
  -9  -1  -8    1.80    3.40
  -9  -1  -8    3.10    2.90
   9   1   8    4.70    1.20
 -10  -1  -8   13.90    3.70
 -10  -1  -8    5.90    4.40
  10   1   8    9.40    1.80
  10   1   8   11.40    1.70
 -11  -1  -8  113.99   12.40
 -11  -1  -8  111.89   11.30
 -11  -1  -8  137.59   11.80
  11   1   8  119.09    9.00
  11   1   8  113.59    9.20
 -12  -1  -8   64.09    9.40
 -12  -1  -8   60.69    7.80
  12   1   8   47.30    4.90
  12   1   8   54.69    4.70
   9  -2  -8    1.60    2.40
   9  -2  -8    1.90    2.80
  -9   2   8    5.70    4.20
  -9   2   8   -8.10    3.20
   8  -2  -8    5.00    2.50
   8  -2  -8    2.10    2.20
  -8   2   8    4.10    3.90
  -8   2   8    3.40    3.10
   7  -2  -8    3.30    1.90
   7  -2  -8   -2.20    1.80
  -7   2   8    2.30    3.30
  -7   2   8    0.00    2.30
   6  -2  -8  117.19   10.40
   6  -2  -8  122.89   10.40
  -6   2   8  127.39   10.40
  -6   2   8  130.99   11.40
   5  -2  -8   36.70    4.20
   5  -2  -8   33.00    4.40
  -5   2   8   37.90    3.50
  -5   2   8   31.60    5.10
  -5   2   8   36.40    4.40
   4  -2  -8   48.50    5.10
   4  -2  -8   53.09    5.10
   4  -2  -8   47.70    7.00
  -4   2   8   44.50    4.20
  -4   2   8   47.00    5.00
   3  -2  -8   14.50    2.70
   3  -2  -8    9.90    2.20
   3  -2  -8   14.70    4.00
  -3   2   8   17.20    2.10
  -3   2   8   16.80    2.70
   2  -2  -8    2.60    1.50
   2  -2  -8    4.10    3.10
   2  -2  -8    2.20    1.50
  -2   2   8    2.50    1.20
  -2   2   8    0.80    1.40
   1  -2  -8    0.20    2.40
   1  -2  -8   -0.10    2.40
   1  -2  -8    2.20    1.50
   1  -2  -8    2.40    1.40
  -1   2   8    1.70    1.30
  -1   2   8    2.70    1.10
   0  -2  -8    1.40    2.30
   0  -2  -8   -0.50    1.30
   0  -2  -8    0.90    1.30
   0  -2  -8    0.30    2.50
   0   2   8    0.10    1.10
   0   2   8    1.60    1.10
  -1  -2  -8   59.89    5.70
  -1  -2  -8   69.99    7.10
  -1  -2  -8   67.09    7.30
   1   2   8   66.39    5.80
   1   2   8   68.59    5.50
   1   2   8   68.09    5.40
  -2  -2  -8    5.40    2.80
  -2  -2  -8    6.10    3.10
  -2  -2  -8    3.70    1.70
   2   2   8    3.80    1.50
   2   2   8    7.00    1.30
   2   2   8    5.10    1.20
  -3  -2  -8  479.55   39.20
  -3  -2  -8  539.95   38.30
   3   2   8  529.55   37.00
   3   2   8  490.05   36.90
   3   2   8  516.65   37.10
   3   2   8  566.74   37.20
  -4  -2  -8  424.66   31.30
  -4  -2  -8  360.06   32.30
  -4  -2  -8  444.56   31.10
   4   2   8  405.36   29.80
   4   2   8  462.85   30.20
  -5  -2  -8  116.99   10.30
  -5  -2  -8  123.79   10.80
  -5  -2  -8  100.79   11.80
   5   2   8  124.59    9.00
   5   2   8  138.99    9.30
  -6  -2  -8   28.00    6.30
  -6  -2  -8   34.90    5.20
  -6  -2  -8   27.20    4.60
   6   2   8   43.40    3.30
   6   2   8   38.50    3.10
  -7  -2  -8   47.10    7.90
  -7  -2  -8   55.49    5.60
  -7  -2  -8   58.79    7.00
  -7  -2  -8   44.90    6.50
   7   2   8   65.99    4.60
   7   2   8   61.89    4.80
  -8  -2  -8    0.40    2.90
  -8  -2  -8    2.90    2.20
  -8  -2  -8    7.50    4.50
  -8  -2  -8    6.90    3.00
   8   2   8    9.80    1.30
   8   2   8    9.80    1.50
  -9  -2  -8    5.50    4.50
  -9  -2  -8    1.40    2.30
  -9  -2  -8    4.70    3.10
  -9  -2  -8   -0.10    2.60
   9   2   8   -0.20    1.00
   9   2   8    2.50    1.10
 -10  -2  -8    0.30    2.60
 -10  -2  -8    2.80    3.90
  10   2   8    1.70    1.10
  10   2   8   -0.40    0.90
 -11  -2  -8   26.90    5.50
 -11  -2  -8   18.80    4.90
 -11  -2  -8   29.50    6.60
  11   2   8   27.50    3.00
  11   2   8   28.90    3.00
 -12  -2  -8    4.30    4.50
 -12  -2  -8   -1.80    3.30
  12   2   8    1.10    1.20
  12   2   8   -0.20    1.20
   9  -3  -8   51.69    6.40
   9  -3  -8   56.19    7.00
  -9   3   8   53.89    7.10
  -9   3   8   58.69    8.00
   8  -3  -8   12.20    3.30
   8  -3  -8    9.70    2.80
  -8   3   8    6.20    3.50
  -8   3   8   13.80    4.60
   7  -3  -8   28.20    4.20
   7  -3  -8   32.20    4.70
  -7   3   8   36.20    5.20
  -7   3   8   43.50    6.20
   6  -3  -8   17.40    3.40
   6  -3  -8   12.20    2.90
  -6   3   8   16.10    4.40
  -6   3   8   11.80    3.40
   5  -3  -8   31.60    4.20
   5  -3  -8   30.40    4.00
  -5   3   8   33.10    4.20
  -5   3   8   29.70    4.80
   4  -3  -8   22.80    3.60
   4  -3  -8   27.80    3.90
  -4   3   8   37.90    3.20
  -4   3   8   29.60    3.80
  -4   3   8   28.30    4.70
   3  -3  -8   99.39    8.00
   3  -3  -8   97.89    9.80
   3  -3  -8   89.19    7.90
  -3   3   8   92.99    7.20
  -3   3   8   86.99    8.50
  -3   3   8   83.59    7.70
   2  -3  -8  229.98   17.40
   2  -3  -8  221.98   18.70
   2  -3  -8  221.88   17.30
  -2   3   8  229.68   17.80
  -2   3   8  237.78   17.20
  -2   3   8  235.58   16.90
   1  -3  -8   18.70    2.80
   1  -3  -8   15.10    2.60
   1  -3  -8   12.30    3.80
  -1   3   8   17.50    3.00
  -1   3   8   16.30    2.00
  -1   3   8   13.70    2.30
   0  -3  -8  149.49   11.10
   0  -3  -8  144.39   12.30
   0  -3  -8  132.89   11.10
   0   3   8  140.29   11.10
   0   3   8  136.49   10.80
   0   3   8  143.89   10.60
  -1  -3  -8   64.39    5.90
  -1  -3  -8   48.90    5.70
  -1  -3  -8   85.79    8.00
  -1  -3  -8   63.79    7.30
   1   3   8   72.69    5.50
   1   3   8   66.09    5.60
   1   3   8   71.19    5.90
  -2  -3  -8   89.09    9.20
  -2  -3  -8   85.29    8.30
  -2  -3  -8   80.49    7.10
   2   3   8   78.39    6.20
   2   3   8   84.19    6.90
   2   3   8   84.59    6.70
   2   3   8   90.59    6.60
  -3  -3  -8   27.40    3.50
  -3  -3  -8   23.10    5.00
  -3  -3  -8   37.90    5.10
   3   3   8   34.40    2.90
   3   3   8   29.40    3.10
   3   3   8   24.00    2.70
   3   3   8   26.90    2.40
  -4  -3  -8  131.69   13.30
  -4  -3  -8  158.18   12.40
  -4  -3  -8  157.48   11.90
   4   3   8  140.99   10.40
   4   3   8  153.78   10.80
   4   3   8  136.29   10.50
   4   3   8  134.89   10.60
  -5  -3  -8   74.59    9.40
  -5  -3  -8   91.89    8.10
  -5  -3  -8   90.29    8.70
   5   3   8   93.49    6.80
   5   3   8   84.79    6.50
  -6  -3  -8    0.40    2.70
  -6  -3  -8    4.70    2.40
  -6  -3  -8    3.60    3.30
   6   3   8    3.20    0.80
   6   3   8    3.60    1.10
  -7  -3  -8   -0.80    1.50
  -7  -3  -8    1.90    3.30
  -7  -3  -8   -1.20    2.20
  -7  -3  -8    0.80    2.70
   7   3   8    0.80    0.90
   7   3   8    1.10    0.70
  -8  -3  -8    1.00    1.90
  -8  -3  -8    1.10    3.40
  -8  -3  -8   -0.70    3.10
  -8  -3  -8    4.10    2.60
   8   3   8    1.90    1.10
   8   3   8    1.20    0.80
  -9  -3  -8   10.60    3.10
  -9  -3  -8    1.50    4.00
  -9  -3  -8    6.80    3.50
  -9  -3  -8   13.60    4.00
   9   3   8    8.20    1.40
   9   3   8    7.40    1.60
 -10  -3  -8    5.90    5.40
 -10  -3  -8    5.80    3.20
  10   3   8    9.80    1.60
  10   3   8    9.00    1.60
 -11  -3  -8    6.60    4.60
 -11  -3  -8   -0.40    3.30
  11   3   8    3.20    1.10
  11   3   8    1.90    1.40
 -12  -3  -8   39.00    8.10
 -12  -3  -8   42.90    7.00
  12   3   8   45.80    4.00
  12   3   8   37.90    4.10
   8  -4  -8    5.60    3.10
   8  -4  -8    6.30    2.80
  -8   4   8    8.30    3.30
  -8   4   8    2.80    4.00
   7  -4  -8    5.70    2.70
   7  -4  -8    4.10    2.90
  -7   4   8    2.70    2.90
  -7   4   8    1.50    3.60
   6  -4  -8    0.80    2.10
   6  -4  -8    1.00    1.80
  -6   4   8   -1.10    2.80
  -6   4   8    1.00    3.40
   5  -4  -8   64.59    6.30
   5  -4  -8   62.19    6.40
  -5   4   8   69.29    7.10
  -5   4   8   57.19    6.40
   4  -4  -8  161.58   12.80
   4  -4  -8  162.68   12.70
  -4   4   8  157.18   11.80
  -4   4   8  151.18   12.60
  -4   4   8  156.88   13.30
   3  -4  -8   51.69    5.60
   3  -4  -8   63.39    6.00
  -3   4   8   62.09    6.40
  -3   4   8   65.09    6.00
  -3   4   8   61.79    5.00
   2  -4  -8   58.09    6.00
   2  -4  -8   67.79    6.00
  -2   4   8   64.09    5.20
  -2   4   8   64.79    6.00
  -2   4   8   59.19    6.50
   1  -4  -8  188.38   16.10
   1  -4  -8  180.38   14.70
   1  -4  -8  195.18   14.80
  -1   4   8  196.98   14.80
  -1   4   8  195.18   15.10
  -1   4   8  199.98   14.30
   0  -4  -8    4.30    1.80
   0  -4  -8    5.50    1.90
   0  -4  -8    3.80    3.00
   0   4   8    3.00    2.00
   0   4   8    2.70    1.10
   0   4   8    3.80    1.60
  -1  -4  -8   75.19    7.90
  -1  -4  -8   83.19    6.40
  -1  -4  -8   63.29    6.20
   1   4   8   67.89    6.50
   1   4   8   72.29    6.20
   1   4   8   81.29    5.90
   1   4   8   65.99    5.40
  -2  -4  -8    1.30    2.90
  -2  -4  -8    0.20    1.50
  -2  -4  -8   -1.00    2.60
   2   4   8   -0.20    0.50
   2   4   8    0.40    0.80
   2   4   8    0.40    1.50
   2   4   8   -0.70    1.20
  -3  -4  -8   -6.00    2.10
  -3  -4  -8   -2.10    1.40
  -3  -4  -8    1.20    3.00
   3   4   8    0.10    0.80
   3   4   8    0.30    1.30
   3   4   8    1.70    0.70
   3   4   8    0.60    1.10
  -4  -4  -8   46.50    7.10
  -4  -4  -8   53.49    5.70
  -4  -4  -8   49.20    6.50
   4   4   8   54.79    4.10
   4   4   8   46.20    4.40
   4   4   8   57.89    4.50
  -5  -4  -8    1.60    3.40
  -5  -4  -8    4.50    3.10
  -5  -4  -8   -1.70    2.00
   5   4   8    1.10    0.70
   5   4   8    0.10    0.90
  -6  -4  -8   16.20    3.50
  -6  -4  -8   14.80    4.80
  -6  -4  -8   14.30    3.80
   6   4   8   18.40    2.20
   6   4   8   18.80    1.80
  -7  -4  -8    8.40    3.10
  -7  -4  -8   12.10    2.50
  -7  -4  -8   11.20    3.70
  -7  -4  -8   11.30    4.60
   7   4   8   16.00    1.70
   7   4   8   15.10    2.00
  -8  -4  -8    2.70    2.70
  -8  -4  -8    0.80    3.10
  -8  -4  -8    3.80    2.10
  -8  -4  -8    2.10    3.90
   8   4   8    4.50    1.10
   8   4   8    2.00    1.30
  -9  -4  -8    1.10    4.30
  -9  -4  -8    4.80    3.20
  -9  -4  -8    2.50    2.90
  -9  -4  -8    1.00    2.20
   9   4   8    2.20    1.00
   9   4   8   -1.20    1.30
 -10  -4  -8   13.20    6.50
 -10  -4  -8   12.80    3.90
  10   4   8   14.50    1.90
  10   4   8   14.70    2.30
  10   4   8   16.10    2.20
  11   4   8   12.50    2.00
 -12  -4  -8    1.70    4.80
  12   4   8   -0.60    1.20
   8  -5  -8   18.20    4.20
   8  -5  -8   11.90    3.50
  -8   5   8    9.30    4.90
  -8   5   8    9.10    3.80
   7  -5  -8    3.90    3.10
   7  -5  -8    1.20    2.50
  -7   5   8   -2.50    4.10
  -7   5   8   -2.50    3.30
   6  -5  -8    3.10    2.40
   6  -5  -8    1.80    2.60
  -6   5   8    2.40    3.50
  -6   5   8   -1.00    2.80
   5  -5  -8   -0.90    1.90
   5  -5  -8    1.90    2.40
  -5   5   8    0.90    2.50
  -5   5   8   -0.70    2.80
   4  -5  -8   16.00    3.20
   4  -5  -8    9.30    2.50
  -4   5   8    9.50    3.70
  -4   5   8   13.00    3.20
   3  -5  -8  287.77   21.30
   3  -5  -8  265.07   21.10
  -3   5   8  271.27   21.70
  -3   5   8  270.57   21.20
  -3   5   8  298.77   20.40
   2  -5  -8   73.89    7.10
   2  -5  -8   79.99    7.20
  -2   5   8   71.99    7.10
  -2   5   8   79.39    7.70
  -2   5   8   89.29    6.50
   1  -5  -8  498.35   36.20
   1  -5  -8  472.75   36.20
  -1   5   8  493.35   36.30
  -1   5   8  485.25   36.60
  -1   5   8  538.65   35.80
   0  -5  -8   -0.30    1.60
   0  -5  -8    4.80    3.40
   0  -5  -8    0.10    1.50
   0   5   8   -1.10    1.50
   0   5   8   -1.20    0.50
   0   5   8    1.30    1.00
   0   5   8    1.10    2.00
  -1  -5  -8   32.20    3.90
  -1  -5  -8   30.50    3.90
  -1  -5  -8   39.60    5.70
   1   5   8   29.30    3.80
   1   5   8   34.00    4.30
   1   5   8   34.10    2.80
   1   5   8   38.40    3.30
  -2  -5  -8   15.50    2.60
  -2  -5  -8   21.40    4.40
  -2  -5  -8   24.90    5.80
   2   5   8   18.20    2.10
   2   5   8   15.10    1.60
   2   5   8   12.00    2.70
   2   5   8   15.20    2.40
  -3  -5  -8   94.69    9.80
  -3  -5  -8   79.29    8.50
  -3  -5  -8   67.79    6.60
   3   5   8   87.59    6.40
   3   5   8   71.29    6.60
   3   5   8   77.59    5.80
  -4  -5  -8  433.36   28.50
  -4  -5  -8  366.16   29.10
  -4  -5  -8  369.16   30.50
   4   5   8  337.07   27.50
   4   5   8  406.16   27.60
   4   5   8  385.66   27.20
  -5  -5  -8    4.20    2.30
  -5  -5  -8    0.30    3.10
  -5  -5  -8    0.40    2.80
   5   5   8    0.10    0.60
   5   5   8    0.10    1.00
  -6  -5  -8    0.60    3.30
  -6  -5  -8   -2.40    2.90
  -6  -5  -8   -0.20    2.00
   6   5   8    1.10    1.10
   6   5   8    1.90    0.80
  -7  -5  -8  100.79    9.90
  -7  -5  -8   80.59   10.90
  -7  -5  -8   76.59    8.70
   7   5   8  103.59    7.80
   7   5   8  107.69    7.30
  -8  -5  -8   77.39   11.30
  -8  -5  -8  105.29    9.40
  -8  -5  -8   88.09    8.70
  -8  -5  -8  113.99   10.50
   8   5   8  101.39    8.00
   8   5   8  109.59    7.60
  -9  -5  -8  171.78   19.20
  -9  -5  -8  228.78   18.30
  -9  -5  -8  204.68   16.50
  -9  -5  -8  189.08   16.10
   9   5   8  223.38   14.80
   9   5   8  186.68   15.00
 -10  -5  -8   35.60    8.50
  10   5   8   37.10    3.90
  10   5   8   34.80    3.50
 -11  -5  -8    5.20    5.20
  11   5   8    4.20    1.50
  12   5   8   10.00    2.10
   7  -6  -8   -0.30    2.90
   7  -6  -8    0.30    2.50
  -7   6   8    4.70    3.50
  -7   6   8   -6.00    4.00
   6  -6  -8   10.00    3.20
   6  -6  -8    6.90    2.60
  -6   6   8   11.80    4.00
  -6   6   8    9.70    4.60
   5  -6  -8   16.50    3.40
   5  -6  -8   21.10    3.90
  -5   6   8   20.10    4.70
  -5   6   8   25.70    4.30
   4  -6  -8   35.60    4.70
   4  -6  -8   23.90    3.90
  -4   6   8   19.60    4.40
  -4   6   8   30.30    5.40
   3  -6  -8   10.00    2.60
   3  -6  -8   17.20    3.30
  -3   6   8    1.60    2.50
  -3   6   8   17.20    4.00
  -3   6   8   13.00    1.90
   2  -6  -8    9.20    2.40
   2  -6  -8    8.10    2.50
  -2   6   8    4.60    2.70
  -2   6   8    7.70    3.30
  -2   6   8   10.40    1.70
   1  -6  -8   19.60    3.30
   1  -6  -8   28.20    3.70
  -1   6   8   20.40    3.50
  -1   6   8   31.30    3.00
  -1   6   8   20.20    3.90
   0  -6  -8  456.35   32.40
   0  -6  -8  431.16   32.40
   0   6   8  475.35   32.00
   0   6   8  448.26   32.90
   0   6   8  402.66   32.40
  -1  -6  -8   -0.40    1.70
  -1  -6  -8    1.90    1.60
   1   6   8   -0.80    0.90
   1   6   8    0.60    1.70
   1   6   8    0.50    2.10
  -2  -6  -8  168.28   13.40
   2   6   8  169.88   13.60
   2   6   8  182.48   13.10
  -3  -6  -8  123.09   11.70
  -3  -6  -8  189.18   15.90
   3   6   8  150.38   11.80
   3   6   8  159.08   11.00
   3   6   8  155.08   11.50
  -4  -6  -8   56.09    8.10
  -4  -6  -8   56.09    5.60
   4   6   8   40.40    4.30
   4   6   8   50.69    3.80
  -5  -6  -8  241.08   21.90
  -5  -6  -8  253.57   19.40
   5   6   8  250.77   18.60
   5   6   8  260.17   18.10
  -6  -6  -8   34.80    4.90
  -6  -6  -8   32.70    7.30
   6   6   8   42.50    3.30
   6   6   8   43.00    4.00
  -7  -6  -8   10.00    5.00
  -7  -6  -8   15.80    3.40
   7   6   8   15.20    2.30
   7   6   8   12.40    1.60
  -8  -6  -8   15.20    6.20
   8   6   8   17.60    2.60
   8   6   8   16.90    2.00
  -9  -6  -8    1.70    4.50
   9   6   8    6.50    1.40
   9   6   8    5.00    1.80
 -10  -6  -8   96.19   12.90
  10   6   8   79.99    7.30
  10   6   8   89.49    7.00
 -11  -6  -8   32.60    8.70
  11   6   8   33.60    3.40
 -12  -6  -8   26.80    7.80
  12   6   8   13.50    2.50
   6  -7  -8   -3.10    2.30
   6  -7  -8   -0.60    2.80
  -6   7   8   -0.80    3.00
  -6   7   8    2.80    4.00
   5  -7  -8   36.10    5.00
   5  -7  -8   40.80    5.50
  -5   7   8   34.00    5.60
  -5   7   8   36.40    6.40
   4  -7  -8    6.10    2.30
   4  -7  -8    8.20    2.80
  -4   7   8    7.80    3.10
  -4   7   8   11.70    4.20
   3  -7  -8    2.80    2.40
   3  -7  -8    1.50    1.90
  -3   7   8   -2.60    2.60
  -3   7   8   -0.10    3.40
   2  -7  -8    9.00    2.40
   2  -7  -8   14.40    3.00
  -2   7   8   15.40    2.10
  -2   7   8   14.30    3.30
  -2   7   8    6.40    3.60
   1  -7  -8  164.38   12.50
   1  -7  -8  148.49   12.40
  -1   7   8  150.38   13.10
  -1   7   8  160.78   11.80
  -1   7   8  146.79   12.50
   0  -7  -8   58.89    6.20
   0  -7  -8   71.59    6.40
   0   7   8   62.69    6.40
   0   7   8   75.89    5.80
   0   7   8   57.59    7.00
  -1  -7  -8  184.38   15.50
  -1  -7  -8  205.58   15.50
   1   7   8  206.78   16.00
   1   7   8  213.38   15.20
  -2  -7  -8   55.79    5.80
   2   7   8   59.99    6.20
   2   7   8   66.99    5.40
  -3  -7  -8  147.59   11.90
   3   7   8  154.18   11.70
   3   7   8  156.18   12.10
  -4  -7  -8    4.40    2.40
  -4  -7  -8    2.40    4.40
   4   7   8    3.90    1.50
  -5  -7  -8   95.99    8.30
  -5  -7  -8  101.49   11.60
   5   7   8   82.79    7.40
   5   7   8   91.29    6.80
  -6  -7  -8   80.59   10.90
   6   7   8   88.99    6.30
   6   7   8   72.89    6.80
  -7  -7  -8    2.20    4.30
   7   7   8    6.60    1.90
   7   7   8    3.90    1.00
  -8  -7  -8    6.60    5.30
   8   7   8    7.40    1.90
   8   7   8    3.40    1.10
  -9  -7  -8    7.70    5.30
   9   7   8    3.20    1.70
   9   7   8    0.60    1.10
 -10  -7  -8   21.80    7.80
  10   7   8   16.00    2.30
  10   7   8   13.90    2.80
 -11  -7  -8   41.40    9.10
  11   7   8   29.20    3.50
  11   7   8   32.20    4.00
   6  -8  -8    9.30    3.40
   6  -8  -8    3.60    2.70
   5  -8  -8    4.50    2.70
   5  -8  -8    7.40    3.20
  -5   8   8    0.80    3.80
  -5   8   8    0.10    4.50
   4  -8  -8    5.00    2.60
   4  -8  -8   13.50    3.40
  -4   8   8    3.50    4.20
  -4   8   8   -1.00    3.30
   3  -8  -8    3.70    2.60
   3  -8  -8    0.00    2.20
  -3   8   8   -4.70    2.90
  -3   8   8   -2.90    2.60
   2  -8  -8   -2.10    2.00
   2  -8  -8   -2.90    1.80
  -2   8   8   -4.70    2.30
  -2   8   8    0.10    3.10
   1  -8  -8   -2.30    2.00
   1  -8  -8    0.00    1.90
  -1   8   8   -0.20    1.40
  -1   8   8   -1.10    2.70
   0  -8  -8   67.69    6.40
   0  -8  -8   64.69    6.20
   0   8   8   57.09    7.10
   0   8   8   62.59    5.70
  -1  -8  -8   30.80    3.80
  -1  -8  -8   23.90    3.70
   1   8   8   27.80    3.40
   1   8   8   31.40    4.70
  -2  -8  -8    0.40    1.60
   2   8   8    0.80    2.20
   2   8   8    1.70    1.40
   3   8   8  107.89    8.70
  -4  -8  -8   12.20    5.90
   4   8   8    8.80    2.40
   4   8   8    8.90    2.10
  -5  -8  -8   11.80    5.80
   5   8   8   10.50    2.30
  -6  -8  -8   44.10    9.30
   6   8   8   41.60    4.40
  -7  -8  -8   13.20    6.00
   7   8   8   14.10    2.50
  -8  -8  -8    1.30    4.80
   8   8   8    4.40    2.00
   8   8   8   -0.10    1.00
  -9  -8  -8   43.70    9.70
   9   8   8   27.40    3.80
   9   8   8   29.00    3.10
 -10  -8  -8   81.89   12.00
  10   8   8   55.79    6.10
  10   8   8   70.09    5.70
 -11  -8  -8    8.80    6.70
  11   8   8    3.40    2.10
  11   8   8    4.80    1.70
   4  -9  -8    2.50    2.70
   4  -9  -8    2.30    2.90
  -4   9   8    3.20    4.10
   3  -9  -8    1.10    2.50
   3  -9  -8    0.30    2.40
  -3   9   8   -1.40    3.70
   2  -9  -8    6.10    2.70
   2  -9  -8    3.20    2.70
  -2   9   8    3.10    4.10
   1  -9  -8    0.90    2.40
   1  -9  -8    3.60    2.40
  -1   9   8    3.60    3.40
  -1   9   8    1.30    1.70
   0  -9  -8   16.50    3.50
   0  -9  -8   28.60    3.80
   0   9   8   38.80    5.40
   0   9   8   21.20    3.00
   1   9   8   22.20    4.40
   1   9   8   16.50    2.90
   2   9   8    0.10    1.50
   3   9   8    3.20    2.30
   3   9   8   -0.60    1.70
  -4  -9  -8   -1.20    5.30
   4   9   8   -1.20    1.40
   4   9   8   -2.80    1.70
  -5  -9  -8    5.80    5.80
   5   9   8    4.90    2.10
  -6  -9  -8   -3.30    4.70
   6   9   8    0.50    1.70
  -7  -9  -8   -0.90    5.20
   7   9   8   -1.20    1.60
  -8  -9  -8    0.00    5.10
   8   9   8   -0.10    1.70
  -9  -9  -8   71.29   12.80
   9   9   8   59.69    6.20
 -10  -9  -8   54.99   11.00
  10   9   8   50.29    5.40
   3 -10  -8   -4.60    2.30
   3 -10  -8    3.20    3.00
  -3  10   8    5.70    4.40
  -2  10   8    2.40    4.00
  -1  10   8    9.90    4.30
   0  10   8   13.00    4.30
   0  10   8    5.80    2.20
   1  10   8   22.70    3.40
   2  10   8   10.60    2.50
   2  10   8    5.10    3.10
   3  10   8   30.90    4.70
   3  10   8   29.90    3.90
  -4 -10  -8   18.80    8.30
   4  10   8   14.20    2.70
   4  10   8   12.80    3.20
  -5 -10  -8    1.20    6.10
   5  10   8    6.00    2.20
  -6 -10  -8   11.90    7.80
   6  10   8    6.40    2.30
  -7 -10  -8   -1.50    6.30
   7  10   8   -1.80    1.80
  -8 -10  -8   13.80    7.30
   8  10   8    9.70    2.60
  -9 -10  -8   -1.70    5.90
   9  10   8   -1.20    2.00
   1  11   8   -1.30    3.20
   1  11   8    2.90    2.40
   2  11   8    9.70    2.60
   2  11   8   14.90    4.10
   3  11   8   -0.80    1.90
   3  11   8    0.90    2.60
  -4 -11  -8   21.00    8.80
   4  11   8   15.40    3.90
   4  11   8   12.50    3.00
  -5 -11  -8  104.19   14.70
   5  11   8   59.69    6.60
  -6 -11  -8    0.20    6.40
   6  11   8    1.40    2.30
  -7 -11  -8   -9.00    5.70
   7  11   8   -0.20    2.10
  -8 -11  -8  -10.30    5.30
   8  11   8   -2.00    2.20
   1  12   8    0.10    3.40
   2  12   8   22.20    4.80
   2  12   8   14.60    3.40
   3  12   8   11.40    3.90
   3  12   8    8.10    2.90
  -4 -12  -8   -5.10    8.10
   4  12   8    5.30    2.60
  -5 -12  -8   -6.70    7.60
   5  12   8    0.40    2.30
   3  10  -9    2.60    2.90
  -3 -10   9    2.30    2.00
   2  10  -9    1.20    2.70
  -2 -10   9    0.70    2.00
   1  10  -9    4.80    2.60
  -1 -10   9   -2.50    2.00
   0  10  -9    0.00    2.00
   0 -10   9    2.60    1.80
  -1  10  -9    9.40    2.30
   1 -10   9   12.80    2.60
   2 -10   9    5.10    2.30
   2 -10   9    5.10    2.30
   5   9  -9    4.20    3.90
  -5  -9   9    4.50    2.60
   4   9  -9  143.99   12.90
  -4  -9   9  131.79   11.30
   3   9  -9    0.80    2.70
  -3  -9   9    1.70    2.00
   2   9  -9    3.40    2.60
  -2  -9   9   -3.20    1.50
   1   9  -9   22.10    3.70
  -1  -9   9   15.40    3.00
   0   9  -9    9.30    2.50
   0  -9   9    7.30    2.30
  -1   9  -9   33.70    4.00
   1  -9   9   33.10    4.20
  -2   9  -9    5.50    1.40
   2  -9   9    1.20    1.90
   2  -9   9    5.20    2.10
   6   8  -9    7.50    4.30
  -6  -8   9    2.30    2.50
   5   8  -9   43.40    6.60
  -5  -8   9   29.00    4.30
   4   8  -9   16.40    4.20
  -4  -8   9   12.90    2.70
   3   8  -9    4.60    2.90
  -3  -8   9    3.90    2.30
   2   8  -9   -1.40    2.10
  -2  -8   9    1.00    1.90
   1   8  -9   22.50    3.90
  -1  -8   9   25.50    3.50
   0   8  -9   32.00    4.10
   0  -8   9   27.70    3.70
  -1   8  -9  177.28   14.10
   1  -8   9  194.98   14.30
  -2   8  -9  471.15   32.80
   2  -8   9  458.15   33.20
   2  -8   9  437.46   33.30
   3  -8   9  177.58   13.70
   3  -8   9  175.38   13.00
   4  -8   9  111.19    9.30
   5  -8   9    2.80    1.50
  -6   8  -9    7.10    4.40
  -6   8  -9    5.30    1.40
   6  -8   9    2.30    1.80
  -7   8  -9   -2.30    4.30
  -7   8  -9    0.10    1.50
   7  -8   9   -1.60    1.80
   7   7  -9   16.10    5.10
  -7  -7   9    3.40    2.40
   6   7  -9    8.90    4.30
  -6  -7   9    4.00    2.30
   5   7  -9   25.10    5.40
  -5  -7   9   22.20    3.70
   4   7  -9    5.30    3.10
  -4  -7   9    2.00    1.90
   3   7  -9    7.40    3.00
  -3  -7   9    9.60    2.50
   2   7  -9   14.80    3.30
  -2  -7   9    8.90    2.40
   1   7  -9   23.70    3.90
  -1  -7   9   24.90    3.40
   0   7  -9   83.99    7.30
   0  -7   9   75.79    6.80
  -1   7  -9    3.50    1.80
   1  -7   9    3.40    1.70
   1  -7   9    3.50    1.60
  -2   7  -9   14.40    4.00
  -2   7  -9   14.40    2.20
   2  -7   9   15.50    2.60
   2  -7   9   16.00    2.50
  -3   7  -9   18.10    2.00
  -3   7  -9   21.80    4.80
   3  -7   9   12.40    2.40
   3  -7   9   11.80    2.30
  -4   7  -9    9.10    4.10
  -4   7  -9    2.50    2.90
   4  -7   9    4.50    1.80
   4  -7   9    3.60    1.10
  -5   7  -9    2.10    3.30
   5  -7   9   -1.30    1.20
   5  -7   9   -1.40    0.80
  -6   7  -9   -1.50    1.30
  -6   7  -9   -1.10    3.50
   6  -7   9    1.00    0.90
   6  -7   9   -0.80    1.20
  -7   7  -9    4.10    4.60
  -7   7  -9   13.50    2.40
   7  -7   9   11.90    2.30
  -8   7  -9    0.20    2.00
  -8   7  -9    3.80    4.90
   8  -7   9   -1.60    1.50
   7   6  -9   12.40    4.90
  -7  -6   9    9.00    2.50
  -7  -6   9    5.60    2.70
   6   6  -9   10.70    4.60
  -6  -6   9    4.10    2.40
   5   6  -9    4.40    3.40
  -5  -6   9   -1.00    1.70
   4   6  -9   20.70    4.60
  -4  -6   9   17.10    3.10
   3   6  -9    1.80    2.60
  -3  -6   9   -0.10    1.40
   2   6  -9   26.50    4.30
  -2  -6   9   22.60    3.20
   1   6  -9  132.29   11.50
   1   6  -9  137.29   11.20
  -1  -6   9  128.09   10.40
   0   6  -9   18.70    3.10
   0   6  -9   17.50    3.90
   0  -6   9   15.40    2.50
   0  -6   9   18.00    2.80
  -1   6  -9   40.60    4.30
  -1   6  -9   32.90    5.50
   1  -6   9   35.70    3.90
   1  -6   9   41.30    4.30
  -2   6  -9   42.80    4.40
  -2   6  -9   46.20    6.50
   2  -6   9   47.20    4.40
   2  -6   9   50.19    4.70
  -3   6  -9    2.60    2.80
  -3   6  -9    7.20    1.50
  -3   6  -9    5.40    3.30
   3  -6   9    3.40    1.70
   3  -6   9    6.60    1.60
  -4   6  -9    6.50    3.00
  -4   6  -9    5.80    3.30
  -4   6  -9    4.00    1.30
   4  -6   9    4.70    1.50
   4  -6   9    3.30    1.00
  -5   6  -9   -2.60    3.30
  -5   6  -9   -0.40    1.30
  -5   6  -9    0.60    2.70
   5  -6   9    0.20    0.80
  -6   6  -9   17.00    4.90
  -6   6  -9   22.00    5.30
   6  -6   9   17.80    2.50
   6  -6   9   20.00    2.10
  -7   6  -9    0.10    1.70
  -7   6  -9    3.00    4.10
   7  -6   9   -0.70    0.90
   7  -6   9    1.10    1.40
  -8   6  -9   -5.90    3.60
  -8   6  -9   -0.10    1.80
   8  -6   9    0.80    0.90
   8  -6   9   -1.10    1.30
  -9   6  -9   43.60    8.00
  -9   6  -9   44.60    5.30
   9  -6   9   30.20    4.00
   8   5  -9   16.90    6.00
  -8  -5   9   20.30    3.10
  -8  -5   9   18.00    3.50
   7   5  -9   28.00    6.00
  -7  -5   9   12.90    2.70
  -7  -5   9   13.20    3.00
   6   5  -9   15.80    4.90
  -6  -5   9   12.80    2.80
  -6  -5   9   16.20    2.80
   5   5  -9   22.10    4.70
  -5  -5   9   18.10    3.00
  -5  -5   9   12.70    2.80
   4   5  -9   63.79    7.40
  -4  -5   9   57.29    5.50
  -4  -5   9   55.69    5.60
   3   5  -9   20.70    4.20
  -3  -5   9   11.90    2.60
   2   5  -9   25.60    4.30
   2   5  -9   28.50    4.20
  -2  -5   9   23.50    3.10
  -2  -5   9   18.90    3.00
   1   5  -9    0.50    1.90
   1   5  -9    1.90    2.50
  -1  -5   9    0.70    1.40
  -1  -5   9   -3.00    1.10
   0   5  -9    9.20    2.40
   0   5  -9    2.60    2.40
   0  -5   9    7.10    1.60
   0  -5   9    6.40    1.90
  -1   5  -9   11.90    3.30
  -1   5  -9   11.80    2.50
   1  -5   9   11.90    2.20
   1  -5   9   12.00    2.00
  -2   5  -9   79.49    6.80
  -2   5  -9   79.39    8.20
   2  -5   9   81.49    6.80
   2  -5   9   78.99    6.50
  -3   5  -9  253.07   19.80
  -3   5  -9  232.58   20.00
  -3   5  -9  278.27   18.70
   3  -5   9  249.78   18.80
   3  -5   9  241.28   18.50
  -4   5  -9    1.20    2.80
  -4   5  -9    1.60    1.20
  -4   5  -9   -0.10    2.40
   4  -5   9    1.00    1.30
   4  -5   9    1.70    0.90
  -5   5  -9  143.29   11.10
  -5   5  -9  144.09   13.30
  -5   5  -9  149.99   13.00
   5  -5   9  147.69   11.10
   5  -5   9  142.89   10.70
  -6   5  -9   50.19    5.10
  -6   5  -9   59.29    7.70
  -6   5  -9   48.00    7.50
   6  -5   9   53.49    4.30
  -7   5  -9   77.29    9.40
  -7   5  -9   77.09    8.90
   7  -5   9   77.39    6.50
   7  -5   9   74.49    5.90
  -8   5  -9    7.70    2.50
  -8   5  -9   14.40    5.20
   8  -5   9   10.80    2.10
   8  -5   9   11.80    1.60
  -9   5  -9   -0.10    4.60
  -9   5  -9    1.40    2.20
   9  -5   9    0.20    1.50
   9  -5   9    2.70    1.10
 -10   5  -9    1.00    2.60
 -10   5  -9   -8.80    4.50
  10  -5   9   -2.60    1.40
  10  -5   9    1.70    1.30
  -8  -4   9   -0.20    2.30
   7   4  -9    3.70    4.30
  -7  -4   9   -1.50    1.80
  -7  -4   9    3.70    1.80
   6   4  -9    4.20    3.80
  -6  -4   9    1.50    2.00
  -6  -4   9    0.50    1.40
   5   4  -9    5.10    3.20
   5   4  -9    3.70    2.00
  -5  -4   9    3.50    1.90
  -5  -4   9    0.80    1.50
   4   4  -9   43.00    6.30
   4   4  -9   40.80    4.70
  -4  -4   9   42.70    4.40
  -4  -4   9   37.00    4.20
   3   4  -9   40.50    4.70
   3   4  -9   51.49    6.30
  -3  -4   9   43.30    4.50
  -3  -4   9   39.70    4.40
   2   4  -9   62.49    6.80
  -2  -4   9   59.09    5.50
  -2  -4   9   63.99    5.70
   1   4  -9   94.69    8.10
   1   4  -9   77.99    7.90
  -1  -4   9   83.59    7.00
  -1  -4   9   86.59    7.20
   0   4  -9    6.50    2.30
   0   4  -9    7.00    2.50
   0  -4   9    7.80    1.70
   0  -4   9    8.90    1.80
  -1   4  -9   22.90    4.10
  -1   4  -9   27.60    3.60
   1  -4   9   23.30    3.00
   1  -4   9   25.30    2.90
  -2   4  -9   55.59    5.10
  -2   4  -9   53.29    6.10
  -2   4  -9   53.19    5.60
   2  -4   9   45.20    4.50
   2  -4   9   53.79    4.80
  -3   4  -9   45.00    4.30
  -3   4  -9   46.70    5.50
  -3   4  -9   38.60    5.80
   3  -4   9   44.20    3.90
   3  -4   9   39.90    4.10
  -4   4  -9   46.70    6.50
  -4   4  -9   61.49    6.60
  -4   4  -9   59.59    5.00
   4  -4   9   47.40    4.20
   4  -4   9   50.79    4.70
  -5   4  -9    1.10    1.60
  -5   4  -9    1.80    2.90
  -5   4  -9    1.10    2.80
   5  -4   9   -0.80    1.00
   5  -4   9   -0.50    0.70
  -6   4  -9    7.60    3.50
  -6   4  -9    9.90    2.40
  -6   4  -9   11.40    3.90
   6  -4   9   10.40    1.40
  -7   4  -9    4.80    3.30
  -7   4  -9    2.70    3.30
  -7   4  -9    3.30    2.00
   7  -4   9    0.10    0.90
  -8   4  -9    3.60    3.90
   8  -4   9   -0.60    1.00
   8  -4   9   -0.60    0.80
  -9   4  -9   -2.70    2.00
  -9   4  -9   -1.30    3.70
   9  -4   9    3.10    1.30
   9  -4   9   -0.50    0.90
 -10   4  -9    2.30    4.50
 -10   4  -9    1.30    2.50
  10  -4   9   -2.70    1.20
  10  -4   9    1.20    1.00
  -8  -3   9    5.10    2.70
   7   3  -9   97.79   11.10
  -7  -3   9   76.69    7.30
  -7  -3   9   82.89    7.60
   6   3  -9   32.10    6.20
   6   3  -9   32.10    3.80
   6   3  -9   16.10    3.40
  -6  -3   9   30.00    3.80
  -6  -3   9   23.30    3.30
   5   3  -9   87.49    8.10
   5   3  -9   92.79   10.20
   5   3  -9   95.29    8.10
  -5  -3   9   94.49    8.00
  -5  -3   9  100.89    8.00
   4   3  -9   15.90    2.80
   4   3  -9   20.70    4.50
  -4  -3   9   17.90    2.70
  -4  -3   9   15.00    2.60
   3   3  -9   16.30    2.70
   3   3  -9   14.90    3.90
  -3  -3   9   16.00    2.50
  -3  -3   9   15.80    2.40
   2   3  -9   86.89    8.60
   2   3  -9   77.49    7.40
  -2  -3   9   93.59    7.30
  -2  -3   9   93.59    7.40
   1   3  -9   99.49    8.80
   1   3  -9  118.39    9.90
  -1  -3   9  108.49    8.60
  -1  -3   9  111.19    8.80
   0   3  -9    3.60    2.10
   0   3  -9    6.70    2.60
   0  -3   9    2.10    1.20
   0  -3   9    3.10    1.40
  -1   3  -9   36.60    4.60
  -1   3  -9   31.20    4.00
   1  -3   9   19.00    2.90
   1  -3   9   23.60    2.80
  -2   3  -9   29.90    3.70
  -2   3  -9   18.20    3.60
  -2   3  -9   31.90    4.50
   2  -3   9   25.70    2.70
   2  -3   9   25.30    2.90
  -3   3  -9    3.50    2.40
  -3   3  -9   -0.10    1.50
  -3   3  -9   -0.20    1.90
   3  -3   9    2.40    1.20
   3  -3   9   -0.60    0.90
  -4   3  -9   82.09    8.50
  -4   3  -9  101.39    7.60
  -4   3  -9   84.99    8.70
   4  -3   9   84.29    6.70
   4  -3   9   88.99    7.10
  -5   3  -9    6.30    2.10
  -5   3  -9   -0.60    2.40
  -5   3  -9    5.50    3.00
   5  -3   9    4.60    1.20
   5  -3   9    5.00    1.10
  -6   3  -9    2.80    3.10
  -6   3  -9    7.40    3.20
  -6   3  -9    4.90    2.30
   6  -3   9    6.80    1.20
   6  -3   9    2.30    1.10
  -7   3  -9   -4.80    3.30
  -7   3  -9    4.00    2.10
  -7   3  -9    7.90    3.60
   7  -3   9   -0.40    0.80
  -8   3  -9    2.10    2.00
  -8   3  -9    1.90    4.00
  -8   3  -9    2.00    3.20
   8  -3   9    2.30    0.90
  -9   3  -9    0.80    4.30
  -9   3  -9   -3.10    2.00
   9  -3   9    0.10    0.80
   9  -3   9    1.90    1.10
 -10   3  -9   42.30    7.60
 -10   3  -9   39.80    5.70
  10  -3   9   39.80    4.00
 -11   3  -9   11.70    5.90
 -11   3  -9   12.80    3.80
  11  -3   9    9.30    1.70
  11  -3   9   10.90    2.20
   8   2  -9   -4.60    2.20
   8   2  -9   -1.00    2.20
  -8  -2   9   -3.70    2.30
   7   2  -9   58.29    5.90
   7   2  -9   46.20    5.70
  -7  -2   9   50.79    5.60
   6   2  -9   55.19    6.10
   6   2  -9   68.29    9.00
   6   2  -9   69.29    6.20
  -6  -2   9   61.49    6.00
  -6  -2   9   53.09    5.50
   5   2  -9   19.80    5.10
   5   2  -9   17.40    3.10
   5   2  -9   27.30    3.50
  -5  -2   9   17.80    2.90
  -5  -2   9   14.20    2.60
   4   2  -9    1.50    2.00
   4   2  -9    4.20    3.30
   4   2  -9   11.90    2.40
  -4  -2   9    5.20    1.90
  -4  -2   9    6.60    1.80
   3   2  -9    1.20    1.60
   3   2  -9   -1.70    2.60
  -3  -2   9    2.70    1.70
  -3  -2   9    1.30    1.40
   2   2  -9  109.79   10.50
   2   2  -9  123.19    9.40
  -2  -2   9  111.99    9.10
  -2  -2   9  111.79    9.10
   1   2  -9   35.10    4.20
   1   2  -9   34.90    5.10
  -1  -2   9   37.40    3.70
  -1  -2   9   37.60    3.80
   0   2  -9  240.58   18.30
   0   2  -9  214.18   17.50
   0  -2   9  229.88   17.40
   0  -2   9  253.77   17.30
  -1   2  -9  109.89    9.80
  -1   2  -9  123.19   10.30
  -1   2  -9  128.49   10.30
   1  -2   9  125.49    9.30
   1  -2   9  117.99    9.50
  -2   2  -9   -1.90    1.80
  -2   2  -9    6.90    2.20
  -2   2  -9    5.20    2.30
   2  -2   9    2.30    1.10
   2  -2   9    4.10    1.30
  -3   2  -9   66.29    5.80
  -3   2  -9   42.20    6.20
  -3   2  -9   53.39    6.00
   3  -2   9   55.19    4.60
   3  -2   9   61.09    5.00
  -4   2  -9   44.50    4.80
  -4   2  -9   50.39    6.30
  -4   2  -9   37.20    5.60
   4  -2   9   40.40    3.50
   4  -2   9   46.50    4.00
  -5   2  -9    1.80    2.50
  -5   2  -9    6.30    3.10
  -5   2  -9    2.20    2.00
   5  -2   9    3.20    1.10
   5  -2   9    3.80    1.00
  -6   2  -9   17.90    3.30
  -6   2  -9   15.40    4.00
  -6   2  -9   14.90    4.30
   6  -2   9   20.20    2.30
   6  -2   9   20.20    2.00
  -7   2  -9    9.40    3.70
  -7   2  -9    8.20    3.40
  -7   2  -9    9.70    2.90
   7  -2   9    8.50    1.50
   7  -2   9   13.80    1.60
  -8   2  -9   65.59    7.00
  -8   2  -9   74.49    9.80
  -8   2  -9   62.69    8.60
   8  -2   9   67.59    5.30
  -9   2  -9  149.59   14.70
  -9   2  -9  149.19   13.90
   9  -2   9  168.08   11.20
   9  -2   9  135.29   11.50
 -10   2  -9    1.60    2.70
 -10   2  -9    3.20    4.30
  10  -2   9   -0.20    1.10
  10  -2   9    1.40    1.00
 -11   2  -9   -0.50    2.70
 -11   2  -9    5.10    5.20
  11  -2   9    1.30    1.20
  11  -2   9    0.30    1.40
   9   1  -9    4.60    3.10
   9   1  -9   13.60    3.30
  -9  -1   9   15.50    4.30
   8   1  -9    0.40    2.30
   8   1  -9   -4.00    2.20
  -8  -1   9    2.90    2.40
   7   1  -9   10.10    3.00
   7   1  -9   20.20    3.40
  -7  -1   9   19.60    3.30
   6   1  -9   90.29    8.70
   6   1  -9  102.79   11.20
   6   1  -9  104.79    8.80
  -6  -1   9   92.19    8.10
  -6  -1   9  108.99    8.70
   5   1  -9    1.90    2.00
   5   1  -9    1.30    1.90
   5   1  -9    2.10    3.50
  -5  -1   9    0.60    1.40
  -5  -1   9   -2.40    1.60
   4   1  -9    2.70    1.60
   4   1  -9    2.90    3.20
   4   1  -9   -0.40    1.50
  -4  -1   9    0.30    1.70
  -4  -1   9    0.60    1.40
   3   1  -9   83.69    7.90
   3   1  -9  102.59    8.00
   3   1  -9   97.09    9.70
  -3  -1   9   95.49    7.60
  -3  -1   9   84.29    7.50
   2   1  -9   39.00    5.00
   2   1  -9   54.09    5.10
   2   1  -9   62.19    7.30
  -2  -1   9   49.00    4.70
  -2  -1   9   58.29    4.90
   1   1  -9   90.19    7.60
   1   1  -9   89.59    8.80
  -1  -1   9   83.09    7.20
  -1  -1   9   90.19    7.20
   0   1  -9  585.14   45.50
   0   1  -9  640.54   46.40
   0  -1   9  653.23   45.50
   0  -1   9  658.73   45.30
  -1   1  -9   -1.50    1.90
  -1   1  -9    0.60    2.20
   1  -1   9   -1.60    1.00
   1  -1   9   -1.50    1.00
  -2   1  -9  321.47   22.70
  -2   1  -9  295.67   22.50
   2  -1   9  295.17   21.50
   2  -1   9  283.87   21.70
  -3   1  -9    1.80    2.90
  -3   1  -9    0.20    1.90
  -3   1  -9   -0.30    1.80
   3  -1   9    0.10    1.10
   3  -1   9    0.20    0.90
  -4   1  -9   47.70    5.30
  -4   1  -9   45.30    5.40
   4  -1   9   45.70    4.10
   4  -1   9   46.20    3.70
  -5   1  -9   -0.10    1.90
  -5   1  -9   -1.30    2.00
  -5   1  -9    1.10    2.60
   5  -1   9    0.60    0.70
   5  -1   9    1.70    1.00
  -6   1  -9  108.79   10.70
  -6   1  -9  107.39   10.90
  -6   1  -9  116.79   10.10
   6  -1   9  109.49    8.60
   6  -1   9  130.79    8.90
  -7   1  -9   -0.20    2.40
  -7   1  -9   -0.30    3.30
  -7   1  -9   -1.80    2.10
   7  -1   9    0.50    0.70
   7  -1   9    0.40    0.90
  -8   1  -9  106.19   11.80
  -8   1  -9  110.29   10.30
  -8   1  -9  113.29   11.00
   8  -1   9  120.39    8.70
  -9   1  -9   46.90    8.30
  -9   1  -9   60.49    8.10
  -9   1  -9   51.59    6.60
   9  -1   9   56.59    4.60
 -10   1  -9    8.90    5.10
 -10   1  -9    8.20    3.40
  10  -1   9    9.40    1.80
  10  -1   9   12.80    1.70
 -11   1  -9   11.10    3.80
 -11   1  -9    2.00    4.60
  11  -1   9    9.70    1.80
  11  -1   9   10.30    2.10
 -12   1  -9   -0.90    3.20
 -12   1  -9    0.10    5.20
  12  -1   9    0.40    1.40
  12  -1   9    1.70    1.30
   8   0  -9   34.60    5.00
   8   0  -9   53.99    5.70
  -8   0   9   32.20    5.30
   7   0  -9    1.50    2.30
   7   0  -9   -3.60    1.80
  -7   0   9   -0.20    2.40
   6   0  -9    0.20    1.90
   6   0  -9    5.20    2.30
  -6   0   9    3.80    2.20
  -6   0   9    3.30    1.60
   5   0  -9    7.60    2.30
   5   0  -9    3.40    2.10
   5   0  -9    7.90    3.90
  -5   0   9    1.70    1.40
  -5   0   9    4.70    2.20
   4   0  -9   49.70    5.40
   4   0  -9   46.10    7.00
   4   0  -9   52.69    5.40
  -4   0   9   49.70    4.70
  -4   0   9   48.80    5.20
   3   0  -9   54.19    5.50
   3   0  -9   53.99    5.50
   3   0  -9   62.39    7.70
  -3   0   9   55.79    5.30
  -3   0   9   52.79    4.90
   2   0  -9    5.20    2.00
   2   0  -9   11.90    3.80
   2   0  -9    6.50    2.10
  -2   0   9    4.80    1.50
  -2   0   9    3.60    1.60
   1   0  -9  265.17   21.10
   1   0  -9  268.67   20.00
  -1   0   9  262.67   19.70
  -1   0   9  271.77   19.60
   0   0  -9  514.05   38.60
   0   0  -9  579.84   39.80
   0   0  -9  474.05   39.50
   0   0   9  591.74   38.40
   0   0   9  526.45   38.40
  -1   0  -9   77.79    8.70
  -1   0  -9   94.69    8.60
  -1   0  -9   85.39    7.50
   1   0   9   92.29    7.20
   1   0   9   97.99    7.10
  -2   0  -9  481.45   34.00
  -2   0  -9  388.06   34.70
   2   0   9  495.85   32.80
   2   0   9  468.15   33.00
  -3   0  -9  269.57   20.00
  -3   0  -9  209.48   21.00
  -3   0  -9  270.77   20.00
   3   0   9  279.17   18.70
   3   0   9  265.67   19.00
  -4   0  -9   58.49    8.40
  -4   0  -9   69.29    6.90
  -4   0  -9   78.99    7.00
   4   0   9   63.09    5.20
   4   0   9   73.09    5.70
  -5   0  -9   15.20    3.40
  -5   0  -9    9.50    4.70
  -5   0  -9   15.80    3.50
   5   0   9   18.60    1.80
   5   0   9   14.70    2.00
  -6   0  -9   11.80    5.00
  -6   0  -9   18.70    3.70
  -6   0  -9   10.80    3.40
   6   0   9   14.00    1.70
   6   0   9   15.10    1.90
  -7   0  -9  133.49   12.60
  -7   0  -9  122.59   12.70
   7   0   9  168.28   11.20
   7   0   9  153.88   11.00
  -8   0  -9   36.50    6.70
  -8   0  -9   34.20    5.80
  -8   0  -9   42.30    5.70
   8   0   9   45.20    3.70
   8   0   9   42.10    3.60
  -9   0  -9   24.60    5.60
  -9   0  -9   24.10    6.00
  -9   0  -9   37.20    5.60
   9   0   9   32.60    3.00
 -10   0  -9    2.80    4.50
  10   0   9    6.30    1.30
  10   0   9    4.50    1.40
 -11   0  -9   -1.10    4.00
 -11   0  -9   -1.30    2.90
  11   0   9   -0.20    1.10
  11   0   9    1.90    1.10
 -12   0  -9    2.40    3.60
 -12   0  -9    0.40    4.90
  12   0   9    0.20    1.40
  12   0   9    4.50    1.60
   8  -1  -9    1.20    2.60
   8  -1  -9   -0.90    2.30
  -8   1   9    0.20    3.00
  -8   1   9   -1.30    3.70
   7  -1  -9   63.49    6.70
   7  -1  -9   63.69    6.60
  -7   1   9   51.49    6.40
   6  -1  -9    2.40    2.40
   6  -1  -9   -1.90    2.00
  -6   1   9   -1.70    2.00
   5  -1  -9   14.50    3.00
   5  -1  -9   10.40    2.60
  -5   1   9   15.70    2.30
  -5   1   9   17.30    3.10
   4  -1  -9    4.20    2.20
   4  -1  -9    6.10    3.90
   4  -1  -9    3.80    2.20
  -4   1   9    3.50    1.50
  -4   1   9    1.20    1.90
   3  -1  -9   16.50    4.50
   3  -1  -9    6.80    2.20
   3  -1  -9   12.10    2.70
  -3   1   9   10.30    2.20
  -3   1   9    8.80    1.80
   2  -1  -9    4.60    3.30
   2  -1  -9    1.20    1.60
   2  -1  -9    5.30    1.80
  -2   1   9    3.00    1.40
  -2   1   9    2.10    1.50
   1  -1  -9   76.89    7.90
   1  -1  -9   73.79    6.40
   1  -1  -9   60.29    6.30
   1  -1  -9   67.19    7.10
  -1   1   9   71.89    6.00
  -1   1   9   68.29    5.80
   0  -1  -9   55.69    6.70
   0  -1  -9   54.99    6.90
   0  -1  -9   60.59    5.70
   0   1   9   61.79    5.20
   0   1   9   68.79    5.30
  -1  -1  -9    4.20    2.70
  -1  -1  -9    7.10    3.00
  -1  -1  -9    2.10    1.80
   1   1   9    5.30    1.40
   1   1   9    4.90    1.40
  -2  -1  -9    0.30    1.40
  -2  -1  -9    1.90    2.40
  -2  -1  -9    3.60    2.70
   2   1   9   -0.10    1.10
   2   1   9    2.60    1.20
  -3  -1  -9   58.09    5.70
  -3  -1  -9   43.80    6.70
  -3  -1  -9   48.70    5.90
   3   1   9   53.89    4.40
   3   1   9   43.90    3.90
   3   1   9   52.69    4.20
  -4  -1  -9   75.39    7.30
  -4  -1  -9   55.49    8.50
  -4  -1  -9   85.29    7.70
   4   1   9   81.99    6.10
   4   1   9   74.79    5.70
  -5  -1  -9  102.69   10.10
  -5  -1  -9  123.29   10.40
  -5  -1  -9  103.69   12.10
   5   1   9  131.69    9.00
   5   1   9  115.89    8.70
  -6  -1  -9    9.40    4.40
  -6  -1  -9   15.90    3.60
  -6  -1  -9   15.50    3.90
   6   1   9   15.80    1.90
   6   1   9   15.30    1.70
  -7  -1  -9   -2.10    2.70
  -7  -1  -9   -1.20    3.20
  -7  -1  -9    2.40    2.90
   7   1   9    1.90    1.00
   7   1   9    2.30    0.90
  -8  -1  -9   89.59    9.20
  -8  -1  -9   82.39    9.00
   8   1   9   93.39    7.10
   8   1   9   92.69    7.00
  -9  -1  -9  154.78   13.60
  -9  -1  -9  144.89   13.70
  -9  -1  -9  133.69   14.00
   9   1   9  162.08   11.30
 -10  -1  -9   -3.10    3.50
 -10  -1  -9    3.80    3.70
  10   1   9    2.70    1.20
  10   1   9    3.10    1.10
 -11  -1  -9   38.70    7.70
 -11  -1  -9   44.10    6.60
  11   1   9   44.80    3.90
  11   1   9   34.90    3.90
 -12  -1  -9   36.50    6.20
 -12  -1  -9   27.40    7.20
  12   1   9   40.60    3.80
  12   1   9   32.80    3.80
   8  -2  -9   12.80    3.50
   8  -2  -9    6.70    3.00
  -8   2   9    3.80    3.80
  -8   2   9   13.80    4.90
   7  -2  -9    2.70    2.30
   7  -2  -9    5.20    2.60
  -7   2   9    2.00    3.30
  -7   2   9    3.20    2.80
   6  -2  -9   15.20    3.40
   6  -2  -9   13.90    3.10
  -6   2   9   11.90    4.30
  -6   2   9   11.60    3.10
   5  -2  -9    0.30    1.90
   5  -2  -9   -0.30    1.90
  -5   2   9   -0.10    1.20
  -5   2   9   -0.20    2.00
  -5   2   9    2.50    2.90
   4  -2  -9    3.90    1.90
   4  -2  -9    5.40    2.20
  -4   2   9    3.00    2.30
  -4   2   9    1.30    1.20
   3  -2  -9   -2.60    1.40
   3  -2  -9   -1.00    3.20
   3  -2  -9   -1.80    1.50
  -3   2   9   -0.70    1.00
  -3   2   9   -0.80    1.70
   2  -2  -9    4.90    2.00
   2  -2  -9    8.10    2.30
   2  -2  -9    9.60    3.70
  -2   2   9    3.60    1.80
  -2   2   9    7.30    1.60
   1  -2  -9   74.39    8.40
   1  -2  -9   83.49    6.80
   1  -2  -9   62.59    6.60
   1  -2  -9   86.09    8.20
  -1   2   9   76.09    6.20
  -1   2   9   72.89    6.40
   0  -2  -9   53.29    5.80
   0  -2  -9   64.59    7.40
   0  -2  -9   60.89    7.10
   0  -2  -9   67.19    5.90
   0   2   9   66.99    5.50
   0   2   9   66.79    5.40
  -1  -2  -9    0.50    1.50
  -1  -2  -9    2.30    2.70
  -1  -2  -9    4.50    2.90
   1   2   9    1.70    1.10
   1   2   9    2.40    1.80
   1   2   9   -0.30    1.20
  -2  -2  -9    6.00    3.10
  -2  -2  -9    4.60    1.90
  -2  -2  -9    5.70    3.30
   2   2   9    4.60    1.40
   2   2   9    5.70    1.30
   2   2   9    7.90    1.90
  -3  -2  -9    4.60    2.80
  -3  -2  -9    4.70    3.20
   3   2   9    3.90    1.30
   3   2   9    6.20    1.50
   3   2   9    6.20    1.40
   3   2   9    4.00    1.00
  -4  -2  -9    1.00    2.60
  -4  -2  -9    2.00    2.80
  -4  -2  -9    2.00    2.20
   4   2   9    0.90    0.70
   4   2   9   -0.10    0.90
  -5  -2  -9   32.50    5.00
  -5  -2  -9   36.00    5.50
  -5  -2  -9   33.40    6.80
   5   2   9   39.00    3.40
   5   2   9   36.10    3.10
  -6  -2  -9   21.00    4.20
  -6  -2  -9    7.50    4.10
  -6  -2  -9   10.30    3.20
   6   2   9   19.30    1.80
   6   2   9   16.60    2.00
  -7  -2  -9   32.80    5.40
  -7  -2  -9   23.50    6.30
  -7  -2  -9   31.40    5.20
   7   2   9   31.20    2.80
   7   2   9   37.50    3.20
  -8  -2  -9    5.00    3.30
  -8  -2  -9    5.20    3.20
  -8  -2  -9    8.50    4.90
   8   2   9    5.00    1.10
   8   2   9    3.70    1.30
  -9  -2  -9   17.80    4.50
  -9  -2  -9   16.00    6.40
  -9  -2  -9   26.80    5.20
   9   2   9   25.20    2.40
   9   2   9   24.10    2.70
 -10  -2  -9  379.96   26.90
 -10  -2  -9  306.47   27.10
 -10  -2  -9  362.46   26.90
  10   2   9  291.67   24.30
  10   2   9  356.36   24.30
 -11  -2  -9   15.40    4.60
 -11  -2  -9   22.50    6.40
  11   2   9   16.90    2.20
  11   2   9   13.10    2.10
 -12  -2  -9  106.79   11.30
 -12  -2  -9  104.59   12.90
  12   2   9  108.09    8.70
  12   2   9  110.69    8.60
   8  -3  -9    3.00    3.10
   8  -3  -9   -1.10    2.60
  -8   3   9    2.20    4.20
  -8   3   9   -7.80    3.10
   7  -3  -9   -2.60    2.40
   7  -3  -9   -2.10    2.20
  -7   3   9    1.40    3.30
  -7   3   9    0.20    2.90
   6  -3  -9   15.60    3.40
   6  -3  -9   16.40    3.80
  -6   3   9   14.00    4.20
  -6   3   9   12.40    3.40
   5  -3  -9   -0.30    2.00
   5  -3  -9    2.20    2.30
  -5   3   9    0.00    3.10
  -5   3   9   -0.40    2.20
   4  -3  -9    0.60    2.00
   4  -3  -9    0.30    2.10
  -4   3   9    3.60    3.10
  -4   3   9    2.70    1.30
  -4   3   9   -1.30    2.10
   3  -3  -9    1.90    1.90
   3  -3  -9    2.00    1.80
  -3   3   9    5.60    2.80
  -3   3   9    4.90    1.40
  -3   3   9   -1.00    1.70
   2  -3  -9    6.40    3.80
   2  -3  -9    4.90    2.10
   2  -3  -9    3.70    2.00
  -2   3   9    5.00    1.40
  -2   3   9    5.50    2.50
  -2   3   9    5.70    2.00
   1  -3  -9   23.40    3.40
   1  -3  -9   20.10    3.30
   1  -3  -9   25.20    5.00
   1  -3  -9   26.80    5.20
  -1   3   9   20.00    3.10
  -1   3   9   24.30    3.90
  -1   3   9   22.80    2.70
   0  -3  -9  190.18   16.40
   0  -3  -9  220.88   17.80
   0  -3  -9  224.38   16.50
   0  -3  -9  241.88   18.40
   0   3   9  205.38   16.50
   0   3   9  216.58   16.20
   0   3   9  216.98   16.00
  -1  -3  -9  161.58   13.90
  -1  -3  -9  148.19   11.90
  -1  -3  -9  148.39   13.20
   1   3   9  144.99   11.80
   1   3   9  156.18   11.50
   1   3   9  145.19   11.30
  -2  -3  -9   64.39    7.80
  -2  -3  -9   59.49    7.20
  -2  -3  -9   60.29    5.60
   2   3   9   60.59    5.50
   2   3   9   51.29    5.00
   2   3   9   53.49    4.60
   2   3   9   66.99    5.10
  -3  -3  -9  240.18   18.40
  -3  -3  -9  212.58   19.20
   3   3   9  223.18   16.60
   3   3   9  243.78   16.80
   3   3   9  213.18   16.40
   3   3   9  235.58   16.90
  -4  -3  -9   -1.70    2.70
  -4  -3  -9    4.20    3.20
  -4  -3  -9    1.70    2.20
   4   3   9    2.00    1.10
   4   3   9    1.50    0.80
  -5  -3  -9    7.20    3.40
  -5  -3  -9   -0.10    3.20
  -5  -3  -9    1.90    2.30
   5   3   9    6.70    1.50
   5   3   9    7.40    1.10
  -6  -3  -9   32.20    5.20
  -6  -3  -9   24.70    6.10
  -6  -3  -9   31.50    4.90
   6   3   9   36.60    3.40
   6   3   9   40.00    3.10
  -7  -3  -9   20.50    6.00
  -7  -3  -9   19.20    4.40
  -7  -3  -9   32.70    5.50
   7   3   9   29.00    2.90
   7   3   9   28.00    2.50
  -8  -3  -9    4.90    4.60
  -8  -3  -9    5.80    2.90
  -8  -3  -9    5.80    3.60
   8   3   9    6.00    1.60
   8   3   9    6.70    1.20
  -9  -3  -9   34.70    8.30
  -9  -3  -9   35.20    6.10
  -9  -3  -9   49.90    6.90
   9   3   9   44.10    3.80
   9   3   9   44.30    4.10
 -10  -3  -9   55.79    7.40
 -10  -3  -9   85.69    8.40
 -10  -3  -9   39.30    9.80
  10   3   9   50.59    4.60
 -11  -3  -9   -3.40    3.80
 -11  -3  -9   -1.90    3.40
  11   3   9    1.20    1.20
  11   3   9   -0.70    1.10
 -12  -3  -9   -5.40    4.70
 -12  -3  -9   -4.70    3.40
  12   3   9    1.90    1.40
  12   3   9   -0.10    1.20
   7  -4  -9   -0.60    2.10
   7  -4  -9    7.70    3.30
  -7   4   9    5.60    4.40
  -7   4   9   -2.80    3.30
   6  -4  -9   51.59    6.30
   6  -4  -9   44.30    5.70
  -6   4   9   40.00    6.00
  -6   4   9   53.49    7.10
   5  -4  -9   59.49    6.70
   5  -4  -9   53.79    6.30
  -5   4   9   53.99    6.60
  -5   4   9   63.29    7.60
   4  -4  -9   57.59    6.60
   4  -4  -9   71.29    7.00
  -4   4   9   70.79    7.70
  -4   4   9   65.09    7.00
   3  -4  -9    0.80    1.90
   3  -4  -9    1.00    1.70
  -3   4   9   -1.30    2.00
  -3   4   9    0.10    1.20
  -3   4   9   -2.00    2.60
   2  -4  -9    0.40    1.70
   2  -4  -9   -1.20    1.60
  -2   4   9    0.50    2.50
  -2   4   9   -0.20    1.00
  -2   4   9   -0.50    2.00
   1  -4  -9    3.50    1.90
   1  -4  -9    5.50    2.00
   1  -4  -9    5.30    3.60
  -1   4   9    0.20    1.90
  -1   4   9    1.80    2.50
  -1   4   9    5.70    1.40
   0  -4  -9   41.80    4.40
   0  -4  -9   29.20    4.10
   0  -4  -9   38.20    6.30
   0   4   9   38.50    4.80
   0   4   9   34.80    4.20
   0   4   9   41.70    3.70
  -1  -4  -9   33.40    5.90
  -1  -4  -9   25.70    3.70
  -1  -4  -9   24.80    4.80
   1   4   9   28.00    2.90
   1   4   9   26.20    2.40
   1   4   9   31.40    4.00
   1   4   9   24.90    3.30
  -2  -4  -9   13.20    4.30
  -2  -4  -9    7.70    2.10
  -2  -4  -9   13.60    3.90
   2   4   9   10.20    2.00
   2   4   9    9.00    1.60
   2   4   9    7.80    2.20
   2   4   9    7.40    1.10
  -3  -4  -9   11.10    4.00
  -3  -4  -9   12.20    2.60
  -3  -4  -9   13.10    4.70
   3   4   9   11.60    1.80
   3   4   9   12.80    2.30
   3   4   9   13.20    2.00
   3   4   9   10.70    1.40
  -4  -4  -9  214.78   17.70
  -4  -4  -9  191.18   18.70
  -4  -4  -9  231.88   17.10
   4   4   9  210.18   15.50
   4   4   9  224.18   15.90
  -5  -4  -9    6.40    4.00
  -5  -4  -9   10.00    3.10
  -5  -4  -9    4.20    3.20
   5   4   9    8.00    1.50
   5   4   9    5.30    1.00
  -6  -4  -9    6.80    3.50
  -6  -4  -9    9.20    3.10
  -6  -4  -9    5.90    4.00
   6   4   9    9.00    1.30
   6   4   9    7.10    1.60
  -7  -4  -9   -2.00    2.90
  -7  -4  -9    1.40    3.50
  -7  -4  -9   -1.70    2.40
   7   4   9    1.60    0.90
   7   4   9    1.40    1.30
  -8  -4  -9    8.30    3.70
  -8  -4  -9    5.90    3.30
  -8  -4  -9    2.60    4.10
   8   4   9    4.90    1.60
   8   4   9    4.50    1.20
  -9  -4  -9   11.20    5.50
  -9  -4  -9   11.20    3.80
  -9  -4  -9   10.40    4.20
   9   4   9   11.70    2.00
   9   4   9   12.70    1.80
 -10  -4  -9   13.90    6.40
 -10  -4  -9   13.30    4.20
 -10  -4  -9   19.50    4.60
  10   4   9    8.50    2.00
  10   4   9   11.60    1.80
 -11  -4  -9   11.10    6.00
  11   4   9    1.70    1.20
  11   4   9    3.00    1.40
 -12  -4  -9    1.00    4.50
  12   4   9    7.80    1.90
   7  -5  -9   88.39    8.60
   7  -5  -9   79.19    8.40
  -7   5   9   71.99    8.90
  -7   5   9   85.29   10.00
   6  -5  -9    2.50    2.60
   6  -5  -9    2.70    3.10
  -6   5   9    3.00    3.80
  -6   5   9    0.10    3.00
   5  -5  -9   -2.60    2.10
   5  -5  -9    2.50    2.80
  -5   5   9   -5.20    3.00
  -5   5   9   -1.40    2.40
   4  -5  -9   27.40    4.00
   4  -5  -9   18.20    3.40
  -4   5   9   22.70    4.10
  -4   5   9   17.60    4.70
   3  -5  -9   10.30    2.80
   3  -5  -9    2.60    1.90
  -3   5   9    4.80    2.60
  -3   5   9    7.00    1.50
  -3   5   9    6.60    3.60
   2  -5  -9  169.68   13.70
   2  -5  -9  168.58   13.60
  -2   5   9  163.08   13.50
  -2   5   9  178.38   12.80
  -2   5   9  165.18   14.00
   1  -5  -9    0.00    1.70
   1  -5  -9    0.20    1.70
  -1   5   9    0.10    2.30
  -1   5   9   -1.00    1.80
  -1   5   9    0.20    1.20
   0  -5  -9    6.30    2.30
   0  -5  -9    9.20    2.40
   0   5   9    8.50    1.70
   0   5   9    6.40    2.10
   0   5   9    9.00    2.90
  -1  -5  -9    6.20    3.70
  -1  -5  -9    0.40    3.50
  -1  -5  -9   -3.60    1.70
  -1  -5  -9    0.00    1.80
   1   5   9    0.90    0.70
   1   5   9    0.70    1.00
   1   5   9   -1.50    2.00
   1   5   9    2.90    1.90
  -2  -5  -9   82.39    9.00
  -2  -5  -9   74.29    7.10
  -2  -5  -9   93.99   10.50
   2   5   9   76.69    7.20
   2   5   9   86.29    6.50
   2   5   9   73.79    5.90
   2   5   9   77.79    6.80
  -3  -5  -9   17.20    4.50
  -3  -5  -9   20.40    5.50
  -3  -5  -9   17.90    3.10
   3   5   9   25.90    2.10
   3   5   9   23.50    3.20
   3   5   9   25.00    2.70
   3   5   9   22.10    2.90
  -4  -5  -9   10.70    4.00
  -4  -5  -9   16.20    3.20
  -4  -5  -9   10.50    4.50
   4   5   9    9.20    1.30
   4   5   9   12.70    2.00
  -5  -5  -9  102.89   12.30
  -5  -5  -9  113.99   10.30
  -5  -5  -9  114.99   11.40
   5   5   9  124.29    9.20
   5   5   9  121.29    8.70
  -6  -5  -9  153.88   16.70
  -6  -5  -9  143.89   14.20
  -6  -5  -9  176.18   15.40
   6   5   9  194.08   13.40
   6   5   9  194.98   12.90
  -7  -5  -9    2.10    3.60
  -7  -5  -9    6.10    4.30
  -7  -5  -9    6.90    2.90
   7   5   9    9.70    1.90
   7   5   9    9.10    1.30
  -8  -5  -9    3.80    3.00
  -8  -5  -9   -0.80    3.70
  -8  -5  -9    2.10    3.80
   8   5   9    2.80    1.10
   8   5   9    1.50    1.40
  -9  -5  -9   20.40    5.10
  -9  -5  -9   10.50    3.80
  -9  -5  -9    7.50    5.20
   9   5   9    6.90    2.10
   9   5   9   11.30    1.70
 -10  -5  -9   -0.20    4.30
  10   5   9   -2.10    1.50
  10   5   9    0.40    1.10
 -11  -5  -9    8.80    5.80
  11   5   9    5.20    1.50
  12   5   9    0.90    1.40
   6  -6  -9    0.40    2.90
   6  -6  -9   -2.00    2.40
  -6   6   9   -1.20    4.40
  -6   6   9    1.80    3.70
   5  -6  -9   64.19    7.00
   5  -6  -9   70.49    7.40
  -5   6   9   57.19    8.10
  -5   6   9   49.40    7.10
   4  -6  -9    7.10    2.60
   4  -6  -9    6.00    2.70
  -4   6   9   10.40    4.30
  -4   6   9    8.20    3.40
   3  -6  -9    2.60    2.10
   3  -6  -9    7.40    2.60
  -3   6   9    8.10    3.80
  -3   6   9    3.20    3.00
   2  -6  -9  181.38   14.20
   2  -6  -9  166.48   14.10
  -2   6   9  176.48   14.70
  -2   6   9  171.08   14.30
  -2   6   9  187.68   13.40
   1  -6  -9  117.19   10.10
   1  -6  -9  105.89    9.90
  -1   6   9  126.89   10.70
  -1   6   9  113.09   10.10
  -1   6   9  121.69    9.20
   0  -6  -9    9.80    2.60
   0  -6  -9    5.80    2.40
   0   6   9    8.20    3.30
   0   6   9    9.10    2.70
   0   6   9   12.20    1.90
  -1  -6  -9   30.40    4.40
  -1  -6  -9   43.20    4.80
   1   6   9   37.50    4.90
   1   6   9   46.10    4.10
   1   6   9   40.30    4.50
  -2  -6  -9   17.50    5.80
  -2  -6  -9   12.90    2.60
   2   6   9   12.70    2.60
   2   6   9   17.00    2.40
   2   6   9   13.30    3.10
  -3  -6  -9    1.70    4.00
  -3  -6  -9   -3.80    1.50
   3   6   9    6.00    2.10
   3   6   9    0.30    1.10
   3   6   9    2.20    0.70
  -4  -6  -9   71.59    6.90
  -4  -6  -9   63.09    9.70
   4   6   9   62.49    4.90
   4   6   9   61.29    5.60
  -5  -6  -9   -1.20    2.30
  -5  -6  -9   -3.20    3.90
   5   6   9    0.80    0.70
   5   6   9   -0.10    1.10
  -6  -6  -9    0.50    2.50
  -6  -6  -9    8.90    5.10
   6   6   9    2.30    1.60
   6   6   9    4.00    1.00
  -7  -6  -9  196.58   20.70
  -7  -6  -9  194.08   17.50
   7   6   9  225.18   16.60
   7   6   9  246.28   16.00
  -8  -6  -9   38.20    8.80
   8   6   9   31.90    3.90
   8   6   9   34.80    3.10
  -9  -6  -9   42.00    9.80
   9   6   9   53.29    5.20
   9   6   9   52.49    4.50
 -10  -6  -9    1.10    5.40
  10   6   9    1.90    1.30
  10   6   9    3.50    1.90
 -11  -6  -9    2.90    6.30
  11   6   9    6.10    1.80
   6  -7  -9    4.80    3.40
   6  -7  -9   -0.20    2.60
   5  -7  -9   17.40    3.80
   5  -7  -9   38.60    5.00
  -5   7   9   21.10    5.60
  -5   7   9   27.10    4.90
   4  -7  -9   18.70    4.00
   4  -7  -9   28.30    4.60
  -4   7   9   16.10    5.30
  -4   7   9   23.10    4.50
   3  -7  -9   12.10    3.20
   3  -7  -9   13.20    3.50
  -3   7   9   12.60    4.30
  -3   7   9   21.90    4.10
   2  -7  -9  217.88   17.70
   2  -7  -9  248.08   17.80
  -2   7   9  208.38   18.20
  -2   7   9  211.78   17.70
  -2   7   9  232.18   16.80
   1  -7  -9  126.19   11.40
   1  -7  -9  145.79   11.50
  -1   7   9  145.69   12.30
  -1   7   9  126.69   11.50
   0  -7  -9  227.98   19.70
   0  -7  -9  265.97   19.90
   0   7   9  250.57   19.90
   0   7   9  274.87   20.50
   0   7   9  278.17   19.30
  -1  -7  -9   -3.00    1.90
  -1  -7  -9   -0.40    1.90
   1   7   9   -1.50    1.20
   1   7   9    2.80    2.70
  -2  -7  -9   10.20    2.50
   2   7   9   11.80    2.10
   2   7   9    6.50    2.60
  -3  -7  -9    1.60    2.00
  -3  -7  -9    7.00    5.20
   3   7   9    6.40    2.30
   3   7   9    5.90    1.70
  -4  -7  -9   28.60    7.00
  -4  -7  -9   21.00    4.00
   4   7   9   15.90    2.60
  -5  -7  -9  172.78   17.10
  -5  -7  -9  165.08   13.80
   5   7   9  163.78   12.80
  -6  -7  -9   48.60    9.40
   6   7   9   36.00    4.10
   6   7   9   39.50    3.30
  -7  -7  -9  143.69   16.10
   7   7   9  133.89   10.90
   7   7   9  138.99   10.30
  -8  -7  -9    5.90    5.90
   8   7   9    6.50    1.30
   8   7   9    5.90    2.00
  -9  -7  -9    1.60    5.30
   9   7   9   -1.20    1.10
   9   7   9   -0.30    1.60
 -10  -7  -9    9.20    6.20
  10   7   9    6.20    1.70
  10   7   9    8.80    2.30
 -11  -7  -9   10.50    6.30
  11   7   9    4.50    1.60
  11   7   9    3.00    2.20
   5  -8  -9   10.00    3.30
   5  -8  -9   11.80    3.50
  -5   8   9   12.90    4.40
   4  -8  -9    3.90    2.90
   4  -8  -9    1.30    2.70
  -4   8   9    0.10    3.20
  -4   8   9   -3.00    3.90
   3  -8  -9   97.39    9.60
   3  -8  -9  110.39    9.90
  -3   8   9  108.49   10.40
  -3   8   9   98.39   10.90
   2  -8  -9   -4.30    2.30
   2  -8  -9    2.60    2.70
  -2   8   9   -6.20    3.00
  -2   8   9   -1.70    3.90
   1  -8  -9   12.90    3.30
   1  -8  -9   11.70    3.20
  -1   8   9    7.70    2.20
  -1   8   9   14.10    4.20
   0  -8  -9   77.59    7.20
   0  -8  -9   59.49    6.90
   0   8   9   71.79    7.60
   0   8   9   71.59    6.30
  -1  -8  -9   53.59    6.70
  -1  -8  -9   71.49    6.70
   1   8   9   71.49    7.50
   1   8   9   75.29    6.10
  -2  -8  -9   21.20    3.50
   2   8   9   26.50    3.30
   2   8   9   21.10    4.00
  -3  -8  -9    2.70    6.00
  -3  -8  -9    0.40    1.90
   3   8   9    0.80    1.60
   3   8   9    7.30    2.60
  -4  -8  -9   50.09    9.50
   4   8   9   40.70    4.40
  -5  -8  -9   97.29   13.00
   5   8   9   80.39    7.30
  -6  -8  -9   43.30    9.50
   6   8   9   33.90    4.20
  -7  -8  -9    6.60    6.00
   7   8   9    4.90    2.30
  -8  -8  -9   35.60    8.80
   8   8   9   30.10    3.90
  -9  -8  -9   27.90    8.40
   9   8   9   18.90    3.20
   9   8   9   17.40    2.40
 -10  -8  -9   43.70   11.00
  10   8   9   49.50    4.50
  10   8   9   46.20    5.40
   4  -9  -9   -1.70    2.60
   4  -9  -9   -0.20    2.90
   3  -9  -9   -6.60    2.40
   3  -9  -9    2.00    2.80
  -3   9   9    0.60    4.40
   2  -9  -9    2.50    2.90
   2  -9  -9    1.50    2.80
  -2   9   9    0.30    3.90
   1  -9  -9    1.00    2.60
   1  -9  -9    1.90    2.50
  -1   9   9   -0.70    3.50
   0  -9  -9   41.20    5.00
   0  -9  -9   22.00    4.40
   0   9   9   36.60    4.10
   0   9   9   45.40    6.20
   1   9   9    0.60    3.10
   1   9   9   -5.10    1.70
   2   9   9  100.99    9.20
   2   9   9  125.49   10.40
  -3  -9  -9   33.40    9.60
   3   9   9   26.50    3.60
  -4  -9  -9   13.30    7.00
   4   9   9   12.80    2.80
  -5  -9  -9   12.00    6.70
   5   9   9   18.80    3.00
  -6  -9  -9    8.60    6.90
   6   9   9   11.70    2.60
  -7  -9  -9   61.99   11.90
   7   9   9   49.80    5.60
  -8  -9  -9   14.10    7.40
   8   9   9    4.40    2.40
  -9  -9  -9   31.20   10.00
   9   9   9   30.20    4.10
 -10  -9  -9    4.30    6.80
  10   9   9    0.50    2.30
  -2  10   9   16.20    5.30
  -1  10   9    4.50    4.00
   0  10   9   18.30    3.30
   0  10   9   38.90    5.90
   1  10   9   -1.20    2.00
   2  10   9    2.90    2.20
  -3 -10  -9   20.00    8.40
   3  10   9   15.40    3.00
   3  10   9   10.10    3.50
  -4 -10  -9    2.40    6.90
   4  10   9    9.70    2.70
  -5 -10  -9    2.10    6.20
   5  10   9   -1.70    1.80
  -6 -10  -9   -2.40    6.80
   6  10   9    0.20    2.00
  -7 -10  -9    6.50    6.70
   7  10   9    3.70    2.40
   8  10   9   85.59    8.20
  -9 -10  -9    0.90    6.50
   9  10   9    5.20    2.60
   1  11   9    4.10    4.00
   1  11   9    5.60    2.50
   2  11   9    5.50    2.40
   2  11   9    5.70    3.60
  -3 -11  -9   -4.70    7.20
   3  11   9    2.80    2.30
   3  11   9    5.40    3.10
  -4 -11  -9   -6.60    7.40
   4  11   9    0.90    2.30
  -5 -11  -9    5.30    7.10
   5  11   9    8.10    2.90
  -6 -11  -9    0.90    7.10
   6  11   9   -5.30    2.10
  -7 -11  -9   34.30   11.20
   7  11   9   25.10    4.10
   3   9 -10   43.70    6.60
  -3  -9  10   39.90    5.10
   2   9 -10    8.80    3.60
  -2  -9  10    5.00    2.70
   1   9 -10    8.40    3.10
  -1  -9  10    5.00    2.20
  -1  -9  10    2.30    2.30
   0   9 -10    4.00    2.40
   0  -9  10    4.00    2.00
   0  -9  10    6.00    2.40
  -1   9 -10   15.90    2.80
   1  -9  10    8.50    2.50
   1  -9  10    9.30    2.70
  -2   9 -10   26.00    3.00
   2  -9  10   18.50    3.30
   4   8 -10   32.60    6.20
  -4  -8  10   29.60    4.20
   3   8 -10    1.30    3.30
  -3  -8  10    1.20    1.90
   2   8 -10    1.30    2.80
  -2  -8  10    2.00    2.00
   1   8 -10  195.18   15.60
  -1  -8  10  185.28   15.00
  -1  -8  10  185.08   14.70
   0   8 -10   12.30    2.90
   0  -8  10   13.40    2.70
   0  -8  10    4.00    2.20
  -1   8 -10  117.99    9.90
   1  -8  10  119.09    9.90
   1  -8  10  117.29    9.70
  -2   8 -10   57.49    4.90
   2  -8  10   37.80    4.90
   2  -8  10   49.90    5.10
   3  -8  10   10.50    2.80
   3  -8  10   12.70    1.90
   4  -8  10    2.20    1.20
   5  -8  10   -0.90    1.70
   6  -8  10    0.90    1.70
   6   7 -10    9.70    4.80
  -6  -7  10    7.30    2.50
   5   7 -10    3.70    3.90
  -5  -7  10    1.10    2.40
  -5  -7  10   -2.10    1.80
   4   7 -10   15.50    4.40
  -4  -7  10    9.90    2.70
  -4  -7  10   14.00    3.00
   3   7 -10    0.60    3.00
  -3  -7  10    1.30    1.90
  -3  -7  10    0.10    1.70
   2   7 -10   62.49    7.40
  -2  -7  10   68.89    6.20
  -2  -7  10   59.89    6.20
   1   7 -10    6.40    2.80
  -1  -7  10    9.60    2.60
  -1  -7  10    6.10    2.30
   0   7 -10  271.37   20.10
   0  -7  10  243.58   19.50
   0  -7  10  265.17   19.80
  -1   7 -10   28.30    3.90
   1  -7  10   23.70    3.50
   1  -7  10   28.40    3.70
  -2   7 -10  137.19   12.70
  -2   7 -10  137.79   10.60
   2  -7  10  128.99   10.60
   2  -7  10  132.99   10.80
  -3   7 -10   45.70    4.10
  -3   7 -10   34.60    6.30
  -4   7 -10   27.30    3.20
  -4   7 -10   42.30    6.80
   4  -7  10   33.90    3.10
   4  -7  10   28.60    3.70
  -5   7 -10    2.60    3.80
  -5   7 -10    1.80    1.30
   5  -7  10    0.40    1.00
   5  -7  10   -1.30    1.30
  -6   7 -10   -7.20    3.20
  -6   7 -10   -0.90    1.50
   6  -7  10    0.90    1.00
   6  -7  10   -0.20    1.40
  -7   7 -10    9.60    5.40
  -7   7 -10   20.00    2.90
   7  -7  10   20.30    2.90
   6   6 -10   13.50    4.90
  -6  -6  10    7.80    2.70
  -6  -6  10    8.40    2.40
   5   6 -10   13.30    4.60
  -5  -6  10    8.80    2.60
  -5  -6  10    7.90    2.40
   4   6 -10    5.50    3.70
  -4  -6  10    2.30    1.80
  -4  -6  10    0.10    1.90
   3   6 -10    2.00    3.00
  -3  -6  10   -1.10    1.90
  -3  -6  10    2.60    1.70
   2   6 -10    2.90    2.50
  -2  -6  10    1.40    1.70
  -2  -6  10    1.70    1.70
   1   6 -10    7.00    2.70
  -1  -6  10    7.70    2.10
  -1  -6  10    8.20    2.20
   0   6 -10   37.00    4.80
   0   6 -10   30.90    5.20
   0  -6  10   26.10    3.60
   0  -6  10   36.10    4.20
  -1   6 -10    0.60    3.00
  -1   6 -10    3.00    2.00
   1  -6  10    1.50    1.60
   1  -6  10    3.90    1.80
  -2   6 -10    2.30    1.60
  -2   6 -10   -0.40    3.00
   2  -6  10    2.90    1.90
   2  -6  10    0.70    1.40
  -3   6 -10   58.39    5.00
  -3   6 -10   51.69    7.40
   3  -6  10   46.60    5.00
  -4   6 -10   58.29    8.20
  -4   6 -10   67.19    5.50
   4  -6  10   57.49    5.10
   4  -6  10   68.59    5.80
  -5   6 -10   13.80    4.70
  -5   6 -10   13.60    2.40
  -5   6 -10   14.10    4.20
   5  -6  10   11.30    1.80
  -6   6 -10    3.70    3.90
  -6   6 -10   -0.60    3.60
  -6   6 -10    2.10    1.70
   6  -6  10   -0.70    0.80
   6  -6  10    0.80    1.20
  -7   6 -10   -5.20    3.90
   7  -6  10    2.10    1.20
   7  -6  10    4.00    1.70
  -8   6 -10    1.60    2.10
  -8   6 -10   -1.40    4.30
   8  -6  10    4.60    1.20
   8  -6  10    4.10    1.60
   7   5 -10    2.10    4.70
  -7  -5  10   -1.00    2.40
  -7  -5  10    0.70    2.10
   6   5 -10   -0.40    3.80
  -6  -5  10    1.80    2.10
  -6  -5  10    5.20    2.10
   5   5 -10    7.20    4.00
  -5  -5  10    1.30    1.70
  -5  -5  10    0.70    1.90
   4   5 -10    3.10    3.30
  -4  -5  10   -1.40    1.60
  -4  -5  10    3.90    1.90
   3   5 -10   -0.30    2.60
  -3  -5  10   -0.70    1.50
  -3  -5  10   -1.60    1.50
   2   5 -10   33.10    5.20
   2   5 -10   34.20    4.90
  -2  -5  10   22.90    3.40
  -2  -5  10   28.30    3.80
   1   5 -10    3.60    2.80
   1   5 -10    8.80    2.90
  -1  -5  10    4.10    1.70
  -1  -5  10    5.10    1.90
   0   5 -10    5.40    2.90
   0   5 -10    6.90    2.60
   0  -5  10    7.10    1.90
   0  -5  10    7.40    2.00
  -1   5 -10    0.10    1.70
  -1   5 -10    1.00    2.40
   1  -5  10    1.40    1.50
   1  -5  10    3.30    1.40
  -2   5 -10    1.20    1.60
  -2   5 -10    2.80    2.90
   2  -5  10    1.80    1.40
   2  -5  10   -0.50    1.60
  -3   5 -10   28.80    5.20
  -3   5 -10   36.90    3.80
   3  -5  10   24.10    3.30
  -4   5 -10    5.80    3.10
  -4   5 -10    6.60    1.80
  -4   5 -10    1.60    2.90
   4  -5  10    0.60    1.50
   4  -5  10    2.60    1.10
  -5   5 -10   -1.50    1.50
  -5   5 -10   -0.10    3.20
  -5   5 -10    0.20    3.00
   5  -5  10    0.00    0.90
   5  -5  10    0.10    1.30
  -6   5 -10   -1.30    1.70
  -6   5 -10    6.60    4.10
  -6   5 -10   -4.00    2.80
   6  -5  10   -1.50    0.90
  -7   5 -10    3.90    4.20
  -7   5 -10    9.50    4.30
  -7   5 -10   10.10    2.50
   7  -5  10   12.70    2.00
   7  -5  10    6.20    1.40
  -8   5 -10    0.30    2.00
  -8   5 -10    5.00    4.40
   8  -5  10    3.70    1.50
   8  -5  10    3.40    1.20
  -9   5 -10   67.29   10.20
  -9   5 -10   58.19    6.90
   9  -5  10   70.39    5.40
   9  -5  10   65.59    6.10
   7   4 -10    0.10    4.80
  -7  -4  10   -2.80    2.00
  -7  -4  10   -2.20    2.00
   6   4 -10   27.00    6.40
  -6  -4  10   20.30    3.50
  -6  -4  10   21.50    3.70
   5   4 -10    1.80    3.70
  -5  -4  10    2.80    1.70
  -5  -4  10   -2.00    1.90
   4   4 -10    3.40    2.30
   4   4 -10   12.80    4.30
  -4  -4  10    8.40    2.50
  -4  -4  10    8.00    2.00
   3   4 -10   -1.90    1.80
   3   4 -10   -1.20    2.60
  -3  -4  10    2.60    1.60
  -3  -4  10   -0.70    1.70
   2   4 -10   -3.60    2.30
  -2  -4  10   -1.20    1.30
  -2  -4  10    1.60    1.40
   1   4 -10   40.00    5.90
   1   4 -10   50.89    5.80
  -1  -4  10   41.70    4.50
  -1  -4  10   41.00    4.20
   0   4 -10  104.89    9.80
   0   4 -10  103.79    9.60
   0  -4  10  117.09    9.10
   0  -4  10  106.19    8.70
  -1   4 -10   -0.80    2.40
  -1   4 -10    0.40    1.90
   1  -4  10    3.20    1.80
   1  -4  10    1.10    1.40
  -2   4 -10  176.28   15.70
  -2   4 -10  200.38   15.20
   2  -4  10  201.28   14.50
  -3   4 -10   28.10    3.60
  -3   4 -10   28.20    4.40
  -3   4 -10   21.80    4.60
   3  -4  10   23.60    3.10
  -4   4 -10   86.49    7.00
  -4   4 -10   59.59    8.50
  -4   4 -10   84.89    8.30
   4  -4  10   77.09    6.50
   4  -4  10   75.79    6.10
  -5   4 -10    2.80    1.90
  -5   4 -10   11.20    3.80
  -5   4 -10    5.40    3.20
   5  -4  10    5.00    1.20
   5  -4  10    3.40    1.40
  -6   4 -10    2.60    3.10
  -6   4 -10    3.90    2.30
  -6   4 -10   10.70    4.00
   6  -4  10    6.40    1.20
   6  -4  10    5.80    1.60
  -7   4 -10   79.99    9.40
  -7   4 -10   74.99    8.80
  -7   4 -10   66.49    7.10
   7  -4  10   79.79    6.00
  -8   4 -10   13.10    4.80
  -8   4 -10    6.10    4.10
  -8   4 -10   16.70    3.10
   8  -4  10   11.90    1.80
   8  -4  10   10.90    2.00
  -9   4 -10   29.50    6.70
  -9   4 -10   28.70    4.50
   9  -4  10   32.70    3.60
   9  -4  10   35.10    3.20
 -10   4 -10   15.70    5.80
 -10   4 -10   11.60    3.50
  10  -4  10   16.50    2.70
  10  -4  10   16.90    2.20
   7   3 -10   20.60    6.20
  -7  -3  10    4.80    2.20
  -7  -3  10    4.40    2.80
   6   3 -10    0.50    2.20
   6   3 -10    1.10    4.20
  -6  -3  10   -1.70    2.20
  -6  -3  10    0.30    1.90
   5   3 -10   45.80    5.50
   5   3 -10   53.79    7.80
  -5  -3  10   55.39    5.50
  -5  -3  10   45.60    4.90
   4   3 -10    4.10    3.70
   4   3 -10   -1.20    1.90
  -4  -3  10    1.40    1.90
  -4  -3  10    2.20    1.70
   3   3 -10  152.88   14.30
   3   3 -10  169.28   12.90
  -3  -3  10  157.78   12.70
  -3  -3  10  163.68   12.60
   2   3 -10   31.20    4.10
   2   3 -10   32.50    5.40
  -2  -3  10   33.20    3.80
  -2  -3  10   31.80    3.80
   1   3 -10   55.19    6.40
  -1  -3  10   48.60    4.90
  -1  -3  10   49.50    4.80
   0   3 -10   39.40    5.30
   0   3 -10   41.80    5.40
   0  -3  10   32.60    3.80
   0  -3  10   30.40    3.50
  -1   3 -10   17.20    3.40
  -1   3 -10   14.50    3.40
   1  -3  10   13.10    2.40
   1  -3  10   16.90    2.30
  -2   3 -10    1.60    1.80
  -2   3 -10    1.70    2.60
   2  -3  10    2.40    1.30
   2  -3  10    3.60    1.50
  -3   3 -10   95.19    9.50
  -3   3 -10   90.99    9.40
  -3   3 -10  114.79    9.00
   3  -3  10  109.29    8.40
  -4   3 -10  129.79   11.70
  -4   3 -10  120.89   11.50
  -4   3 -10  138.89   10.70
   4  -3  10  120.19    9.60
   4  -3  10  136.69   10.20
  -5   3 -10   10.20    3.90
  -5   3 -10   15.50    4.30
  -5   3 -10   13.00    2.80
   5  -3  10   12.20    2.10
   5  -3  10   11.40    1.60
  -6   3 -10    5.80    4.10
  -6   3 -10   12.20    2.80
  -6   3 -10   11.30    3.80
   6  -3  10   13.30    1.70
   6  -3  10   10.00    1.80
  -7   3 -10   -3.50    3.20
  -7   3 -10    2.30    3.50
  -7   3 -10    1.10    2.20
   7  -3  10    2.40    0.90
  -8   3 -10    9.20    5.00
  -8   3 -10    7.20    2.80
  -8   3 -10    5.40    3.80
   8  -3  10    4.00    1.20
  -9   3 -10    7.80    5.10
   9  -3  10    9.20    1.50
   9  -3  10    8.60    1.90
 -10   3 -10    2.20    2.80
 -10   3 -10    3.00    4.50
  10  -3  10    6.20    1.30
  10  -3  10    2.70    1.40
  -8  -2  10   67.19    6.90
   7   2 -10    9.90    3.30
   7   2 -10   19.60    3.60
  -7  -2  10   15.00    3.60
   6   2 -10  189.18   13.90
   6   2 -10  137.69   13.60
   6   2 -10  170.98   16.30
  -6  -2  10  196.18   13.90
  -6  -2  10  163.58   13.20
   5   2 -10   13.20    3.00
   5   2 -10   12.30    4.50
   5   2 -10    6.80    2.60
  -5  -2  10    5.70    2.30
  -5  -2  10    6.20    1.90
   4   2 -10    7.20    2.40
   4   2 -10    9.00    4.00
  -4  -2  10    3.80    1.70
  -4  -2  10    6.10    2.00
   3   2 -10    2.30    2.00
   3   2 -10    1.40    3.10
  -3  -2  10   -2.50    1.40
  -3  -2  10    0.50    1.60
   2   2 -10   22.80    4.70
   2   2 -10   29.60    3.80
  -2  -2  10   21.20    3.10
  -2  -2  10   22.30    3.10
   1   2 -10    0.50    2.50
   1   2 -10   -2.60    1.40
  -1  -2  10   -0.60    1.20
  -1  -2  10   -2.30    1.30
   0   2 -10    4.30    2.80
   0  -2  10    2.00    1.40
   0  -2  10    4.90    1.50
  -1   2 -10    1.00    2.00
  -1   2 -10   -1.70    1.80
   1  -2  10    0.60    1.20
   1  -2  10    1.10    1.20
  -2   2 -10   18.30    3.40
  -2   2 -10   15.20    3.70
  -2   2 -10   16.80    3.30
   2  -2  10   18.10    2.30
   2  -2  10   14.90    2.50
  -3   2 -10  133.99   12.40
  -3   2 -10  148.49   12.70
  -3   2 -10  158.28   12.20
   3  -2  10  149.69   11.40
  -4   2 -10    2.30    2.70
  -4   2 -10    3.70    2.10
  -4   2 -10    6.60    3.00
   4  -2  10    4.40    1.00
   4  -2  10    2.90    1.30
  -5   2 -10   14.10    4.10
  -5   2 -10   16.90    4.30
  -5   2 -10   22.70    3.60
   5  -2  10   17.80    2.10
   5  -2  10   20.00    2.40
  -6   2 -10   14.30    3.30
  -6   2 -10   15.30    4.20
  -6   2 -10   14.20    4.50
   6  -2  10   15.60    1.80
   6  -2  10   14.50    2.00
  -7   2 -10   51.89    7.80
  -7   2 -10   39.90    6.40
  -7   2 -10   42.30    5.40
   7  -2  10   41.80    3.80
   7  -2  10   40.80    3.60
  -8   2 -10   -1.30    2.40
  -8   2 -10    3.70    4.30
  -8   2 -10    0.10    3.70
   8  -2  10    0.50    0.90
  -9   2 -10    1.70    3.90
  -9   2 -10    6.50    2.90
  -9   2 -10    1.00    3.50
   9  -2  10    1.60    1.10
   9  -2  10    0.00    0.90
 -10   2 -10    0.40    2.60
 -10   2 -10   -6.50    4.30
  10  -2  10   -0.70    1.10
  10  -2  10    2.60    1.10
 -11   2 -10    2.90    3.00
 -11   2 -10    3.80    5.40
  11  -2  10    4.10    1.60
  11  -2  10    4.70    1.60
   8   1 -10   12.80    3.50
   8   1 -10   21.20    3.90
  -8  -1  10   11.20    3.40
   7   1 -10   17.60    3.60
   7   1 -10   10.60    3.20
  -7  -1  10   12.80    3.20
   6   1 -10   -2.30    2.10
   6   1 -10    2.60    2.40
  -6  -1  10    0.20    2.20
  -6  -1  10   -2.80    1.60
   5   1 -10   48.40    5.50
   5   1 -10   34.30    4.90
   5   1 -10   53.79    7.90
  -5  -1  10   44.40    4.60
  -5  -1  10   44.30    5.20
   4   1 -10   27.40    5.70
   4   1 -10   12.80    2.90
   4   1 -10   21.10    3.40
  -4  -1  10   19.60    3.10
  -4  -1  10   15.30    2.60
   3   1 -10    4.50    2.20
   3   1 -10    9.70    4.00
   3   1 -10    2.60    2.20
  -3  -1  10    6.50    1.90
  -3  -1  10    5.00    2.00
   2   1 -10  113.29    9.20
   2   1 -10  105.59   10.80
  -2  -1  10  101.79    8.80
  -2  -1  10  113.59    8.90
   1   1 -10   50.69    6.90
   1   1 -10   43.90    5.20
  -1  -1  10   53.79    4.80
  -1  -1  10   50.19    4.70
   0   1 -10  219.98   17.20
   0   1 -10  189.38   16.10
   0  -1  10  221.68   15.70
   0  -1  10  213.48   15.90
  -1   1 -10  122.99   11.10
   1  -1  10  131.79    9.70
   1  -1  10  119.79    9.80
  -2   1 -10   99.59    9.00
  -2   1 -10   94.69    8.90
   2  -1  10   96.89    7.50
   2  -1  10   96.19    7.80
  -3   1 -10   19.50    3.70
  -3   1 -10   17.20    3.70
   3  -1  10   18.00    2.50
  -4   1 -10   54.99    5.80
  -4   1 -10   44.10    6.20
   4  -1  10   54.39    4.60
   4  -1  10   44.90    4.00
  -5   1 -10    2.70    2.30
  -5   1 -10    0.70    2.30
  -5   1 -10    3.10    2.90
   5  -1  10   -0.20    0.70
   5  -1  10    1.50    1.10
  -6   1 -10  204.98   15.60
  -6   1 -10  173.28   16.40
  -6   1 -10  150.18   15.70
   6  -1  10  196.98   14.00
   6  -1  10  213.88   14.30
  -7   1 -10   55.69    8.00
  -7   1 -10   57.89    8.70
  -7   1 -10   63.39    7.40
   7  -1  10   67.69    5.40
   7  -1  10   75.79    5.60
  -8   1 -10   14.70    4.40
  -8   1 -10   16.70    5.10
  -8   1 -10   21.00    4.20
   8  -1  10   19.50    2.20
  -9   1 -10   13.40    5.10
  -9   1 -10   17.30    5.70
  -9   1 -10   21.00    4.30
   9  -1  10   20.70    2.30
 -10   1 -10   -1.10    4.40
  10  -1  10   -0.90    0.90
  10  -1  10    0.80    1.10
 -11   1 -10   23.50    5.00
 -11   1 -10   14.60    6.30
  11  -1  10   30.00    3.00
  11  -1  10   22.40    3.00
   8   0 -10   45.00    6.20
   8   0 -10   65.19    7.00
  -8   0  10   56.59    7.00
   7   0 -10    2.60    2.80
   7   0 -10    1.40    2.50
  -7   0  10   -7.20    2.70
   6   0 -10   10.30    3.00
   6   0 -10    7.20    2.80
  -6   0  10    9.80    2.90
   5   0 -10  100.89    8.60
   5   0 -10   84.19    8.40
   5   0 -10   97.89   11.10
  -5   0  10   92.99    8.30
  -5   0  10   83.99    7.50
   4   0 -10   33.60    6.30
   4   0 -10   33.10    4.40
   4   0 -10   21.60    3.70
  -4   0  10   26.30    3.80
  -4   0  10   25.80    3.30
   3   0 -10   97.99   10.10
   3   0 -10   90.99    8.10
   3   0 -10   77.09    8.00
  -3   0  10   94.59    7.70
  -3   0  10   89.49    7.40
   2   0 -10   13.40    4.00
   2   0 -10   13.10    2.60
   2   0 -10    5.60    2.20
  -2   0  10   13.90    2.30
  -2   0  10   11.00    2.30
   1   0 -10  580.54   41.60
   1   0 -10  581.34   42.80
  -1   0  10  560.94   41.20
  -1   0  10  567.84   41.10
   0   0 -10   30.70    5.00
   0   0 -10   28.80    4.00
   0   0  10   34.50    3.60
   0   0  10   31.40    3.40
  -1   0 -10  338.67   30.10
  -1   0 -10  429.66   30.10
  -1   0 -10  356.76   28.90
   1   0  10  427.96   28.50
   1   0  10  428.36   28.80
  -2   0 -10   18.40    4.40
  -2   0 -10   18.30    3.50
  -2   0 -10   13.80    3.40
   2   0  10   13.10    2.20
   2   0  10   14.30    2.10
  -3   0 -10    4.70    3.30
  -3   0 -10    2.90    2.40
  -3   0 -10    1.80    2.50
   3   0  10    4.00    1.40
  -4   0 -10   -1.70    2.60
  -4   0 -10   -1.80    2.10
  -4   0 -10    0.80    2.30
   4   0  10    1.10    1.10
   4   0  10    0.70    0.80
  -5   0 -10    2.10    2.60
  -5   0 -10    4.20    3.50
  -5   0 -10    4.00    2.70
   5   0  10    3.00    0.90
   5   0  10    1.50    1.10
  -6   0 -10   26.30    4.70
  -6   0 -10   34.00    5.40
   6   0  10   30.70    2.80
   6   0  10   32.90    3.10
  -7   0 -10  168.88   16.10
  -7   0 -10  187.48   15.50
  -7   0 -10  152.88   15.40
   7   0  10  205.18   13.80
   7   0  10  188.98   13.50
  -8   0 -10   93.69   10.30
  -8   0 -10   97.39    9.50
  -8   0 -10   66.09    9.10
   8   0  10  100.69    7.30
   8   0  10   95.69    7.20
  -9   0 -10   60.49    8.20
  -9   0 -10   51.19    8.60
  -9   0 -10   54.49    7.60
   9   0  10   62.79    4.90
 -10   0 -10   46.00    8.50
 -10   0 -10   54.49    7.90
  10   0  10   63.59    4.50
  10   0  10   42.10    4.50
 -11   0 -10   27.60    6.80
 -11   0 -10   30.70    5.60
  11   0  10   27.80    3.40
  11   0  10   31.40    3.20
   7  -1 -10   -3.00    2.70
   7  -1 -10    1.30    2.80
  -7   1  10   -5.30    2.20
  -7   1  10    1.30    3.40
   6  -1 -10    0.70    2.60
   6  -1 -10    0.40    2.70
  -6   1  10    0.40    2.70
   5  -1 -10    2.50    2.30
   5  -1 -10   -0.50    2.20
  -5   1  10   -4.90    2.10
  -5   1  10   -0.70    1.60
   4  -1 -10   73.39    9.60
   4  -1 -10   75.79    7.20
   4  -1 -10   65.99    7.00
  -4   1  10   76.29    6.80
  -4   1  10   68.69    6.10
   3  -1 -10  106.19    8.80
   3  -1 -10   94.89   10.50
   3  -1 -10   90.89    8.60
  -3   1  10   91.99    7.80
  -3   1  10  100.59    8.30
   2  -1 -10  300.57   22.00
   2  -1 -10  247.08   21.90
   2  -1 -10  303.57   23.70
  -2   1  10  312.47   21.70
  -2   1  10  302.37   21.60
   1  -1 -10    7.40    2.30
   1  -1 -10    1.90    2.00
   1  -1 -10   13.70    4.10
  -1   1  10   10.50    2.20
  -1   1  10    9.10    1.90
   0  -1 -10  214.58   16.60
   0  -1 -10  195.58   15.00
   0  -1 -10  161.08   16.00
   0   1  10  202.48   14.60
   0   1  10  205.08   14.60
  -1  -1 -10   11.50    3.40
  -1  -1 -10    2.70    2.70
  -1  -1 -10    4.40    2.20
   1   1  10    4.90    1.50
   1   1  10    3.50    1.50
  -2  -1 -10   52.49    7.30
  -2  -1 -10   68.29    7.10
   2   1  10   61.59    5.30
   2   1  10   58.99    5.10
  -3  -1 -10   14.40    4.70
  -3  -1 -10   26.50    4.60
  -3  -1 -10   23.70    4.10
   3   1  10   23.70    2.80
   3   1  10   23.60    2.30
  -4  -1 -10   62.99    7.00
  -4  -1 -10   52.69    8.00
  -4  -1 -10   59.29    6.70
   4   1  10   51.69    4.60
   4   1  10   64.49    5.00
  -5  -1 -10   11.00    4.30
  -5  -1 -10   10.20    3.50
  -5  -1 -10   22.60    4.00
   5   1  10   11.90    1.90
   5   1  10    8.70    1.40
  -6  -1 -10   16.90    4.10
  -6  -1 -10   15.20    5.50
  -6  -1 -10   18.20    4.20
   6   1  10   16.70    2.20
   6   1  10   18.20    1.90
  -7  -1 -10    5.50    4.40
  -7  -1 -10    8.90    3.70
  -7  -1 -10    9.10    3.80
   7   1  10   11.60    1.70
   7   1  10    8.70    1.40
  -8  -1 -10   10.60    3.80
  -8  -1 -10    9.10    3.60
   8   1  10    9.70    1.50
   8   1  10    7.70    1.50
  -9  -1 -10    4.40    3.40
  -9  -1 -10    1.00    3.60
  -9  -1 -10    7.50    4.00
   9   1  10    7.00    1.30
 -10  -1 -10   38.80    6.10
 -10  -1 -10   26.50    6.80
 -10  -1 -10   32.30    6.50
  10   1  10   34.00    3.20
 -11  -1 -10    8.10    5.50
 -11  -1 -10    8.00    4.20
  11   1  10   16.50    2.20
  11   1  10   11.70    2.00
 -12  -1 -10   -0.60    3.80
 -12  -1 -10    4.70    5.80
  12   1  10    3.40    1.50
  12   1  10    6.40    1.70
   7  -2 -10    1.50    2.90
   7  -2 -10   -4.00    2.70
  -7   2  10    2.90    3.20
  -7   2  10    4.20    3.80
   6  -2 -10    7.00    3.40
   6  -2 -10    4.50    3.00
  -6   2  10   -1.10    2.50
  -6   2  10    8.70    3.90
   5  -2 -10    5.90    2.80
   5  -2 -10    1.40    2.60
  -5   2  10    6.00    3.50
  -5   2  10    3.60    2.50
   4  -2 -10   16.60    3.50
   4  -2 -10   11.90    3.10
  -4   2  10   11.20    3.80
  -4   2  10   14.30    2.30
  -4   2  10    9.10    2.80
   3  -2 -10    1.40    2.00
   3  -2 -10    4.20    2.30
   3  -2 -10    4.80    3.90
  -3   2  10    5.30    2.20
  -3   2  10    6.70    3.10
  -3   2  10    2.70    1.50
   2  -2 -10    5.70    3.60
   2  -2 -10    2.10    2.20
   2  -2 -10    3.90    2.30
  -2   2  10   -0.10    2.00
  -2   2  10    3.40    1.40
   1  -2 -10   51.59    7.20
   1  -2 -10   49.80    5.50
   1  -2 -10   44.40    5.40
  -1   2  10   49.10    5.00
  -1   2  10   53.59    4.70
   0  -2 -10   50.89    7.10
   0  -2 -10   68.49    7.60
   0  -2 -10   50.69    5.50
   0   2  10   60.89    5.10
   0   2  10   59.49    5.30
   0   2  10   52.59    5.80
  -1  -2 -10    4.90    2.20
  -1  -2 -10    4.20    3.10
  -1  -2 -10    7.10    3.40
   1   2  10    1.60    1.50
   1   2  10    3.90    2.00
   1   2  10    2.70    1.30
  -2  -2 -10   32.60    4.10
  -2  -2 -10   28.80    4.90
  -2  -2 -10   24.30    5.00
   2   2  10   31.90    3.80
   2   2  10   30.70    3.20
   2   2  10   31.10    3.30
  -3  -2 -10   35.50    6.60
  -3  -2 -10   50.49    5.40
  -3  -2 -10   45.50    6.10
   3   2  10   37.50    3.70
   3   2  10   34.90    4.00
   3   2  10   36.90    3.30
   3   2  10   38.50    3.90
  -4  -2 -10   74.99   10.40
  -4  -2 -10  110.89    9.90
  -4  -2 -10   97.09    9.00
   4   2  10  105.99    7.80
   4   2  10   97.09    7.40
  -5  -2 -10  152.28   13.60
  -5  -2 -10  160.98   14.10
   5   2  10  160.88   12.00
   5   2  10  175.88   12.40
  -6  -2 -10    2.60    3.10
  -6  -2 -10    0.50    2.50
  -6  -2 -10    4.70    4.10
   6   2  10    0.40    1.00
   6   2  10    2.20    1.00
  -7  -2 -10   89.09    9.40
  -7  -2 -10   70.69    8.70
  -7  -2 -10   68.49   10.40
   7   2  10   85.99    6.50
   7   2  10   96.49    6.90
  -8  -2 -10  238.98   20.00
  -8  -2 -10  186.48   19.50
   8   2  10  274.77   18.00
   8   2  10  251.07   17.70
  -9  -2 -10   51.19    7.70
  -9  -2 -10   41.90    6.90
  -9  -2 -10   33.80    8.80
   9   2  10   51.99    4.20
   9   2  10   51.39    4.40
 -10  -2 -10  299.17   22.40
 -10  -2 -10  223.88   22.30
 -10  -2 -10  246.68   21.90
  10   2  10  286.17   19.50
 -11  -2 -10   12.70    6.10
  11   2  10   17.50    2.20
  11   2  10   10.40    2.00
 -12  -2 -10   19.50    5.50
 -12  -2 -10   37.10    8.20
  12   2  10   33.30    3.50
  12   2  10   31.70    3.50
   7  -3 -10    3.30    3.20
   7  -3 -10   13.50    3.90
  -7   3  10    9.10    4.40
  -7   3  10    7.90    3.80
   6  -3 -10   39.10    5.30
   6  -3 -10   25.50    4.40
  -6   3  10   38.80    6.20
  -6   3  10   30.60    5.20
   5  -3 -10    2.50    2.70
   5  -3 -10    3.60    2.80
  -5   3  10    2.70    3.10
  -5   3  10    7.20    3.90
   4  -3 -10   17.90    3.70
   4  -3 -10   25.10    4.10
  -4   3  10   30.80    3.30
  -4   3  10   28.90    5.20
  -4   3  10   26.20    4.40
   3  -3 -10   25.90    4.10
   3  -3 -10   20.40    3.60
  -3   3  10   21.80    4.40
  -3   3  10   24.20    2.90
  -3   3  10   19.20    3.50
   2  -3 -10    8.00    2.80
   2  -3 -10    9.20    4.30
   2  -3 -10    8.20    2.60
  -2   3  10   11.20    3.20
  -2   3  10    5.10    2.30
  -2   3  10    8.50    1.80
   1  -3 -10   24.90    4.00
   1  -3 -10   33.80    4.40
   1  -3 -10   38.70    6.10
   1  -3 -10   31.10    5.80
  -1   3  10   33.10    3.50
  -1   3  10   36.90    4.90
  -1   3  10   35.10    4.10
   0  -3 -10   25.20    3.60
   0  -3 -10   32.10    5.60
   0  -3 -10   32.10    5.80
   0  -3 -10   16.90    3.30
   0   3  10   26.70    3.50
   0   3  10   24.00    2.90
   0   3  10   29.50    4.10
  -1  -3 -10   29.00    5.70
  -1  -3 -10   26.40    5.10
  -1  -3 -10   22.60    3.50
   1   3  10   23.40    2.90
   1   3  10   26.00    3.20
   1   3  10   29.90    3.70
  -2  -3 -10    2.00    3.20
  -2  -3 -10    2.30    3.30
  -2  -3 -10    0.40    1.70
   2   3  10    1.80    1.40
   2   3  10    1.90    1.80
   2   3  10    2.20    1.20
   2   3  10    2.50    0.90
  -3  -3 -10   62.29    8.80
  -3  -3 -10   75.99    8.20
   3   3  10   71.29    5.50
   3   3  10   70.19    6.20
   3   3  10   77.39    6.00
   3   3  10   67.19    5.90
  -4  -3 -10    4.40    3.00
  -4  -3 -10    4.40    3.80
  -4  -3 -10    8.50    3.70
   4   3  10    5.50    1.10
   4   3  10    7.60    1.60
  -5  -3 -10   21.20    5.70
  -5  -3 -10   18.00    4.10
  -5  -3 -10   20.70    5.00
   5   3  10   19.40    2.10
   5   3  10   23.20    2.60
  -6  -3 -10   11.60    4.00
  -6  -3 -10    8.20    4.60
  -6  -3 -10   15.90    3.80
   6   3  10   15.40    2.20
   6   3  10   13.50    1.70
  -7  -3 -10   89.79   12.70
  -7  -3 -10  122.19   11.80
  -7  -3 -10  111.79   10.90
   7   3  10  129.69    9.30
   7   3  10  127.59    9.00
  -8  -3 -10   77.09    8.70
  -8  -3 -10   49.10    7.10
  -8  -3 -10   42.20    9.20
   8   3  10   53.49    4.90
   8   3  10   53.69    4.40
  -9  -3 -10   59.39    8.00
  -9  -3 -10   41.10    9.80
  -9  -3 -10   65.29    8.70
   9   3  10   64.69    5.00
   9   3  10   59.59    5.20
 -10  -3 -10   66.49    8.60
 -10  -3 -10   52.59    8.10
 -10  -3 -10   51.99   10.80
  10   3  10   61.49    5.00
 -11  -3 -10   56.59    8.90
  11   3  10   60.49    4.80
  11   3  10   46.90    4.70
 -12  -3 -10   -0.70    5.30
 -12  -3 -10   -2.50    4.00
  12   3  10    1.90    1.30
  12   3  10    0.10    1.40
   7  -4 -10    1.30    3.40
   6  -4 -10    0.60    2.70
   6  -4 -10   -0.20    2.80
  -6   4  10    0.60    3.60
  -6   4  10    5.20    4.70
   5  -4 -10   24.00    4.50
   5  -4 -10   41.50    5.50
  -5   4  10   33.70    5.80
  -5   4  10   26.20    4.80
   4  -4 -10   -1.30    2.10
   4  -4 -10    0.20    2.30
  -4   4  10   -1.80    3.40
  -4   4  10   -1.00    2.40
   3  -4 -10   -3.40    1.80
   3  -4 -10    3.10    2.30
  -3   4  10    2.30    1.50
  -3   4  10    4.10    2.60
  -3   4  10    0.60    2.80
   2  -4 -10    2.40    2.10
   2  -4 -10    0.00    2.00
  -2   4  10    2.80    2.70
  -2   4  10    0.90    1.30
  -2   4  10    1.10    2.20
   1  -4 -10    5.00    2.40
   1  -4 -10    6.60    4.40
   1  -4 -10    8.20    2.60
  -1   4  10    7.30    2.80
  -1   4  10    5.30    2.20
  -1   4  10    7.30    1.70
   0  -4 -10   11.20    2.80
   0  -4 -10   27.80    5.20
   0  -4 -10   20.00    3.30
   0  -4 -10   16.30    5.00
   0   4  10   21.80    3.80
   0   4  10   21.40    2.70
   0   4  10   15.00    3.00
  -1  -4 -10   35.00    5.80
  -1  -4 -10   27.30    3.90
  -1  -4 -10   25.00    5.80
   1   4  10   26.80    3.40
   1   4  10   29.10    3.20
   1   4  10   27.90    4.00
   1   4  10   23.80    2.40
  -2  -4 -10    6.60    2.40
  -2  -4 -10    9.90    4.20
  -2  -4 -10    9.30    3.90
   2   4  10   11.40    2.20
   2   4  10   10.10    1.80
   2   4  10   11.40    2.60
   2   4  10   11.10    1.40
  -3  -4 -10    1.40    2.10
  -3  -4 -10    1.00    3.30
  -3  -4 -10    3.70    3.50
   3   4  10   -1.00    1.00
   3   4  10   -0.80    0.70
   3   4  10    0.00    1.60
   3   4  10   -0.90    1.30
  -4  -4 -10   -1.60    3.40
  -4  -4 -10   -2.80    3.00
  -4  -4 -10    0.90    2.70
   4   4  10   -0.60    0.70
   4   4  10   -0.20    1.10
  -5  -4 -10    6.90    4.30
  -5  -4 -10    7.10    4.00
  -5  -4 -10    4.90    2.70
   5   4  10    7.40    1.20
   5   4  10    9.20    1.80
  -6  -4 -10   53.99    8.00
  -6  -4 -10   49.30    9.40
  -6  -4 -10   62.99    7.50
   6   4  10   79.09    5.90
   6   4  10   77.09    5.50
  -7  -4 -10   75.99    9.10
  -7  -4 -10   91.99   10.30
  -7  -4 -10   87.49   12.00
   7   4  10  100.19    7.70
   7   4  10  101.79    7.30
  -8  -4 -10    8.20    4.90
  -8  -4 -10    1.70    3.00
  -8  -4 -10    4.90    4.10
   8   4  10    1.50    1.30
   8   4  10    3.60    1.30
  -9  -4 -10   15.80    4.40
  -9  -4 -10   18.10    5.00
  -9  -4 -10   11.40    6.20
   9   4  10   10.00    2.20
   9   4  10   10.40    1.70
 -10  -4 -10    9.00    5.90
 -10  -4 -10   11.90    4.80
 -10  -4 -10    7.20    4.10
  10   4  10    3.00    1.80
  10   4  10    5.20    1.50
  11   4  10   21.80    2.60
  11   4  10   19.40    2.60
   6  -5 -10   -0.50    2.80
   6  -5 -10    5.10    3.20
  -6   5  10    4.10    4.60
  -6   5  10   -6.60    3.50
   5  -5 -10   35.40    5.20
   5  -5 -10   27.50    4.60
  -5   5  10   36.90    6.60
  -5   5  10   23.50    5.10
   4  -5 -10    3.70    3.10
   4  -5 -10   -1.70    2.50
  -4   5  10   -3.80    3.30
  -4   5  10    1.00    2.80
   3  -5 -10   -0.80    2.50
   3  -5 -10    1.60    2.70
  -3   5  10   -2.90    3.30
  -3   5  10    0.40    2.60
  -3   5  10    1.00    1.40
   2  -5 -10   29.40    4.30
   2  -5 -10   34.40    4.80
  -2   5  10   30.40    3.50
  -2   5  10   29.20    4.30
  -2   5  10   32.40    5.20
   1  -5 -10   34.70    5.40
   1  -5 -10   58.49    5.80
  -1   5  10   57.39    6.60
  -1   5  10   59.89    4.90
  -1   5  10   52.19    5.60
   0  -5 -10   52.09    8.20
   0  -5 -10   48.80    5.50
   0   5  10   44.00    5.60
   0   5  10   53.39    4.70
   0   5  10   55.29    5.40
  -1  -5 -10   93.79   10.70
  -1  -5 -10   73.49    7.20
   1   5  10   83.19    6.30
   1   5  10   70.79    7.10
   1   5  10   66.99    5.80
   1   5  10   69.89    6.80
  -2  -5 -10   56.89    8.30
  -2  -5 -10   63.79    6.60
  -2  -5 -10   85.89   10.20
   2   5  10   64.59    6.20
   2   5  10   68.89    5.30
   2   5  10   65.99    6.80
   2   5  10   76.99    5.90
  -3  -5 -10   45.80    5.80
  -3  -5 -10   67.59    9.30
  -3  -5 -10   49.90    7.40
   3   5  10   45.80    5.10
   3   5  10   55.59    5.60
   3   5  10   59.69    4.40
   3   5  10   62.49    5.00
  -4  -5 -10   26.90    4.60
  -4  -5 -10   24.30    5.70
  -4  -5 -10   15.80    5.60
   4   5  10   22.80    2.30
   4   5  10   26.90    3.00
  -5  -5 -10   11.80    3.40
  -5  -5 -10   13.30    5.50
  -5  -5 -10   17.40    5.00
   5   5  10   14.00    1.70
   5   5  10   15.60    2.40
  -6  -5 -10   -4.40    3.60
  -6  -5 -10    1.80    2.90
  -6  -5 -10    2.70    4.10
   6   5  10    1.60    1.40
   6   5  10    0.20    0.80
  -7  -5 -10    1.40    4.60
  -7  -5 -10    2.90    3.10
  -7  -5 -10   10.20    4.60
   7   5  10    9.30    1.40
   7   5  10    7.10    1.90
  -8  -5 -10   22.40    5.60
  -8  -5 -10   26.70    5.30
  -8  -5 -10   18.10    6.70
   8   5  10   28.40    2.70
   8   5  10   31.40    3.40
  -9  -5 -10    2.20    4.80
  -9  -5 -10    1.60    3.30
   9   5  10   -1.50    1.60
   9   5  10    2.00    1.30
 -10  -5 -10   56.59   11.60
  10   5  10   74.29    5.60
  10   5  10   58.59    6.00
 -11  -5 -10   26.80    8.60
  11   5  10   52.19    4.20
   5  -6 -10    2.30    3.10
   5  -6 -10   -5.00    2.30
  -5   6  10    0.20    4.00
  -5   6  10   -1.50    3.40
   4  -6 -10    3.70    3.00
   4  -6 -10    7.20    3.40
  -4   6  10    5.40    4.00
  -4   6  10    4.10    4.40
   3  -6 -10   19.40    4.10
   3  -6 -10    8.00    3.30
  -3   6  10    9.50    3.90
  -3   6  10    7.70    4.50
   2  -6 -10  235.38   18.30
   2  -6 -10  198.78   18.10
  -2   6  10  225.98   18.30
  -2   6  10  247.48   18.90
  -2   6  10  253.57   17.40
   1  -6 -10  102.49    9.90
   1  -6 -10  112.49   10.00
  -1   6  10  106.69    9.70
  -1   6  10  123.09    9.00
  -1   6  10  111.69   10.60
   0  -6 -10   44.60    5.40
   0  -6 -10   30.30    4.90
   0   6  10   46.60    4.20
   0   6  10   40.60    5.00
   0   6  10   37.20    5.50
  -1  -6 -10   20.50    6.90
  -1  -6 -10   21.50    3.70
   1   6  10   24.50    3.00
   1   6  10   22.00    4.10
   1   6  10   19.10    3.20
  -2  -6 -10   34.30    4.60
  -2  -6 -10   47.60    8.70
   2   6  10   28.50    4.50
   2   6  10   39.60    3.80
   2   6  10   31.20    4.10
  -3  -6 -10    2.80    5.10
  -3  -6 -10    2.70    2.30
   3   6  10    5.40    1.60
   3   6  10    2.50    2.10
  -4  -6 -10    4.20    2.80
  -4  -6 -10    3.00    4.80
   4   6  10   -0.30    1.30
   4   6  10    1.20    0.80
  -5  -6 -10  112.49   13.50
  -5  -6 -10  117.49   10.90
   5   6  10  125.59    8.90
   5   6  10  117.29    9.60
  -6  -6 -10   12.50    6.30
  -6  -6 -10   10.40    3.50
   6   6  10    9.50    1.40
   6   6  10    9.30    2.20
  -7  -6 -10   13.30    4.10
  -7  -6 -10   17.20    6.70
   7   6  10   27.50    3.30
   7   6  10   25.10    2.50
  -8  -6 -10    3.00    4.90
   8   6  10    2.80    1.20
   8   6  10    2.90    1.80
  -9  -6 -10   31.50    8.90
   9   6  10   26.20    3.70
   9   6  10   36.50    3.30
 -10  -6 -10    6.90    5.80
  10   6  10   -1.20    1.70
  10   6  10    1.10    1.30
 -11  -6 -10    2.10    6.00
  11   6  10   10.30    1.90
   5  -7 -10    0.00    3.00
   5  -7 -10    4.70    3.70
  -5   7  10    8.60    3.90
   4  -7 -10   80.69    8.90
   4  -7 -10   88.19    9.00
  -4   7  10   82.29    9.20
  -4   7  10   83.59   10.20
   3  -7 -10   21.20    4.60
   3  -7 -10   36.40    5.10
  -3   7  10   22.20    5.50
  -3   7  10   29.70    4.90
   2  -7 -10    1.00    2.60
   2  -7 -10    3.00    2.70
  -2   7  10    8.70    3.40
  -2   7  10    2.30    3.90
   1  -7 -10   -2.00    2.30
   1  -7 -10   -0.20    2.50
  -1   7  10    0.50    1.50
  -1   7  10    4.30    2.60
  -1   7  10    0.60    3.20
   0  -7 -10    2.60    2.40
   0  -7 -10   -3.70    2.40
   0   7  10    0.30    1.70
   0   7  10   -5.60    2.50
   0   7  10    2.10    2.50
  -1  -7 -10    2.30    2.50
   1   7  10    1.10    2.90
   1   7  10    0.80    2.40
   1   7  10    0.90    1.80
  -2  -7 -10   30.20    4.40
  -2  -7 -10   37.10    8.30
   2   7  10   34.20    4.80
   2   7  10   34.80    3.80
  -3  -7 -10   17.20    3.40
  -3  -7 -10   12.60    6.20
   3   7  10   18.80    3.30
   3   7  10   20.40    2.90
  -4  -7 -10   70.69    7.70
  -4  -7 -10   66.59   10.60
   4   7  10   70.99    6.20
  -5  -7 -10  116.29   14.20
  -5  -7 -10  116.39   11.00
   5   7  10  126.49    9.90
  -6  -7 -10  272.77   25.10
   6   7  10  270.47   20.30
  -7  -7 -10   81.49   12.30
   7   7  10   89.49    6.90
   7   7  10   91.79    7.70
  -8  -7 -10   -5.10    4.80
   8   7  10   -0.80    1.00
   8   7  10   -1.10    1.90
  -9  -7 -10    0.80    5.30
   9   7  10    6.50    1.50
   9   7  10    7.60    2.40
 -10  -7 -10   17.60    8.40
  10   7  10   17.70    2.40
  10   7  10   12.30    2.70
   4  -8 -10   18.10    4.70
   4  -8 -10   34.70    5.30
  -4   8  10   19.70    5.00
   3  -8 -10   14.60    4.00
   3  -8 -10   23.20    4.60
  -3   8  10   17.70    4.50
  -3   8  10   15.40    5.50
   2  -8 -10   -0.20    2.80
   2  -8 -10    2.80    2.90
  -2   8  10   -1.50    3.10
  -2   8  10    0.90    3.80
   1  -8 -10   62.09    7.20
   1  -8 -10   61.79    7.10
  -1   8  10   70.79    8.40
  -1   8  10   63.59    6.00
   0  -8 -10   35.90    4.70
   0  -8 -10   21.80    4.50
   0   8  10   32.20    3.80
   0   8  10   37.80    6.00
  -1  -8 -10    0.40    2.30
   1   8  10    1.90    3.20
   1   8  10   -0.60    1.70
  -2  -8 -10   -0.10    2.20
  -2  -8 -10   -6.00    4.90
   2   8  10    1.30    2.60
   2   8  10   -1.30    1.50
  -3  -8 -10    6.30    6.20
  -3  -8 -10    5.80    2.70
   3   8  10   10.50    2.40
   3   8  10   10.40    3.10
  -4  -8 -10    1.00    5.20
   4   8  10   -1.30    1.80
  -5  -8 -10   -1.00    5.10
   5   8  10    4.00    1.90
  -6  -8 -10  198.88   20.70
   6   8  10  187.18   14.80
  -7  -8 -10    1.80    5.30
   7   8  10   -1.20    1.70
  -8  -8 -10    1.50    6.00
   8   8  10   -3.50    1.90
  -9  -8 -10    5.80    6.80
   9   8  10    5.80    2.30
 -10  -8 -10    6.70    7.30
  10   8  10    6.30    2.30
   2  -9 -10    2.20    3.20
   2  -9 -10   -1.70    2.90
  -2   9  10    8.40    4.60
   1  -9 -10   17.60    4.00
   1  -9 -10   10.70    4.00
  -1   9  10   12.80    4.80
   0  -9 -10    5.30    2.70
   0   9  10    2.30    3.90
   0   9  10   -4.60    1.90
   1   9  10    0.80    3.40
   1   9  10    0.40    1.90
  -2  -9 -10   65.89   12.50
   2   9  10   75.99    7.50
   2   9  10   45.10    5.50
  -3  -9 -10   66.39   11.90
   3   9  10   46.10    5.50
  -4  -9 -10   25.50    9.00
   4   9  10   15.10    3.20
  -5  -9 -10   -3.60    6.20
   5   9  10    2.90    2.10
  -6  -9 -10   16.60    7.80
   6   9  10    8.90    2.70
  -7  -9 -10   45.10   10.80
   7   9  10   48.80    5.50
  -8  -9 -10   30.90    9.40
   8   9  10   27.20    4.10
  -9  -9 -10   61.69   13.10
  -1  10  10   31.30    6.10
   0  10  10   32.30    6.10
   1  10  10   13.80    4.20
   1  10  10    0.60    2.30
  -2 -10 -10   -7.40    6.50
   2  10  10    0.60    2.20
  -3 -10 -10   -5.80    6.60
   3  10  10   -0.10    2.00
  -4 -10 -10    0.20    6.40
   4  10  10    6.80    2.50
  -5 -10 -10   11.30    8.20
   5  10  10    7.60    2.50
  -6 -10 -10   22.80    9.30
   6  10  10   10.00    3.00
  -7 -10 -10   24.80    9.00
   7  10  10   21.90    3.70
  -2 -11 -10   -4.90    7.70
   2  11  10    4.90    2.40
   2  11  10   -0.80    3.30
  -3 -11 -10    1.50    8.00
   3  11  10    4.40    2.40
  -4 -11 -10   -4.30    7.60
   4  11  10   -0.80    2.40
  -5 -11 -10   -6.90    7.00
   5  11  10    3.90    2.30
   0   9 -11   32.50    4.70
   0  -9  11   25.30    4.10
   0  -9  11   27.50    4.10
  -1   9 -11   17.70    3.00
   1  -9  11   12.70    3.00
   3   8 -11   16.40    4.80
  -3  -8  11   10.00    3.20
   2   8 -11    9.30    3.70
  -2  -8  11   10.70    2.90
  -2  -8  11    7.40    2.60
   1   8 -11   12.80    3.70
  -1  -8  11    9.90    2.70
  -1  -8  11   13.00    2.80
   0   8 -11    3.50    2.70
   0  -8  11    3.50    2.00
   0  -8  11    6.30    2.40
  -1   8 -11    7.10    2.50
   1  -8  11    2.60    1.90
   1  -8  11   -0.50    2.10
  -2   8 -11   10.70    2.10
   2  -8  11   -0.20    2.20
  -3   8 -11   44.50    4.00
   3  -8  11   37.20    3.90
   4  -8  11   -0.20    1.20
   4   7 -11   27.30    5.60
  -4  -7  11   20.30    3.70
  -4  -7  11   19.90    3.50
   3   7 -11  149.39   14.10
  -3  -7  11  152.88   12.30
  -3  -7  11  147.89   12.40
   2   7 -11  201.78   16.20
  -2  -7  11  193.78   14.90
  -2  -7  11  166.28   14.40
   1   7 -11   75.09    8.00
  -1  -7  11   66.79    6.60
  -1  -7  11   64.39    6.60
   0   7 -11   33.30    4.90
   0  -7  11   33.60    4.30
   0  -7  11   29.70    3.90
  -1   7 -11    4.90    2.40
   1  -7  11    0.10    1.90
   1  -7  11    3.90    1.90
  -2   7 -11   62.39    5.80
   2  -7  11   47.00    5.80
  -3   7 -11    4.00    1.70
  -3   7 -11    2.40    3.80
   3  -7  11    3.40    1.20
   3  -7  11   -1.70    1.70
  -4   7 -11   40.60    4.20
  -4   7 -11   49.80    7.60
   4  -7  11   38.60    3.80
   4  -7  11   49.60    4.80
  -5   7 -11    2.20    4.30
  -5   7 -11   -1.50    1.40
   5  -7  11    1.60    1.10
   6  -7  11    2.80    1.80
   6  -7  11    2.30    1.30
   5   6 -11    4.40    4.40
  -5  -6  11    7.90    2.50
  -5  -6  11    3.70    2.50
   4   6 -11   12.00    4.50
  -4  -6  11    5.80    2.60
  -4  -6  11    8.60    2.50
   3   6 -11    6.80    3.60
  -3  -6  11    2.00    2.00
  -3  -6  11    6.20    2.30
   2   6 -11    4.70    3.30
  -2  -6  11   11.20    2.50
  -2  -6  11    3.20    2.30
   1   6 -11  168.18   14.20
  -1  -6  11  168.98   13.20
  -1  -6  11  151.48   12.80
   0   6 -11   90.39    8.40
   0  -6  11   67.99    7.00
   0  -6  11   80.69    7.30
  -1   6 -11   21.20    5.20
  -1   6 -11   39.60    4.80
   1  -6  11   35.80    4.40
   1  -6  11   25.00    3.70
  -2   6 -11    5.20    2.10
  -2   6 -11   -1.20    3.40
   2  -6  11    0.50    1.80
  -3   6 -11  199.08   14.90
  -3   6 -11  184.18   16.80
   3  -6  11  189.28   14.90
  -4   6 -11    1.90    1.80
  -4   6 -11    3.00    3.50
   4  -6  11    2.70    1.30
   4  -6  11    3.30    2.00
  -5   6 -11   86.69   10.00
  -5   6 -11   74.69    6.80
   5  -6  11   79.29    6.30
  -6   6 -11    2.30    4.10
  -6   6 -11   -0.70    1.70
   6  -6  11   -1.70    1.10
  -7   6 -11   13.20    5.20
   7  -6  11   12.90    2.00
   7  -6  11    9.10    2.20
   6   5 -11    4.80    4.90
  -6  -5  11    1.40    2.60
  -6  -5  11   -1.10    2.00
   5   5 -11   17.00    5.40
  -5  -5  11   12.80    3.20
  -5  -5  11   18.70    3.40
   4   5 -11    4.50    4.00
  -4  -5  11    1.00    2.20
  -4  -5  11    4.00    2.00
   3   5 -11   -4.10    3.10
  -3  -5  11    1.40    2.00
  -3  -5  11    1.50    1.90
   2   5 -11    0.00    3.00
   2   5 -11    0.50    3.00
  -2  -5  11    0.10    1.90
  -2  -5  11    1.10    1.80
   1   5 -11   36.60    5.70
   1   5 -11   40.20    5.90
  -1  -5  11   31.60    4.30
  -1  -5  11   48.60    5.00
   0   5 -11    7.60    2.80
   0   5 -11    1.90    2.90
   0  -5  11   -1.70    1.70
   0  -5  11    0.00    1.80
  -1   5 -11   10.30    3.70
  -1   5 -11   13.10    3.30
   1  -5  11   13.10    2.80
   1  -5  11   14.50    2.50
  -2   5 -11    2.00    2.00
  -2   5 -11    3.20    3.20
   2  -5  11    2.10    1.80
  -3   5 -11    2.50    1.90
  -3   5 -11    3.70    3.20
   3  -5  11    1.90    1.80
  -4   5 -11    5.60    2.10
  -4   5 -11    0.70    3.30
   4  -5  11    2.30    1.20
   4  -5  11    0.40    1.70
  -5   5 -11    2.20    3.90
  -5   5 -11    6.60    2.40
   5  -5  11    6.30    2.00
   5  -5  11    9.60    1.60
  -6   5 -11    4.00    2.30
  -6   5 -11    2.70    3.60
  -6   5 -11    4.50    3.70
   6  -5  11    2.50    1.10
  -7   5 -11    1.90    2.10
  -7   5 -11    0.90    3.80
  -7   5 -11    3.60    4.20
   7  -5  11   -0.60    1.00
  -8   5 -11   33.80    7.40
   8  -5  11   40.40    4.30
   8  -5  11   37.30    3.60
   6   4 -11    9.20    4.90
  -6  -4  11    5.00    2.50
  -6  -4  11    0.90    1.80
   5   4 -11   22.00    5.60
  -5  -4  11    7.40    2.50
  -5  -4  11   12.30    2.80
   4   4 -11    1.60    3.80
  -4  -4  11    1.70    2.00
  -4  -4  11    1.00    2.10
   3   4 -11   26.60    5.40
  -3  -4  11   16.00    3.00
  -3  -4  11   15.20    2.90
   2   4 -11    3.30    3.20
   2   4 -11    0.00    2.50
  -2  -4  11    2.80    2.00
  -2  -4  11    1.70    1.80
   1   4 -11   34.80    5.10
   1   4 -11   35.00    5.60
  -1  -4  11   31.70    4.10
  -1  -4  11   32.50    3.90
   0   4 -11    6.40    3.20
   0   4 -11    8.10    3.00
   0  -4  11    5.40    1.90
   0  -4  11    4.40    2.00
  -1   4 -11   63.99    6.90
  -1   4 -11   61.69    7.00
   1  -4  11   61.69    5.70
   1  -4  11   66.29    6.00
  -2   4 -11   41.80    6.20
  -2   4 -11   49.10    5.70
   2  -4  11   48.00    4.90
   2  -4  11   45.80    4.70
  -3   4 -11   22.10    4.90
  -3   4 -11   33.30    4.30
   3  -4  11   24.40    3.30
  -4   4 -11    2.80    3.30
  -4   4 -11    5.70    2.30
   4  -4  11    2.00    1.00
   4  -4  11    1.50    1.60
  -5   4 -11   14.00    2.90
  -5   4 -11    5.10    3.70
  -5   4 -11   11.40    3.90
   5  -4  11    8.70    2.00
   5  -4  11    9.80    1.60
  -6   4 -11   44.60    7.20
  -6   4 -11   46.70    5.60
   6  -4  11   49.90    4.50
   6  -4  11   46.80    4.20
  -7   4 -11   56.59    8.90
  -7   4 -11   65.29    7.10
  -7   4 -11   74.19    9.70
   7  -4  11   76.39    5.70
  -8   4 -11   19.00    5.40
  -8   4 -11   29.50    6.60
  -8   4 -11   31.50    4.40
   8  -4  11   23.90    2.80
  -9   4 -11   59.79    9.70
   9  -4  11   59.19    5.70
   9  -4  11   61.29    5.10
   6   3 -11    7.80    4.90
  -6  -3  11   -2.60    2.60
  -6  -3  11    1.70    2.00
   5   3 -11   10.40    4.70
   5   3 -11    6.20    2.90
  -5  -3  11    5.20    2.60
  -5  -3  11    6.20    2.10
   4   3 -11    8.90    4.20
   4   3 -11    0.40    2.50
  -4  -3  11    2.70    1.90
  -4  -3  11    5.60    2.20
   3   3 -11    3.70    3.60
   3   3 -11   -3.60    2.10
  -3  -3  11   -1.20    1.60
  -3  -3  11   -0.80    1.80
   2   3 -11   16.80    3.40
   2   3 -11   22.10    5.10
  -2  -3  11   22.50    3.30
  -2  -3  11   22.70    3.30
   1   3 -11    9.70    3.50
  -1  -3  11    3.90    1.90
  -1  -3  11    4.50    1.70
   0   3 -11   56.89    6.40
   0   3 -11   58.19    6.90
   0  -3  11   47.60    5.00
   0  -3  11   53.19    5.40
  -1   3 -11   -1.20    2.30
  -1   3 -11    2.00    2.30
   1  -3  11    0.00    1.40
   1  -3  11    2.30    1.60
  -2   3 -11    9.80    2.90
  -2   3 -11   10.30    3.30
   2  -3  11    9.00    1.90
   2  -3  11    9.30    2.10
  -3   3 -11    5.80    3.10
  -3   3 -11    9.20    2.60
   3  -3  11    5.10    1.90
  -4   3 -11    2.40    2.20
  -4   3 -11    0.00    2.70
  -4   3 -11    0.60    2.80
   4  -3  11   -1.60    0.80
   4  -3  11    2.20    1.60
  -5   3 -11   -2.30    3.10
  -5   3 -11   -0.40    3.10
  -5   3 -11    1.60    2.30
   5  -3  11    0.60    0.90
   5  -3  11   -0.90    1.30
  -6   3 -11  100.79    9.70
  -6   3 -11  115.99   11.10
  -6   3 -11   89.09   11.10
   6  -3  11  123.79    8.90
   6  -3  11  112.19    8.50
  -7   3 -11    0.60    4.10
  -7   3 -11    2.80    2.70
  -7   3 -11    1.10    3.30
   7  -3  11    3.10    1.00
  -8   3 -11   29.80    6.20
  -8   3 -11   23.10    4.20
  -8   3 -11   24.90    5.60
   8  -3  11   22.00    2.60
  -9   3 -11    2.50    4.40
  -9   3 -11    3.80    4.00
   9  -3  11    2.20    1.40
   9  -3  11    0.90    1.00
 -10   3 -11   10.70    5.20
 -10   3 -11    9.70    3.60
  10  -3  11   12.40    2.30
  10  -3  11   17.30    2.20
  -7  -2  11   64.49    6.90
   6   2 -11    9.30    5.10
   6   2 -11    0.20    2.60
   6   2 -11   -6.40    2.40
  -6  -2  11   -3.40    2.60
  -6  -2  11   -2.10    1.80
   5   2 -11   91.49   10.60
   5   2 -11   76.59    7.90
  -5  -2  11   83.89    7.70
  -5  -2  11   73.99    7.00
   4   2 -11    8.40    4.30
   4   2 -11    1.70    2.40
  -4  -2  11    1.70    1.70
  -4  -2  11   -1.60    2.20
   3   2 -11   21.20    5.20
   3   2 -11    9.40    2.80
  -3  -2  11   10.60    2.60
  -3  -2  11   14.60    2.60
   2   2 -11    1.40    3.30
   2   2 -11    5.40    2.60
  -2  -2  11    2.00    1.90
  -2  -2  11    5.80    2.00
   1   2 -11   13.60    4.10
   1   2 -11    6.40    2.60
  -1  -2  11    9.80    2.20
  -1  -2  11    9.80    2.10
   0   2 -11   59.79    7.10
   0  -2  11   53.99    5.20
   0  -2  11   50.69    4.90
  -1   2 -11    1.50    2.40
  -1   2 -11   -3.00    2.10
   1  -2  11   -1.40    1.20
   1  -2  11   -0.60    1.30
  -2   2 -11    0.20    2.30
  -2   2 -11    0.70    2.40
   2  -2  11    0.50    1.40
   2  -2  11   -0.70    1.30
  -3   2 -11   55.79    6.60
  -3   2 -11   42.80    6.00
  -3   2 -11   46.20    5.80
   3  -2  11   52.59    4.80
  -4   2 -11    1.60    2.90
  -4   2 -11    4.40    2.80
  -4   2 -11    5.20    2.50
   4  -2  11    4.40    1.20
   4  -2  11    4.20    1.60
  -5   2 -11   20.80    4.90
  -5   2 -11   22.30    4.80
  -5   2 -11   29.60    4.30
   5  -2  11   23.00    2.50
   5  -2  11   26.10    3.10
  -6   2 -11    3.60    2.60
  -6   2 -11   -2.00    2.70
  -6   2 -11    3.00    3.60
   6  -2  11    0.40    1.30
   6  -2  11   -0.80    0.90
  -7   2 -11   12.90    3.70
  -7   2 -11   13.40    4.80
  -7   2 -11   11.30    4.20
   7  -2  11   17.00    1.90
   7  -2  11   13.20    2.10
  -8   2 -11    9.50    4.50
  -8   2 -11   11.30    4.20
  -8   2 -11    5.50    3.00
   8  -2  11    5.60    1.30
  -9   2 -11   23.10    6.80
  -9   2 -11   26.60    5.00
  -9   2 -11   41.40    7.10
   9  -2  11   34.20    3.20
 -10   2 -11   66.89   11.00
  10  -2  11   97.59    7.10
  10  -2  11   83.49    7.40
   7   1 -11   26.30    4.40
   7   1 -11   11.90    4.00
  -7  -1  11   23.00    4.10
   6   1 -11   82.89    7.90
   6   1 -11   61.39    7.70
  -6  -1  11   73.19    7.60
   5   1 -11   26.90    4.10
   5   1 -11   11.80    3.40
   5   1 -11   26.60    6.50
  -5  -1  11   22.20    3.60
  -5  -1  11   18.50    3.10
   4   1 -11   48.70    5.90
   4   1 -11   58.19    8.50
  -4  -1  11   59.09    5.50
  -4  -1  11   49.90    5.60
   3   1 -11   77.49    9.60
   3   1 -11   64.89    6.60
  -3  -1  11   57.59    5.80
  -3  -1  11   57.19    5.70
   2   1 -11    2.60    3.60
   2   1 -11    0.80    2.20
  -2  -1  11    1.80    1.90
  -2  -1  11   -2.50    1.30
   1   1 -11   18.90    4.60
   1   1 -11   13.70    3.00
  -1  -1  11   10.20    2.40
  -1  -1  11   18.50    2.70
   0   1 -11    0.00    2.00
   0   1 -11    3.60    3.00
   0  -1  11   -0.30    1.30
   0  -1  11    3.40    1.60
  -1   1 -11   93.59    8.70
   1  -1  11   75.99    6.90
   1  -1  11   77.39    6.70
  -2   1 -11   15.40    3.70
  -2   1 -11   12.40    3.40
   2  -1  11   12.70    2.20
   2  -1  11   11.10    2.00
  -3   1 -11   14.50    3.90
  -3   1 -11   11.60    3.30
   3  -1  11   11.90    2.20
  -4   1 -11   31.50    4.80
  -4   1 -11   24.90    4.70
  -4   1 -11   25.00    4.70
   4  -1  11   23.20    2.60
   4  -1  11   32.20    3.30
  -5   1 -11  166.08   15.60
  -5   1 -11  179.38   16.10
  -5   1 -11  193.18   15.40
   5  -1  11  205.58   14.10
   5  -1  11  181.98   13.70
  -6   1 -11   30.20    6.00
  -6   1 -11   43.00    7.10
  -6   1 -11   44.90    6.00
   6  -1  11   46.90    4.10
   6  -1  11   40.70    3.60
  -7   1 -11    0.70    3.30
  -7   1 -11    5.80    3.80
  -7   1 -11    0.70    3.10
   7  -1  11    3.60    1.40
   7  -1  11    4.60    1.10
  -8   1 -11   26.80    6.30
  -8   1 -11   12.10    4.60
  -8   1 -11   22.00    4.60
   8  -1  11   17.90    2.30
  -9   1 -11    5.70    3.40
  -9   1 -11    3.40    3.80
  -9   1 -11    2.60    3.90
   9  -1  11    1.10    0.90
 -10   1 -11    0.10    4.20
 -10   1 -11   -0.80    3.70
  10  -1  11    3.10    1.40
  10  -1  11    1.40    1.30
 -11   1 -11    0.60    3.30
 -11   1 -11    4.70    5.50
  11  -1  11    4.70    1.40
  11  -1  11    5.70    1.70
   7   0 -11    6.80    3.30
   7   0 -11   -0.60    2.90
  -7   0  11   -3.80    3.40
   6   0 -11   -3.00    2.50
   6   0 -11    3.60    2.90
  -6   0  11   -5.80    2.50
   5   0 -11    5.80    3.00
   5   0 -11    1.60    2.80
  -5   0  11    4.10    2.40
  -5   0  11    3.70    2.10
   4   0 -11    3.00    4.10
   4   0 -11    5.20    2.90
   4   0 -11   -2.30    2.50
  -4   0  11    1.70    1.90
  -4   0  11    4.20    2.30
   3   0 -11   90.49    8.30
   3   0 -11   97.59   10.60
   3   0 -11   64.39    7.90
  -3   0  11  101.59    7.90
  -3   0  11   85.09    7.40
   2   0 -11   43.20    5.20
   2   0 -11   36.80    6.40
  -2   0  11   36.00    4.10
  -2   0  11   35.50    4.40
   1   0 -11  117.39   11.70
   1   0 -11  117.49   10.30
  -1   0  11  115.29    9.60
  -1   0  11  124.39    9.60
   0   0 -11    2.80    2.20
   0   0 -11    5.00    3.30
   0   0  11    6.50    1.90
   0   0  11    3.60    1.70
  -1   0 -11   53.99    6.30
  -1   0 -11   66.79    7.70
   1   0  11   66.59    5.50
   1   0  11   61.19    5.60
  -2   0 -11  273.87   20.50
  -2   0 -11  264.17   20.70
   2   0  11  250.97   18.90
   2   0  11  251.27   19.20
  -3   0 -11    3.70    2.90
  -3   0 -11    0.10    2.80
  -3   0 -11   -0.20    2.40
   3   0  11    2.60    1.40
  -4   0 -11   28.20    6.40
  -4   0 -11   31.80    5.20
  -4   0 -11   29.90    5.10
   4   0  11   27.20    2.90
   4   0  11   34.40    3.40
  -5   0 -11  138.69   12.10
  -5   0 -11  127.99   12.10
  -5   0 -11  109.49   13.80
   5   0  11  138.39   10.10
   5   0  11  151.08   10.50
  -6   0 -11   79.99    9.00
  -6   0 -11   71.49    8.70
   6   0  11   83.89    6.60
   6   0  11   98.09    7.10
  -7   0 -11    2.90    3.40
  -7   0 -11   -1.40    3.10
  -7   0 -11   -2.70    2.70
   7   0  11   -0.20    0.90
   7   0  11    1.00    1.20
  -8   0 -11   59.39    7.60
  -8   0 -11   47.60    7.70
  -8   0 -11   43.30    7.80
   8   0  11   54.39    4.70
   8   0  11   63.69    5.00
  -9   0 -11    5.00    4.30
  -9   0 -11   -1.80    3.80
  -9   0 -11   -2.60    3.20
   9   0  11    0.00    1.00
 -10   0 -11    6.50    4.70
 -10   0 -11    4.70    3.90
  10   0  11    0.50    1.20
 -11   0 -11   21.50    6.40
  11   0  11   27.50    2.90
  11   0  11   18.90    2.80
   7  -1 -11    8.30    3.30
   7  -1 -11   21.80    4.20
   6  -1 -11    8.40    3.40
   6  -1 -11    0.30    2.80
  -6   1  11    4.40    3.40
  -6   1  11   10.70    4.70
   5  -1 -11  100.59    8.70
   5  -1 -11   72.19    8.10
  -5   1  11   77.29    8.00
   4  -1 -11   63.99   10.00
   4  -1 -11   76.49    7.10
   4  -1 -11   49.50    6.60
  -4   1  11   68.19    6.10
  -4   1  11   66.39    6.60
   3  -1 -11  113.79   11.30
   3  -1 -11  106.39    9.10
   3  -1 -11   80.89    8.90
  -3   1  11   89.49    8.40
  -3   1  11   98.29    8.10
   2  -1 -11   28.10    5.80
   2  -1 -11   12.10    3.30
   2  -1 -11   23.80    4.00
  -2   1  11   21.50    2.90
  -2   1  11   15.70    3.00
   1  -1 -11   24.80    4.00
   1  -1 -11   27.60    5.50
  -1   1  11   22.20    3.10
  -1   1  11   20.60    3.10
   0  -1 -11   57.89    6.20
   0  -1 -11   56.89    7.80
   0   1  11   57.09    5.20
   0   1  11   53.89    5.40
  -1  -1 -11  129.69   11.60
  -1  -1 -11  150.58   13.00
   1   1  11  145.69   11.00
   1   1  11  138.99   10.90
  -2  -1 -11   96.49   10.00
   2   1  11  102.89    8.10
   2   1  11  100.99    8.20
  -3  -1 -11   30.90    5.40
  -3  -1 -11   26.30    5.70
  -3  -1 -11   23.90    4.50
   3   1  11   24.80    3.10
   3   1  11   23.70    2.40
  -4  -1 -11   -2.00    2.40
  -4  -1 -11    1.40    3.10
  -4  -1 -11    2.60    3.10
   4   1  11    0.10    0.90
   4   1  11   -0.10    1.20
  -5  -1 -11    2.50    2.80
  -5  -1 -11    2.50    3.50
  -5  -1 -11    0.70    3.00
   5   1  11    3.70    1.20
   5   1  11    4.00    1.60
  -6  -1 -11   49.60    9.50
  -6  -1 -11   54.49    7.60
  -6  -1 -11   64.19    8.00
   6   1  11   76.49    5.60
   6   1  11   63.59    5.20
  -7  -1 -11    0.30    4.00
  -7  -1 -11   -0.60    3.30
  -7  -1 -11   -1.80    3.30
   7   1  11   -0.50    1.00
   7   1  11    2.50    1.30
  -8  -1 -11   50.69    7.80
  -8  -1 -11   57.49    7.50
   8   1  11   47.90    4.40
   8   1  11   55.99    4.80
  -9  -1 -11   55.39    7.90
  -9  -1 -11   48.00    8.40
  -9  -1 -11   42.80    7.60
   9   1  11   61.79    4.80
 -10  -1 -11  104.49   11.50
 -10  -1 -11  115.99   11.20
 -10  -1 -11   80.09   12.10
  10   1  11  110.39    8.30
 -11  -1 -11    3.00    4.80
  11   1  11   -3.40    1.10
  11   1  11   -1.30    1.30
   6  -2 -11    9.30    3.30
   6  -2 -11   10.40    3.70
  -6   2  11   17.10    4.30
  -6   2  11   12.20    5.00
   5  -2 -11   -0.20    2.40
   5  -2 -11   -1.00    2.80
  -5   2  11    3.00    2.70
  -5   2  11    5.60    4.20
   4  -2 -11   24.60    4.70
   4  -2 -11   33.70    5.10
  -4   2  11   51.49    5.60
  -4   2  11   54.99    7.00
  -4   2  11   45.90    4.40
   3  -2 -11   40.80    5.20
   3  -2 -11   23.90    4.30
   3  -2 -11   24.60    6.90
  -3   2  11   38.80    6.00
  -3   2  11   42.30    4.80
  -3   2  11   34.30    4.00
   2  -2 -11    0.00    2.00
   2  -2 -11   12.60    4.60
   2  -2 -11    8.00    2.80
  -2   2  11    2.90    1.60
  -2   2  11    3.20    2.10
  -2   2  11    2.30    2.80
   1  -2 -11   94.69    9.10
   1  -2 -11  114.49   11.40
  -1   2  11  107.09    8.70
  -1   2  11  110.39    9.60
  -1   2  11  103.19    8.50
   0  -2 -11    0.60    2.00
   0  -2 -11    6.50    3.90
   0   2  11    2.70    1.50
   0   2  11    2.00    2.40
   0   2  11    4.30    1.80
  -1  -2 -11   71.59    9.20
  -1  -2 -11   76.09    7.50
  -1  -2 -11   89.89    9.40
   1   2  11   83.99    6.80
   1   2  11   83.59    7.00
   1   2  11   85.39    7.50
  -2  -2 -11    2.00    3.30
  -2  -2 -11    2.80    2.00
  -2  -2 -11    4.60    3.30
   2   2  11    3.80    1.50
   2   2  11    4.10    2.10
   2   2  11    2.50    1.70
  -3  -2 -11   33.60    5.60
  -3  -2 -11   24.50    5.80
  -3  -2 -11   40.90    5.50
   3   2  11   33.60    3.70
   3   2  11   31.70    2.90
  -4  -2 -11   13.30    5.20
  -4  -2 -11   14.50    3.90
  -4  -2 -11   18.90    4.70
   4   2  11   18.00    2.50
   4   2  11   17.60    2.10
  -5  -2 -11    1.80    4.00
  -5  -2 -11    3.10    3.20
  -5  -2 -11   -1.60    3.00
   5   2  11    0.40    0.80
   5   2  11    0.40    1.30
  -6  -2 -11   89.29   10.20
  -6  -2 -11   78.59   11.30
  -6  -2 -11   93.79    9.60
   6   2  11  107.49    8.00
   6   2  11  107.49    7.60
  -7  -2 -11  174.28   20.40
  -7  -2 -11  217.98   18.70
  -7  -2 -11  181.98   18.10
   7   2  11  260.27   16.50
   7   2  11  232.08   16.10
  -8  -2 -11    9.90    4.20
  -8  -2 -11    5.30    3.80
  -8  -2 -11    6.10    5.00
   8   2  11    7.90    1.70
   8   2  11    8.30    1.40
  -9  -2 -11  215.78   18.50
  -9  -2 -11  179.78   17.90
   9   2  11  217.68   15.80
   9   2  11  224.08   15.60
 -10  -2 -11   -0.40    3.70
 -10  -2 -11    0.50    4.10
 -10  -2 -11   -1.40    3.70
  10   2  11    0.10    1.10
 -11  -2 -11    2.80    5.30
  11   2  11    2.70    1.30
  11   2  11    1.70    1.30
   6  -3 -11   -0.10    3.00
   6  -3 -11   -3.30    3.10
  -6   3  11   -3.80    4.20
  -6   3  11   -4.00    3.50
   5  -3 -11   -2.60    2.90
   5  -3 -11    2.50    2.80
  -5   3  11   -2.00    3.00
  -5   3  11   -2.60    3.30
   4  -3 -11    1.10    2.80
   4  -3 -11   -1.50    2.40
  -4   3  11   -1.80    2.50
  -4   3  11   -2.10    1.70
  -4   3  11    0.10    3.30
   3  -3 -11    1.40    2.70
   3  -3 -11   -2.40    2.40
  -3   3  11   -3.30    3.10
  -3   3  11   -0.20    1.40
  -3   3  11   -3.60    2.10
   2  -3 -11   16.00    3.90
   2  -3 -11   40.50    4.90
  -2   3  11   29.40    4.00
  -2   3  11   30.40    3.50
  -2   3  11   24.40    4.60
   1  -3 -11   33.90    5.30
   1  -3 -11   52.79    5.70
   1  -3 -11   53.19    7.60
  -1   3  11   54.99    4.80
  -1   3  11   54.39    5.60
  -1   3  11   50.49    6.20
   0  -3 -11    0.30    3.40
   0  -3 -11   -1.90    3.10
   0  -3 -11    0.10    1.90
   0   3  11    1.40    1.40
   0   3  11    0.10    2.40
   0   3  11   -2.50    1.90
  -1  -3 -11    9.60    4.20
  -1  -3 -11    6.60    3.90
  -1  -3 -11   10.00    2.80
   1   3  11    6.20    2.50
   1   3  11    8.10    1.90
   1   3  11    6.40    2.20
  -2  -3 -11   30.40    4.60
  -2  -3 -11   37.70    7.10
  -2  -3 -11   43.70    6.60
   2   3  11   43.90    3.50
   2   3  11   44.80    4.20
   2   3  11   42.50    4.70
   2   3  11   41.10    4.30
  -3  -3 -11    6.30    3.80
  -3  -3 -11    4.30    3.60
   3   3  11    7.40    1.80
   3   3  11    5.40    1.20
  -4  -3 -11   -1.40    2.50
  -4  -3 -11    0.50    3.30
  -4  -3 -11    1.70    3.70
   4   3  11    1.40    1.40
   4   3  11    0.00    0.80
  -5  -3 -11   23.10    6.30
  -5  -3 -11   33.50    5.60
  -5  -3 -11   36.70    6.40
   5   3  11   32.30    3.00
   5   3  11   33.90    3.50
  -6  -3 -11  138.49   13.40
  -6  -3 -11  153.58   14.20
  -6  -3 -11  120.09   15.30
   6   3  11  156.78   11.50
   6   3  11  186.18   12.00
  -7  -3 -11   16.20    4.20
  -7  -3 -11   19.20    5.60
  -7  -3 -11   16.60    6.10
   7   3  11   19.50    2.60
   7   3  11   16.40    2.10
  -8  -3 -11  136.09   17.80
  -8  -3 -11  165.38   16.00
  -8  -3 -11  156.88   15.60
   8   3  11  200.48   13.60
   8   3  11  195.88   13.20
  -9  -3 -11  153.88   15.10
  -9  -3 -11  128.19   14.10
  -9  -3 -11  127.39   17.20
   9   3  11  193.78   12.10
   9   3  11  162.28   12.20
 -10  -3 -11   67.39    9.10
 -10  -3 -11   63.59    8.80
  10   3  11   63.89    5.50
 -11  -3 -11    3.00    5.30
 -11  -3 -11    8.10    4.80
  11   3  11    5.30    1.50
  11   3  11    5.30    1.60
   6  -4 -11   -4.50    3.30
   5  -4 -11   26.60    5.20
   5  -4 -11   43.60    6.00
  -5   4  11   38.20    5.70
  -5   4  11   42.00    6.70
   4  -4 -11    8.80    3.50
   4  -4 -11    7.00    2.90
  -4   4  11    7.10    4.20
  -4   4  11   10.30    3.30
   3  -4 -11   23.60    4.40
   3  -4 -11   16.10    3.90
  -3   4  11   20.70    4.00
  -3   4  11   23.30    4.80
  -3   4  11   24.10    3.00
   2  -4 -11    3.00    2.40
   2  -4 -11    3.10    2.50
  -2   4  11    0.00    2.80
  -2   4  11    1.30    1.50
  -2   4  11   -1.60    2.30
   1  -4 -11    5.00    2.90
   1  -4 -11   11.10    3.20
  -1   4  11    5.20    3.40
  -1   4  11   10.30    2.20
  -1   4  11    6.20    2.80
   0  -4 -11   90.99    8.80
   0  -4 -11   98.49   10.90
   0  -4 -11   92.79   10.90
   0   4  11  103.19    7.80
   0   4  11   86.89    8.10
   0   4  11   91.79    8.90
  -1  -4 -11   -0.90    3.60
  -1  -4 -11    4.20    2.40
  -1  -4 -11    3.70    3.90
   1   4  11    9.00    2.30
   1   4  11    5.50    1.20
   1   4  11    4.00    1.50
   1   4  11    3.30    2.70
  -2  -4 -11   92.29   11.50
  -2  -4 -11   97.59    9.50
  -2  -4 -11  124.49   11.60
   2   4  11  112.89    9.30
   2   4  11  112.99    9.00
   2   4  11   98.39    8.10
   2   4  11  124.69    8.70
  -3  -4 -11    0.00    3.80
  -3  -4 -11    0.90    3.80
   3   4  11   -0.70    1.20
   3   4  11   -0.30    0.80
  -4  -4 -11   42.70    6.20
  -4  -4 -11   44.90    7.00
  -4  -4 -11   31.30    7.70
   4   4  11   37.10    3.40
   4   4  11   43.00    4.00
  -5  -4 -11    0.10    4.20
  -5  -4 -11    9.10    3.40
  -5  -4 -11    1.30    4.10
   5   4  11    7.30    1.30
   5   4  11    6.30    1.70
  -6  -4 -11   50.09    9.70
  -6  -4 -11   60.29    7.40
  -6  -4 -11   69.99    9.20
   6   4  11   72.69    5.70
   6   4  11   62.19    5.20
  -7  -4 -11   13.00    5.00
  -7  -4 -11   13.70    6.50
  -7  -4 -11   14.30    4.50
   7   4  11   21.20    2.70
   7   4  11   17.80    2.00
  -8  -4 -11   -4.90    4.00
  -8  -4 -11    2.70    5.50
  -8  -4 -11   -2.40    3.40
   8   4  11   -1.80    1.50
   8   4  11   -1.40    1.00
  -9  -4 -11    6.50    4.90
  -9  -4 -11    4.20    4.20
  -9  -4 -11   12.20    6.60
   9   4  11   11.40    1.80
   9   4  11    8.10    2.20
 -10  -4 -11   15.90    5.10
 -10  -4 -11    4.50    6.10
 -10  -4 -11    6.60    4.10
  10   4  11    0.90    1.90
  10   4  11    5.20    1.50
  11   4  11    0.80    1.40
   5  -5 -11   11.00    3.90
   5  -5 -11   12.20    4.20
  -5   5  11    7.80    4.10
  -5   5  11   17.00    5.60
   4  -5 -11   -0.30    2.80
   4  -5 -11    2.90    3.30
  -4   5  11    3.60    4.40
  -4   5  11    5.50    3.70
   3  -5 -11   13.80    3.80
   3  -5 -11   10.90    3.50
  -3   5  11    5.20    4.60
  -3   5  11   11.90    3.90
   2  -5 -11   11.70    3.40
   2  -5 -11   18.60    4.10
  -2   5  11    9.90    3.50
  -2   5  11   18.40    4.80
  -2   5  11   17.90    2.60
   1  -5 -11    1.20    2.80
   1  -5 -11   -3.50    4.70
   1  -5 -11    5.80    2.80
  -1   5  11    2.80    3.30
  -1   5  11   -1.00    2.70
  -1   5  11    1.50    1.50
   0  -5 -11    3.90    2.90
   0  -5 -11    1.70    4.80
   0   5  11    8.40    2.90
   0   5  11    5.20    1.80
   0   5  11    6.60    3.30
  -1  -5 -11    9.60    2.80
  -1  -5 -11    5.20    4.90
   1   5  11    8.80    3.10
   1   5  11   10.60    2.10
   1   5  11    6.70    2.60
  -2  -5 -11    3.50    2.60
  -2  -5 -11    0.20    4.30
   2   5  11    3.50    1.00
   2   5  11    3.20    2.60
   2   5  11    7.40    2.30
   2   5  11    2.80    1.50
  -3  -5 -11    1.90    4.60
  -3  -5 -11   -6.50    3.70
  -3  -5 -11   -3.10    2.00
   3   5  11   -2.20    1.30
   3   5  11   -0.60    0.80
  -4  -5 -11    0.50    3.10
  -4  -5 -11   -3.90    3.50
  -4  -5 -11   -4.10    3.70
   4   5  11    0.80    1.40
   4   5  11   -0.50    0.80
  -5  -5 -11    1.30    2.80
  -5  -5 -11   -2.70    3.80
  -5  -5 -11   -1.40    3.90
   5   5  11   -0.80    0.80
   5   5  11    3.20    1.80
  -6  -5 -11   39.00    5.80
  -6  -5 -11   31.30    6.60
  -6  -5 -11   23.40    7.40
   6   5  11   39.20    3.30
   6   5  11   40.70    4.20
  -7  -5 -11   14.90    5.60
  -7  -5 -11   22.50    4.90
  -7  -5 -11   19.30    7.20
   7   5  11   33.50    3.70
   7   5  11   34.00    2.90
  -8  -5 -11    9.60    6.80
  -8  -5 -11   17.40    5.40
  -8  -5 -11   16.20    4.90
   8   5  11   21.20    3.00
   8   5  11   24.50    2.50
  -9  -5 -11    0.40    3.50
  -9  -5 -11    3.60    5.20
   9   5  11   -1.60    1.10
   9   5  11   -0.80    1.80
 -10  -5 -11    6.90    6.40
  10   5  11    5.90    1.50
  10   5  11    3.10    2.20
 -11  -5 -11    4.70    6.50
  11   5  11    0.40    1.30
   4  -6 -11   12.00    4.20
   4  -6 -11   11.90    3.80
  -4   6  11   14.20    4.30
  -4   6  11   15.90    5.00
   3  -6 -11    7.50    3.50
   3  -6 -11    7.80    3.60
  -3   6  11    0.90    3.10
  -3   6  11    5.90    4.30
   2  -6 -11   15.90    3.70
   2  -6 -11    8.50    3.40
  -2   6  11   15.60    4.10
  -2   6  11   16.50    4.90
  -2   6  11   21.60    3.00
   1  -6 -11   -0.50    2.50
   1  -6 -11   -1.20    5.60
   1  -6 -11   -0.40    2.60
  -1   6  11   -0.80    1.70
  -1   6  11    7.20    3.90
  -1   6  11   -1.90    2.80
   0  -6 -11   27.80    4.90
   0  -6 -11   35.10    5.00
   0  -6 -11   57.99    9.80
   0   6  11   38.00    5.20
   0   6  11   60.19    6.50
  -1  -6 -11   13.70    3.50
  -1  -6 -11   12.40    6.20
   1   6  11    9.10    2.80
   1   6  11    8.80    3.60
   1   6  11   14.00    2.40
  -2  -6 -11   -0.80    2.40
  -2  -6 -11   -0.70    4.90
   2   6  11    1.90    1.70
   2   6  11   -1.00    2.10
   2   6  11   -1.10    2.50
  -3  -6 -11    1.40    2.60
  -3  -6 -11   -1.50    4.30
   3   6  11    0.90    1.60
  -4  -6 -11   -1.00    3.00
  -4  -6 -11   -2.80    4.40
   4   6  11   -0.40    1.40
  -5  -6 -11    8.20    3.90
  -5  -6 -11   12.30    5.70
   5   6  11   12.10    1.60
   5   6  11   12.00    2.40
  -6  -6 -11   21.60    7.40
  -6  -6 -11   27.50    5.40
   6   6  11   34.60    3.00
   6   6  11   34.90    4.00
  -7  -6 -11   14.20    6.60
  -7  -6 -11   13.70    4.30
   7   6  11   16.40    2.90
   7   6  11   20.60    2.20
  -8  -6 -11   30.20    9.00
   8   6  11   23.00    3.60
   8   6  11   35.00    3.20
  -9  -6 -11    1.50    5.40
   9   6  11    7.10    1.60
   9   6  11    4.10    2.10
 -10  -6 -11   22.70    8.10
  10   6  11   29.00    3.20
  10   6  11   27.00    3.80
   3  -7 -11   12.80    4.10
   3  -7 -11   20.60    4.50
  -3   7  11   29.30    4.80
  -3   7  11   21.70    6.00
   2  -7 -11   18.40    4.00
   2  -7 -11   32.40    4.90
  -2   7  11   26.30    4.80
  -2   7  11   17.20    5.40
   1  -7 -11   83.39    8.00
  -1   7  11   75.89    7.70
  -1   7  11   72.09    6.70
  -1   7  11   60.69    8.10
   0  -7 -11   18.80    4.30
   0  -7 -11   34.20    8.70
   0  -7 -11   29.50    4.60
   0   7  11   30.60    4.70
   0   7  11   31.90    5.50
   0   7  11   32.60    3.90
  -1  -7 -11    1.40    2.70
  -1  -7 -11   -4.00    5.60
   1   7  11    0.90    2.80
   1   7  11    0.90    3.40
   1   7  11   -0.20    1.70
  -2  -7 -11    0.80    5.40
  -2  -7 -11    8.00    3.10
   2   7  11   10.20    2.50
   2   7  11   10.70    3.50
  -3  -7 -11  170.08   17.70
  -3  -7 -11  128.39   12.60
   3   7  11  167.98   12.20
  -4  -7 -11   20.20    7.40
  -4  -7 -11   22.30    4.90
   4   7  11   26.60    3.40
  -5  -7 -11    3.10    3.50
  -5  -7 -11    3.70    5.40
   5   7  11   10.30    2.30
  -6  -7 -11    1.20    5.20
   6   7  11    2.60    2.10
  -7  -7 -11    6.70    6.20
   7   7  11    8.00    2.50
  -8  -7 -11    0.60    5.80
   8   7  11    0.70    1.20
   8   7  11   -0.30    2.00
  -9  -7 -11    4.90    6.20
   9   7  11   -4.30    1.80
   9   7  11    0.00    1.20
 -10  -7 -11    6.90    7.40
  10   7  11    0.80    2.20
  10   7  11    3.30    1.60
   2  -8 -11    4.40    3.30
   2  -8 -11   -2.80    3.10
  -2   8  11    6.70    4.70
  -2   8  11    0.20    3.70
   1  -8 -11   91.49    8.80
  -1   8  11   76.39    9.70
  -1   8  11   83.59    7.50
   0  -8 -11  183.78   15.50
   0   8  11  187.38   16.10
   0   8  11  189.38   14.50
  -1  -8 -11    0.90    2.80
  -1  -8 -11   -6.00    6.00
   1   8  11    3.30    2.10
   1   8  11    3.10    3.50
  -2  -8 -11   27.30    4.60
  -2  -8 -11   28.20    8.70
   2   8  11   35.90    5.20
   2   8  11   31.70    4.00
  -3  -8 -11   -2.80    6.30
   3   8  11    1.00    1.90
  -4  -8 -11   19.80    7.50
   4   8  11   14.90    3.00
  -5  -8 -11   52.09   11.10
   5   8  11   53.59    5.50
  -6  -8 -11   -0.70    5.30
   6   8  11   -2.20    1.80
  -7  -8 -11   37.80    9.60
   7   8  11   38.10    4.70
  -8  -8 -11    5.90    7.50
   8   8  11   13.50    3.10
  -9  -8 -11   10.90    7.30
   9   8  11    5.00    2.40
   1  -9 -11   30.70    5.10
  -1   9  11   34.70    6.40
   0  -9 -11    1.20    3.00
   0   9  11    7.30    4.60
   0   9  11    5.50    2.60
  -1  -9 -11  -10.30    6.00
   1   9  11    3.70    3.70
   1   9  11   -2.50    2.00
  -2  -9 -11   -4.70    6.40
   2   9  11    9.90    4.30
   2   9  11    6.80    2.50
  -3  -9 -11    2.00    6.40
   3   9  11    2.60    2.10
  -4  -9 -11   25.40    9.70
   4   9  11   22.50    3.70
  -5  -9 -11   21.60    8.90
   5   9  11   19.80    3.50
  -6  -9 -11    8.10    6.90
   6   9  11   11.50    3.20
  -7  -9 -11   12.40    8.10
   7   9  11    5.90    2.70
  -8  -9 -11   61.39   13.80
   8   9  11   60.39    6.60
  -1 -10 -11  -11.50    7.60
   1  10  11    9.20    4.30
   1  10  11   -2.70    2.40
  -2 -10 -11   15.10   10.20
   2  10  11   12.00    3.30
  -3 -10 -11   -5.50    7.80
   3  10  11    2.60    2.70
  -4 -10 -11   -4.30    7.30
   4  10  11    1.50    2.60
  -5 -10 -11    7.90    8.10
   5  10  11   12.70    3.30
  -6 -10 -11   12.40    8.60
   6  10  11   23.60    3.90
  -1   8 -12   20.90    3.60
   1  -8  12   16.50    3.40
   2   7 -12    3.20    3.50
  -2  -7  12    3.00    2.70
  -2  -7  12    3.10    2.50
   1   7 -12   16.70    4.30
  -1  -7  12   10.10    2.90
  -1  -7  12    7.80    2.90
   0   7 -12   19.80    4.20
   0  -7  12   15.70    3.40
   0  -7  12   15.20    3.00
  -1   7 -12    3.60    2.50
   1  -7  12    0.90    2.00
  -2   7 -12    9.90    2.60
   2  -7  12    4.30    2.60
  -3   7 -12   24.20    3.40
   3  -7  12   23.30    3.60
   3  -7  12   19.20    2.60
  -4   7 -12    6.50    4.70
  -4   7 -12    5.00    2.20
   4  -7  12    7.80    1.80
  -5   7 -12   73.09    9.90
  -5   7 -12   61.99    5.80
   5  -7  12   64.69    5.50
   3   6 -12   66.19    9.00
  -3  -6  12   65.09    7.10
  -3  -6  12   68.39    6.90
   2   6 -12   93.89   10.00
  -2  -6  12   76.69    7.50
  -2  -6  12   83.79    8.00
   1   6 -12   52.19    7.00
  -1  -6  12   43.70    5.70
  -1  -6  12   52.79    5.50
   0   6 -12   11.40    3.30
   0  -6  12    6.20    2.40
   0  -6  12    7.20    2.50
  -1   6 -12    0.30    3.80
  -1   6 -12    4.20    2.60
   1  -6  12   -2.50    1.90
  -2   6 -12   -0.30    2.10
  -2   6 -12   -0.10    3.90
   2  -6  12   -1.20    1.70
  -3   6 -12   15.80    2.90
  -3   6 -12    6.40    4.60
   3  -6  12    8.20    2.40
  -4   6 -12   49.10    7.80
  -4   6 -12   49.90    5.20
   4  -6  12   40.80    4.10
   4  -6  12   38.80    4.90
  -5   6 -12   27.80    3.80
  -5   6 -12   24.80    6.30
   5  -6  12   28.90    3.10
  -6   6 -12   16.80    5.60
  -6   6 -12    9.90    2.60
   6  -6  12   11.70    2.00
   4   5 -12    5.00    4.20
  -4  -5  12    0.80    2.50
  -4  -5  12    1.80    2.10
   3   5 -12   28.40    6.00
  -3  -5  12   18.60    3.20
  -3  -5  12   17.80    3.50
   2   5 -12    3.20    3.40
  -2  -5  12   -2.00    1.70
  -2  -5  12   -2.80    1.80
   1   5 -12    4.20    3.60
   1   5 -12   14.10    4.10
  -1  -5  12    5.10    2.40
  -1  -5  12    6.50    2.70
   0   5 -12    6.20    3.30
   0   5 -12    0.30    3.30
   0  -5  12    1.00    2.20
   0  -5  12    3.30    2.00
  -1   5 -12   53.59    7.60
  -1   5 -12   73.69    7.20
   1  -5  12   46.80    5.60
   1  -5  12   55.09    5.60
  -2   5 -12    4.50    3.80
  -2   5 -12    6.60    2.80
   2  -5  12    6.20    2.30
  -3   5 -12   -4.00    3.10
  -3   5 -12    1.80    2.20
   3  -5  12    1.60    2.00
  -4   5 -12   25.10    6.20
  -4   5 -12   34.00    4.70
   4  -5  12   38.80    4.20
   4  -5  12   34.00    3.50
  -5   5 -12   16.00    3.30
  -5   5 -12   15.40    5.10
   5  -5  12   17.40    2.90
   5  -5  12   13.30    2.10
  -6   5 -12   53.89    6.50
  -6   5 -12   66.79    9.40
   6  -5  12   67.19    5.30
  -7   5 -12    6.50    2.70
  -7   5 -12    4.20    4.70
  -7   5 -12    6.00    5.00
   7  -5  12    8.20    1.70
   5   4 -12    3.70    4.50
  -5  -4  12    2.90    2.20
  -5  -4  12    0.40    2.60
   4   4 -12    7.40    4.40
  -4  -4  12    1.80    2.00
  -4  -4  12   -0.30    2.10
   3   4 -12    5.20    3.90
  -3  -4  12    1.20    2.30
  -3  -4  12   -1.20    1.70
   2   4 -12   38.10    6.50
   2   4 -12   24.40    5.10
  -2  -4  12   25.40    3.70
  -2  -4  12   19.40    3.60
   1   4 -12   19.10    4.60
   1   4 -12   19.00    4.50
  -1  -4  12   12.70    2.70
  -1  -4  12   15.40    3.00
   0   4 -12    2.50    3.00
   0   4 -12    0.50    3.20
   0  -4  12    3.20    2.00
   0  -4  12   -4.00    1.60
  -1   4 -12   31.30    5.00
  -1   4 -12   30.50    5.20
   1  -4  12   23.80    3.30
   1  -4  12   25.30    3.70
  -2   4 -12    4.60    2.70
  -2   4 -12    0.40    3.20
   2  -4  12    2.60    1.90
  -3   4 -12    3.50    3.30
  -3   4 -12    3.90    2.60
   3  -4  12    1.10    1.80
  -4   4 -12    9.40    4.50
  -4   4 -12   15.40    3.40
   4  -4  12   11.40    2.60
   4  -4  12   14.70    2.00
  -5   4 -12   20.50    4.00
  -5   4 -12   20.40    5.70
   5  -4  12   21.50    2.60
   5  -4  12   19.10    3.00
  -6   4 -12    3.70    4.00
  -6   4 -12    3.30    3.80
  -6   4 -12   -3.90    2.20
   6  -4  12   -1.40    1.00
  -7   4 -12  149.79   12.90
  -7   4 -12  158.88   14.80
  -7   4 -12  151.88   14.60
   7  -4  12  153.38   11.50
  -8   4 -12    6.50    5.20
  -8   4 -12   18.30    6.10
  -8   4 -12   17.70    3.70
   8  -4  12   16.70    2.40
   5   3 -12   11.60    5.20
  -5  -3  12   -3.60    2.20
  -5  -3  12    2.00    2.00
   4   3 -12   13.80    3.70
   4   3 -12   34.70    6.60
  -4  -3  12   11.30    3.20
  -4  -3  12   11.30    2.60
   3   3 -12   -3.50    2.50
   3   3 -12    3.80    4.30
  -3  -3  12    1.80    2.00
  -3  -3  12    2.60    2.20
   2   3 -12   15.60    4.80
  -2  -3  12    7.80    2.50
  -2  -3  12    4.90    2.30
   1   3 -12   43.40    6.90
   1   3 -12   31.60    5.50
  -1  -3  12   35.60    4.20
  -1  -3  12   25.20    3.90
   0   3 -12  115.89   10.70
   0   3 -12   90.69   10.00
   0  -3  12  102.29    8.60
   0  -3  12  103.59    8.80
  -1   3 -12   39.90    5.70
  -1   3 -12   22.70    4.90
   1  -3  12   25.90    3.40
   1  -3  12   29.50    3.90
  -2   3 -12   55.49    7.30
  -2   3 -12   52.29    6.90
   2  -3  12   52.99    5.40
  -3   3 -12   39.30    6.50
  -3   3 -12   41.30    5.70
   3  -3  12   40.30    4.60
  -4   3 -12    2.50    3.00
  -4   3 -12    6.10    2.70
   4  -3  12    1.00    1.10
   4  -3  12   -0.60    1.40
  -5   3 -12    9.80    3.30
  -5   3 -12   17.00    4.70
   5  -3  12   10.10    2.30
   5  -3  12   17.60    2.10
  -6   3 -12   13.20    4.60
  -6   3 -12   11.20    3.50
  -6   3 -12   11.90    5.00
   6  -3  12   12.60    1.90
   6  -3  12   13.90    2.30
  -7   3 -12   -0.80    2.70
  -7   3 -12   -0.20    4.20
  -7   3 -12   -1.60    3.20
   7  -3  12    2.80    1.30
  -8   3 -12    3.00    3.90
  -8   3 -12   -4.80    3.60
  -8   3 -12    3.20    2.80
   8  -3  12    1.20    1.20
  -9   3 -12    6.70    2.90
  -9   3 -12    0.30    5.00
  -9   3 -12    7.20    4.50
   9  -3  12    3.20    1.40
   9  -3  12    3.50    1.40
   5   2 -12   17.30    5.70
   5   2 -12    3.70    3.00
  -5  -2  12    0.40    2.00
  -5  -2  12    3.50    3.00
   4   2 -12    3.60    3.10
   4   2 -12    8.40    4.90
  -4  -2  12    2.00    2.10
  -4  -2  12    1.20    2.50
   3   2 -12    0.50    2.70
   3   2 -12    2.80    4.10
  -3  -2  12    1.80    1.80
  -3  -2  12   -3.20    2.10
   2   2 -12   91.09    9.90
   2   2 -12   60.29    7.60
  -2  -2  12   83.89    7.10
  -2  -2  12   77.99    7.00
   1   2 -12   13.90    4.20
  -1  -2  12   14.70    2.80
  -1  -2  12    7.60    2.30
   0   2 -12   11.10    4.00
   0   2 -12   10.90    3.70
   0  -2  12   11.70    2.50
   0  -2  12   13.90    2.60
  -1   2 -12    5.80    3.40
  -1   2 -12    9.70    3.80
   1  -2  12    8.40    2.10
   1  -2  12   10.40    2.40
  -2   2 -12    2.80    2.90
  -2   2 -12   -3.70    2.40
   2  -2  12    3.60    1.80
  -3   2 -12    4.60    3.10
  -3   2 -12   10.90    3.30
   3  -2  12    4.30    1.80
  -4   2 -12    2.80    2.80
  -4   2 -12   -1.30    2.50
   4  -2  12   -2.00    1.30
   4  -2  12   -1.30    0.90
  -5   2 -12    7.90    3.40
  -5   2 -12   14.00    4.30
  -5   2 -12   16.20    4.70
   5  -2  12   11.00    1.80
   5  -2  12   11.10    2.20
  -6   2 -12   20.10    5.60
  -6   2 -12   22.50    4.70
  -6   2 -12   26.50    5.60
   6  -2  12   22.80    3.10
   6  -2  12   28.50    2.70
  -7   2 -12    5.20    3.60
  -7   2 -12    0.10    4.20
  -7   2 -12   14.60    4.70
   7  -2  12    9.10    2.10
   7  -2  12   12.10    1.80
  -8   2 -12    6.90    4.20
  -8   2 -12    8.80    3.70
  -8   2 -12    9.50    5.20
   8  -2  12    7.70    1.60
  -9   2 -12   -0.50    5.30
  -9   2 -12    6.50    3.30
  -9   2 -12   14.20    5.20
   9  -2  12    7.40    1.70
   6   1 -12   15.80    4.10
   5   1 -12   17.70    5.80
   5   1 -12    5.70    3.10
  -5  -1  12    2.70    2.70
  -5  -1  12    1.10    2.20
   4   1 -12    1.20    2.60
   4   1 -12   13.50    5.30
  -4  -1  12    0.40    2.00
  -4  -1  12    2.40    1.90
   3   1 -12    7.60    3.20
   3   1 -12   15.30    5.40
  -3  -1  12    9.10    2.30
  -3  -1  12    3.30    2.30
   2   1 -12   20.90    4.10
   2   1 -12   33.70    6.50
  -2  -1  12   16.90    3.30
  -2  -1  12   21.90    3.20
   1   1 -12   31.50    6.10
   1   1 -12   21.40    4.10
  -1  -1  12   25.10    3.40
  -1  -1  12   27.60    3.70
   0   1 -12    0.20    3.30
   0  -1  12    0.40    1.60
   0  -1  12   -1.90    1.60
  -1   1 -12   82.69    8.60
  -1   1 -12   81.69    9.00
   1  -1  12   80.19    7.00
   1  -1  12   72.29    6.70
  -2   1 -12   12.90    3.80
  -2   1 -12    7.30    3.30
   2  -1  12    7.80    2.20
  -3   1 -12   16.80    4.10
  -3   1 -12   12.30    3.90
   3  -1  12   16.80    2.80
  -4   1 -12    4.60    3.00
  -4   1 -12    1.30    2.90
  -4   1 -12    0.70    3.00
   4  -1  12   -1.10    0.80
   4  -1  12    0.20    1.50
  -5   1 -12   -1.00    2.90
  -5   1 -12   -2.60    3.00
  -5   1 -12   -0.50    2.90
   5  -1  12   -0.20    0.90
   5  -1  12    1.20    1.60
  -6   1 -12   48.50    7.20
  -6   1 -12   28.00    6.20
  -6   1 -12   45.00    6.20
   6  -1  12   39.10    4.00
   6  -1  12   37.20    3.50
  -7   1 -12   48.90    8.10
  -7   1 -12   55.69    7.50
  -7   1 -12   51.89    8.30
   7  -1  12   56.09    4.80
   7  -1  12   64.09    5.30
  -8   1 -12   12.70    4.30
  -8   1 -12   10.50    5.10
  -8   1 -12   10.10    4.40
   8  -1  12   10.80    1.90
  -9   1 -12   22.00    5.30
  -9   1 -12   23.00    6.10
  -9   1 -12   22.80    6.40
   9  -1  12   34.00    3.00
 -10   1 -12   14.30    5.30
 -10   1 -12    3.90    5.40
 -10   1 -12   20.20    4.40
  10  -1  12   12.50    2.10
   5   0 -12  233.48   18.70
  -5   0  12  246.78   17.80
  -5   0  12  211.68   18.30
   4   0 -12   40.80    5.80
   4   0 -12   45.20    7.80
  -4   0  12   38.50    5.20
  -4   0  12   42.20    4.90
   3   0 -12  115.39   12.70
   3   0 -12  118.09   10.10
  -3   0  12  105.29    9.40
  -3   0  12  107.19    9.20
   2   0 -12    5.00    4.30
   2   0 -12   -1.50    2.10
  -2   0  12   -1.30    1.80
  -2   0  12   -2.10    1.70
   1   0 -12    8.80    3.30
   1   0 -12   12.60    4.60
  -1   0  12   11.20    2.40
  -1   0  12   13.60    2.80
   0   0 -12   17.20    3.80
   0   0 -12   17.20    4.90
   0   0  12   22.50    3.10
   0   0  12   15.90    2.80
  -1   0 -12    3.60    3.30
   1   0  12   -0.70    1.60
   1   0  12    0.80    1.60
  -2   0 -12   -2.00    2.70
  -2   0 -12    0.10    3.10
   2   0  12    1.20    1.60
  -3   0 -12   10.80    4.40
  -3   0 -12    2.80    3.10
  -3   0 -12    5.50    3.50
   3   0  12    8.20    2.10
   3   0  12    5.90    1.40
  -4   0 -12   94.69   10.70
  -4   0 -12  135.99   11.60
  -4   0 -12  101.99   12.50
   4   0  12  138.49    9.60
   4   0  12  114.89    8.90
  -5   0 -12   26.10    5.50
  -5   0 -12   31.90    5.70
   5   0  12   38.10    3.70
   5   0  12   27.80    3.10
  -6   0 -12  102.89   11.50
  -6   0 -12  112.79   11.40
  -6   0 -12  115.19   11.60
   6   0  12  127.59    9.40
   6   0  12  115.69    8.90
  -7   0 -12   -0.80    3.80
  -7   0 -12    4.50    4.10
  -7   0 -12    1.30    3.50
   7   0  12    3.60    1.60
   7   0  12    5.80    1.40
  -8   0 -12    9.70    4.40
  -8   0 -12    6.60    4.40
  -8   0 -12    8.80    4.40
   8   0  12   17.80    2.40
   8   0  12   16.80    2.20
  -9   0 -12   13.00    4.60
  -9   0 -12    4.30    5.00
  -9   0 -12    7.20    4.70
   9   0  12    9.80    1.70
 -10   0 -12    9.70    6.20
 -10   0 -12   22.90    6.10
 -10   0 -12   30.90    5.70
  10   0  12   32.90    3.10
   5  -1 -12   92.29    9.40
  -5   1  12   92.19    8.80
  -5   1  12   83.79   10.00
   4  -1 -12    8.10    3.00
   4  -1 -12    2.40    2.70
  -4   1  12    6.80    2.10
  -4   1  12    1.60    3.10
   3  -1 -12   24.40    4.50
   3  -1 -12   30.10    6.50
  -3   1  12   17.30    3.50
  -3   1  12   15.00    2.80
   2  -1 -12  137.39   11.60
   2  -1 -12  135.29   13.70
  -2   1  12  139.79   10.80
  -2   1  12  117.99   11.00
   1  -1 -12   26.40    5.60
   1  -1 -12   20.90    4.20
  -1   1  12   24.40    3.20
  -1   1  12   16.90    3.40
   0  -1 -12   12.50    4.60
   0  -1 -12    4.50    2.80
   0   1  12    7.30    2.20
   0   1  12    7.80    2.40
  -1  -1 -12  176.98   15.60
  -1  -1 -12  143.29   13.80
   1   1  12  182.08   13.30
   1   1  12  183.68   13.30
  -2  -1 -12    1.40    2.90
  -2  -1 -12    4.20    3.70
   2   1  12    3.80    1.90
  -3  -1 -12  276.97   22.00
  -3  -1 -12  305.87   22.50
  -3  -1 -12  224.28   22.90
   3   1  12  312.77   20.60
   3   1  12  262.77   19.90
  -4  -1 -12    4.80    4.20
  -4  -1 -12    5.30    3.70
  -4  -1 -12    8.00    4.00
   4   1  12    7.50    1.50
   4   1  12    8.30    1.90
  -5  -1 -12    2.60    4.00
  -5  -1 -12    1.20    2.80
  -5  -1 -12   -0.10    3.40
   5   1  12    0.10    1.30
   5   1  12    0.50    1.10
  -6  -1 -12    4.60    3.90
  -6  -1 -12    5.70    3.40
  -6  -1 -12    2.30    4.30
   6   1  12    0.00    1.20
   6   1  12    3.90    1.60
  -7  -1 -12    5.00    4.20
  -7  -1 -12    4.00    3.80
   7   1  12    3.90    1.60
   7   1  12    3.10    1.20
  -8  -1 -12    8.50    4.70
  -8  -1 -12    6.30    4.50
   8   1  12    5.40    1.40
   8   1  12    6.50    1.70
  -9  -1 -12    0.70    4.20
  -9  -1 -12    1.30    4.10
  -9  -1 -12   -0.20    3.70
   9   1  12   -0.40    1.10
 -10  -1 -12    2.90    4.80
 -10  -1 -12    6.60    4.30
 -10  -1 -12    1.10    3.80
  10   1  12    2.00    1.40
   5  -2 -12    1.60    3.40
   5  -2 -12   -1.80    3.10
  -5   2  12    3.20    4.30
  -5   2  12   -1.20    3.30
   4  -2 -12    9.90    3.30
   4  -2 -12    5.20    3.00
  -4   2  12    7.30    3.40
  -4   2  12   11.40    4.70
  -4   2  12    8.90    2.20
   3  -2 -12    1.10    2.50
   3  -2 -12    5.30    3.20
  -3   2  12    5.20    2.90
  -3   2  12   12.60    4.40
  -3   2  12    2.10    2.10
   2  -2 -12    5.60    2.90
   2  -2 -12   15.80    5.30
  -2   2  12    3.40    2.40
  -2   2  12    3.80    3.20
  -2   2  12    2.40    1.80
   1  -2 -12   70.89    7.40
   1  -2 -12   72.19    9.80
  -1   2  12   79.49    7.90
  -1   2  12   73.19    6.50
  -1   2  12   66.59    6.70
   0  -2 -12    9.00    3.10
   0  -2 -12   19.40    5.70
   0   2  12   15.50    2.80
   0   2  12   18.10    3.80
   0   2  12   15.80    2.70
  -1  -2 -12   -3.50    2.40
  -1  -2 -12    4.50    3.90
   1   2  12   -0.10    1.40
   1   2  12   -2.70    1.70
   1   2  12   -0.20    2.30
  -2  -2 -12   34.00    7.00
  -2  -2 -12   68.79    8.40
   2   2  12   53.99    4.80
  -3  -2 -12   21.50    5.10
  -3  -2 -12   20.20    4.90
  -3  -2 -12   14.00    5.40
   3   2  12   20.50    2.40
   3   2  12   18.60    2.90
  -4  -2 -12    1.20    3.80
  -4  -2 -12    3.10    3.90
  -4  -2 -12    5.20    3.10
   4   2  12    2.70    1.60
   4   2  12    2.50    1.20
  -5  -2 -12   34.60    6.50
  -5  -2 -12   44.20    6.50
  -5  -2 -12   24.80    7.00
   5   2  12   43.70    4.00
   5   2  12   36.10    3.40
  -6  -2 -12    3.40    4.50
  -6  -2 -12    4.60    3.60
  -6  -2 -12   -3.20    3.70
   6   2  12    2.10    1.50
   6   2  12    0.60    0.90
  -7  -2 -12   -1.30    4.20
  -7  -2 -12    1.80    3.60
  -7  -2 -12    4.70    5.50
   7   2  12    2.60    1.10
   7   2  12    3.90    1.70
  -8  -2 -12   70.59   13.50
  -8  -2 -12   86.79   10.70
  -8  -2 -12  116.09   11.90
   8   2  12  107.89    8.10
   8   2  12  119.09    8.60
  -9  -2 -12   49.99    8.60
  -9  -2 -12   79.89    9.90
   9   2  12   70.89    6.20
   9   2  12   73.09    5.70
 -10  -2 -12    5.20    4.70
 -10  -2 -12    8.30    5.70
 -10  -2 -12   13.40    5.00
  10   2  12    8.30    1.70
   5  -3 -12    0.10    2.80
   5  -3 -12    1.50    3.00
  -5   3  12   -4.50    3.50
  -5   3  12   -4.80    3.90
   4  -3 -12   -3.40    2.80
   4  -3 -12    4.40    3.20
  -4   3  12   -2.90    3.10
  -4   3  12   -5.70    3.50
   3  -3 -12   24.20    4.40
   3  -3 -12    2.10    3.30
  -3   3  12   23.40    3.10
  -3   3  12   13.50    3.70
  -3   3  12   12.80    4.40
   2  -3 -12    0.90    2.70
   2  -3 -12    5.10    2.90
  -2   3  12   11.30    4.00
  -2   3  12    7.00    3.10
  -2   3  12    4.40    1.90
   1  -3 -12  238.88   18.80
  -1   3  12  236.28   18.80
  -1   3  12  250.87   17.80
  -1   3  12  212.88   18.00
   0  -3 -12    0.80    2.40
   0  -3 -12    4.30    4.20
   0   3  12    1.50    1.60
   0   3  12    3.60    3.00
   0   3  12    2.80    2.40
  -1  -3 -12   65.59    9.00
  -1  -3 -12   58.19    7.20
   1   3  12   78.09    6.10
   1   3  12   63.89    6.80
   1   3  12   64.29    6.40
  -2  -3 -12    4.00    2.60
  -2  -3 -12   11.60    4.60
  -2  -3 -12    7.10    4.50
   2   3  12    8.90    1.50
   2   3  12   11.90    2.20
  -3  -3 -12   29.20    6.00
  -3  -3 -12   20.40    6.10
  -3  -3 -12   25.50    5.20
   3   3  12   22.60    3.10
   3   3  12   25.40    2.50
  -4  -3 -12   33.70    7.80
  -4  -3 -12   39.10    6.10
  -4  -3 -12   38.10    6.80
   4   3  12   44.80    4.20
   4   3  12   38.50    3.50
  -5  -3 -12    0.40    4.10
  -5  -3 -12   -1.20    3.00
  -5  -3 -12   -0.70    3.70
   5   3  12    0.20    1.00
   5   3  12    2.00    1.50
  -6  -3 -12  142.19   14.10
  -6  -3 -12  112.69   15.00
  -6  -3 -12  134.69   13.20
   6   3  12  150.08   10.90
   6   3  12  167.28   11.40
  -7  -3 -12   23.10    7.60
  -7  -3 -12   23.10    6.40
  -7  -3 -12   18.10    5.40
   7   3  12   30.00    3.30
   7   3  12   26.50    2.80
  -8  -3 -12   98.39   12.10
  -8  -3 -12   91.19   14.10
  -8  -3 -12  122.19   13.20
   8   3  12  129.19    9.70
   8   3  12  136.79    9.30
  -9  -3 -12   20.40    7.80
  -9  -3 -12   38.60    7.20
  -9  -3 -12   27.30    6.50
   9   3  12   34.40    3.30
   9   3  12   30.90    3.70
 -10  -3 -12   93.89   11.10
 -10  -3 -12   70.09   10.10
  10   3  12   85.19    6.80
   4  -4 -12   -2.00    3.00
   4  -4 -12    3.50    3.50
  -4   4  12   -2.50    4.10
  -4   4  12   -1.60    3.60
   3  -4 -12   -0.30    3.20
   3  -4 -12    4.60    3.60
  -3   4  12    6.40    1.90
  -3   4  12   -0.70    3.40
  -3   4  12    2.20    3.00
   2  -4 -12   12.10    3.60
   2  -4 -12    6.80    3.30
  -2   4  12   15.80    3.70
  -2   4  12   15.40    2.50
  -2   4  12   14.30    4.50
   1  -4 -12   18.00    4.10
  -1   4  12   26.90    5.10
  -1   4  12   20.50    4.10
  -1   4  12   34.90    3.80
   0  -4 -12    3.20    3.00
   0   4  12    4.90    2.00
   0   4  12    1.90    3.20
   0   4  12    2.40    2.50
  -1  -4 -12    1.20    4.20
  -1  -4 -12    2.10    4.20
  -1  -4 -12   -2.00    2.60
   1   4  12    2.70    1.80
   1   4  12    4.10    2.40
   1   4  12    3.20    1.10
   1   4  12   -1.50    2.70
  -2  -4 -12    3.30    2.90
  -2  -4 -12    6.90    4.40
  -2  -4 -12    0.70    4.00
   2   4  12    3.00    1.80
   2   4  12    2.60    1.10
  -3  -4 -12   12.10    5.10
  -3  -4 -12   12.50    5.60
   3   4  12   13.50    2.40
   3   4  12   11.20    1.70
  -4  -4 -12   51.39    7.80
  -4  -4 -12   48.30    7.20
  -4  -4 -12   36.30    8.40
   4   4  12   53.59    4.90
   4   4  12   45.20    4.00
  -5  -4 -12   93.49   12.40
  -5  -4 -12  100.09   10.70
  -5  -4 -12   94.09   11.70
   5   4  12  105.09    8.00
   5   4  12  116.39    8.60
  -6  -4 -12   10.20    5.20
  -6  -4 -12    4.10    3.80
  -6  -4 -12    5.30    5.60
   6   4  12    9.10    1.60
   6   4  12   10.10    2.30
  -7  -4 -12  390.46   30.90
  -7  -4 -12  344.07   29.90
  -7  -4 -12  308.37   32.60
   7   4  12  433.36   28.20
   7   4  12  415.16   27.70
  -8  -4 -12   -1.70    3.90
  -8  -4 -12    1.50    4.80
  -8  -4 -12    7.80    5.70
   8   4  12    4.20    1.80
   8   4  12    6.70    1.50
  -9  -4 -12   12.60    4.60
  -9  -4 -12    7.00    6.40
  -9  -4 -12   15.30    5.80
   9   4  12    7.30    2.10
   9   4  12    9.90    1.70
 -10  -4 -12    6.70    5.10
 -10  -4 -12    7.00    6.10
 -10  -4 -12    0.70    4.40
  10   4  12   -3.00    1.30
  10   4  12   -3.30    1.50
   4  -5 -12    5.20    3.60
   4  -5 -12    1.40    3.20
  -4   5  12    5.20    4.80
  -4   5  12    4.20    4.10
   3  -5 -12    3.40    3.50
   3  -5 -12    5.40    3.50
  -3   5  12   -2.20    3.60
  -3   5  12    2.30    4.40
   2  -5 -12    4.00    2.90
   2  -5 -12    2.50    3.00
  -2   5  12    7.40    4.50
  -2   5  12    3.10    3.50
  -2   5  12   11.70    2.50
   1  -5 -12   22.90    4.30
   1  -5 -12   11.20    3.80
  -1   5  12   35.30    5.90
  -1   5  12   28.00    3.50
  -1   5  12   29.20    4.80
   0  -5 -12   35.90    5.50
   0   5  12   30.60    5.30
   0   5  12   30.30    4.60
   0   5  12   38.00    4.30
  -1  -5 -12    3.50    3.00
  -1  -5 -12   -1.70    4.50
   1   5  12    9.60    2.20
   1   5  12    7.80    3.50
   1   5  12    7.70    2.80
  -2  -5 -12   -0.50    2.70
  -2  -5 -12    0.40    4.80
   2   5  12    0.90    1.50
  -3  -5 -12   19.80    6.70
   3   5  12   18.90    2.20
   3   5  12   20.90    3.00
  -4  -5 -12   -2.20    3.60
  -4  -5 -12   -3.40    4.70
  -4  -5 -12    1.40    5.20
   4   5  12    1.90    1.00
   4   5  12    1.50    1.80
  -5  -5 -12    0.50    4.70
  -5  -5 -12   -4.50    4.40
  -5  -5 -12    1.50    3.60
   5   5  12    0.10    1.00
   5   5  12   -0.40    1.60
  -6  -5 -12   20.60    7.50
  -6  -5 -12   19.80    6.20
  -6  -5 -12   20.10    4.90
   6   5  12   24.20    2.60
   6   5  12   25.10    3.40
  -7  -5 -12   -7.00    3.30
  -7  -5 -12    1.40    5.40
  -7  -5 -12   -2.30    4.80
   7   5  12    2.50    1.90
   7   5  12    2.60    1.20
  -8  -5 -12   10.30    4.70
  -8  -5 -12    3.90    6.20
   8   5  12    2.30    1.80
   8   5  12    3.20    1.40
  -9  -5 -12    8.70    6.50
  -9  -5 -12    0.80    4.00
   9   5  12   -1.50    1.80
   9   5  12    2.90    1.40
 -10  -5 -12    3.60    7.00
  10   5  12    6.60    1.70
  10   5  12    2.60    2.40
   3  -6 -12   -2.50    3.40
   3  -6 -12   -1.70    3.40
  -3   6  12   -0.40    4.60
  -3   6  12    3.70    4.00
   2  -6 -12   16.60    4.20
   2  -6 -12    3.40    3.70
  -2   6  12   15.70    4.90
  -2   6  12   15.00    3.90
  -2   6  12   23.50    3.30
   1  -6 -12   27.00    5.40
   1  -6 -12   47.80    6.20
  -1   6  12   35.40    6.00
  -1   6  12   40.10    5.70
  -1   6  12   48.80    4.80
   0  -6 -12   42.80    6.10
   0  -6 -12   55.49   10.40
   0   6  12   54.49    5.20
   0   6  12   37.70    5.60
   0   6  12   47.50    6.80
  -1  -6 -12   11.20    6.60
  -1  -6 -12    9.60    3.60
   1   6  12   13.80    4.30
   1   6  12   17.10    2.90
   1   6  12   11.10    3.30
  -2  -6 -12   -1.40    5.30
  -2  -6 -12   -0.70    2.70
   2   6  12    2.90    2.00
  -3  -6 -12   53.29   10.50
   3   6  12   58.99    5.60
  -4  -6 -12    9.50    4.20
  -4  -6 -12    0.70    5.00
   4   6  12   10.90    2.50
  -5  -6 -12    2.10    3.80
  -5  -6 -12   -2.10    5.60
   5   6  12    6.20    2.20
  -6  -6 -12    6.10    4.00
  -6  -6 -12    7.80    6.70
   6   6  12    5.50    2.10
   6   6  12   10.30    1.60
  -7  -6 -12    0.70    5.10
  -7  -6 -12   -0.20    3.90
   7   6  12    5.40    1.40
   7   6  12    2.80    1.90
  -8  -6 -12    2.90    5.80
   8   6  12    0.00    1.30
   8   6  12    0.10    2.10
  -9  -6 -12    3.30    6.70
   9   6  12   -3.40    1.90
   9   6  12    0.20    1.40
   2  -7 -12    3.60    3.20
   2  -7 -12   -2.20    3.40
  -2   7  12    7.40    5.00
  -2   7  12   10.30    4.10
   1  -7 -12   59.89    7.70
  -1   7  12   71.69    8.80
  -1   7  12   67.49    6.20
  -1   7  12   57.09    7.30
   0  -7 -12    6.80    3.40
   0  -7 -12   -2.10    6.30
   0   7  12    5.80    4.40
   0   7  12    2.20    2.30
   0   7  12    4.20    3.20
  -1  -7 -12   15.50    7.70
  -1  -7 -12    7.10    3.70
   1   7  12    7.10    4.10
   1   7  12    9.20    3.60
   1   7  12   13.60    2.90
  -2  -7 -12   -2.60    2.60
  -2  -7 -12   -6.80    5.10
   2   7  12    1.10    1.90
  -3  -7 -12    1.90    5.80
   3   7  12    2.60    2.10
  -4  -7 -12    2.20    6.60
  -4  -7 -12   -2.10    3.20
   4   7  12   -2.10    1.90
  -5  -7 -12    4.60    6.00
  -5  -7 -12    3.50    4.00
   5   7  12    5.90    2.20
  -6  -7 -12    5.00    6.80
   6   7  12   11.20    2.80
  -7  -7 -12    9.90    7.80
   7   7  12   12.90    2.90
  -8  -7 -12   25.20    9.30
   8   7  12   32.90    4.40
   9   7  12    1.40    2.20
   1  -8 -12   43.90    6.50
  -1   8  12   43.80    7.50
   0  -8 -12    4.30    3.50
   0  -8 -12  -14.80    6.60
   0   8  12    4.50    2.40
   0   8  12    4.20    4.60
  -1  -8 -12  123.59   16.50
  -1  -8 -12   96.69   10.50
   1   8  12  111.29    9.30
   1   8  12  119.99   11.30
  -2  -8 -12   48.80   11.00
  -2  -8 -12   41.20    6.10
   2   8  12   44.40    5.20
  -3  -8 -12    2.80    6.50
   3   8  12    1.60    2.00
  -4  -8 -12    2.90    7.30
   4   8  12   11.30    2.90
  -5  -8 -12    7.30    6.60
   5   8  12    2.90    2.40
  -6  -8 -12   27.00    9.90
   6   8  12   40.00    4.70
  -7  -8 -12   50.49   11.80
   7   8  12   47.70    5.80
   8   8  12   -4.10    2.40
  -1  -9 -12    1.90    8.70
   1   9  12    6.60    2.50
  -2  -9 -12    1.90    7.30
   2   9  12    6.80    2.60
  -3  -9 -12   -2.10    7.70
   3   9  12    1.30    2.50
  -4  -9 -12   -7.00    6.10
   4   9  12   -0.40    2.50
  -5  -9 -12   23.70    9.40
   5   9  12   26.10    4.20
  -6  -9 -12   53.89   12.30
   6   9  12   58.69    6.70
   1   6 -13   17.20    5.20
  -1  -6  13   21.00    3.40
  -1  -6  13   20.70    4.00
   0   6 -13    7.40    3.30
   0  -6  13   -1.90    2.30
  -1   6 -13    3.10    3.00
   1  -6  13    2.60    2.20
  -2   6 -13    6.20    2.80
  -2   6 -13    2.60    4.70
   2  -6  13    7.80    2.80
  -3   6 -13   10.60    5.00
  -3   6 -13   10.80    3.00
   3  -6  13    1.80    1.60
   3  -6  13    6.70    2.50
  -4   6 -13   70.79    9.90
  -4   6 -13   78.19    7.50
   4  -6  13   78.09    7.30
   4  -6  13   69.89    6.30
   2   5 -13   93.09   10.30
  -2  -5  13   70.39    7.30
  -2  -5  13   71.79    7.30
   1   5 -13    6.60    4.10
  -1  -5  13    2.10    2.50
  -1  -5  13    5.80    2.30
   0   5 -13   -2.70    3.50
   0   5 -13    2.80    3.30
   0  -5  13    1.70    2.20
   0  -5  13   -0.10    2.10
  -1   5 -13    7.00    3.20
  -1   5 -13    1.90    3.80
   1  -5  13    3.50    2.20
  -2   5 -13    3.50    2.80
  -2   5 -13    3.00    4.00
   2  -5  13   -0.40    1.80
  -3   5 -13    2.10    4.10
  -3   5 -13   10.10    3.20
   3  -5  13    5.30    2.30
  -4   5 -13    5.00    2.80
  -4   5 -13   -7.00    4.00
   4  -5  13    1.00    2.00
   4  -5  13   -2.70    1.30
  -5   5 -13   15.70    3.90
  -5   5 -13   20.40    5.90
   5  -5  13   17.00    3.20
   5  -5  13   21.00    2.70
  -6   5 -13    4.40    4.40
  -6   5 -13   -3.30    2.60
   6  -5  13    2.90    1.50
   3   4 -13    6.90    4.80
  -3  -4  13   -1.20    2.10
  -3  -4  13    1.40    2.50
   2   4 -13    4.60    4.30
   2   4 -13    7.70    4.20
  -2  -4  13   10.00    2.80
  -2  -4  13    3.80    2.30
   1   4 -13   18.20    5.00
   1   4 -13   27.20    5.60
  -1  -4  13   17.40    3.40
  -1  -4  13   21.40    3.50
   0   4 -13   37.10    6.30
   0   4 -13   25.40    5.50
   0  -4  13   28.80    3.90
   0  -4  13   25.30    4.00
  -1   4 -13    4.60    3.20
  -1   4 -13    6.90    3.70
   1  -4  13    4.10    2.30
  -2   4 -13   24.20    4.60
  -2   4 -13   20.40    5.20
   2  -4  13   18.30    3.30
  -3   4 -13    1.40    3.70
  -3   4 -13    1.60    2.60
   3  -4  13   -0.80    1.80
  -4   4 -13   67.29    9.60
  -4   4 -13   86.99    8.30
   4  -4  13   75.59    7.00
   4  -4  13   75.69    6.30
  -5   4 -13   74.49   10.90
  -5   4 -13  100.09    9.60
   5  -4  13  115.19    8.60
   5  -4  13   94.29    7.80
  -6   4 -13  178.18   18.20
  -6   4 -13  215.68   16.80
   6  -4  13  210.78   15.30
  -7   4 -13   39.20    5.90
  -7   4 -13   30.90    7.20
   7  -4  13   56.89    4.40
   4   3 -13    7.50    5.10
   4   3 -13    0.30    3.40
  -4  -3  13    0.70    2.10
  -4  -3  13    4.70    2.60
   3   3 -13    1.10    4.60
  -3  -3  13    0.20    2.00
  -3  -3  13   -4.80    2.10
   2   3 -13   22.30    5.50
   2   3 -13   20.80    5.10
  -2  -3  13   10.50    3.10
  -2  -3  13   17.40    3.20
   1   3 -13    8.90    4.40
   1   3 -13   -3.90    3.00
  -1  -3  13   -3.40    2.00
  -1  -3  13    0.10    2.20
   0   3 -13   11.60    4.30
   0   3 -13   11.10    4.30
   0  -3  13    9.50    2.80
   0  -3  13    8.60    2.60
  -1   3 -13    0.10    3.60
  -1   3 -13    3.40    3.20
   1  -3  13   -2.60    1.90
  -2   3 -13   21.80    4.60
  -2   3 -13   13.10    4.40
   2  -3  13   18.40    3.20
  -3   3 -13   23.00    5.30
  -3   3 -13   34.20    5.50
   3  -3  13   29.70    4.00
  -4   3 -13    5.30    4.10
  -4   3 -13    3.00    3.00
   4  -3  13    0.90    1.20
   4  -3  13    2.00    2.00
  -5   3 -13   16.10    4.00
  -5   3 -13    9.40    4.50
   5  -3  13   11.60    2.70
   5  -3  13   14.80    2.10
  -6   3 -13   57.39    9.10
  -6   3 -13   69.89    8.00
   6  -3  13   78.59    6.50
   6  -3  13   66.39    5.80
  -7   3 -13  101.69   12.20
  -7   3 -13  108.49   12.30
  -7   3 -13  103.89   10.70
   7  -3  13  121.09    8.80
  -8   3 -13   37.60    7.90
  -8   3 -13   56.49    7.40
  -8   3 -13   51.19    8.70
   8  -3  13   51.49    4.60
   4   2 -13    0.20    3.30
   4   2 -13    9.40    5.20
  -4  -2  13   -1.50    2.20
  -4  -2  13    1.40    2.80
   3   2 -13   14.10    5.10
   3   2 -13   -5.90    2.70
  -3  -2  13   -2.80    2.20
  -3  -2  13   -1.30    2.10
   2   2 -13   35.00    6.50
  -2  -2  13   25.40    3.90
  -2  -2  13   22.70    3.80
   1   2 -13   57.49    8.30
  -1  -2  13   53.39    5.40
  -1  -2  13   40.60    5.10
   0   2 -13    3.70    3.70
   0   2 -13   -1.60    3.10
   0  -2  13   -2.30    1.90
   0  -2  13    1.90    2.20
  -1   2 -13   11.20    4.00
  -1   2 -13   20.60    4.90
   1  -2  13   15.20    2.90
  -2   2 -13   33.50    5.70
  -2   2 -13   20.00    5.50
   2  -2  13   27.70    3.80
  -3   2 -13    6.10    3.40
  -3   2 -13    6.10    3.50
   3  -2  13    2.70    1.90
  -4   2 -13    9.50    3.90
  -4   2 -13   16.10    4.10
   4  -2  13    6.10    1.60
   4  -2  13   11.50    2.60
  -5   2 -13    3.00    3.30
  -5   2 -13    9.30    4.30
   5  -2  13    4.30    1.90
   5  -2  13    3.90    1.40
  -6   2 -13    7.20    3.80
  -6   2 -13   -5.50    3.80
  -6   2 -13    8.10    4.50
   6  -2  13    5.80    1.60
   6  -2  13    6.80    2.20
  -7   2 -13   -5.60    3.30
  -7   2 -13    0.40    4.20
  -7   2 -13    1.90    3.90
   7  -2  13    0.70    1.20
   7  -2  13   -3.80    1.70
  -8   2 -13   -1.80    4.90
  -8   2 -13    0.70    3.50
  -8   2 -13   -0.60    4.40
   8  -2  13   -2.20    1.10
   4   1 -13   16.00    5.90
   4   1 -13    0.40    3.40
  -4  -1  13    0.10    2.60
  -4  -1  13   -1.40    2.20
   3   1 -13    3.50    3.40
   3   1 -13    6.40    5.00
  -3  -1  13    3.70    2.30
  -3  -1  13    4.30    2.80
   2   1 -13   32.10    6.60
   2   1 -13   22.30    4.70
  -2  -1  13   25.70    3.90
  -2  -1  13   22.60    3.50
   1   1 -13    0.90    3.90
   1   1 -13   -3.20    2.80
  -1  -1  13    0.50    2.20
  -1  -1  13   -0.10    2.00
   0   1 -13   38.20    6.90
   0  -1  13   29.20    4.30
   0  -1  13   42.20    4.50
  -1   1 -13   -1.60    3.40
  -1   1 -13    3.70    3.70
   1  -1  13   -0.70    2.00
  -2   1 -13   10.70    4.10
  -2   1 -13   18.90    4.80
   2  -1  13   16.70    2.90
  -3   1 -13    6.90    3.80
  -3   1 -13   14.50    4.50
   3  -1  13    2.70    1.30
   3  -1  13    2.10    2.00
  -4   1 -13   31.50    5.80
  -4   1 -13   27.00    5.80
   4  -1  13   40.50    4.30
   4  -1  13   30.80    3.20
  -5   1 -13   -2.60    3.00
  -5   1 -13    0.50    3.30
   5  -1  13    1.40    1.70
   5  -1  13    0.70    1.10
  -6   1 -13   13.20    5.30
  -6   1 -13   18.40    5.10
  -6   1 -13   21.00    5.70
   6  -1  13   21.60    2.90
   6  -1  13   18.90    2.40
  -7   1 -13   -0.80    3.70
  -7   1 -13   -6.00    3.50
  -7   1 -13   -8.00    4.10
   7  -1  13    0.70    1.10
   7  -1  13   -1.90    1.50
  -8   1 -13    8.60    4.30
  -8   1 -13    6.70    5.00
  -8   1 -13    6.30    4.50
   8  -1  13    5.20    1.70
  -9   1 -13    6.30    4.80
  -9   1 -13    4.50    4.80
  -9   1 -13    6.50    4.10
   9  -1  13    7.50    1.70
   4   0 -13   64.69    7.70
  -4   0  13   62.09    5.90
  -4   0  13   44.00    6.30
   3   0 -13    7.20    3.60
   3   0 -13   16.10    5.80
  -3   0  13   -0.80    2.70
  -3   0  13    8.00    2.50
   2   0 -13    6.90    4.70
   2   0 -13   -1.90    3.00
  -2   0  13   -2.30    2.10
  -2   0  13   -3.80    2.00
   1   0 -13   48.70    6.90
   1   0 -13   74.29    9.80
  -1   0  13   57.89    6.20
  -1   0  13   65.59    6.20
   0   0 -13   19.40    5.60
   0   0 -13    5.20    3.00
   0   0  13   10.20    2.50
   0   0  13    7.70    2.70
  -1   0 -13    6.30    3.60
  -1   0 -13    6.80    4.20
   1   0  13    4.40    2.30
  -2   0 -13   65.79    8.60
  -2   0 -13   48.00    7.60
   2   0  13   61.79    5.80
  -3   0 -13    0.70    3.70
  -3   0 -13    4.00    3.50
   3   0  13    4.30    1.40
   3   0  13    3.90    1.90
  -4   0 -13   10.10    4.00
  -4   0 -13   22.00    5.20
   4   0  13    7.70    1.60
   4   0  13   11.20    2.40
  -5   0 -13   13.50    4.50
  -5   0 -13    7.90    4.00
  -5   0 -13    6.50    3.80
   5   0  13    8.60    2.30
   5   0  13    8.80    1.60
  -6   0 -13    6.00    4.30
  -6   0 -13    5.40    3.90
  -6   0 -13    0.40    3.90
   6   0  13    1.70    1.80
   6   0  13    3.20    1.20
  -7   0 -13   17.40    5.40
  -7   0 -13   12.90    4.90
  -7   0 -13   13.00    5.30
   7   0  13   18.90    2.70
   7   0  13   14.10    2.00
  -8   0 -13   11.10    4.70
  -8   0 -13    9.10    4.80
  -8   0 -13    7.80    5.30
   8   0  13    8.10    1.70
   8   0  13    9.40    2.10
  -9   0 -13   16.90    5.70
  -9   0 -13   13.90    4.90
  -9   0 -13   17.30    6.00
   9   0  13   13.90    2.10
   4  -1 -13   21.80    4.60
  -4   1  13   17.30    3.20
  -4   1  13   17.70    4.30
  -4   1  13   28.40    5.80
   3  -1 -13    5.40    3.30
  -3   1  13    5.00    2.40
  -3   1  13   11.40    4.40
  -3   1  13   -1.50    2.90
   2  -1 -13   -2.60    3.00
   2  -1 -13    4.40    4.80
  -2   1  13    2.40    1.90
  -2   1  13    0.90    3.20
  -2   1  13   -3.60    2.20
   1  -1 -13   45.20    7.60
   1  -1 -13   30.10    5.30
  -1   1  13   30.00    4.30
  -1   1  13   27.90    3.80
   0  -1 -13   69.69    9.40
   0  -1 -13   44.90    6.70
   0   1  13   58.29    6.20
   0   1  13   66.49    7.20
   0   1  13   67.69    5.90
  -1  -1 -13   17.50    5.20
  -2  -1 -13  213.78   18.90
  -2  -1 -13  214.88   18.40
   2   1  13  218.78   16.50
  -3  -1 -13   12.60    4.60
  -3  -1 -13    4.30    4.00
   3   1  13    5.70    1.50
   3   1  13    4.10    1.90
  -4  -1 -13   14.40    5.30
  -4  -1 -13   12.10    4.70
  -4  -1 -13   14.70    5.20
   4   1  13   15.80    2.10
   4   1  13   13.00    2.60
  -5  -1 -13   17.80    6.10
  -5  -1 -13   17.70    5.40
  -5  -1 -13   18.50    5.10
   5   1  13   20.90    2.50
   5   1  13   25.30    3.20
  -6  -1 -13    3.10    4.40
  -6  -1 -13    3.00    4.60
  -6  -1 -13    1.30    3.80
   6   1  13   -0.80    1.20
   6   1  13    0.80    1.50
  -7  -1 -13   25.60    6.40
  -7  -1 -13   31.20    6.50
   7   1  13   27.70    3.50
   7   1  13   33.90    3.30
  -8  -1 -13    1.80    4.50
  -8  -1 -13   -2.30    3.80
  -8  -1 -13   -4.10    4.20
   8   1  13    0.90    1.60
   8   1  13    1.20    1.30
  -9  -1 -13    1.20    4.10
  -9  -1 -13    1.60    4.90
  -9  -1 -13   -0.50    4.60
   9   1  13    3.40    1.50
   4  -2 -13  165.28   14.30
  -4   2  13  159.68   15.00
  -4   2  13  168.98   14.20
   3  -2 -13    8.30    3.70
  -3   2  13    8.80    3.70
  -3   2  13   12.70    4.50
  -3   2  13    9.80    2.40
   2  -2 -13   43.70    6.20
  -2   2  13   40.60    6.50
  -2   2  13   35.80    5.30
  -2   2  13   39.60    4.50
   1  -2 -13   50.09    6.90
   1  -2 -13   56.59    8.90
  -1   2  13   54.99    7.30
  -1   2  13   53.89    6.20
  -1   2  13   58.59    5.50
   0  -2 -13    2.70    4.50
   0  -2 -13   -2.10    2.60
   0   2  13   -2.80    1.70
   0   2  13    4.80    3.20
   0   2  13   -4.00    2.30
  -1  -2 -13    0.80    4.30
  -1  -2 -13    0.10    2.90
   1   2  13    1.90    1.80
  -2  -2 -13   40.10    7.30
   2   2  13   45.30    4.60
   2   2  13   39.50    3.90
  -3  -2 -13  122.29   12.50
  -3  -2 -13  106.49   11.20
   3   2  13  120.99    9.40
   3   2  13  106.99    8.70
  -4  -2 -13    0.50    4.40
  -4  -2 -13   11.00    5.30
  -4  -2 -13   -0.20    3.30
   4   2  13    4.20    1.50
   4   2  13    6.40    2.00
  -5  -2 -13   48.70    7.60
  -5  -2 -13   33.10    8.10
  -5  -2 -13   49.90    7.70
   5   2  13   56.89    5.00
   5   2  13   47.00    4.20
  -6  -2 -13    6.30    5.50
  -6  -2 -13    3.60    4.80
  -6  -2 -13    3.00    3.60
   6   2  13    5.20    2.00
   6   2  13    4.40    1.30
  -7  -2 -13    5.90    5.30
  -7  -2 -13    8.70    4.70
  -7  -2 -13   13.90    6.70
   7   2  13   11.50    2.40
   7   2  13   11.40    1.90
  -8  -2 -13   58.89    9.50
  -8  -2 -13   70.39   10.10
   8   2  13   69.89    6.00
   8   2  13   80.59    6.50
  -9  -2 -13    6.40    4.70
  -9  -2 -13   16.00    5.60
   9   2  13    9.80    1.80
   9   2  13    7.50    2.10
   3  -3 -13   -2.40    3.40
  -3   3  13   -2.80    3.90
  -3   3  13   -1.00    3.50
  -3   3  13   -5.30    1.90
   2  -3 -13   55.99    7.30
  -2   3  13   58.69    5.90
  -2   3  13   66.19    8.10
  -2   3  13   52.89    6.80
   1  -3 -13   43.20    6.40
  -1   3  13   47.90    6.60
  -1   3  13   53.99    5.30
  -1   3  13   46.60    5.90
   0  -3 -13    4.30    5.00
   0  -3 -13    1.80    2.90
   0   3  13    4.20    3.30
   0   3  13   -1.20    1.90
   0   3  13   -2.20    2.40
  -1  -3 -13   -1.00    2.70
  -1  -3 -13    0.80    4.70
   1   3  13    0.90    1.70
   1   3  13   -1.10    1.20
  -2  -3 -13   16.60    5.80
   2   3  13   16.00    2.20
   2   3  13   12.00    2.70
  -3  -3 -13    6.50    4.80
  -3  -3 -13    1.40    3.50
  -3  -3 -13    2.70    4.60
   3   3  13    4.30    1.90
   3   3  13    0.50    1.20
  -4  -3 -13    2.10    4.90
  -4  -3 -13   -4.10    3.50
  -4  -3 -13    1.20    4.40
   4   3  13   -2.90    1.70
   4   3  13   -0.30    1.20
  -5  -3 -13    5.40    3.70
  -5  -3 -13    4.40    5.10
  -5  -3 -13   -1.70    4.70
   5   3  13    1.20    1.20
   5   3  13    3.80    1.90
  -6  -3 -13  158.48   19.00
  -6  -3 -13  167.08   16.90
  -6  -3 -13  210.78   18.10
   6   3  13  192.48   14.10
   6   3  13  213.38   14.70
  -7  -3 -13    1.10    5.40
  -7  -3 -13    7.80    4.20
  -7  -3 -13   10.00    6.30
   7   3  13   11.60    2.40
   7   3  13    7.00    1.70
  -8  -3 -13   12.60    6.40
  -8  -3 -13   15.80    5.10
  -8  -3 -13   -2.90    5.10
   8   3  13   17.30    2.70
   8   3  13   17.00    2.10
  -9  -3 -13   19.50    8.30
  -9  -3 -13   17.10    5.40
  -9  -3 -13   29.20    6.80
   9   3  13   22.60    2.70
   9   3  13   14.90    2.90
   3  -4 -13    9.80    4.30
   3  -4 -13   30.20    5.60
  -3   4  13   26.70    6.20
  -3   4  13   31.50    5.30
   2  -4 -13   51.59    7.50
  -2   4  13   53.29    7.10
  -2   4  13   75.39    6.30
  -2   4  13   64.59    8.40
   1  -4 -13   27.40    5.30
  -1   4  13   26.00    4.80
  -1   4  13   26.30    5.70
  -1   4  13   40.20    4.30
   0  -4 -13   -3.30    3.00
   0   4  13    0.50    3.50
   0   4  13    4.20    2.80
   0   4  13    1.40    1.70
  -1  -4 -13   20.60    4.80
   1   4  13   28.60    3.60
  -2  -4 -13   15.00    4.10
  -2  -4 -13   15.80    6.10
   2   4  13   20.60    3.20
   2   4  13   18.00    2.30
  -3  -4 -13    6.30    5.70
  -3  -4 -13   16.00    5.90
  -3  -4 -13   13.90    4.70
   3   4  13   14.60    2.60
   3   4  13    6.40    1.60
  -4  -4 -13   57.79   11.30
  -4  -4 -13   83.59    9.50
  -4  -4 -13   89.99   11.70
   4   4  13   88.59    6.70
   4   4  13   92.79    7.40
  -5  -4 -13   28.10    8.40
  -5  -4 -13   45.70    7.50
  -5  -4 -13   32.70    7.80
   5   4  13   38.20    3.80
   5   4  13   53.59    4.90
  -6  -4 -13   49.99   11.40
  -6  -4 -13   62.09    9.00
  -6  -4 -13   97.69   11.20
   6   4  13   77.19    6.60
   6   4  13   75.69    5.90
  -7  -4 -13   30.40    9.10
  -7  -4 -13   32.70    7.90
  -7  -4 -13   30.90    6.50
   7   4  13   43.70    3.70
   7   4  13   37.40    4.20
  -8  -4 -13   -0.50    4.00
  -8  -4 -13    4.70    5.50
  -8  -4 -13    6.80    5.90
   8   4  13    1.40    2.00
   8   4  13    2.80    1.20
  -9  -4 -13  115.29   12.40
  -9  -4 -13   61.39   13.40
  -9  -4 -13   69.29   10.30
   9   4  13   85.69    6.80
   9   4  13   85.59    7.30
   2  -5 -13   34.50    5.90
  -2   5  13   48.90    4.90
  -2   5  13   36.60    6.40
  -2   5  13   32.60    5.70
   1  -5 -13   14.30    4.30
  -1   5  13    6.40    4.50
  -1   5  13   16.80    3.00
  -1   5  13   12.40    4.10
   0  -5 -13   49.70    7.00
   0   5  13   68.19    5.90
   0   5  13   48.50    6.60
   0   5  13   56.09    7.50
  -1  -5 -13   -0.30    3.10
   1   5  13    6.70    2.30
  -2  -5 -13    1.60    5.40
  -2  -5 -13    0.40    3.10
   2   5  13    4.20    2.20
  -3  -5 -13    8.70    6.40
   3   5  13   19.50    3.00
  -4  -5 -13    4.30    4.00
  -4  -5 -13    6.20    5.50
   4   5  13    6.80    2.40
  -5  -5 -13    5.20    6.00
  -5  -5 -13    6.20    4.60
   5   5  13   10.50    2.40
   5   5  13    6.20    1.60
  -6  -5 -13   94.39   14.10
  -6  -5 -13   83.69   10.80
   6   5  13  100.19    7.80
   6   5  13  110.29    8.70
  -7  -5 -13   -0.90    4.20
  -7  -5 -13   -0.80    5.30
   7   5  13    0.70    2.10
   7   5  13   -1.20    1.10
  -8  -5 -13    6.90    6.90
  -8  -5 -13   -5.10    4.10
   8   5  13    2.40    1.90
   8   5  13   -1.60    1.30
  -9  -5 -13   22.20    8.10
  -9  -5 -13   23.50    6.10
   9   5  13   22.80    3.50
   9   5  13   31.30    3.30
   1  -6 -13   20.70    4.90
  -1   6  13   10.40    4.90
  -1   6  13   24.20    3.50
  -1   6  13   14.50    4.10
   0  -6 -13    2.30    3.50
   0   6  13    4.10    4.50
   0   6  13    4.10    3.40
   0   6  13    1.70    2.00
  -1  -6 -13    8.20    3.90
   1   6  13   16.60    2.90
  -2  -6 -13    3.90    6.20
  -2  -6 -13    0.30    3.30
   2   6  13    3.80    2.20
  -3  -6 -13    4.10    6.20
   3   6  13    7.10    2.40
  -4  -6 -13   -2.00    4.00
  -4  -6 -13    1.00    6.00
   4   6  13    2.30    2.10
  -5  -6 -13   17.00    5.40
  -5  -6 -13   16.40    7.20
   5   6  13   17.00    3.20
  -6  -6 -13   19.90    7.70
  -6  -6 -13   15.60    5.20
   6   6  13   19.60    3.40
  -7  -6 -13    7.80    7.30
  -7  -6 -13    0.90    4.50
   7   6  13    0.70    2.20
  -8  -6 -13    2.80    6.80
   8   6  13    0.50    2.10
   8   6  13   -0.60    1.40
   0  -7 -13   -1.20    3.60
   0   7  13    0.40    2.40
   0   7  13  -13.00    3.80
   0   7  13    1.90    3.70
  -1  -7 -13   16.00    4.60
   1   7  13   20.30    3.60
  -2  -7 -13   -3.90    7.10
  -2  -7 -13    1.80    3.50
   2   7  13    5.90    2.50
  -3  -7 -13   -2.20    5.90
   3   7  13    0.70    2.10
  -4  -7 -13   14.50    7.30
  -4  -7 -13    7.90    5.10
   4   7  13   11.80    2.70
  -5  -7 -13   -0.80    6.10
  -5  -7 -13   -3.80    4.10
   5   7  13   -1.10    2.00
  -6  -7 -13    7.30    7.70
   6   7  13    6.10    2.50
  -7  -7 -13   10.60    7.40
   7   7  13    7.10    3.00
  -2  -8 -13    1.80    8.10
  -2  -8 -13   -1.80    3.40
   2   8  13    6.70    2.40
  -3  -8 -13   -6.10    6.50
   3   8  13    1.20    2.20
  -4  -8 -13   23.60    9.40
   4   8  13   29.00    4.20
  -5  -8 -13    1.50    6.40
   5   8  13   -3.20    2.40
  -2   5 -14    8.80    5.00
   2  -5  14    9.80    3.10
   1   4 -14    1.30    4.20
  -1  -4  14    6.80    2.90
   0   4 -14   24.60    5.50
   0   4 -14   15.10    5.20
   0  -4  14   17.40    3.40
  -1   4 -14    1.60    4.30
  -1   4 -14    2.40    3.50
   1  -4  14   -1.70    2.40
  -2   4 -14    7.60    3.70
  -2   4 -14    8.00    4.90
   2  -4  14    7.70    2.90
  -3   4 -14    0.20    3.10
  -3   4 -14    4.70    4.40
   3  -4  14   -1.40    1.50
   3  -4  14   -1.60    2.00
  -4   4 -14   -2.30    3.10
  -4   4 -14    4.20    4.60
   4  -4  14   -3.10    1.60
   4  -4  14   -3.20    1.90
  -5   4 -14   -0.90    3.30
  -5   4 -14    1.40    4.60
   5  -4  14   -0.70    1.40
   5  -4  14    0.00    2.40
   2   3 -14   71.89   10.80
   2   3 -14   85.39   10.50
  -2  -3  14   84.29    8.00
   1   3 -14   22.10    5.90
   1   3 -14   12.30    4.90
  -1  -3  14    7.50    2.80
  -1  -3  14   10.60    3.20
   0   3 -14   -5.70    3.70
   0   3 -14    3.80    4.00
   0  -3  14   -1.20    2.10
  -1   3 -14   11.00    4.30
  -1   3 -14   -2.90    3.20
   1  -3  14    2.40    2.30
  -2   3 -14   44.10    6.80
  -2   3 -14   23.60    5.70
   2  -3  14   27.60    4.10
  -3   3 -14   31.70    6.60
  -3   3 -14   49.60    7.00
   3  -3  14   45.50    4.40
   3  -3  14   48.00    5.20
  -4   3 -14   -1.10    3.70
  -4   3 -14    2.20    3.30
   4  -3  14    3.20    1.50
   4  -3  14    1.30    2.10
  -5   3 -14  125.09   12.00
  -5   3 -14   95.59   12.80
   5  -3  14  137.89   10.50
   5  -3  14  123.99    9.70
  -6   3 -14   74.59    8.90
  -6   3 -14   50.89    9.20
   6  -3  14   71.89    6.40
   6  -3  14   96.89    7.30
   2   2 -14    7.00    5.20
  -2  -2  14    2.70    2.30
  -2  -2  14    3.80    2.80
   1   2 -14   78.59    9.30
  -1  -2  14   79.39    7.60
   0   2 -14   29.00    6.30
   0   2 -14   24.90    5.80
   0  -2  14   24.00    3.80
  -1   2 -14    5.90    4.10
  -1   2 -14   19.00    5.00
   1  -2  14    9.70    2.90
  -2   2 -14   22.10    5.20
  -2   2 -14   13.90    4.60
   2  -2  14   20.80    3.70
  -3   2 -14    3.80    3.90
  -3   2 -14    2.80    3.80
   3  -2  14    8.40    2.50
   3  -2  14    7.80    1.70
  -4   2 -14   15.90    5.80
  -4   2 -14   30.00    5.90
   4  -2  14   29.90    4.00
   4  -2  14   31.20    3.40
  -5   2 -14    1.90    3.90
  -5   2 -14    4.10    4.10
   5  -2  14    1.20    1.90
   5  -2  14   -0.30    1.30
  -6   2 -14   57.39    7.90
  -6   2 -14   39.40    8.20
   6  -2  14   62.09    5.50
   6  -2  14   48.60    4.70
  -7   2 -14   -0.30    4.10
  -7   2 -14    5.90    4.80
   7  -2  14    2.20    1.30
   2   1 -14   11.70    5.40
   2   1 -14   -1.60    3.30
  -2  -1  14   -1.70    2.40
  -2  -1  14    1.40    2.70
   1   1 -14   11.40    4.90
  -1  -1  14   -1.70    2.30
  -1  -1  14   -2.20    2.30
   0   1 -14    5.80    4.00
   0   1 -14    8.50    4.50
   0  -1  14    1.60    2.20
  -1   1 -14    6.20    4.50
  -1   1 -14   -1.00    3.80
   1  -1  14    5.20    2.40
  -2   1 -14   -0.70    3.70
  -2   1 -14    3.70    4.00
   2  -1  14    0.20    2.00
  -3   1 -14   -4.40    3.10
  -3   1 -14    3.40    3.90
   3  -1  14   -1.00    1.40
   3  -1  14    0.40    1.90
  -4   1 -14    7.40    4.20
  -4   1 -14   14.00    4.60
   4  -1  14    3.40    2.30
   4  -1  14    6.90    1.70
  -5   1 -14   23.40    5.50
  -5   1 -14    6.60    4.50
   5  -1  14   12.70    2.20
   5  -1  14   18.90    3.00
  -6   1 -14   -1.60    4.00
  -6   1 -14    4.10    4.80
   6  -1  14    0.60    2.10
   6  -1  14    2.60    1.50
  -7   1 -14    1.70    4.80
  -7   1 -14   -2.50    4.20
  -7   1 -14   -5.60    4.60
   7  -1  14    5.40    1.60
   7  -1  14   -2.10    1.80
   2   0 -14    1.00    3.80
   2   0 -14   16.50    6.00
  -2   0  14    1.00    2.50
  -2   0  14   -1.50    2.50
   1   0 -14   44.30    7.90
   1   0 -14   32.20    6.00
  -1   0  14   52.49    5.40
  -1   0  14   40.00    5.30
   0   0 -14   32.40    6.70
   0   0  14   24.80    3.80
  -1   0 -14   12.30    5.10
  -1   0 -14   10.30    4.90
   1   0  14   11.20    2.70
  -2   0 -14    7.60    4.60
  -2   0 -14   10.10    4.80
   2   0  14    5.90    2.50
  -3   0 -14    3.60    4.00
  -3   0 -14   -3.00    3.20
   3   0  14   -1.30    1.20
   3   0  14    2.10    2.20
  -4   0 -14    2.10    4.30
  -4   0 -14    4.90    4.30
   4   0  14    3.40    1.60
   4   0  14    3.30    2.10
  -5   0 -14    0.60    4.20
  -5   0 -14    4.40    4.10
   5   0  14    0.10    1.20
   5   0  14   -1.10    1.70
  -6   0 -14   24.10    6.40
  -6   0 -14   30.10    6.40
   6   0  14   29.00    3.80
   6   0  14   26.70    3.10
  -7   0 -14   25.80    7.00
  -7   0 -14   36.10    7.30
  -7   0 -14   45.30    7.50
   7   0  14   41.70    4.50
   7   0  14   36.10    3.80
  -8   0 -14    3.20    4.80
  -8   0 -14    6.60    5.40
  -8   0 -14   -0.80    4.00
   8   0  14    4.10    1.60
   2  -1 -14   24.70    6.90
   2  -1 -14   10.30    4.10
  -2   1  14   12.30    3.60
  -2   1  14   16.00    3.20
  -2   1  14   23.80    5.00
   1  -1 -14   60.69    9.40
   1  -1 -14   41.10    6.40
  -1   1  14   53.29    7.00
  -1   1  14   49.99    5.50
  -1   1  14   41.70    5.60
   0  -1 -14    9.70    3.60
   0  -1 -14   16.30    5.70
   0   1  14   13.40    2.80
  -1  -1 -14   16.10    5.70
   1   1  14    6.70    2.40
  -2  -1 -14    0.60    3.80
  -2  -1 -14    0.50    4.20
   2   1  14    3.80    2.10
   2   1  14    2.00    1.60
  -3  -1 -14    4.50    3.90
  -3  -1 -14   11.50    5.10
   3   1  14    4.80    2.20
   3   1  14    7.40    1.80
  -4  -1 -14    3.80    4.10
  -4  -1 -14    8.50    5.10
   4   1  14    9.90    2.70
   4   1  14    5.60    1.60
  -5  -1 -14   20.30    6.30
  -5  -1 -14   39.20    7.20
   5   1  14   45.20    4.40
   5   1  14   31.80    3.60
  -6  -1 -14   18.80    5.90
  -6  -1 -14   22.10    6.20
   6   1  14   19.80    2.50
   6   1  14   15.50    2.90
  -7  -1 -14   17.10    5.60
  -7  -1 -14    9.90    4.80
  -7  -1 -14    7.30    5.60
   7   1  14   18.90    2.40
   7   1  14   21.40    3.10
  -8  -1 -14    5.30    5.40
  -8  -1 -14   -7.00    4.10
  -8  -1 -14   -7.40    4.40
   8   1  14   -1.80    1.40
   8   1  14   -0.80    1.70
   2  -2 -14   -0.40    3.30
  -2   2  14   -4.50    3.20
  -2   2  14    2.50    2.40
  -2   2  14   -1.50    3.90
   1  -2 -14   59.29    8.10
  -1   2  14   80.79    8.50
  -1   2  14   75.09    6.70
  -1   2  14   61.69    7.30
   0  -2 -14   10.40    5.80
   0  -2 -14    2.80    3.50
   0   2  14    6.70    2.50
  -1  -2 -14   13.00    5.70
   1   2  14    2.60    2.20
  -2  -2 -14   36.90    7.00
  -2  -2 -14   31.10    7.00
   2   2  14   25.40    3.00
   2   2  14   30.70    4.10
  -3  -2 -14   52.39    8.80
  -3  -2 -14   41.00    7.30
   3   2  14   61.79    5.50
   3   2  14   48.10    4.70
  -4  -2 -14   20.40    6.30
  -4  -2 -14   20.50    6.00
   4   2  14   28.50    3.10
   4   2  14   26.80    3.70
  -5  -2 -14    5.10    4.50
  -5  -2 -14    2.90    5.00
  -5  -2 -14    2.40    5.00
   5   2  14    2.80    1.50
   5   2  14    3.40    2.00
  -6  -2 -14   13.30    5.90
  -6  -2 -14   17.60    5.60
  -6  -2 -14   22.90    7.40
   6   2  14   19.10    2.50
   6   2  14   26.10    3.30
  -7  -2 -14   11.20    6.90
  -7  -2 -14    3.40    4.50
  -7  -2 -14    3.50    5.50
   7   2  14   10.20    2.30
   7   2  14    5.50    1.60
  -8  -2 -14   -2.20    4.70
  -8  -2 -14   -9.20    4.50
   8   2  14   -1.10    1.60
   8   2  14   -2.70    1.20
  -2   3  14    1.70    4.40
  -2   3  14   -4.70    2.20
  -2   3  14   -0.20    3.50
   1  -3 -14    0.90    3.50
  -1   3  14   -0.70    1.90
  -1   3  14    1.90    4.10
  -1   3  14    1.30    3.20
   0  -3 -14   23.20    5.20
   0   3  14   34.70    4.10
  -1  -3 -14    0.80    5.30
  -1  -3 -14   -2.30    3.20
   1   3  14   -1.60    1.90
   1   3  14   -1.10    1.40
  -2  -3 -14   90.69   12.40
   2   3  14  115.39    9.00
   2   3  14   98.89    8.20
  -3  -3 -14    5.70    5.80
  -3  -3 -14   -0.40    4.00
   3   3  14    2.30    1.60
   3   3  14    8.10    2.60
  -4  -3 -14  204.68   19.50
  -4  -3 -14  174.28   18.10
   4   3  14  240.48   16.50
   4   3  14  209.68   15.60
  -5  -3 -14    6.00    4.50
  -5  -3 -14   -1.10    5.30
  -5  -3 -14   11.20    6.00
   5   3  14   12.00    2.00
   5   3  14    9.50    2.50
  -6  -3 -14   -7.10    4.90
  -6  -3 -14   -1.20    3.90
  -6  -3 -14    9.70    6.40
   6   3  14    2.50    1.30
   6   3  14    3.40    2.00
  -7  -3 -14   10.10    5.50
  -7  -3 -14   -2.30    5.60
  -7  -3 -14   13.40    7.40
   7   3  14   11.40    2.10
   7   3  14   13.10    2.60
  -8  -3 -14   -4.80    5.30
  -8  -3 -14    0.50    4.30
  -8  -3 -14    3.70    6.00
   8   3  14    3.40    1.40
   8   3  14   -1.60    1.70
   1  -4 -14   -1.00    3.60
  -1   4  14   -2.90    4.30
  -1   4  14    0.20    3.50
  -1   4  14   -0.70    2.30
   0  -4 -14    4.40    4.00
   0   4  14    9.70    2.50
  -1  -4 -14    2.80    3.80
   1   4  14   10.30    2.70
   2   4  14   14.90    3.00
  -3  -4 -14   10.00    6.30
  -3  -4 -14    7.30    5.30
   3   4  14   15.70    2.90
   3   4  14    9.90    2.00
  -4  -4 -14   96.89   14.60
  -4  -4 -14  116.69   12.70
  -4  -4 -14  137.49   14.90
   4   4  14  121.59    9.40
   4   4  14  135.59   10.30
  -5  -4 -14  100.99   14.80
  -5  -4 -14  110.19   12.30
  -5  -4 -14   84.69   12.90
   5   4  14  111.59    8.70
   5   4  14  128.89    9.50
  -6  -4 -14   70.69   10.50
  -6  -4 -14   50.99   11.30
  -6  -4 -14   53.59    8.70
   6   4  14   73.39    6.50
   6   4  14   62.29    5.40
  -7  -4 -14    8.40    6.50
  -7  -4 -14   10.00    5.50
  -7  -4 -14   -2.50    6.30
   7   4  14    8.60    1.80
   7   4  14    8.70    2.50
  -8  -4 -14   -4.20    5.90
  -8  -4 -14    0.00    4.20
  -8  -4 -14   -1.00    6.20
   8   4  14    3.10    1.50
   8   4  14   -1.10    2.20
   0   5  14   89.29    8.10
  -1  -5 -14   11.00    4.60
   1   5  14   14.00    3.00
   2   5  14   24.90    3.70
  -3  -5 -14   45.10    7.90
   3   5  14   61.49    6.00
  -4  -5 -14    2.60    4.60
  -4  -5 -14    0.00    5.70
   4   5  14    1.60    2.20
  -5  -5 -14   27.80    6.80
  -5  -5 -14   30.40    9.40
   5   5  14   30.60    4.10
  -6  -5 -14   68.09   10.00
  -6  -5 -14   47.30   12.00
   6   5  14   90.09    7.30
  -7  -5 -14   51.39    9.10
  -7  -5 -14   59.39   12.60
   7   5  14   69.09    6.80
   7   5  14   77.19    5.80
  -1  -6 -14    4.90    3.60
   1   6  14    9.80    2.90
   2   6  14    7.50    2.60
  -3  -6 -14    2.90    5.00
  -3  -6 -14   -1.00    6.40
   3   6  14    1.60    2.30
  -4  -6 -14    1.90    7.30
  -4  -6 -14    5.20    4.80
   4   6  14    0.50    2.40
  -5  -6 -14    1.30    5.00
  -5  -6 -14    3.60    7.30
   5   6  14   11.10    3.10
  -6  -6 -14   29.70    9.50
  -6  -6 -14   29.80    6.60
   6   6  14   21.10    3.90
  -1   2 -15   25.70    6.40
  -2   2 -15   10.90    5.00
  -2   2 -15   20.50    5.60
   2  -2  15   13.20    3.50
  -3   2 -15   72.39    9.60
  -3   2 -15   48.70    8.90
   3  -2  15   66.99    6.90
   3  -2  15   69.59    5.90
  -4   2 -15   60.19    9.90
   4  -2  15   76.99    7.00
   0   1 -15    4.10    4.80
   0   1 -15    0.60    4.60
  -1   1 -15    9.40    5.10
  -1   1 -15    0.00    4.00
   1  -1  15    1.80    2.30
  -2   1 -15   -4.20    4.30
  -2   1 -15    9.20    5.20
   2  -1  15    2.60    2.80
  -3   1 -15   -1.50    4.20
  -3   1 -15    4.70    4.60
   3  -1  15    0.30    2.50
   3  -1  15    1.90    1.80
  -4   1 -15   -2.50    4.10
  -4   1 -15    0.30    4.40
   4  -1  15    1.10    2.20
   4  -1  15    0.50    1.60
  -5   1 -15    2.50    4.90
  -5   1 -15    8.50    4.60
   5  -1  15    3.90    1.50
   5  -1  15    0.00    2.30
   0   0 -15   62.59    9.50
   0   0 -15   70.29   10.30
   0   0  15   64.59    7.00
  -1   0 -15   11.00    5.70
  -1   0 -15    5.70    4.50
   1   0  15    7.80    2.90
  -2   0 -15   -0.10    4.70
  -2   0 -15   -4.20    4.50
   2   0  15   -0.40    1.40
   2   0  15   -2.40    2.10
  -3   0 -15   16.60    5.70
  -3   0 -15   -2.10    4.30
   3   0  15    7.30    1.90
   3   0  15    5.10    2.70
  -4   0 -15   -6.80    4.50
  -4   0 -15    4.20    4.80
   4   0  15   -1.00    2.20
   4   0  15   -1.40    1.50
  -5   0 -15   11.10    4.90
  -5   0 -15    7.90    5.60
   5   0  15   10.40    2.80
   5   0  15    7.10    1.90
   6   0  15    0.80    2.00
   6   0  15    6.40    2.10
   0  -1 -15   10.30    6.20
   0   1  15   -1.30    2.30
  -1  -1 -15   10.80    5.80
  -1  -1 -15    5.30    5.10
   1   1  15    5.50    2.50
  -2  -1 -15   34.40    7.60
  -2  -1 -15   19.70    5.90
   2   1  15   28.70    3.50
   2   1  15   31.50    4.40
  -3  -1 -15   -3.00    3.80
  -3  -1 -15    4.00    5.30
   3   1  15    3.00    1.80
   3   1  15    0.40    2.20
  -4  -1 -15    1.40    5.50
  -4  -1 -15    5.70    4.90
   4   1  15    6.30    2.50
   4   1  15    9.50    2.10
  -5  -1 -15   12.70    5.30
  -5  -1 -15    9.30    5.80
   5   1  15    8.60    2.50
   5   1  15    7.10    2.00
  -6  -1 -15   24.90    7.00
  -6  -1 -15   22.70    7.50
   6   1  15   21.80    3.30
   6   1  15   22.20    2.70
   0  -2 -15   16.60    7.40
   0   2  15   13.00    3.30
  -1  -2 -15   38.20    7.40
  -1  -2 -15   41.70    8.50
   1   2  15   33.20    3.80
   1   2  15   29.60    4.30
  -2  -2 -15    3.10    4.70
  -2  -2 -15   11.90    5.90
   2   2  15   -2.40    1.50
   2   2  15    0.80    2.20
  -3  -2 -15    3.50    4.60
  -3  -2 -15    6.30    6.10
   3   2  15    5.20    1.90
   3   2  15    7.20    2.70
  -4  -2 -15   16.00    6.60
  -4  -2 -15   18.40    6.00
   4   2  15   22.70    2.90
   4   2  15   23.40    3.60
  -5  -2 -15   15.60    5.70
  -5  -2 -15    7.80    6.20
   5   2  15   16.40    2.50
   5   2  15   17.80    3.10
  -6  -2 -15    4.40    5.00
  -6  -2 -15   14.90    6.30
   6   2  15    9.80    2.50
   6   2  15    9.30    1.80
   1   3  15   22.80    3.80
  -2  -3 -15    1.90    4.40
  -2  -3 -15    1.50    6.00
   2   3  15    3.50    2.50
   2   3  15    1.90    1.70
  -3  -3 -15   79.19   12.20
  -3  -3 -15   85.59   10.80
   3   3  15   97.19    8.30
   3   3  15   96.99    7.60
  -4  -3 -15   19.60    7.40
  -4  -3 -15   10.50    6.00
   4   3  15   24.90    3.00
   4   3  15   28.30    4.00
  -5  -3 -15    8.40    6.70
  -5  -3 -15   15.30    5.40
   5   3  15   21.30    3.40
   5   3  15   23.30    2.80
   2   4  15  115.49   10.00
  -3  -4 -15    6.80    5.20
   3   4  15   19.80    3.40
  -4  -4 -15    3.30    5.30
   4   4  15    3.00    2.70
  -5  -4 -15   -0.10    4.30
   5   4  15   -0.30    1.50
   0   0   0    0.00    0.00

_computing_structure_solution     'SHELXT 2014/5 (Sheldrick, 2014)'
;
_shelx_hkl_checksum              13469
loop_
_space_group_symop_operation_xyz
'x, y, z'
'-x, -y, -z'
loop_
_atom_site_label
_atom_site_type_symbol
_atom_site_fract_x
_atom_site_fract_y
_atom_site_fract_z
_atom_site_U_iso_or_equiv
_atom_site_adp_type
_atom_site_occupancy
_atom_site_site_symmetry_order
_atom_site_calc_flag
_atom_site_refinement_flags_posn
_atom_site_refinement_flags_adp
C1 C 0.74178(9) 0.38820(10) 0.32426(8) 0.01491(13) Uani 1 1 d . .
C2 C 0.62153(9) 0.37513(9) 0.22437(8) 0.01457(13) Uani 1 1 d . .
C3 C 0.33750(11) 0.39672(12) 0.20710(10) 0.02259(17) Uani 1 1 d . .
H3A H 0.339415 0.491626 0.138475 0.034 Uiso 1 1 calc R U
H3B H 0.223939 0.400307 0.270753 0.034 Uiso 1 1 calc R U
H3C H 0.366470 0.296633 0.151074 0.034 Uiso 1 1 calc R U
C4 C 0.76413(9) 0.25261(10) 0.43273(8) 0.01496(13) Uani 1 1 d . .
C5 C 0.70574(10) 0.10646(10) 0.42217(9) 0.01693(14) Uani 1 1 d . .
H5 H 0.649476 0.094628 0.345693 0.020 Uiso 1 1 calc R U
C6 C 0.72928(10) -0.02203(10) 0.52275(9) 0.01829(15) Uani 1 1 d . .
H6 H 0.690809 -0.121996 0.514315 0.022 Uiso 1 1 calc R U
C7 C 0.80933(11) -0.00342(11) 0.63559(9) 0.01901(15) Uani 1 1 d . .
H7 H 0.825330 -0.090845 0.704771 0.023 Uiso 1 1 calc R U
C8 C 0.86617(11) 0.14252(11) 0.64785(9) 0.01971(15) Uani 1 1 d . .
H8 H 0.919684 0.154826 0.726049 0.024 Uiso 1 1 calc R U
C9 C 0.84519(10) 0.27022(11) 0.54657(9) 0.01771(14) Uani 1 1 d . .
H9 H 0.885663 0.369287 0.554397 0.021 Uiso 1 1 calc R U
C10 C 0.79612(10) 0.64036(10) 0.21232(8) 0.01538(13) Uani 1 1 d . .
C11 C 0.93158(10) 0.68057(10) 0.10202(9) 0.01668(14) Uani 1 1 d . .
H11 H 1.039179 0.613771 0.089236 0.020 Uiso 1 1 calc R U
C12 C 0.90893(10) 0.81798(10) 0.01122(9) 0.01750(14) Uani 1 1 d . .
H12 H 1.000436 0.843333 -0.065411 0.021 Uiso 1 1 calc R U
C13 C 0.75302(11) 0.91903(10) 0.03159(9) 0.01786(14) Uani 1 1 d . .
H13 H 0.739023 1.015099 -0.028612 0.021 Uiso 1 1 calc R U
C14 C 0.61793(10) 0.87838(10) 0.14064(9) 0.01831(15) Uani 1 1 d . .
H14 H 0.510809 0.946022 0.153482 0.022 Uiso 1 1 calc R U
C15 C 0.63815(10) 0.73954(10) 0.23115(9) 0.01761(14) Uani 1 1 d . .
H15 H 0.545229 0.712264 0.305283 0.021 Uiso 1 1 calc R U
N1 N 0.82672(9) 0.50631(9) 0.31041(8) 0.01750(13) Uani 1 1 d . .
O1 O 0.66979(8) 0.34511(8) 0.09534(7) 0.02023(13) Uani 1 1 d . .
O2 O 0.46009(7) 0.39906(8) 0.29756(6) 0.01774(12) Uani 1 1 d . .
loop_
_atom_site_aniso_label
_atom_site_aniso_U_11
_atom_site_aniso_U_22
_atom_site_aniso_U_33
_atom_site_aniso_U_23
_atom_site_aniso_U_13
_atom_site_aniso_U_12
C1 0.0157(3) 0.0156(3) 0.0131(3) -0.0018(2) -0.0032(2) -0.0007(2)
C2 0.0168(3) 0.0125(3) 0.0142(3) 0.0000(2) -0.0039(2) -0.0010(2)
C3 0.0188(3) 0.0258(4) 0.0249(4) -0.0011(3) -0.0094(3) -0.0018(3)
C4 0.0165(3) 0.0158(3) 0.0120(3) -0.0015(2) -0.0030(2) -0.0006(2)
C5 0.0193(3) 0.0174(3) 0.0151(3) -0.0003(2) -0.0062(2) -0.0026(3)
C6 0.0211(3) 0.0173(3) 0.0168(3) 0.0006(3) -0.0051(3) -0.0029(3)
C7 0.0212(3) 0.0219(4) 0.0127(3) 0.0016(3) -0.0033(2) -0.0013(3)
C8 0.0231(4) 0.0245(4) 0.0124(3) -0.0011(3) -0.0061(3) -0.0029(3)
C9 0.0209(3) 0.0191(4) 0.0137(3) -0.0029(3) -0.0046(2) -0.0029(3)
C10 0.0178(3) 0.0144(3) 0.0150(3) -0.0014(2) -0.0049(2) -0.0033(2)
C11 0.0163(3) 0.0159(3) 0.0181(3) -0.0029(2) -0.0041(2) -0.0018(2)
C12 0.0188(3) 0.0180(3) 0.0158(3) -0.0015(3) -0.0029(2) -0.0043(3)
C13 0.0227(3) 0.0158(3) 0.0157(3) -0.0017(2) -0.0056(3) -0.0021(3)
C14 0.0190(3) 0.0172(3) 0.0179(3) -0.0038(3) -0.0039(3) 0.0010(3)
C15 0.0176(3) 0.0172(3) 0.0166(3) -0.0021(3) -0.0009(2) -0.0020(3)
N1 0.0189(3) 0.0171(3) 0.0172(3) 0.0002(2) -0.0053(2) -0.0031(2)
O1 0.0220(3) 0.0245(3) 0.0137(2) -0.0031(2) -0.0033(2) -0.0018(2)
O2 0.0151(2) 0.0218(3) 0.0160(2) -0.0019(2) -0.00367(19) -0.0011(2)
loop_
_atom_type_symbol
_atom_type_description
_atom_type_scat_dispersion_real
_atom_type_scat_dispersion_imag
_atom_type_scat_source
C C 0.0033 0.0016 'International Tables Vol C Tables 4.2.6.8 and 6.1.1.4'
H H 0.0000 0.0000 'International Tables Vol C Tables 4.2.6.8 and 6.1.1.4'
N N 0.0061 0.0033 'International Tables Vol C Tables 4.2.6.8 and 6.1.1.4'
O O 0.0106 0.0060 'International Tables Vol C Tables 4.2.6.8 and 6.1.1.4'
loop_
_exptl_crystal_face_index_h
_exptl_crystal_face_index_k
_exptl_crystal_face_index_l
_exptl_crystal_face_perp_dist
-1.00 -1.00 -1.00 0.0940
1.00 1.00 1.00 0.0460
3.00 -2.00 -3.00 0.1370
-3.00 2.00 3.00 0.1260
0.00 -1.00 2.00 0.1590
3.00 -4.00 1.00 0.0990
-3.00 4.00 -1.00 0.1190
-2.00 4.00 -3.00 0.1180
loop_
_geom_angle_atom_site_label_1
_geom_angle_atom_site_label_2
_geom_angle_atom_site_label_3
_geom_angle
N1 C1 C4 121.13(7)
N1 C1 C2 121.83(7)
C4 C1 C2 116.95(7)
O1 C2 O2 125.34(7)
O1 C2 C1 122.93(7)
O2 C2 C1 111.73(6)
C5 C4 C9 119.60(7)
C5 C4 C1 120.46(7)
C9 C4 C1 119.94(7)
C6 C5 C4 120.45(7)
C7 C6 C5 119.60(8)
C6 C7 C8 120.29(8)
C9 C8 C7 120.34(7)
C8 C9 C4 119.72(8)
C11 C10 C15 119.79(7)
C11 C10 N1 118.52(7)
C15 C10 N1 121.49(7)
C12 C11 C10 119.99(7)
C11 C12 C13 120.45(8)
C14 C13 C12 119.53(8)
C13 C14 C15 120.62(7)
C14 C15 C10 119.59(7)
C1 N1 C10 120.35(7)
C2 O2 C3 114.70(6)
loop_
_geom_bond_atom_site_label_1
_geom_bond_atom_site_label_2
_geom_bond_distance
C1 N1 1.2768(11)
C1 C4 1.4773(11)
C1 C2 1.5208(11)
C2 O1 1.2054(9)
C2 O2 1.3330(10)
C3 O2 1.4533(10)
C4 C5 1.3940(12)
C4 C9 1.3993(11)
C5 C6 1.3896(11)
C6 C7 1.3877(12)
C7 C8 1.3894(13)
C8 C9 1.3859(12)
C10 C11 1.3972(11)
C10 C15 1.3988(11)
C10 N1 1.4179(10)
C11 C12 1.3864(12)
C12 C13 1.3919(12)
C13 C14 1.3901(12)
C14 C15 1.3914(12)
