#------------------------------------------------------------------------------
#$Date: 2019-11-02 07:17:54 +0200 (Sat, 02 Nov 2019) $
#$Revision: 220918 $
#$URL: file:///home/coder/svn-repositories/cod/cif/4/12/77/4127747.cif $
#------------------------------------------------------------------------------
#
# This file is available in the Crystallography Open Database (COD),
# http://www.crystallography.net/
#
# All data on this site have been placed in the public domain by the
# contributors.
#
data_4127747
loop_
_publ_author_name
'Gautier, Romain'
'Paris, Michael'
'Massuyeau, Florian'
_publ_section_title
;
 Exciton Self-Trapping in Hybrid Lead Halides: Role of Halogen.
;
_journal_issue                   32
_journal_name_full               'Journal of the American Chemical Society'
_journal_page_first              12619
_journal_page_last               12623
_journal_paper_doi               10.1021/jacs.9b04262
_journal_volume                  141
_journal_year                    2019
_chemical_formula_moiety         '1.38(I1.45 Pb0.36)'
_chemical_formula_sum            'I2 Pb0.5'
_chemical_formula_weight         357.40
_space_group_crystal_system      tetragonal
_space_group_IT_number           113
_space_group_name_Hall           'P -4 2ab'
_space_group_name_H-M_alt        'P -4 21 m'
_symmetry_space_group_name_Hall  'P -4 2ab'
_symmetry_space_group_name_H-M   'P -4 21 m'
_atom_sites_solution_primary     dual
_audit_creation_date             2018-03-15
_audit_creation_method
;
Olex2 1.2
(compiled 2017.08.10 svn.r3458 for OlexSys, GUI svn.r5381)
;
_cell_angle_alpha                90
_cell_angle_beta                 90
_cell_angle_gamma                90
_cell_formula_units_Z            8
_cell_length_a                   16.335(2)
_cell_length_b                   16.335(2)
_cell_length_c                   6.4559(13)
_cell_measurement_temperature    100
_cell_volume                     1722.6(5)
_computing_molecular_graphics    'Olex2 (Dolomanov et al., 2009)'
_computing_publication_material  'Olex2 (Dolomanov et al., 2009)'
_computing_structure_refinement  'ShelXL (Sheldrick, 2015)'
_computing_structure_solution    'ShelXT (Sheldrick, 2015)'
_diffrn_ambient_temperature      100
_diffrn_measured_fraction_theta_full 0.965
_diffrn_measured_fraction_theta_max 0.965
_diffrn_measurement_device_type  'Bruker APEX-II CCD'
_diffrn_measurement_method       '\w scans'
_diffrn_radiation_monochromator  graphite
_diffrn_radiation_type           MoK\a
_diffrn_radiation_wavelength     0.71073
_diffrn_reflns_av_R_equivalents  0.2046
_diffrn_reflns_av_unetI/netI     0.0964
_diffrn_reflns_Laue_measured_fraction_full 0.965
_diffrn_reflns_Laue_measured_fraction_max 0.965
_diffrn_reflns_limit_h_max       19
_diffrn_reflns_limit_h_min       -19
_diffrn_reflns_limit_k_max       19
_diffrn_reflns_limit_k_min       -19
_diffrn_reflns_limit_l_max       7
_diffrn_reflns_limit_l_min       -7
_diffrn_reflns_number            11838
_diffrn_reflns_point_group_measured_fraction_full 0.968
_diffrn_reflns_point_group_measured_fraction_max 0.968
_diffrn_reflns_theta_full        25.074
_diffrn_reflns_theta_max         25.074
_diffrn_reflns_theta_min         6.418
_diffrn_standards_number         0
_exptl_absorpt_coefficient_mu    16.909
_exptl_absorpt_correction_T_max  0.7452
_exptl_absorpt_correction_T_min  0.3841
_exptl_absorpt_correction_type   multi-scan
_exptl_absorpt_process_details
;
SADABS-2008/1 (Bruker,2008) was used for absorption correction.
wR2(int) was 0.1503 before and 0.1055 after correction.
The Ratio of minimum to maximum transmission is 0.5154.
The \l/2 correction factor is 0.0015.
;
_exptl_crystal_colour            'clear light yellow'
_exptl_crystal_colour_lustre     clear
_exptl_crystal_colour_modifier   light
_exptl_crystal_colour_primary    yellow
_exptl_crystal_density_diffrn    2.756
_exptl_crystal_description       needle
_exptl_crystal_F_000             1176
_refine_diff_density_max         3.997
_refine_diff_density_min         -2.207
_refine_diff_density_rms         0.476
_refine_ls_abs_structure_details
;
 Flack x determined using 267 quotients [(I+)-(I-)]/[(I+)+(I-)]
 (Parsons, Flack and Wagner, Acta Cryst. B69 (2013) 249-259).
;
_refine_ls_abs_structure_Flack   0.52(7)
_refine_ls_extinction_method     none
_refine_ls_goodness_of_fit_ref   1.309
_refine_ls_hydrogen_treatment    undef
_refine_ls_matrix_type           full
_refine_ls_number_parameters     56
_refine_ls_number_reflns         1569
_refine_ls_number_restraints     0
_refine_ls_restrained_S_all      1.309
_refine_ls_R_factor_all          0.1846
_refine_ls_R_factor_gt           0.1180
_refine_ls_shift/su_max          0.000
_refine_ls_shift/su_mean         0.000
_refine_ls_structure_factor_coef Fsqd
_refine_ls_weighting_details
'w=1/[\s^2^(Fo^2^)+(0.1385P)^2^+35.9475P] where P=(Fo^2^+2Fc^2^)/3'
_refine_ls_weighting_scheme      calc
_refine_ls_wR_factor_gt          0.2876
_refine_ls_wR_factor_ref         0.3564
_reflns_Friedel_coverage         0.722
_reflns_Friedel_fraction_full    0.973
_reflns_Friedel_fraction_max     0.972
_reflns_number_gt                911
_reflns_number_total             1569
_reflns_threshold_expression     'I > 2\s(I)'
_iucr_refine_instructions_details
;
TITL aa_a.res in P-42(1)m
 aa.res created by SHELXL-2016/4 at 11:05:54 on 15-Mar-2018
REM Old TITL aa in P4(2)2(1)2
REM SHELXT solution in P-42(1)m
REM R1 0.386, Rweak 0.024, Alpha 0.067, Orientation as input
REM Flack x = 0.465 ( 0.018 ) from Parsons' quotients
REM Formula found by SHELXT: Br9 Pb
CELL 0.71073 16.335 16.335 6.4559 90 90 90
ZERR 8 0.002 0.002 0.0013 0 0 0
LATT -1
SYMM -X,-Y,+Z
SYMM +Y,-X,-Z
SYMM -Y,+X,-Z
SYMM 0.5-X,0.5+Y,-Z
SYMM 0.5+X,0.5-Y,-Z
SYMM 0.5-Y,0.5-X,+Z
SYMM 0.5+Y,0.5+X,+Z
SFAC I Pb
UNIT 16 4

L.S. 20 0 0
PLAN  20
TEMP 0
list 4
fmap 2 53
acta
REM <olex2.extras>
REM <HklSrc "%.\\aa.hkl">
REM </olex2.extras>

WGHT    0.138500   35.947521
FVAR       0.12899   0.72677
PART 1
PB01  2    0.104597    0.395403    0.543061    20.50000    0.04980    0.04980 =
         0.05757    0.00231   -0.00231    0.00108
PART 0
PART 2
PB02  2    0.104756    0.395244    0.370386   -20.50000    0.04373    0.04373 =
         0.01438   -0.00018    0.00018    0.00432
PART 0
PART 1
I03   1    0.099120    0.599120    0.542713    20.50000    0.05030    0.05030 =
         0.05499   -0.00039   -0.00039   -0.00555
I04   1    0.293095    0.402827    0.542691    21.00000    0.05033    0.07482 =
         0.08631    0.00017   -0.00089    0.00200
I05   1    0.091923    0.408077    0.042251    20.50000    0.06508    0.06508 =
         0.06373   -0.00195    0.00195    0.01417
PART 0
PART 2
I06   1    0.092623    0.407377    0.867268   -20.50000    0.05744    0.05744 =
         0.00739    0.00302   -0.00302    0.01430
I07   1    0.099345    0.599345    0.373116   -20.50000    0.05079    0.05079 =
         0.02371   -0.00407   -0.00407    0.00340
I08   1    0.293944    0.404001    0.370970   -21.00000    0.06361    0.06979 =
         0.03810   -0.00585    0.00204    0.00269
HKLF 4




REM  aa_a.res in P-42(1)m
REM R1 =  0.1180 for     911 Fo > 4sig(Fo)  and  0.1846 for all    1569 data
REM     56 parameters refined using      0 restraints

END  
     
WGHT      0.1461    107.6532 

REM Highest difference peak  3.997,  deepest hole -2.207,  1-sigma level  0.476
Q1    1   0.1027  0.3973  0.7001  10.50000  0.05    4.00
Q2    1   0.1021  0.3979  0.2300  10.50000  0.05    3.43
Q3    1   0.4420  0.3999  0.0381  11.00000  0.05    2.22
Q4    1   0.2576  0.2424  0.0389  10.50000  0.05    2.00
Q5    1   0.1207  0.6803  0.0393  11.00000  0.05    1.90
Q6    1   0.0907  0.5907  0.6702  10.50000  0.05    1.81
Q7    1   0.0948  0.7603  0.0435  11.00000  0.05    1.74
Q8    1   0.2048  0.7048  0.0217  10.50000  0.05    1.62
Q9    1   0.2936  0.3991  0.2308  11.00000  0.05    1.59
Q10   1   0.0993  0.5993  0.4239  10.50000  0.05    1.54
Q11   1   0.2947  0.3997  0.6906  11.00000  0.05    1.52
Q12   1   0.3114  0.3237  0.0403  11.00000  0.05    1.51
Q13   1   0.2503  0.2497  0.8771  10.50000  0.05    1.38
Q14   1   0.3986  0.3038  0.4715  11.00000  0.05    1.37
Q15   1   0.0938  0.5013  0.0462  11.00000  0.05    1.34
Q16   1   0.0893  0.5893  0.2502  10.50000  0.05    1.31
Q17   1   0.0003  0.6030  0.5506  11.00000  0.05    1.26
Q18   1   0.2498  0.2502  0.4664  10.50000  0.05    1.25
Q19   1   0.2128  0.2872  0.4658  10.50000  0.05    1.24
Q20   1   0.2693  0.4360  0.4443  11.00000  0.05    1.22

  REM The information below was added by Olex2.
  REM
  REM R1 = 0.1180 for 911 Fo > 4sig(Fo) and 0.1846 for all 11879 data
  REM n/a parameters refined using n/a restraints
  REM Highest difference peak 4.00, deepest hole -2.21
  REM Mean Shift 0, Max Shift 0.000.

  REM +++ Tabular Listing of Refinement Information +++
  REM R1_all = 0.1846
  REM R1_gt = 0.1180
  REM wR_ref = 0.3564
  REM GOOF = 1.309
  REM Shift_max = 0.000
  REM Shift_mean = 0
  REM Reflections_all = 11879
  REM Reflections_gt = 911
  REM Parameters = n/a
  REM Hole = -2.21
  REM Peak = 4.00
  REM Flack = 0.52(7)

  
;
_cod_data_source_file            ja9b04262_si_002.cif
_cod_data_source_block           aa
_cod_original_formula_sum        'I2 Pb0.50'
_cod_database_code               4127747
_shelx_shelxl_version_number     2016/4
_shelx_space_group_comment
;
The symmetry employed for this shelxl refinement is uniquely defined
by the following loop, which should always be used as a source of
symmetry information in preference to the above space-group names.
They are only intended as comments.
;
_olex2_refinement_description
;
1. Others
 Sof(I08)=1-FVAR(1)
 Sof(Pb02)=Sof(I06)=Sof(I07)=0.5*(1-FVAR(2))
 Sof(Pb01)=Sof(I03)=Sof(I05)=0.5*FVAR(2)
 Sof(I04)=FVAR(1)
;
_olex2_submission_special_instructions 'No special instructions were received'
loop_
_space_group_symop_operation_xyz
'x, y, z'
'-x, -y, z'
'y, -x, -z'
'-y, x, -z'
'-x+1/2, y+1/2, -z'
'x+1/2, -y+1/2, -z'
'-y+1/2, -x+1/2, z'
'y+1/2, x+1/2, z'
loop_
_atom_site_label
_atom_site_type_symbol
_atom_site_fract_x
_atom_site_fract_y
_atom_site_fract_z
_atom_site_U_iso_or_equiv
_atom_site_adp_type
_atom_site_occupancy
_atom_site_site_symmetry_order
_atom_site_calc_flag
_atom_site_refinement_flags_posn
_atom_site_refinement_flags_adp
_atom_site_refinement_flags_occupancy
_atom_site_disorder_assembly
_atom_site_disorder_group
Pb01 Pb 0.10460(14) 0.39540(14) 0.5431(8) 0.0524(15) Uani 0.727(8) 2 d S T P A
1
Pb02 Pb 0.1048(4) 0.3952(4) 0.3704(15) 0.034(3) Uani 0.273(8) 2 d S T P A 2
I03 I 0.0991(2) 0.5991(2) 0.5427(14) 0.0519(17) Uani 0.727(8) 2 d S T P A 1
I04 I 0.2931(3) 0.4028(3) 0.5427(14) 0.0705(18) Uani 0.727(8) 1 d . . . A 1
I05 I 0.0919(3) 0.4081(3) 0.0423(15) 0.065(2) Uani 0.727(8) 2 d S T P A 1
I06 I 0.0926(7) 0.4074(7) 0.867(2) 0.041(4) Uani 0.273(8) 2 d S T P A 2
I07 I 0.0993(8) 0.5993(8) 0.373(2) 0.042(4) Uani 0.273(8) 2 d S T P A 2
I08 I 0.2939(9) 0.4040(9) 0.371(2) 0.057(4) Uani 0.273(8) 1 d . . . A 2
loop_
_atom_site_aniso_label
_atom_site_aniso_U_11
_atom_site_aniso_U_22
_atom_site_aniso_U_33
_atom_site_aniso_U_23
_atom_site_aniso_U_13
_atom_site_aniso_U_12
Pb01 0.0498(14) 0.0498(14) 0.058(4) 0.002(2) -0.002(2) 0.0011(16)
Pb02 0.044(4) 0.044(4) 0.014(6) 0.000(3) 0.000(3) 0.004(5)
I03 0.050(2) 0.050(2) 0.055(4) 0.000(3) 0.000(3) -0.006(3)
I04 0.050(2) 0.075(3) 0.086(5) 0.000(5) -0.001(4) 0.002(2)
I05 0.065(3) 0.065(3) 0.064(6) -0.002(4) 0.002(4) 0.014(3)
I06 0.057(7) 0.057(7) 0.007(8) 0.003(5) -0.003(5) 0.014(8)
I07 0.051(7) 0.051(7) 0.024(8) -0.004(5) -0.004(5) 0.003(9)
I08 0.064(9) 0.070(10) 0.038(8) -0.006(7) 0.002(7) 0.003(8)
loop_
_atom_type_symbol
_atom_type_description
_atom_type_scat_dispersion_real
_atom_type_scat_dispersion_imag
_atom_type_scat_source
I I -0.4742 1.8119 'International Tables Vol C Tables 4.2.6.8 and 6.1.1.4'
Pb Pb -3.3944 10.1111 'International Tables Vol C Tables 4.2.6.8 and 6.1.1.4'
loop_
_geom_angle_atom_site_label_1
_geom_angle_atom_site_label_2
_geom_angle_atom_site_label_3
_geom_angle
_geom_angle_site_symmetry_1
_geom_angle_site_symmetry_3
PB01a I05a Pb01 169.6(2) 1_554 .
PB01a I03a Pb01 93.08(16) 2_565 .
PB02b I07b Pb02 93.0(5) 2_565 .
PB02b I06b Pb02 170.1(6) . 1_556
I05a PB01a I03 86.27(18) 1_556 2_565
I05a PB01a I03 86.21(18) . 2_565
I03a PB01a I03 86.92(16) . 2_565
I05a PB01a I03 86.27(18) 1_556 .
I04a PB01a I03 176.20(13) 7 .
I04a PB01a I03 176.20(13) . 2_565
I05a PB01a I03 86.21(18) . .
I04a PB01a I03 89.28(12) . .
I04a PB01a I03 89.28(12) 7 2_565
I04a PB01a I04 94.5(2) . 7
I04a PB01a I05 93.6(2) 7 1_556
I04a PB01a I05 93.5(2) . .
I04a PB01a I05 93.5(2) 7 .
I05a PB01a I05 169.6(2) 1_556 .
I04a PB01a I05 93.6(2) . 1_556
I08b PB02b I06 93.4(4) . 1_554
I08b PB02b I06 93.3(4) . .
I06b PB02b I06 170.1(6) . 1_554
I08b PB02b I06 93.4(4) 7 1_554
I08b PB02b I06 93.3(4) 7 .
I08b PB02b I07 88.9(4) . .
I06b PB02b I07 86.1(3) . .
I06b PB02b I07 86.7(4) 1_554 2_565
I07b PB02b I07 87.0(5) . 2_565
I08b PB02b I07 175.8(4) 7 .
I08b PB02b I07 175.8(4) . 2_565
I06b PB02b I07 86.7(4) 1_554 .
I06b PB02b I07 86.1(3) . 2_565
I08b PB02b I07 88.9(4) 7 2_565
I08b PB02b I08 95.3(6) 7 .
loop_
_geom_bond_atom_site_label_1
_geom_bond_atom_site_label_2
_geom_bond_distance
_geom_bond_site_symmetry_2
I05a Pb01 3.236(10) 1_554
I03a Pb01 3.329(4) 2_565
I06b Pb02 3.260(13) 1_556
I07b Pb02 3.335(13) 2_565
PB01a I03 3.329(4) 2_565
PB01a I03 3.329(4) .
PB01a I04 3.082(4) .
PB01a I04 3.082(4) 7
PB01a I05 3.246(10) .
PB01a I05 3.236(10) 1_556
PB02b I06 3.260(13) 1_554
PB02b I06 3.220(13) .
PB02b I07 3.335(13) 2_565
PB02b I07 3.335(13) .
PB02b I08 3.094(15) 7
PB02b I08 3.094(15) .
loop_
_refln_index_h
_refln_index_k
_refln_index_l
_refln_F_squared_meas
_refln_F_squared_sigma
-4 -4 0 1957.3 158.58
-4 -4 0 1863.51 168.38
4 4 0 1948.31 168.18
4 4 0 2128.59 159.18
6 6 0 2321.07 200.18
6 6 0 2091.09 178.98
-6 -6 0 2072.49 195.38
-6 -6 0 2306.87 200.98
-7 -7 0 30.8 4.9
7 7 0 27.7 4.6
-7 -7 0 26.4 5.3
-7 -7 0 12.4 15.7
7 7 0 44.5 17.8
-8 -8 0 9.5 5.1
8 8 0 8 3.7
-8 -8 0 -7.2 18.6
-8 -8 0 15.7 4.3
-9 -9 0 235.98 20.7
9 9 0 219.48 20.4
-9 -9 0 223.58 22
-10 -10 0 1787.22 176.28
-11 -11 0 245.58 23.4
11 11 0 194.38 20.3
-11 -11 0 239.78 21.3
12 12 0 2.5 4.2
-12 -12 0 6.4 8
-12 -12 0 1.2 5.5
13 13 0 -4.6 4.6
-13 -13 0 -6.2 5.7
-13 -13 0 14.3 9.2
-4 -5 0 18.7 5.2
5 4 0 31.1 11.5
-4 -5 0 12.4 9.9
5 4 0 15.9 3.1
4 5 0 17.3 3.5
4 5 0 15.9 11.2
-5 -4 0 15.9 3.6
-5 -4 0 21.7 10.9
6 5 0 10.6 28.4
-5 -6 0 25.2 5
-5 -6 0 21.9 4.3
6 5 0 22.9 10.6
-5 -6 0 21.9 10.3
-6 -5 0 15.3 4.5
-6 -5 0 1.2 12.9
5 6 0 17 18.4
-6 -5 0 17.5 7.6
-6 -7 0 733.93 67.09
7 6 0 716.03 60.69
7 6 0 818.82 67.99
-6 -7 0 784.82 67.09
-6 -7 0 764.22 61.39
-7 -6 0 643.14 59.89
-7 -6 0 658.43 65.79
6 7 0 663.33 59.39
6 7 0 673.43 66.19
-7 -6 0 670.13 58.39
8 7 0 28.6 4.6
-7 -8 0 32.9 6
8 7 0 14.6 15.8
-7 -8 0 29.5 4.3
-7 -8 0 18.9 14.1
7 8 0 23.3 4.7
-8 -7 0 30 7.2
7 8 0 48.2 23.4
-8 -7 0 32.5 6.2
-8 -7 0 35.2 20.4
-8 -9 0 95.19 10.2
9 8 0 86.79 10.9
-8 -9 0 92.19 11
-9 -8 0 94.39 13.9
8 9 0 101.49 10.1
-9 -8 0 99.89 11.5
-9 -10 0 16.9 5.5
-9 -10 0 20.6 6
-10 -9 0 27.7 7.9
9 10 0 19.2 4.7
-10 -11 0 -1.8 4.8
-10 -11 0 -4.3 5.4
11 10 0 3.9 6.3
-11 -10 0 2.5 7.6
-11 -12 0 75.79 9.6
-11 -12 0 92.99 12.4
12 11 0 84.69 10.5
11 12 0 77.79 10.2
-12 -11 0 77.79 12.7
-12 -11 0 80.89 10.6
-12 -13 0 -5.6 7.9
13 12 0 -4.7 6.4
-13 -12 0 -12.1 8.9
-13 -12 0 -5.4 6.7
12 13 0 -10.2 6.1
-13 -14 0 1.5 6.7
14 13 0 -7.2 6.9
-13 -14 0 -8.6 9.1
-14 -13 0 -6.8 9.8
-14 -13 0 -8.9 7.8
13 14 0 -14.2 6.9
5 3 0 286.07 26.3
-3 -5 0 301.57 27
-3 -5 0 312.17 31.1
-3 -5 0 308.67 26.3
5 3 0 341.37 32.2
3 5 0 368.36 32.7
-5 -3 0 313.77 31.9
3 5 0 326.67 26.3
-5 -3 0 306.27 26.3
6 4 0 1389.36 129.99
6 4 0 1708.93 133.49
-4 -6 0 1587.14 402.76
-4 -6 0 1548.35 407.96
-4 -6 0 1560.64 205.88
4 6 0 1534.95 321.07
-6 -4 0 1370.26 126.29
-6 -4 0 1445.86 130.99
-6 -4 0 1616.14 130.59
4 6 0 1745.03 467.55
-5 -7 0 72.69 25
-5 -7 0 65.59 59.39
-5 -7 0 70.59 54.29
7 5 0 74.89 10.9
7 5 0 103.49 18.9
5 7 0 63.29 51.09
-7 -5 0 78.89 16.4
-7 -5 0 73.59 8.6
5 7 0 76.89 51.19
-7 -5 0 64.99 7.2
-6 -8 0 46.7 6.5
8 6 0 38.4 62.79
-6 -8 0 35.3 17.4
8 6 0 32.3 23.8
-6 -8 0 45.8 7.3
6 8 0 52.09 19.3
-8 -6 0 23.8 73.99
-8 -6 0 37.4 72.39
-8 -6 0 36.8 12.1
6 8 0 49.8 14.4
9 7 0 1.6 72.59
-7 -9 0 -30.3 19
-7 -9 0 -5.9 16.3
-7 -9 0 -3.3 4.3
-9 -7 0 -8.1 38.7
-9 -7 0 -1.6 14.5
7 9 0 -1.7 40.5
-8 -10 0 41.2 7.6
10 8 0 26.4 4.8
8 10 0 34.6 5.8
-10 -8 0 30.7 6.1
-10 -8 0 30.7 6.2
-9 -11 0 342.17 62.09
-9 -11 0 247.68 108.29
11 9 0 268.27 79.39
-11 -9 0 261.37 72.19
-11 -9 0 263.07 26.3
-10 -12 0 9.2 6.8
12 10 0 3 6
-12 -10 0 -5.1 6.4
-12 -10 0 17.7 8.2
13 11 0 12.7 6.8
-11 -13 0 -1.1 5.3
-13 -11 0 4.5 9.1
-13 -11 0 0.7 5.8
11 13 0 4.7 5.9
-12 -14 0 -1 6
14 12 0 -10.3 7.2
-12 -14 0 -8.1 6.9
-14 -12 0 -9.3 5.9
12 14 0 -0.9 5.7
-14 -12 0 6.9 10.2
-2 -5 0 32.5 9.5
5 2 0 31.5 65.39
5 2 0 14.2 241.98
-2 -5 0 36 4.4
-2 -5 0 39.4 4.1
2 5 0 31.6 9.4
-5 -2 0 31.2 170.58
-5 -2 0 34.8 79.69
-5 -2 0 36.7 165.68
2 5 0 30.3 3.7
-3 -6 0 1228.78 109.69
-3 -6 0 1310.07 109.89
6 3 0 1169.98 107.39
-3 -6 0 1295.77 127.09
6 3 0 1319.87 112.09
-6 -3 0 1346.67 108.69
3 6 0 1336.77 111.19
-6 -3 0 1344.27 112.89
3 6 0 1410.16 110.49
7 4 0 596.34 49.4
-4 -7 0 560.94 48.2
-4 -7 0 539.15 49.3
-4 -7 0 575.54 54.69
7 4 0 635.04 55.79
4 7 0 624.14 55.19
4 7 0 590.14 48.3
-7 -4 0 590.44 49.7
-7 -4 0 574.14 55.59
-5 -8 0 1.1 9.3
8 5 0 -2.8 10
8 5 0 -2 3.1
-5 -8 0 7.8 13.5
-8 -5 0 2.5 4.4
5 8 0 1 8.8
-8 -5 0 16.1 12
-8 -5 0 2.6 6.2
5 8 0 -3.8 10.7
9 6 0 384.56 71.09
-6 -9 0 368.56 31.9
-6 -9 0 299.57 40.8
-6 -9 0 391.26 32.9
-9 -6 0 369.06 54.49
6 9 0 386.46 47
-9 -6 0 388.56 53.19
-9 -6 0 377.86 33.3
6 9 0 368.56 36.4
10 7 0 -7.6 51.99
-7 -10 0 -8.2 4.2
-7 -10 0 11.2 5.7
-10 -7 0 -8.8 21.4
-10 -7 0 -6.5 6.2
7 10 0 -9.7 17.6
-8 -11 0 146.29 15.9
-8 -11 0 170.28 15.8
11 8 0 158.58 15.3
-11 -8 0 163.08 15.6
8 11 0 170.28 15.4
-11 -8 0 135.69 16.1
-9 -12 0 42.7 6.4
12 9 0 44.6 7.6
-9 -12 0 52.79 8.8
-12 -9 0 35.6 7.3
9 12 0 43.1 7.6
-12 -9 0 38.7 7.7
-10 -13 0 -1.3 7.1
-10 -13 0 1.1 5.6
13 10 0 0.3 4.1
10 13 0 -3.4 5.6
-13 -10 0 -6.9 4.7
-13 -10 0 6.6 8.3
-11 -14 0 14 5.6
14 11 0 4.7 5.3
11 14 0 7.7 4.6
-14 -11 0 1.5 9.5
-14 -11 0 7.9 7.4
-12 -15 0 -13.3 6.4
15 12 0 -3.4 6.9
-12 -15 0 -2 6
-15 -12 0 5 7.4
-15 -12 0 -8.8 10.3
12 15 0 -6.1 6.9
6 2 0 4.9 14.5
-2 -6 0 7.2 10.4
-2 -6 0 8.7 24.8
-2 -6 0 10.9 24.7
6 2 0 6.1 34.8
-6 -2 0 6.3 17
2 6 0 14 25.4
2 6 0 5.2 13.9
-6 -2 0 7.4 23.4
-6 -2 0 5.4 35.5
-3 -7 0 20.8 6.8
-3 -7 0 21.8 3.9
-3 -7 0 20.8 9.5
7 3 0 7.7 10.1
7 3 0 19.6 3.3
3 7 0 20.3 10.3
-7 -3 0 23.3 3.7
3 7 0 21.9 31.5
-7 -3 0 28.5 5
-7 -3 0 22.7 13.2
8 4 0 38 14.5
-4 -8 0 36.2 4.8
-4 -8 0 26.4 3.6
-4 -8 0 32.1 14.3
8 4 0 30.7 4.3
4 8 0 17.5 10.5
-8 -4 0 24.4 5
-8 -4 0 18.5 11.9
4 8 0 24.4 3.5
-8 -4 0 26.4 4.2
-5 -9 0 1594.24 142.09
-5 -9 0 1527.05 130.29
9 5 0 1557.74 151.68
-5 -9 0 1437.16 128.59
9 5 0 1386.26 127.19
5 9 0 1534.45 128.99
-9 -5 0 1420.06 157.08
-9 -5 0 1522.45 137.29
5 9 0 1629.84 145.89
-9 -5 0 1501.75 130.09
10 6 0 1753.12 166.68
-6 -10 0 1672.53 150.48
-6 -10 0 1664.43 167.98
-10 -6 0 1623.84 192.08
-10 -6 0 1646.74 160.58
6 10 0 1755.42 166.18
-7 -11 0 3 5.2
11 7 0 3.5 3.4
-11 -7 0 -3.1 4.6
7 11 0 5.6 4
-11 -7 0 3.6 5.6
-8 -12 0 -6 7.2
-8 -12 0 5.7 6.2
-12 -8 0 -9.2 5.2
8 12 0 -9.6 5.3
-12 -8 0 -2 4.5
-9 -13 0 14.3 5.3
13 9 0 15.2 4.3
-9 -13 0 3.5 5.3
-13 -9 0 19.7 6.1
9 13 0 13.5 5.3
-13 -9 0 15.3 6.4
14 10 0 156.58 15.4
-10 -14 0 123.59 13.9
-10 -14 0 141.09 16.3
-14 -10 0 153.88 18.3
10 14 0 115.29 14.2
-14 -10 0 137.49 15.2
-11 -15 0 149.29 16.4
15 11 0 152.88 16.4
-11 -15 0 149.39 18
-15 -11 0 136.39 15.5
11 15 0 148.59 16.2
-1 -6 0 1482.35 134.49
6 1 0 1725.83 353.36
-1 -6 0 1437.06 127.79
-1 -6 0 1782.42 140.59
6 1 0 1489.65 186.38
1 6 0 1779.02 129.89
-6 -1 0 1676.83 365.46
-6 -1 0 1428.36 176.78
-6 -1 0 1615.64 370.86
1 6 0 1604.54 135.29
-2 -7 0 222.28 17.9
7 2 0 200.88 24.5
-2 -7 0 204.38 17.3
7 2 0 212.28 17.5
-2 -7 0 179.18 23.8
2 7 0 215.48 24.8
-7 -2 0 213.38 17.6
2 7 0 173.58 17.1
-7 -2 0 200.48 18.6
-7 -2 0 197.48 25.5
8 3 0 13.5 3.1
-3 -8 0 17.3 3.5
-3 -8 0 11.3 2.4
8 3 0 9.6 8.8
-3 -8 0 6.7 8.4
3 8 0 15.6 4.2
3 8 0 7.1 11.6
-8 -3 0 20.4 13.9
-8 -3 0 11.2 3.3
-8 -3 0 9.1 4.1
-4 -9 0 533.15 51.09
9 4 0 492.15 46.2
-4 -9 0 495.05 51.69
-4 -9 0 590.54 54.09
9 4 0 518.55 52.69
-9 -4 0 520.35 48.3
4 9 0 547.45 49.7
4 9 0 543.45 53.49
-9 -4 0 538.05 54.79
-9 -4 0 477.15 45
-5 -10 0 -14.5 20.9
-5 -10 0 -2 13.7
-5 -10 0 -15.6 59.19
10 5 0 -6.3 54.99
-10 -5 0 -9.4 68.99
-10 -5 0 -7.2 35.4
5 10 0 -17.1 41.5
-10 -5 0 -35 23.7
11 6 0 185.58 37.4
-6 -11 0 204.68 31.2
-6 -11 0 223.58 20.3
6 11 0 216.18 31.4
-11 -6 0 224.98 23.9
-11 -6 0 189.78 27.8
-7 -12 0 63.99 9
12 7 0 79.59 9.2
-7 -12 0 72.79 9.4
7 12 0 84.19 9.4
-12 -7 0 84.79 10.7
-12 -7 0 79.39 9.6
-8 -13 0 0.4 4.8
-8 -13 0 2.2 5.7
13 8 0 -2.8 4.7
-13 -8 0 7.7 5.7
-13 -8 0 15.2 5.7
8 13 0 17.2 5.2
-9 -14 0 56.29 7.1
-9 -14 0 62.59 9.3
14 9 0 49.99 8.1
9 14 0 40.1 7.1
-14 -9 0 47.7 7.6
-14 -9 0 43 10.5
15 10 0 1.8 4.7
-10 -15 0 2.3 5.9
-10 -15 0 -1.1 5.3
10 15 0 -3.2 6.1
-15 -10 0 1.4 6.7
-11 -16 0 31.7 9
16 11 0 21 7.6
11 16 0 17.3 6.1
-16 -11 0 4.4 10.4
-16 -11 0 5.9 7.5
0 -6 0 8113.09 831.12
6 0 0 8464.65 803.12
0 -6 0 9072.09 758.72
-6 0 0 9010.3 764.82
0 6 0 7788.92 678.43
7 1 0 3.7 2.2
-1 -7 0 -2.9 8.8
-1 -7 0 4.6 1.6
-1 -7 0 1.5 1.9
7 1 0 3.2 9.2
1 7 0 6.2 9.2
-7 -1 0 6.6 3.5
-7 -1 0 5.9 2.3
-7 -1 0 0.5 9.1
1 7 0 3.4 1.5
-2 -8 0 0.5 2.3
-2 -8 0 8.7 7.9
8 2 0 -4.8 10.8
8 2 0 0.7 4.2
-2 -8 0 0.4 1.6
-8 -2 0 -0.7 3.7
2 8 0 -2 2.3
2 8 0 -2.2 10.4
-8 -2 0 2.3 5.1
-8 -2 0 -5 11.8
-3 -9 0 39.3 16.4
9 3 0 29.1 7.7
-3 -9 0 32.5 12.8
-3 -9 0 38.8 5.1
3 9 0 37.2 15.8
-9 -3 0 16.3 16
-9 -3 0 27.1 6
-9 -3 0 28.6 10.8
3 9 0 32.6 12.5
-4 -10 0 1809.62 159.28
-4 -10 0 1582.04 148.19
-4 -10 0 1724.63 151.28
4 10 0 1858.81 170.08
-10 -4 0 1726.33 162.68
4 10 0 1767.72 153.18
-10 -4 0 1537.35 142.99
11 5 0 1723.93 177.58
-5 -11 0 1564.14 153.38
-5 -11 0 1742.83 166.08
5 11 0 1622.94 155.28
-11 -5 0 1714.63 182.78
-11 -5 0 1732.13 153.18
-6 -12 0 3.7 3
12 6 0 0.4 4.1
-6 -12 0 -0.8 3.3
-12 -6 0 -1.2 5.8
-12 -6 0 -2.8 4.2
6 12 0 -0.7 3.9
-7 -13 0 1.7 3.2
-7 -13 0 8.7 5.3
7 13 0 -7.8 4.2
-13 -7 0 -5.7 5.1
-13 -7 0 -3.2 4.8
14 8 0 1.4 5.1
-8 -14 0 3.8 4.4
8 14 0 12.1 3.9
-14 -8 0 3.3 4.2
-9 -15 0 155.68 17.9
15 9 0 153.68 17
-9 -15 0 173.18 17
-15 -9 0 170.88 19.7
-15 -9 0 169.98 17.5
9 15 0 162.38 16.8
-10 -16 0 114.69 13.1
-10 -16 0 114.19 14.8
16 10 0 116.69 14.7
-16 -10 0 128.39 13.9
10 16 0 133.29 14.3
5 -2 0 22.9 8.9
5 -2 0 8.4 1.2
2 -5 0 18.5 46.3
2 -5 0 21 48.5
-5 2 0 18 7.4
-2 5 0 23.3 70.59
-2 5 0 11.8 137.09
-2 5 0 11.6 1.4
1 -6 0 1427.96 255.37
1 -6 0 1347.77 252.47
6 -1 0 1246.18 112.29
-1 6 0 1378.96 206.98
-6 1 0 1166.08 99.79
-6 1 0 1209.48 107.59
-1 6 0 1157.08 144.19
0 -7 0 -0.6 1.3
7 0 0 -6.9 9.5
0 -7 0 -0.7 7.9
7 0 0 -0.2 1.3
0 -7 0 -2.4 1.4
-7 0 0 -2.1 1.9
0 7 0 0.2 7.6
-7 0 0 -2.9 3.1
0 7 0 0.4 1.2
-1 -8 0 365.66 30.5
-1 -8 0 368.06 37.5
8 1 0 396.46 30.7
8 1 0 387.16 38.2
-1 -8 0 400.26 31
-8 -1 0 328.17 37.4
-8 -1 0 380.66 30.7
1 8 0 374.46 37.4
-8 -1 0 339.47 31.7
1 8 0 315.77 30.3
-2 -9 0 420.46 35.7
-2 -9 0 449.46 42.9
-2 -9 0 455.95 34.3
9 2 0 409.86 48.1
-9 -2 0 361.36 35
-9 -2 0 362.96 37.4
2 9 0 380.26 33.5
2 9 0 413.76 42.1
-9 -2 0 379.56 42.2
10 3 0 -14.4 33.1
10 3 0 3.4 36.2
-3 -10 0 6.3 26.2
-3 -10 0 3.2 39.2
-3 -10 0 5.8 33.2
3 10 0 -6.9 36.1
-10 -3 0 -4.1 29.7
3 10 0 5.6 65.19
-10 -3 0 -6.7 46.2
-10 -3 0 -2.7 4.9
-4 -11 0 300.67 38
-4 -11 0 257.97 67.49
11 4 0 232.28 35.7
-11 -4 0 276.77 48.9
-11 -4 0 257.47 24.3
4 11 0 245.98 34.5
12 5 0 4.4 4.3
-5 -12 0 6.3 4.5
-12 -5 0 6.4 4.6
5 12 0 0.1 3.8
-12 -5 0 4.5 5.9
-6 -13 0 55.49 7.3
13 6 0 54.89 7.5
-6 -13 0 55.69 8
-13 -6 0 64.59 8.1
6 13 0 52.29 7.2
-13 -6 0 47.4 8.2
-7 -14 0 4.1 5.1
14 7 0 8.4 11
-14 -7 0 2.7 7
-14 -7 0 11.7 6.8
7 14 0 5.2 5.1
15 8 0 -8.1 6.5
-8 -15 0 -9.2 5.9
-8 -15 0 2.9 6.3
-15 -8 0 6.5 8.2
8 15 0 -8.4 6
-15 -8 0 -2 6.3
-9 -16 0 15.2 5.5
16 9 0 9.1 5.1
-16 -9 0 19.5 7.5
4 -4 0 1146.49 100.39
4 -4 0 1181.38 108.89
-4 4 0 1266.77 99.19
-4 4 0 1298.57 95.99
-4 4 0 1106.49 94.99
-4 4 0 966.7 103.19
3 -5 0 196.78 20.3
3 -5 0 181.98 16.1
5 -3 0 185.48 16.1
-5 3 0 206.58 21.8
-3 5 0 167.78 16
-5 3 0 200.18 16.2
-5 3 0 176.88 16.3
-3 5 0 216.78 21.1
-3 5 0 205.88 16.1
2 -6 0 5.8 10.2
6 -2 0 3.7 22.8
6 -2 0 2.8 7.2
6 -2 0 8.5 22.7
2 -6 0 -1.5 10.7
-6 2 0 5.2 15.8
-2 6 0 5 16.8
-6 2 0 3.8 4.6
-6 2 0 1.6 19.9
-2 6 0 5.9 15.4
1 -7 0 4 1.9
7 -1 0 3.7 1.5
7 -1 0 3 1
1 -7 0 15.8 8.8
7 -1 0 -0.1 9.4
-7 1 0 0.9 1.5
-7 1 0 9.6 8.8
-1 7 0 1.7 7.2
-1 7 0 1.7 1.2
-7 1 0 1.2 2.7
0 -8 0 127.99 11.1
0 -8 0 104.49 17
8 0 0 137.09 11.2
8 0 0 89.89 16.9
0 -8 0 111.59 10.9
0 8 0 160.08 19.5
-8 0 0 139.09 12.3
-8 0 0 105.19 17.3
-8 0 0 100.59 12.4
0 8 0 137.69 11.1
-1 -9 0 818.62 67.19
9 1 0 769.02 63.69
9 1 0 804.32 67.09
-1 -9 0 607.54 60.79
-9 -1 0 610.44 64.49
-9 -1 0 772.92 61.09
1 9 0 709.23 64.59
1 9 0 691.73 59.49
-2 -10 0 62.29 19
-2 -10 0 85.29 8.1
-2 -10 0 71.79 7.9
10 2 0 73.69 48.1
10 2 0 75.99 126.29
-10 -2 0 64.19 34.5
2 10 0 111.49 20.4
-10 -2 0 74.49 53.29
2 10 0 74.79 7.9
-10 -2 0 79.19 12.5
-3 -11 0 -26.1 20.2
-3 -11 0 -2 6.4
11 3 0 6 22.4
-3 -11 0 3.2 4.3
-11 -3 0 -4.5 19.9
3 11 0 5.9 5.6
-11 -3 0 5.7 4.1
-4 -12 0 -2.3 3.6
-4 -12 0 -10 5.5
12 4 0 -2.2 6.6
-12 -4 0 1.7 5.2
4 12 0 -3.3 17.5
-12 -4 0 -2.1 3.4
13 5 0 37.8 5.3
-5 -13 0 42.2 6.3
-5 -13 0 32.3 5
5 13 0 28.5 4.8
-13 -5 0 28.7 7.2
-13 -5 0 32.6 5.9
14 6 0 95.89 10.6
-6 -14 0 97.79 10.9
-6 -14 0 103.79 11.3
-14 -6 0 96.69 10.8
-14 -6 0 111.89 13
6 14 0 96.09 11.2
15 7 0 9.1 6.5
-7 -15 0 10.1 5
-7 -15 0 -4.6 5.1
7 15 0 -5.8 5.8
-15 -7 0 -5 8.2
-15 -7 0 1.6 4.5
-8 -16 0 -1.2 6.1
-8 -16 0 1 4.3
16 8 0 -5.6 5.9
-16 -8 0 -1.1 8.7
8 16 0 -4.1 5.9
-16 -8 0 7.8 6.8
-9 -17 0 -3.9 4.9
17 9 0 1.2 4.6
-9 -17 0 -6.5 6.7
9 17 0 -2.8 4.6
-17 -9 0 -2.9 6.1
-17 -9 0 7.8 7.6
4 -5 0 11 8.3
4 -5 0 9.6 3.2
5 -4 0 10.6 4
5 -4 0 7.2 4.3
-4 5 0 10.8 1.8
-4 5 0 8.5 1.4
-4 5 0 10.4 5.8
-5 4 0 22.3 8.9
-4 5 0 17.3 8.1
-5 4 0 5.1 8.6
3 -6 0 868.41 70.89
6 -3 0 903.31 72.09
6 -3 0 873.11 74.59
3 -6 0 901.51 71.09
-3 6 0 755.52 68.29
-3 6 0 753.82 70.09
-6 3 0 768.22 71.29
-6 3 0 820.72 73.79
-6 3 0 876.61 76.09
7 -2 0 155.78 13.1
2 -7 0 152.48 12.9
2 -7 0 157.38 18.8
-7 2 0 137.89 12.9
-7 2 0 137.19 19.5
-7 2 0 170.18 13.7
-2 7 0 132.59 12.8
-2 7 0 164.18 19.5
8 -1 0 377.26 36
1 -8 0 330.17 33.7
1 -8 0 312.97 26.8
1 -8 0 330.17 26.8
8 -1 0 336.17 26.8
-8 1 0 280.27 26.7
-1 8 0 321.57 32.6
-1 8 0 285.77 26.5
-8 1 0 347.87 27.9
-8 1 0 314.37 33.8
9 0 0 42 34.2
0 -9 0 20.2 25
0 -9 0 28.2 26.6
9 0 0 42.3 23.2
0 -9 0 27.9 10.1
-9 0 0 8.9 26.2
-9 0 0 15.3 3.7
0 9 0 25 16.1
0 9 0 19.6 27.6
-9 0 0 18.9 28.6
-1 -10 0 24.9 195.78
-1 -10 0 43.6 5.4
-1 -10 0 38.8 175.58
10 1 0 255.57 256.77
-10 -1 0 101.79 103.19
1 10 0 13.8 96.89
-10 -1 0 204.18 414.36
1 10 0 26.7 122.19
-2 -11 0 451.85 44.3
-2 -11 0 491.85 39.9
-2 -11 0 440.06 50.79
2 11 0 471.55 42.5
-11 -2 0 418.66 52.49
-11 -2 0 492.15 41.8
-3 -12 0 62.89 7.3
-3 -12 0 60.89 31.7
12 3 0 58.89 7.5
-12 -3 0 56.39 7.7
3 12 0 65.19 30.3
-12 -3 0 73.29 9.3
-4 -13 0 28.7 4.9
-4 -13 0 27.1 5.3
-13 -4 0 28.2 4.8
4 13 0 29.7 5
-13 -4 0 24.1 6.6
-5 -14 0 -0.7 4.6
-5 -14 0 -2 4
14 5 0 0.5 3.5
5 14 0 -2.3 3.9
-14 -5 0 -5.2 4
-14 -5 0 -1.7 6
-6 -15 0 5.7 5.5
-6 -15 0 1.9 19.1
15 6 0 4.7 11.8
-15 -6 0 10.3 9.3
-15 -6 0 -1.6 13.3
6 15 0 -5.6 16.2
16 7 0 42.4 8.3
-7 -16 0 43.6 8.2
-7 -16 0 42.6 7.4
-16 -7 0 40.2 7.8
7 16 0 38.7 6.6
17 8 0 -1.9 5.9
-8 -17 0 -8.6 7.4
-17 -8 0 8.7 6.7
8 17 0 2.1 4.8
-17 -8 0 1.1 6.4
5 -5 0 9986.1 968.6
5 -5 0 9999 990.1
-5 5 0 8795.72 990
-5 5 0 9288.97 862.51
-5 5 0 8836.32 770.92
4 -6 0 794.52 65.99
6 -4 0 685.73 68.79
6 -4 0 1018.2 305.27
-6 4 0 713.13 70.49
-6 4 0 980.3 221.18
-6 4 0 1068.99 362.86
-6 4 0 1151.88 309.77
-4 6 0 804.22 65.89
-4 6 0 719.33 64.09
-4 6 0 822.72 73.19
3 -7 0 13.6 2.2
3 -7 0 8.1 8.1
7 -3 0 17.7 25
7 -3 0 14.1 10.9
-7 3 0 22.3 8.6
-3 7 0 12.3 2.1
-7 3 0 13.4 2.4
-3 7 0 14.5 9.4
-3 7 0 15 1.7
-7 3 0 14 15.2
2 -8 0 -10.7 7.1
8 -2 0 -0.9 0.9
2 -8 0 3 3
8 -2 0 -1.5 1.4
8 -2 0 -18.1 12.4
-8 2 0 -1.2 1.8
-2 8 0 3.8 2.5
-2 8 0 4.5 9.9
-8 2 0 11.3 7.7
-8 2 0 0.8 2.4
1 -9 0 734.03 62.39
9 -1 0 652.63 65.99
1 -9 0 747.73 65.89
9 -1 0 726.83 63.29
-9 1 0 744.33 66.59
-9 1 0 723.83 61.29
-1 9 0 746.23 64.99
0 -10 0 4638.74 537.75
-10 0 0 6146.69 524.35
-1 -11 0 753.42 64.89
-1 -11 0 741.33 70.69
11 1 0 739.63 69.89
-11 -1 0 736.73 62.09
-11 -1 0 636.74 69.99
-2 -12 0 21.9 4.6
-2 -12 0 15.6 3.1
-12 -2 0 18.7 5.9
-12 -2 0 14.9 4.7
2 12 0 10.6 4.1
-3 -13 0 -2.6 3.7
13 3 0 1.6 3.9
-13 -3 0 5.4 4.1
-13 -3 0 -3.1 5
3 13 0 -1.4 3.4
-4 -14 0 94.89 10
14 4 0 85.99 10.1
-4 -14 0 110.89 10.9
-14 -4 0 94.89 10.4
4 14 0 101.79 10.3
-14 -4 0 115.19 12.7
15 5 0 761.72 69.89
-5 -15 0 869.61 81.09
-5 -15 0 833.92 73.79
-15 -5 0 924.51 78.69
-15 -5 0 791.22 71.39
5 15 0 839.32 73.89
-6 -16 0 117.89 12
16 6 0 95.79 11.4
-16 -6 0 104.59 11.6
-16 -6 0 107.29 13.9
6 16 0 110.59 11.7
-7 -17 0 -4.5 5.6
17 7 0 -10.7 6.1
-17 -7 0 1.5 5.4
-17 -7 0 8 6.3
7 17 0 -2.6 4.8
6 -5 0 13.9 5.3
5 -6 0 13.3 11.2
5 -6 0 8.4 11.9
6 -5 0 7.7 1.8
-5 6 0 12 9.6
-6 5 0 12 2.1
-6 5 0 12.1 2.9
-6 5 0 11.7 7.6
-5 6 0 8.6 5.9
-5 6 0 10.7 3
-5 6 0 13.2 10
4 -7 0 401.16 37.7
7 -4 0 354.66 31.2
4 -7 0 376.96 31.2
7 -4 0 347.47 37.4
-7 4 0 389.96 38.6
-4 7 0 351.46 32.3
-7 4 0 374.76 31.2
-4 7 0 397.96 31.2
-7 4 0 370.76 31.7
-4 7 0 420.66 38.3
-7 4 0 359.16 37.7
3 -8 0 4 9
8 -3 0 9.7 2.8
8 -3 0 0.9 10.9
8 -3 0 3.9 1
-8 3 0 9.2 2.4
-8 3 0 4.8 7.5
-3 8 0 9.3 10
-3 8 0 4.3 1.1
9 -2 0 361.36 35.2
2 -9 0 351.36 34.3
9 -2 0 328.47 38.3
-9 2 0 346.57 38
-2 9 0 371.86 37.6
-9 2 0 361.86 30.9
-9 2 0 359.46 31.6
1 -10 0 397.16 346.47
1 -10 0 207.58 213.38
10 -1 0 35.9 159.08
10 -1 0 -1.5 236.98
1 -10 0 181.78 203.58
-10 1 0 41.9 159.98
-1 10 0 820.52 335.67
-10 1 0 39.6 190.28
11 0 0 97.79 38.9
0 -11 0 99.89 31
0 -11 0 28.3 8.9
-11 0 0 -0.1 20.2
-11 0 0 35 6.9
12 1 0 202.58 18.1
-1 -12 0 200.18 17.8
-1 -12 0 208.18 17.8
1 12 0 210.48 17.9
-12 -1 0 203.98 19.4
-12 -1 0 180.98 18
13 2 0 9.2 4.2
-2 -13 0 3.1 3.5
-2 -13 0 4.7 3
-13 -2 0 5 4.1
2 13 0 11.9 3.7
-3 -14 0 39.7 5.6
-3 -14 0 26 5.7
14 3 0 29.1 5.6
-14 -3 0 39.5 7.7
3 14 0 28.8 5.6
-14 -3 0 31.4 5.5
15 4 0 -2.6 10.7
-4 -15 0 8 23.2
-15 -4 0 5.4 7.2
4 15 0 9.7 14
-15 -4 0 14.3 24.7
16 5 0 -5.1 4.7
-5 -16 0 -10.2 5.6
-16 -5 0 -0.4 5.2
5 16 0 -1.2 5.3
-16 -5 0 -2.8 6.5
-6 -17 0 22.5 6.3
17 6 0 22 5.2
-17 -6 0 32 9.4
6 17 0 19.3 6.1
-17 -6 0 29.4 5.8
18 7 0 -6.6 6.1
-7 -18 0 -13.4 6.1
7 18 0 -8.8 5.7
-18 -7 0 6.5 9.2
-18 -7 0 -1.8 4.6
6 -6 0 1454.95 119.39
6 -6 0 1197.08 119.89
-6 6 0 1178.48 119.89
-6 6 0 1236.08 107.39
-6 6 0 1373.96 110.39
5 -7 0 60.29 12.5
7 -5 0 48.5 37.3
7 -5 0 35.9 11.6
5 -7 0 44.2 4.7
-5 7 0 34.2 10.2
-5 7 0 54.99 12
-7 5 0 51.09 49.6
-7 5 0 46.1 29.5
-7 5 0 44.6 16.1
-5 7 0 41.9 4.8
-5 7 0 43.8 4.3
-7 5 0 67.09 38.7
8 -4 0 18.7 3.3
8 -4 0 16.2 9.4
4 -8 0 7.9 9.9
4 -8 0 18.4 3
-4 8 0 23.6 3.1
-8 4 0 0.9 10.8
-4 8 0 18.9 2.2
-8 4 0 16.5 2.7
-8 4 0 18.9 2.8
-4 8 0 15.8 11.4
9 -3 0 11.4 4.1
9 -3 0 24.2 10
3 -9 0 19.7 4.4
3 -9 0 13.4 8.9
9 -3 0 5.8 14.6
-3 9 0 16.6 11.5
-9 3 0 -2.2 12.4
-9 3 0 21.1 9.8
-3 9 0 17.7 4.4
-3 9 0 26.2 7.1
2 -10 0 64.09 47
10 -2 0 65.79 6.9
10 -2 0 70.19 18.6
2 -10 0 54.79 30
-10 2 0 62.89 7
-10 2 0 44.3 16.6
-10 2 0 57.79 6.9
-2 10 0 62.89 16.4
-2 10 0 41.1 36.7
1 -11 0 507.35 54.79
1 -11 0 610.54 60.49
1 -11 0 698.33 55.19
11 -1 0 548.45 52.49
-1 11 0 598.14 61.29
-11 1 0 690.23 53.79
-11 1 0 670.53 62.79
12 0 0 48.2 6.3
0 -12 0 56.19 6.3
0 -12 0 42.9 4.8
-12 0 0 44.5 6.1
-12 0 0 31.6 6
0 12 0 42.1 5.3
13 1 0 30.6 4.8
-1 -13 0 21.6 4.5
-1 -13 0 19.6 3.3
-13 -1 0 26.9 5.1
-13 -1 0 31.1 6.2
1 13 0 22.8 4.5
-2 -14 0 -8.4 4.9
-14 -2 0 1.3 4.1
-14 -2 0 -5.4 6.2
-3 -15 0 20.6 6.1
15 3 0 15.8 4.8
-15 -3 0 7.6 6.6
3 15 0 16.5 5.4
-15 -3 0 9.6 6.4
-4 -16 0 129.79 13.1
16 4 0 121.19 13.5
4 16 0 117.49 12.2
-16 -4 0 120.69 13.6
-16 -4 0 109.79 14.1
-5 -17 0 3.4 4
17 5 0 -0.9 5.6
-17 -5 0 1.6 7.6
-17 -5 0 -3.2 6
5 17 0 -5.3 5.1
18 6 0 2.9 4.9
-6 -18 0 5 5.6
-18 -6 0 1.5 8.4
6 18 0 -2 5.4
-18 -6 0 -6.5 6.2
6 -7 0 455.95 37
7 -6 0 486.45 38.7
6 -7 0 409.16 35.8
7 -6 0 395.46 38.4
-6 7 0 457.55 43.6
-7 6 0 407.16 35.9
-6 7 0 407.86 42.3
-7 6 0 446.96 45.1
-7 6 0 466.55 44.4
-7 6 0 408.16 38.5
5 -8 0 12.5 11.8
5 -8 0 -1.5 3
8 -5 0 1 1.5
8 -5 0 0.3 8
8 -5 0 11.2 9.6
-5 8 0 6.4 9.1
-8 5 0 -7.5 9.7
-5 8 0 1.4 3.6
-8 5 0 -1.5 9.2
-5 8 0 0.7 1.1
-8 5 0 -2.9 6.3
-8 5 0 3 3.2
9 -4 0 402.66 41.7
9 -4 0 340.47 35.1
4 -9 0 398.56 38.6
4 -9 0 345.27 31.9
-4 9 0 438.56 41.1
-9 4 0 366.36 42.4
-4 9 0 321.37 33.1
-9 4 0 429.26 41.2
-9 4 0 371.46 36
3 -10 0 -2.6 17
10 -3 0 8.1 14.7
10 -3 0 -1.3 47.2
3 -10 0 -1.9 23.2
10 -3 0 -0.1 13.9
-10 3 0 3.6 36.2
-3 10 0 -9.9 22.6
-10 3 0 -10.8 43.1
-10 3 0 6.7 17.6
-3 10 0 2.8 25.7
11 -2 0 364.56 37.2
2 -11 0 370.26 32.3
2 -11 0 325.47 37.3
-11 2 0 343.67 30
-11 2 0 277.27 37.9
12 -1 0 154.68 15.8
1 -12 0 205.68 16.3
-12 1 0 167.68 16
-1 12 0 204.18 16.2
-12 1 0 166.68 17
13 0 0 3.6 2.7
0 -13 0 8.1 2.8
0 13 0 4.3 3.4
-13 0 0 0.4 2.6
-13 0 0 4.4 4.4
-1 -14 0 115.99 11.9
1 14 0 97.09 11.2
-14 -1 0 123.49 13.4
-2 -15 0 -0.3 6.8
2 15 0 1 7
-15 -2 0 0.9 5.1
16 3 0 70.29 10.6
-3 -16 0 86.69 10.5
3 16 0 94.39 10.6
-16 -3 0 75.59 11.2
-16 -3 0 84.39 11.9
17 4 0 25.4 6.8
-4 -17 0 30 6.5
-17 -4 0 15.3 7.8
4 17 0 24.7 5
-5 -18 0 -1.7 3.8
18 5 0 -10.4 5.9
5 18 0 1.3 4.9
-18 -5 0 10.3 6.1
7 -7 0 22 3.5
7 -7 0 21.8 2.7
-7 7 0 16.9 12.3
-7 7 0 8.2 8.9
-7 7 0 15.2 2.4
-7 7 0 17.7 3.1
6 -8 0 7.4 42.6
8 -6 0 25.4 3.8
6 -8 0 24.2 43.9
8 -6 0 19.7 2.5
-8 6 0 26.5 7.3
-6 8 0 16.4 12.6
-8 6 0 15.4 10.4
-8 6 0 27.7 3.3
-6 8 0 32.5 26.1
-8 6 0 30.5 14.7
-6 8 0 23.2 12.8
-6 8 0 28.9 33.2
9 -5 0 901.61 89.89
5 -9 0 1054.99 108.39
9 -5 0 1027 99.49
5 -9 0 972.4 89.09
-5 9 0 935.81 97.19
-5 9 0 1044.9 97.39
-9 5 0 1063.09 91.59
-9 5 0 1091.59 96.59
-9 5 0 967.2 89.79
-9 5 0 1112.39 98.49
-5 9 0 1058.09 90.39
4 -10 0 1352.76 118.49
10 -4 0 1285.67 142.99
4 -10 0 1238.18 106.69
-4 10 0 1149.78 125.59
-10 4 0 1336.67 120.19
-4 10 0 1202.88 105.79
-10 4 0 1219.78 116.59
-10 4 0 1076.49 105.59
3 -11 0 14 16.9
11 -3 0 2.7 3.9
3 -11 0 11.5 13.2
-11 3 0 8.2 3.2
-3 11 0 8 3.2
-3 11 0 7.2 13.1
12 -2 0 10 3.9
-12 2 0 12.4 4
-12 2 0 11.3 3.6
1 -13 0 23.2 4.2
13 -1 0 28.3 4.5
-1 13 0 23.6 3.7
-13 1 0 24.7 3.9
-13 1 0 21 4.7
14 0 0 451.15 39.3
0 -14 0 488.05 39.3
-14 0 0 442.56 40.8
-15 -1 0 398.86 36
-2 -16 0 -3.3 6.6
16 2 0 7.3 6.6
-16 -2 0 5.9 6.9
-16 -2 0 -2 6.9
-3 -17 0 -0.7 5
17 3 0 5.4 5.2
-17 -3 0 -4.9 4.3
3 17 0 -10 5.1
-17 -3 0 0.1 4.6
-4 -18 0 14 5.7
18 4 0 10.4 5.5
4 18 0 19.6 4.5
-18 -4 0 16.9 5.1
-18 -4 0 5.8 7.8
7 -8 0 17.5 5.9
7 -8 0 21.5 3
8 -7 0 15.6 2.8
8 -7 0 16.8 2.4
-8 7 0 27.4 12.6
-7 8 0 22.6 20
-8 7 0 23.6 15.4
-8 7 0 18.7 2.8
-7 8 0 17.9 3
-7 8 0 12 2.8
-7 8 0 23.1 14.6
6 -9 0 213.88 31.1
6 -9 0 250.57 32.4
9 -6 0 224.48 22.1
-6 9 0 211.18 29.8
-6 9 0 226.78 29.9
-6 9 0 237.58 30.5
-9 6 0 238.38 19.5
-9 6 0 191.58 19.1
-9 6 0 214.48 30
-9 6 0 209.08 29.1
5 -10 0 -1.4 41.2
10 -5 0 -3 38
5 -10 0 -11.2 14.5
-10 5 0 -11.8 43.8
-5 10 0 21.3 14.9
-10 5 0 -20.4 22
-5 10 0 1.8 26.2
-5 10 0 4.5 42.9
-10 5 0 0.5 4.8
11 -4 0 181.38 84.09
4 -11 0 145.19 27
4 -11 0 188.18 32
-11 4 0 188.28 21.7
-4 11 0 171.18 22.3
-11 4 0 165.58 33.6
12 -3 0 57.99 14.1
3 -12 0 52.19 6.3
-12 3 0 50.99 16.3
-12 3 0 51.59 6.7
-3 12 0 53.49 6.3
2 -13 0 8.1 3.5
13 -2 0 7.4 3.4
-2 13 0 9.3 3.3
-13 2 0 11.8 3.6
-13 2 0 4.8 3.3
14 -1 0 88.89 10.1
-14 1 0 81.79 11
-14 1 0 94.09 11.1
15 0 0 65.09 13.4
0 15 0 50.79 7.4
-15 0 0 56.89 16.2
1 16 0 34.1 6.1
17 2 0 31.1 5.6
-2 -17 0 33 6.6
-17 -2 0 35.7 7.9
-17 -2 0 26.8 6.4
18 3 0 0 5
-18 -3 0 10.9 7.6
-18 -3 0 -5.7 5.8
19 4 0 -0.9 5.7
-19 -4 0 4.8 6.5
4 19 0 6.5 4.2
-19 -4 0 1.2 7.6
8 -8 0 7.6 1.9
8 -8 0 4.7 2.9
-8 8 0 6.3 2.3
7 -9 0 4.9 23.6
7 -9 0 -1.3 25.1
9 -7 0 -4 3.4
-9 7 0 -0.2 15.7
-9 7 0 -2.4 2.5
-7 9 0 12.2 40.1
-7 9 0 3.1 5.7
10 -6 0 1081.99 111.79
6 -10 0 1046.1 97.69
6 -10 0 1113.99 110.49
-10 6 0 1104.19 108.49
11 -5 0 1413.46 148.09
-11 5 0 1209.48 135.39
12 -4 0 -0.2 6.2
4 -12 0 -2.4 2.5
-12 4 0 1 3.6
-4 12 0 -3.9 3.5
-12 4 0 -1.3 3.5
3 -13 0 4.2 3.3
13 -3 0 10.5 3.6
-3 13 0 6 3.3
-13 3 0 4.6 3.9
-13 3 0 1.2 3.4
2 -14 0 10 5
-14 2 0 1.8 3.3
1 -15 0 463.95 39.5
-15 1 0 458.85 41.6
16 0 0 334.07 30.1
0 -16 0 357.86 30
-16 0 0 347.67 30.3
-16 0 0 331.97 31.4
17 1 0 -7.4 5.5
-1 -17 0 5 3.7
1 17 0 9.6 4.6
-17 -1 0 2.5 6.3
-17 -1 0 -0.8 5.4
18 2 0 10.6 5.8
-2 -18 0 -4 4.8
2 18 0 4.9 3.5
-18 -2 0 0.4 6.2
-18 -2 0 0.8 5.7
19 3 0 -10.5 6.2
-19 -3 0 -3 6.4
-19 -3 0 0.9 6.1
8 -9 0 52.29 6.1
8 -9 0 55.09 15.1
9 -8 0 72.79 7
-9 8 0 70.29 6.9
-8 9 0 52.19 8.3
7 -10 0 -2 6.1
7 -10 0 -2.3 15.4
10 -7 0 0 2.8
-7 10 0 -4.7 25
-10 7 0 -2.8 3.5
-10 7 0 -2.2 2.3
11 -6 0 163.68 19.3
6 -11 0 145.69 22.1
-6 11 0 144.99 42.7
-11 6 0 154.58 18.6
-11 6 0 136.09 13.9
12 -5 0 0.9 3.2
-12 5 0 2.8 3
-5 12 0 -1.1 2.1
-12 5 0 -4.6 4.1
4 -13 0 20.2 3.7
13 -4 0 19.3 4.4
-4 13 0 26.3 4.4
-13 4 0 31 5.7
-13 4 0 18.9 4.5
3 -14 0 24.9 4.2
14 -3 0 24.1 5.1
-14 3 0 24.1 6.1
-14 3 0 26.3 4.6
15 -2 0 -1.6 7.3
-15 2 0 -0.1 7.9
-15 2 0 4.9 4.7
16 -1 0 48.7 8.7
-16 1 0 61.09 9.4
-16 1 0 70.19 9.6
0 -17 0 -5.1 4.7
17 0 0 -3.6 5
-17 0 0 -8.1 5.6
0 17 0 -4.3 4.3
-17 0 0 1.7 5.7
-1 -18 0 -6.9 5.1
18 1 0 3.6 4.1
-18 -1 0 -1.6 4.2
-18 -1 0 -4.7 6.7
1 18 0 5.7 4.5
-2 -19 0 -1.9 3.9
19 2 0 4.9 4.4
-19 -2 0 -4.1 5.6
-19 -2 0 -14.2 7.9
9 -9 0 142.29 12.9
-9 9 0 130.69 12.4
10 -8 0 54.29 6.3
-10 8 0 41 5.7
7 -11 0 0.1 3.2
11 -7 0 -1.5 2.5
7 -11 0 3.7 2.5
-11 7 0 0.8 3.1
-7 11 0 3.1 2.4
12 -6 0 -0.9 2.6
6 -12 0 -6.6 3.3
-12 6 0 -4 4.3
-6 12 0 -3.6 2.9
-12 6 0 -2 2.7
5 -13 0 30.2 4.2
13 -5 0 20 3.8
-13 5 0 25.6 6.3
-13 5 0 27.2 4.1
-5 13 0 23.8 4.1
14 -4 0 77.09 8.8
4 -14 0 79.09 8.8
-14 4 0 96.09 11.1
-4 14 0 96.19 9.5
-14 4 0 85.69 9.1
15 -3 0 6.5 5.8
-15 3 0 26.1 7
-3 15 0 11.6 4.2
-15 3 0 14.2 6.2
16 -2 0 -10.4 8.9
2 -16 0 -0.7 6.9
-2 16 0 0.6 5.8
17 -1 0 -2.3 3.6
1 -17 0 6.9 4.9
-17 1 0 6.3 6.7
-1 17 0 0.4 3.1
-17 1 0 4.4 3.9
0 -18 0 16.4 5.6
18 0 0 32.7 6.9
0 18 0 22.9 4.6
-18 0 0 8 7.4
19 1 0 25.4 7
9 -10 0 18.4 4.6
10 -9 0 14 4.1
-9 10 0 10.3 3.1
-10 9 0 13.2 3.2
8 -11 0 105.49 11.1
11 -8 0 105.09 11.3
-8 11 0 110.99 10.8
-11 8 0 118.39 11.2
7 -12 0 58.39 7
12 -7 0 60.89 8.1
7 -12 0 51.79 6.6
-7 12 0 56.99 6.8
-12 7 0 52.79 7.8
13 -6 0 37.5 5.7
6 -13 0 29.5 5.6
-13 6 0 44.1 5.5
-6 13 0 33.7 4.8
14 -5 0 -2.5 4.1
-14 5 0 -7.7 4.3
-5 14 0 -3 4.1
4 -15 0 0 9.6
15 -4 0 15.8 19.1
-15 4 0 4.3 16.3
-4 15 0 1.1 9.2
3 -16 0 68.89 9.1
16 -3 0 59.49 8.8
-16 3 0 72.09 11.3
-16 3 0 67.69 8.4
17 -2 0 27.2 6.2
2 -17 0 26.1 4.9
-2 17 0 24.1 5.5
-17 2 0 11.1 8.7
-17 2 0 28.1 6.2
1 -18 0 1.7 3.6
18 -1 0 -7.7 5.5
-18 1 0 1.1 6
-18 1 0 -8 5.2
0 -19 0 3.2 3.9
19 0 0 -0.4 4.2
-19 0 0 11.5 5
-19 0 0 2.2 8.9
9 -11 0 173.58 35.2
-9 11 0 167.58 38.5
8 -12 0 -7.1 4
12 -8 0 -10.9 16
-8 12 0 -6.6 4
-12 8 0 -3.3 5.2
13 -7 0 -1.5 2.6
7 -13 0 -8.3 4.1
-7 13 0 -3.8 2.6
-13 7 0 2.8 2.6
14 -6 0 64.49 7.7
6 -14 0 69.89 8
-14 6 0 73.99 8.6
-6 14 0 76.39 8.3
15 -5 0 701.93 65.39
-15 5 0 752.42 63.99
-5 15 0 699.93 60.09
4 -16 0 116.89 11.8
16 -4 0 83.29 11.1
-4 16 0 107.79 10.9
-16 4 0 108.29 11.7
3 -17 0 -2.6 4.7
17 -3 0 -1.9 4.7
-3 17 0 -6.3 4.7
-17 3 0 -0.9 3.5
18 -2 0 -8.5 5.1
2 -18 0 -1.6 4.9
-2 18 0 1.4 4.8
-18 2 0 0.3 8.5
1 -19 0 22.1 6.4
-1 19 0 29.1 6.4
-19 1 0 22.8 8.9
11 -10 0 5.8 3.8
10 -11 0 -0.9 4.1
-10 11 0 2.4 3.6
-11 10 0 0.4 2.6
12 -9 0 22 4.4
9 -12 0 26.1 5.2
-9 12 0 26 4.9
8 -13 0 -0.7 4
-13 8 0 1.2 3.6
14 -7 0 14.4 4.5
7 -14 0 4.8 6.6
-7 14 0 15.4 8.2
6 -15 0 -4.1 5.8
15 -6 0 -4.1 18.7
-15 6 0 2.1 15.8
-6 15 0 12.6 16.2
16 -5 0 2.4 5.1
5 -16 0 -2.1 4.3
-5 16 0 -1.7 3.6
-16 5 0 -9.9 5.8
17 -4 0 15 5.3
4 -17 0 17.1 5.6
-4 17 0 28.8 5.8
-17 4 0 15.9 5.4
3 -18 0 4.8 4.8
-3 18 0 9 3.8
-18 3 0 7.6 4.7
2 -19 0 3.4 4
19 -2 0 0.6 4
-2 19 0 -3.8 4.9
-19 2 0 9.1 5.5
11 -11 0 152.58 13.9
-11 11 0 127.89 13
13 -9 0 12.4 5
9 -13 0 9.6 4.3
-9 13 0 19.1 3.6
-13 9 0 16 4.6
8 -14 0 -3.4 3.3
14 -8 0 2.8 4.2
-8 14 0 -1.5 4.1
-14 8 0 7.9 3
7 -15 0 17.6 5.1
-7 15 0 15.2 5.2
6 -16 0 82.19 9.9
16 -6 0 94.49 10.7
-16 6 0 106.39 11
-6 16 0 88.99 10.1
5 -17 0 -2.7 5
17 -5 0 6.6 3.7
-17 5 0 0.9 3.4
-5 17 0 -3.5 3.4
-4 18 0 15.1 5.5
3 -19 0 -3.7 5.7
-3 19 0 -2.8 5.6
11 -12 0 49.5 7
12 -11 0 54.29 6.7
-11 12 0 49.2 6.8
10 -13 0 3.5 3.3
13 -10 0 -0.5 4.3
-13 10 0 -0.1 4
-10 13 0 1.4 3.4
9 -14 0 50.79 6.8
14 -9 0 39.4 6.2
-9 14 0 39.2 6.1
-14 9 0 33.8 5.3
8 -15 0 -8.2 5.3
15 -8 0 -0.1 4.8
-15 8 0 -3.4 4.3
-8 15 0 -4.1 4.7
16 -7 0 33.5 5.7
7 -16 0 34.3 6.9
-16 7 0 29.4 5.7
-7 16 0 39.4 6.7
6 -17 0 16.2 4.5
-6 17 0 17.6 5
-17 6 0 26 5.9
18 -5 0 -7.9 3.7
5 -18 0 0 5.1
-5 18 0 -1.7 4.8
-18 5 0 4.1 3.7
-4 19 0 -1 3.9
12 -12 0 -0.5 4.2
-12 12 0 -1.7 2.8
11 -13 0 5.8 4.5
13 -11 0 3.6 4.7
-11 13 0 4.7 4.7
-13 11 0 -0.9 4
10 -14 0 96.99 10.7
14 -10 0 70.89 9.5
-14 10 0 75.89 9.4
-10 14 0 100.69 10
9 -15 0 108.89 12.6
15 -9 0 106.89 12.4
-15 9 0 120.49 12.2
-9 15 0 113.39 12.1
16 -8 0 -3.2 3.6
16 -8 0 -0.9 3.2
8 -16 0 -10 5.5
-8 16 0 -0.6 4.7
-16 8 0 -3.3 3.9
7 -17 0 1.5 5.2
-7 17 0 -6.1 4.8
-17 7 0 -3.6 5.2
6 -18 0 -1.3 4.7
18 -6 0 -4.2 5.1
-6 18 0 4.2 3.5
-12 13 0 -4 4.4
-13 12 0 -2.9 3.9
11 -14 0 2.7 5.2
14 -11 0 4.5 5
-11 14 0 11 3.8
-14 11 0 4.7 3.3
-15 10 0 5.2 4.4
-10 15 0 -2.5 3.2
9 -16 0 11 6
-9 16 0 12.4 4.2
8 -17 0 7.8 5.3
17 -8 0 16 5.3
-8 17 0 2.8 5
7 -18 0 0 4.9
18 -7 0 -7.1 5.3
-18 7 0 -4.9 5.4
-7 18 0 -4.7 5.1
13 -13 0 -3.2 5.1
-13 13 0 -1.4 3.2
14 -12 0 -11.3 5.9
12 -14 0 4.6 4.2
-14 12 0 -9.5 4.6
-12 14 0 4.7 5.4
15 -11 0 116.89 13.2
-15 11 0 111.49 12.4
-11 15 0 103.79 12.1
10 -16 0 85.89 10.6
16 -10 0 82.59 10.1
-16 10 0 103.39 10.9
-10 16 0 90.59 11
9 -17 0 -9.1 4.4
17 -9 0 -0.2 3.8
-9 17 0 -6.3 4
-17 9 0 1.4 3.5
14 -13 0 -2 5.2
13 -14 0 -7.6 5.7
-14 13 0 -5.5 4.7
-13 14 0 -1.7 4.7
12 -15 0 9.1 5.5
15 -12 0 1.4 4
-12 15 0 -2.8 4.9
-15 12 0 3.1 5
-13 -13 1 -0.7 5.5
-13 -13 1 6.8 5.9
13 13 -1 -1.3 5.8
12 12 -1 20.5 6.6
-12 -12 1 29.5 6
11 11 -1 17.3 4.8
-11 -11 1 5.2 6.7
-11 -11 1 13.5 4.6
-10 -10 1 519.75 47
10 10 -1 546.25 45.3
-9 -9 1 128.89 13.6
-9 -9 1 124.29 12.9
9 9 -1 110.39 12.2
-8 -8 1 22.6 5
-8 -8 1 30.2 5.8
8 8 -1 18.7 4.8
-7 -7 1 106.09 21.6
7 7 -1 178.78 14.2
-7 -7 1 139.39 13.8
7 7 -1 189.88 30.6
-7 -7 1 149.88 14.9
-6 -6 1 37.9 5
6 6 -1 62.99 17.9
-6 -6 1 41.7 15
-6 -6 1 44.3 6
6 6 -1 39.6 4.7
5 5 -1 4437.66 423.06
-5 -5 1 3281.47 328.37
-4 -4 1 184.88 15.7
4 4 -1 162.88 14.9
-4 -4 1 182.48 15.1
-4 -4 -1 199.98 16.2
4 4 1 194.88 16.1
-4 -4 -1 173.78 17.1
-5 -5 -1 4548.45 445.36
-5 -5 -1 4099.49 439.76
5 5 1 4639.14 450.05
6 6 1 5.2 12.8
6 6 1 20.4 3.2
-6 -6 -1 25.7 5.7
-6 -6 -1 19.5 3.5
7 7 1 142.79 13.1
-7 -7 -1 153.58 26.2
-7 -7 -1 134.49 13
7 7 1 111.69 21.6
-7 -7 -1 159.98 15.1
8 8 1 89.39 26.5
-8 -8 -1 28.3 4.7
8 8 1 24.6 4.9
-8 -8 -1 1.6 17.9
-9 -9 -1 120.89 13.8
9 9 1 129.49 13.1
-9 -9 -1 124.09 12.6
-10 -10 -1 643.74 52.59
-10 -10 -1 532.65 49.5
-11 -11 -1 16.1 4.9
-11 -11 -1 18.5 8.7
-12 -12 -1 15.1 5.3
12 12 1 30.4 7.1
13 13 1 18.7 6.9
-13 -13 -1 21 11
-13 -14 1 -1 6.8
14 13 -1 7.2 4.6
-14 -13 1 -5.2 7.4
13 14 -1 6.3 5.6
13 12 -1 -1.6 4.3
-12 -13 1 2.8 7.3
-12 -13 1 -10 6.3
-13 -12 1 13 6.1
-13 -12 1 -7.7 6.8
12 13 -1 -6.6 5.9
-11 -12 1 81.89 11.1
12 11 -1 71.79 9.6
-11 -12 1 89.99 12.2
11 12 -1 96.29 10.9
-12 -11 1 78.59 12.1
-12 -11 1 92.09 11.3
-10 -11 1 7.8 4.4
-10 -11 1 3.8 5.9
11 10 -1 -0.3 4
-11 -10 1 8.6 6.4
-9 -10 1 0.6 5.3
-9 -10 1 -1.3 4.9
10 9 -1 -1.6 3.5
9 10 -1 -1 3.3
-10 -9 1 3 5.1
-10 -9 1 0.5 5.2
-8 -9 1 47.1 7.4
-8 -9 1 46.3 6.7
9 8 -1 46 6
-9 -8 1 47.2 6.9
-9 -8 1 45.8 7.6
8 9 -1 51.89 6.5
-7 -8 1 203.88 18.4
-7 -8 1 213.58 17.5
-7 -8 1 154.08 29.4
8 7 -1 172.68 17.1
-8 -7 1 198.68 18.4
-8 -7 1 187.48 30.8
-8 -7 1 192.48 17.6
7 8 -1 185.78 17.2
-6 -7 1 269.77 24.6
7 6 -1 243.38 23.3
-6 -7 1 241.78 32.7
7 6 -1 242.88 31.7
-6 -7 1 300.97 23.9
6 7 -1 284.67 36.2
-7 -6 1 285.07 23.7
-7 -6 1 282.07 24.8
-7 -6 1 289.57 34.4
6 7 -1 291.37 23.7
-5 -6 1 8.6 3.1
-5 -6 1 7.3 12.5
6 5 -1 17.8 13
6 5 -1 2.3 13.2
5 6 -1 3.3 22.5
-6 -5 1 11.7 4.1
-6 -5 1 1.9 3.4
-6 -5 1 -0.1 11.6
-4 -5 1 3.7 6.5
-4 -5 1 2.7 9.7
5 4 -1 0.9 1.7
5 4 -1 -4 8.1
-4 -5 1 2.5 3
4 5 -1 -6.9 11.2
-5 -4 1 1.3 1.7
4 5 -1 0.2 15.8
-5 -4 1 16 10.7
-5 -4 1 2.8 2.9
4 3 -1 34.3 8.1
-3 -4 1 33.6 3.6
-3 -4 1 25.7 7.6
-4 -3 1 37.2 4.2
-4 -3 1 35.2 3.6
-4 -3 1 30.3 7.7
-3 -4 -1 26.5 4.4
-3 -4 -1 34.9 9
4 3 1 32.7 3.5
-3 -4 -1 26 3.5
4 3 1 26.6 7.5
-4 -3 -1 29.2 3.5
3 4 1 29.9 3.5
3 4 1 30 7.7
-4 -3 -1 28.2 4.6
-4 -3 -1 38.8 10.2
-4 -5 -1 5.2 8.4
-4 -5 -1 5.9 13.8
-4 -5 -1 2.2 4.3
5 4 1 -0.8 2.6
5 4 1 7.1 10
4 5 1 -18.2 11.3
-5 -4 -1 -1.7 4.2
-5 -4 -1 1.1 2.7
-5 -4 -1 -8.1 11.1
-5 -6 -1 14.4 12.5
6 5 1 12.3 12.3
5 6 1 5.5 2.9
5 6 1 -1.8 12.9
-6 -5 -1 5.9 12.7
-6 -5 -1 6.4 2.7
-6 -7 -1 276.87 24.7
7 6 1 247.18 33
7 6 1 270.47 23.1
-6 -7 -1 246.58 23.2
-7 -6 -1 277.97 23.2
6 7 1 278.87 23.3
-7 -6 -1 266.57 24.9
6 7 1 275.57 35
-7 -6 -1 254.77 34.4
-7 -8 -1 233.38 20.9
-7 -8 -1 223.18 22.1
8 7 1 188.68 32.4
8 7 1 240.88 20.6
-7 -8 -1 204.98 34.1
-8 -7 -1 231.58 22.4
-8 -7 -1 189.48 33.4
-8 -7 -1 262.67 20.9
7 8 1 211.68 34.3
7 8 1 236.78 20.8
9 8 1 54.49 6.8
-8 -9 -1 -3.9 22.9
-8 -9 -1 40.7 6.9
-8 -9 -1 47.7 6.7
8 9 1 34.4 5.5
-9 -8 -1 41.6 6
-9 -8 -1 50.49 8.7
-9 -10 -1 -9 6.8
-9 -10 -1 1.6 3.7
10 9 1 0.3 4.9
-10 -9 -1 -4 4
-10 -9 -1 5.4 6.7
9 10 1 -4.4 4.7
11 10 1 4.2 4.5
-10 -11 -1 23.6 6.1
-10 -11 -1 10.4 7.8
-11 -10 -1 0.8 4.5
-11 -12 -1 86.89 11.7
12 11 1 78.89 10.2
-11 -12 -1 84.09 12.3
11 12 1 97.59 11.5
-12 -11 -1 79.09 11.2
-12 -11 -1 90.49 14.2
-12 -13 -1 9 9.8
-12 -13 -1 6.6 6.4
-13 -12 -1 2.9 6.7
-13 -12 -1 9.4 6.7
14 13 1 5 4.9
-14 -13 -1 17.1 7.5
-14 -13 -1 5 11.5
13 14 1 -3.9 6.6
14 12 -1 13.4 6.5
-12 -14 1 15.1 7.9
12 14 -1 -2.4 5.1
-14 -12 1 13.6 7.5
-11 -13 1 0.9 6.2
13 11 -1 14 6.4
-13 -11 1 11.5 7.1
-13 -11 1 15 6.2
11 13 -1 15.2 5.3
-10 -12 1 5.9 5.8
-10 -12 1 8.6 6.2
12 10 -1 10.6 5.9
-12 -10 1 3.7 6.2
-12 -10 1 16.7 7.4
-9 -11 1 36.8 11.3
11 9 -1 26.8 18.3
-11 -9 1 17.2 7
-11 -9 1 32.1 23.1
9 11 -1 29 11.8
-8 -10 1 97.59 10.8
-8 -10 1 100.29 11.2
10 8 -1 80.89 9.5
-10 -8 1 88.19 10.7
-10 -8 1 86.69 11.1
8 10 -1 100.99 10.4
9 7 -1 41.6 5.8
-7 -9 1 49.1 7
-7 -9 1 48.9 6.2
7 9 -1 43.5 5.6
-9 -7 1 47 7.8
-9 -7 1 41.6 6
-6 -8 1 26 4.1
8 6 -1 25.9 19.8
-6 -8 1 25.2 5.3
-6 -8 1 21.7 13.5
8 6 -1 26.4 4.4
-8 -6 1 29.9 5.3
-8 -6 1 31.5 5.9
6 8 -1 28.5 4.6
6 8 -1 55.99 24.2
-8 -6 1 11.4 13.4
-5 -7 1 43.9 13
7 5 -1 54.09 5.7
-5 -7 1 44 5.8
-5 -7 1 53.89 5.6
7 5 -1 68.79 17.5
-7 -5 1 49.4 6.6
-7 -5 1 40.1 16
5 7 -1 33.5 16.5
-7 -5 1 44.9 5.8
5 7 -1 51.19 5.7
6 4 -1 180.08 16.4
-4 -6 1 237.58 65.09
-4 -6 1 218.68 53.99
-4 -6 1 216.58 26.8
6 4 -1 185.18 24.2
4 6 -1 187.88 23.5
-6 -4 1 140.19 22
4 6 -1 255.27 74.09
-6 -4 1 198.78 17.3
5 3 -1 21.8 3.1
-3 -5 1 34.2 3.4
-3 -5 1 32.1 4
-3 -5 1 36.1 10.5
5 3 -1 28.6 10.3
-5 -3 1 30.4 4.3
3 5 -1 22.1 10.3
3 5 -1 26.5 3.1
-5 -3 1 24.3 3.2
-5 -3 1 28.8 9.9
4 2 1 115.39 13.8
4 2 1 80.09 8.2
-2 -4 -1 99.59 13.5
-2 -4 -1 101.29 8.5
4 2 1 99.99 9.1
-2 -4 -1 88.49 9
-4 -2 -1 84.59 9.3
2 4 1 75.19 11.7
-4 -2 -1 120.79 14.7
-4 -2 -1 108.69 8.6
-3 -5 -1 37.1 4.6
5 3 1 47.6 4.7
-3 -5 -1 25.8 10.2
-3 -5 -1 39.9 5.5
5 3 1 31.6 9.1
3 5 1 41.4 11
-5 -3 -1 43.5 12.4
-5 -3 -1 38.1 5.9
-5 -3 -1 51.09 4.9
6 4 1 209.88 26.9
6 4 1 235.98 19.4
-4 -6 -1 163.28 53.29
4 6 1 162.88 60.89
4 6 1 194.78 44.9
-6 -4 -1 230.98 19.5
-6 -4 -1 229.58 28.8
7 5 1 49.1 13.4
-5 -7 -1 53.39 6
7 5 1 57.89 6.5
-5 -7 -1 49.6 6.7
-5 -7 -1 53.69 13.9
-7 -5 -1 37.6 17.3
5 7 1 68.99 6.5
-7 -5 -1 55.59 6.5
5 7 1 71.79 17.6
-7 -5 -1 60.79 8.3
-6 -8 -1 26.5 4.7
-6 -8 -1 17.6 5.1
8 6 1 13.4 13.6
8 6 1 21.3 6.7
-6 -8 -1 -2 16.7
-8 -6 -1 31.4 7
-8 -6 -1 4.7 20.1
-8 -6 -1 17 9.2
6 8 1 18 3.6
6 8 1 25.8 14.3
9 7 1 48 7.6
-7 -9 -1 54.79 7.2
-7 -9 -1 55.09 8.4
7 9 1 32.1 25
-9 -7 -1 15.7 24.6
-9 -7 -1 48 8.2
-9 -7 -1 52.59 9.9
7 9 1 60.09 7.3
10 8 1 87.39 10.2
-8 -10 -1 110.89 12.3
-8 -10 -1 86.79 10.4
-10 -8 -1 93.89 12.3
8 10 1 74.69 9.4
-10 -8 -1 83.49 9.5
-9 -11 -1 27.4 13.3
11 9 1 28.9 10.4
-11 -9 -1 32.8 17.7
-11 -9 -1 27.1 7.2
-10 -12 -1 25.2 6.9
-10 -12 -1 37.1 9.3
12 10 1 19.3 6.3
-12 -10 -1 30.4 9.7
-11 -13 -1 12 9.2
13 11 1 13.6 7
-11 -13 -1 8.8 6.7
11 13 1 13.6 5.1
-13 -11 -1 26.4 7.6
-12 -14 -1 2.3 9.9
-12 -14 -1 3.8 4.7
14 12 1 6.6 6.6
-14 -12 -1 18.4 7.6
-14 -12 -1 -2.4 8.6
12 14 1 5.4 4.7
15 12 -1 4.1 4.4
-12 -15 1 1.5 7.7
-15 -12 1 10.5 7.5
12 15 -1 6.1 6.3
-15 -12 1 3.5 8.7
-11 -14 1 8.2 4.8
-11 -14 1 1.8 7.1
14 11 -1 2.1 5.1
11 14 -1 -6.8 6.2
-14 -11 1 3.9 5.8
-14 -11 1 -1.9 5.1
-13 -10 1 12.2 5.2
10 13 -1 18.4 5
-13 -10 1 25.4 7.4
-9 -12 1 5 5.3
12 9 -1 -7 5.9
9 12 -1 -5.3 5
-12 -9 1 -7.9 6.6
-12 -9 1 -14.3 6.3
11 8 -1 83.69 9.5
-8 -11 1 84.69 9.5
-8 -11 1 76.69 10.2
8 11 -1 80.49 9
-11 -8 1 73.39 10.6
-11 -8 1 82.49 9.8
-7 -10 1 19.6 4.4
-7 -10 1 22.9 5.8
10 7 -1 18.5 5
-10 -7 1 32.2 6.9
-10 -7 1 14.1 5.2
7 10 -1 26.4 4.9
9 6 -1 63.49 9.8
-6 -9 1 59.69 8
-6 -9 1 52.09 6.8
-9 -6 1 64.19 8.8
-9 -6 1 62.99 8.2
6 9 -1 54.39 7.9
8 5 -1 29.9 16.2
8 5 -1 17.5 3.2
-5 -8 1 21.7 3.8
-5 -8 1 2.4 12.8
5 8 -1 17.5 18.1
-8 -5 1 25.9 15.9
-8 -5 1 17.7 3.3
-8 -5 1 17.5 4.9
-4 -7 1 22.9 4
-4 -7 1 7.4 11.9
7 4 -1 0.6 8.9
7 4 -1 18.3 3.3
-4 -7 1 18.1 3.3
-7 -4 1 12.5 3.6
-7 -4 1 5.5 12.4
4 7 -1 25.4 3.4
-7 -4 1 10.6 11.5
4 7 -1 32.7 14.1
-3 -6 1 276.77 23.2
6 3 -1 309.47 30.7
-3 -6 1 263.17 23.8
-3 -6 1 264.07 29.6
3 6 -1 272.97 29.3
3 6 -1 298.07 23.2
-6 -3 1 255.17 24.2
-6 -3 1 284.37 31.2
5 2 -1 44.6 17.4
-2 -5 1 70.59 7.1
-2 -5 1 58.49 11.4
-2 -5 1 73.79 6.7
5 2 -1 64.09 25
2 5 -1 84.39 13.5
2 5 -1 77.79 6.7
-5 -2 1 73.59 44.5
-5 -2 1 75.89 21.6
-5 -2 1 70.19 32.2
-2 -5 -1 87.69 7.8
-2 -5 -1 107.59 14.5
5 2 1 74.09 43.4
5 2 1 82.29 28.3
5 2 1 48.6 40
-2 -5 -1 80.09 8.4
-5 -2 -1 81.09 31.8
2 5 1 79.79 12.9
2 5 1 86.69 7.9
-5 -2 -1 84.89 21.7
-5 -2 -1 91.19 31
-3 -6 -1 222.38 27.2
-3 -6 -1 203.28 21.3
6 3 1 298.67 28.8
-6 -3 -1 259.47 22.2
-6 -3 -1 281.37 21
-6 -3 -1 198.98 26.9
3 6 1 293.07 28.8
3 6 1 223.38 20.6
-4 -7 -1 8.9 3.8
7 4 1 14.5 15.6
7 4 1 10.2 3
-4 -7 -1 7.3 12.3
-4 -7 -1 15.3 3.3
-7 -4 -1 -0.8 18.2
4 7 1 10 3
4 7 1 25.6 13.1
-7 -4 -1 10.2 5.3
-7 -4 -1 20.9 19.6
-5 -8 -1 21.8 4.4
8 5 1 26 12
-5 -8 -1 -11.9 16.5
-5 -8 -1 22.4 5.1
5 8 1 17.6 3.2
-8 -5 -1 19.5 4.9
-8 -5 -1 39.1 18.1
5 8 1 1.6 15
-6 -9 -1 56.69 7.8
-6 -9 -1 54.49 7.9
-6 -9 -1 53.09 23
9 6 1 52.39 8.7
9 6 1 60.89 17.9
6 9 1 37.9 17
-9 -6 -1 51.69 8.5
6 9 1 54.89 7
-9 -6 -1 23.5 22.9
-9 -6 -1 49 8
10 7 1 17.3 6.4
-7 -10 -1 30.8 5.7
-7 -10 -1 23.2 5.7
-10 -7 -1 19.6 6.6
7 10 1 25 6
-8 -11 -1 77.29 10.8
-8 -11 -1 70.89 8.5
11 8 1 72.49 8.4
-11 -8 -1 72.39 8.6
-11 -8 -1 89.79 12.1
8 11 1 68.79 8.4
-9 -12 -1 -4.8 5.7
12 9 1 -12.7 5.7
-9 -12 -1 -13.8 7.6
9 12 1 -13 5.8
-12 -9 -1 -8.4 5.9
-12 -9 -1 8.3 6.1
-10 -13 -1 35 9.6
-10 -13 -1 21.9 6.9
13 10 1 16 6.8
-13 -10 -1 11.9 6.6
14 11 1 -7 5.7
-11 -14 -1 7.7 8.2
-11 -14 -1 0.7 4.4
-14 -11 -1 1 4.9
11 14 1 1.5 6.6
-14 -11 -1 7.6 7.7
15 12 1 4.2 5
-12 -15 -1 5.9 6.6
-12 -15 -1 12.2 7.5
-15 -12 -1 27.9 12.6
-15 -12 -1 17.5 7.5
-11 -15 1 36.5 8.1
-11 -15 1 41 9.1
15 11 -1 38 8.2
11 15 -1 28.2 6.2
14 10 -1 71.59 10
-10 -14 1 67.49 10.6
-10 -14 1 66.49 9.7
-14 -10 1 53.29 10
10 14 -1 75.29 9.7
-14 -10 1 85.09 11
-9 -13 1 41.3 7.1
13 9 -1 38.4 6.5
-9 -13 1 51.49 7.7
-13 -9 1 44.2 6.9
9 13 -1 43.4 6.5
-13 -9 1 52.89 9.5
-8 -12 1 4.9 3.8
12 8 -1 -3.2 4.6
-8 -12 1 5 5.5
-12 -8 1 12.2 6.2
8 12 -1 2.1 4.4
-12 -8 1 3.4 4.9
-7 -11 1 35.1 6.6
-7 -11 1 42.1 7.3
11 7 -1 38 5.8
-11 -7 1 49.1 8.1
7 11 -1 43.4 6.5
-11 -7 1 49.3 7.4
10 6 -1 479.05 37.2
-6 -10 1 421.76 37.8
-6 -10 1 405.16 36.8
-10 -6 1 470.05 37.3
-10 -6 1 412.36 38.6
6 10 -1 415.26 36.9
-5 -9 1 428.56 41
-5 -9 1 442.86 49.1
-5 -9 1 497.55 40.2
9 5 -1 459.95 40.2
-9 -5 1 450.45 52.19
5 9 -1 533.15 40.8
-9 -5 1 529.65 42.2
-9 -5 1 474.25 40.3
8 4 -1 78.09 21.9
-4 -8 1 109.89 10.1
8 4 -1 77.79 25.8
-4 -8 1 97.39 20
-4 -8 1 95.59 14.5
4 8 -1 99.59 18.9
-8 -4 1 97.79 11.2
-8 -4 1 85.19 19.5
-8 -4 1 76.39 22.4
4 8 -1 127.99 22.5
-3 -7 1 50.99 14.2
7 3 -1 37.8 11.1
-3 -7 1 54.59 5.4
-3 -7 1 45.6 5.3
7 3 -1 48 5.5
3 7 -1 51.69 5.3
-7 -3 1 44.4 5.9
-7 -3 1 48.6 12.8
-7 -3 1 43.9 5.6
3 7 -1 50.29 12.9
-2 -6 1 103.99 15.4
-2 -6 1 92.89 9.2
6 2 -1 117.79 16.9
6 2 -1 105.89 9.9
-2 -6 1 93.39 8.8
-6 -2 1 86.19 14.5
-6 -2 1 82.49 9.4
2 6 -1 100.29 8.8
2 6 -1 135.09 17.4
-6 -2 1 99.29 9.1
5 1 -1 1949.2 161.98
-1 -5 1 1611.64 166.88
5 1 -1 1962.4 177.08
-1 -5 1 1784.52 157.18
-5 -1 1 1991.8 179.58
-5 -1 1 1950.6 169.88
1 5 -1 1684.73 161.48
-1 -5 -1 1560.04 134.89
-1 -5 -1 1307.77 148.69
5 1 1 1389.96 135.49
5 1 1 1760.12 150.08
-1 -5 -1 1535.75 143.29
5 1 1 1634.94 135.09
1 5 1 1643.24 136.39
1 5 1 1631.74 142.69
-5 -1 -1 1635.94 144.99
-5 -1 -1 1656.83 134.39
-5 -1 -1 1487.75 136.99
-2 -6 -1 60.29 12.2
-2 -6 -1 77.79 7
-2 -6 -1 60.99 7.1
6 2 1 101.59 15.4
-6 -2 -1 75.99 7.9
-6 -2 -1 92.59 20.2
-3 -7 -1 55.39 6.6
-3 -7 -1 60.09 6.1
7 3 1 66.49 15.3
-3 -7 -1 61.79 14.9
7 3 1 66.19 6.3
-7 -3 -1 33.7 12.1
-7 -3 -1 52.99 7.7
3 7 1 48.1 5.8
-7 -3 -1 63.39 6.4
3 7 1 34.7 12.3
-4 -8 -1 98.79 10.6
8 4 1 110.99 32.1
-4 -8 -1 73.59 18.9
8 4 1 88.39 23.4
-4 -8 -1 91.79 9.7
-8 -4 -1 109.69 27.2
4 8 1 84.99 18.7
-8 -4 -1 87.09 21.6
-8 -4 -1 78.39 11.3
4 8 1 104.39 15
-5 -9 -1 614.74 48.2
9 5 1 561.54 48.1
-5 -9 -1 534.15 57.69
-5 -9 -1 547.95 48.8
5 9 1 570.54 58.29
5 9 1 473.85 46.4
-9 -5 -1 570.64 49.4
-9 -5 -1 596.14 49.4
-9 -5 -1 584.44 60.89
-6 -10 -1 396.06 47.6
10 6 1 330.87 31.7
-6 -10 -1 400.46 33.4
-6 -10 -1 416.26 32.2
6 10 1 327.87 31.6
-10 -6 -1 302.27 47.1
-10 -6 -1 386.36 32.4
-10 -6 -1 385.06 34.5
-7 -11 -1 49.9 7
11 7 1 41.6 7
-7 -11 -1 49.1 7.9
-11 -7 -1 44.7 8.1
-11 -7 -1 33.2 6.1
7 11 1 47.8 7.1
12 8 1 -0.5 4.7
-8 -12 -1 1.4 4.6
-8 -12 -1 4.1 4.7
-12 -8 -1 13.1 7.9
-12 -8 -1 12 5.4
-9 -13 -1 40.5 7.8
13 9 1 50.39 7.8
-9 -13 -1 31.3 7.5
-13 -9 -1 63.19 11.6
-13 -9 -1 49.3 7
9 13 1 43 6.6
-10 -14 -1 83.99 12.6
-10 -14 -1 83.69 11
14 10 1 79.89 10.6
10 14 1 90.69 11.2
-14 -10 -1 81.19 11.6
-14 -10 -1 86.79 15
15 11 1 40.2 8.6
-11 -15 -1 37.5 8.2
-11 -15 -1 52.19 11.4
11 15 1 39.2 7.9
-10 -15 1 -0.5 6.6
-10 -15 1 15.2 6.1
10 15 -1 3.9 4.1
-15 -10 1 3.2 4.9
-15 -10 1 -9.2 6.2
-9 -14 1 0 4.2
-9 -14 1 -5.7 4.9
14 9 -1 4.4 5.6
9 14 -1 0.3 4.7
-14 -9 1 -1 6.5
-14 -9 1 -5.9 6.2
-8 -13 1 124.49 13.7
13 8 -1 123.49 12.4
-8 -13 1 125.19 12.8
8 13 -1 128.59 12.8
-13 -8 1 107.99 14.4
-13 -8 1 122.59 13
-7 -12 1 -2.3 4.7
-7 -12 1 10.7 5.3
-12 -7 1 -3 6.1
7 12 -1 -1 4
-12 -7 1 -10.2 5.5
-6 -11 1 183.88 16.3
11 6 -1 138.49 15.2
-6 -11 1 180.98 15.7
-11 -6 1 160.88 15.4
-11 -6 1 144.79 16.4
6 11 -1 174.58 15.5
-5 -10 1 3.9 3.3
10 5 -1 -1.1 4.5
-10 -5 1 -7.2 6
-10 -5 1 -4.6 6.1
5 10 -1 -4.4 4.1
-4 -9 1 24.6 16.3
9 4 -1 11.5 2.9
-4 -9 1 14.4 7
-4 -9 1 16.5 4.1
9 4 -1 15.5 13.3
4 9 -1 16.5 2.9
-9 -4 1 19.4 5.5
-9 -4 1 10.9 4.5
-9 -4 1 15.4 17.4
4 9 -1 11.9 18.5
-3 -8 1 1031.2 85.39
-3 -8 1 911.91 82.49
8 3 -1 906.01 83.99
8 3 -1 1134.39 99.99
-3 -8 1 1059.59 90.49
-8 -3 1 866.61 88.49
3 8 -1 916.41 82.09
-8 -3 1 953.5 86.19
-8 -3 1 1032.8 87.09
-2 -7 1 125.39 10.9
-2 -7 1 121.19 16.4
-2 -7 1 114.19 10.4
7 2 -1 137.79 10.9
7 2 -1 117.29 18.6
2 7 -1 114.19 17.1
-7 -2 1 103.69 10.6
-7 -2 1 104.19 11.2
-7 -2 1 130.19 18.4
-1 -6 1 418.56 37.2
6 1 -1 372.46 41.6
-1 -6 1 483.15 41
-1 -6 1 508.35 36.6
-6 -1 1 370.46 40.4
1 6 -1 498.75 41.8
-6 -1 1 409.16 38
-6 -1 1 545.45 50.49
0 -5 1 -1.8 30.5
0 -5 1 -1.4 2.2
0 -5 1 -3.7 4.8
5 0 -1 -3.2 23.3
5 0 -1 0.9 8
-5 0 1 -3 3.6
0 5 -1 0.7 18
0 5 -1 1.5 2.4
-5 0 1 1.4 7.9
-5 0 1 -1.3 0.6
-5 0 1 -3.6 6.7
0 -5 -1 -5.2 25.5
0 -5 -1 0.5 11.6
5 0 1 0.6 14.6
5 0 1 -7.7 37.6
5 0 1 -0.4 13.4
0 -5 -1 -3.8 24.4
-5 0 -1 -1.2 17.6
-5 0 -1 -6.8 13.5
-5 0 -1 -6.7 24.9
0 5 1 -0.6 9
0 5 1 1 22.4
-1 -6 -1 515.45 44
-1 -6 -1 525.55 39.2
6 1 1 425.06 42.6
-1 -6 -1 418.86 39.9
-6 -1 -1 415.16 43.1
-6 -1 -1 547.15 49.4
-6 -1 -1 487.45 44.3
1 6 1 510.15 43.7
7 2 1 156.68 21.7
-2 -7 -1 164.58 13.8
7 2 1 138.09 13.6
-2 -7 -1 170.98 14.2
2 7 1 172.38 21.1
-7 -2 -1 149.09 13.7
-7 -2 -1 149.09 21.7
8 3 1 949.6 86.09
-3 -8 -1 1070.49 90.19
-3 -8 -1 1006.7 85.69
8 3 1 845.42 83.29
-3 -8 -1 998.5 88.69
-8 -3 -1 1038.2 87.49
3 8 1 996.6 87.39
-8 -3 -1 861.01 84.59
-4 -9 -1 21.5 4.8
9 4 1 18.3 16
9 4 1 26.1 4.4
-4 -9 -1 19.4 16.9
4 9 1 6.7 15.9
-9 -4 -1 17 6.3
4 9 1 27.1 4.3
-9 -4 -1 34.3 19.3
-9 -4 -1 22.9 6.2
10 5 1 9.5 23.1
-5 -10 -1 -11.7 5.6
-5 -10 -1 -11 21
10 5 1 -0.6 15.6
-10 -5 -1 -13.2 12.2
-10 -5 -1 -2.3 7.1
-10 -5 -1 -21.1 17.7
5 10 1 -2.3 3.6
5 10 1 -23.7 21.9
11 6 1 195.18 17.4
-6 -11 -1 151.18 16.4
-6 -11 -1 211.98 18.5
-11 -6 -1 194.58 19.9
6 11 1 157.78 16.7
-11 -6 -1 194.78 17.3
12 7 1 -4.5 5.7
-7 -12 -1 -5 6
-12 -7 -1 -15.8 7.9
7 12 1 -0.8 3.2
-12 -7 -1 -7.3 5.5
13 8 1 109.39 11.9
-8 -13 -1 128.59 12.8
-8 -13 -1 132.49 14.6
-13 -8 -1 105.89 12.1
-13 -8 -1 118.09 14.5
8 13 1 119.99 12.4
-9 -14 -1 -4.3 5.2
14 9 1 -5.8 5.6
9 14 1 -4.3 5.7
-14 -9 -1 2.3 5.9
-14 -9 -1 10.6 9.4
15 10 1 -5.6 6
-15 -10 -1 7.5 5
10 15 1 -3.4 4.6
-15 -10 -1 3.4 7.6
-10 -16 1 42.2 9.1
-16 -10 1 41.3 9.6
-9 -15 1 59.79 9.1
15 9 -1 65.49 8.9
-9 -15 1 80.69 9.8
-15 -9 1 55.69 10.3
9 15 -1 75.59 8.7
-15 -9 1 65.89 11.6
-14 -8 1 29.8 8.5
8 14 -1 28.6 6
-7 -13 1 -4.5 3.5
13 7 -1 -3.4 3.3
7 13 -1 3.3 4
-13 -7 1 -1.9 4.7
-13 -7 1 3.2 6.4
-6 -12 1 117.79 13
12 6 -1 134.79 12.9
-6 -12 1 111.19 11.9
-12 -6 1 130.39 12.9
6 12 -1 124.59 12.4
-12 -6 1 132.99 14.4
-5 -11 1 253.87 23.9
11 5 -1 293.17 24.2
-5 -11 1 276.07 23.8
5 11 -1 267.07 23.3
-11 -5 1 262.27 24.1
-11 -5 1 242.38 24.6
-4 -10 1 545.55 44.1
-4 -10 1 542.25 45
10 4 -1 529.45 46.1
-10 -4 1 487.65 44.5
4 10 -1 559.14 44.1
-10 -4 1 492.15 45.7
-3 -9 1 3.1 2.8
9 3 -1 -0.7 13.6
-3 -9 1 -13.7 9.7
9 3 -1 2.6 2.6
-9 -3 1 -1.7 3.1
3 9 -1 1.9 2.7
3 9 -1 -14.8 14.7
-9 -3 1 4.6 4
-9 -3 1 3 14.8
-2 -8 1 3.6 28.5
-2 -8 1 -2.5 42.3
8 2 -1 -14.7 10.9
-2 -8 1 -6.3 37
-8 -2 1 2.3 5.2
-8 -2 1 4.8 12.5
2 8 -1 -9.8 41
2 8 -1 0.1 22.2
-8 -2 1 -1.4 3.6
-1 -7 1 237.08 20.1
7 1 -1 227.78 26.7
7 1 -1 250.97 20.3
-1 -7 1 245.48 20.5
-1 -7 1 199.48 25
1 7 -1 221.68 25.7
1 7 -1 238.28 20
-7 -1 1 249.78 20.3
6 0 -1 714.53 64.59
6 0 -1 661.13 66.79
-6 0 1 775.42 65.29
-6 0 1 868.31 73.29
0 6 -1 760.02 64.69
1 -5 1 1348.67 102.39
5 -1 -1 1234.28 106.29
5 -1 -1 1120.59 131.89
-5 1 1 1162.28 116.69
-1 5 -1 1299.97 110.09
-5 1 1 1401.66 118.69
-1 5 -1 1030.2 100.09
2 -4 1 60.59 9.6
2 -4 1 75.49 6.5
4 -2 -1 68.69 10
2 -4 1 71.39 6
4 -2 -1 64.59 6.1
-2 4 -1 74.39 10.2
-4 2 1 59.59 6.1
-4 2 1 69.29 10.7
-4 2 1 61.89 6
-2 4 -1 73.89 6
-2 4 -1 59.89 6
4 -2 1 50.39 5
2 -4 -1 52.49 5
4 -2 1 53.69 4.9
2 -4 -1 50.99 8.4
4 -2 1 69.29 9.9
-4 2 -1 65.09 5.2
-4 2 -1 55.59 9.2
-2 4 1 40.2 7.4
-2 4 1 57.89 5
1 -5 -1 1248.68 113.99
1 -5 -1 1134.99 118.59
5 -1 1 1258.07 114.89
5 -1 1 1433.66 112.69
5 -1 1 1327.77 135.89
-5 1 -1 1411.06 125.79
-5 1 -1 1481.85 122.39
-5 1 -1 1429.56 121.99
6 0 1 841.52 74.59
6 0 1 751.12 95.19
-6 0 -1 915.81 78.39
0 6 1 959.4 76.89
7 1 1 241.68 20.4
-1 -7 -1 212.98 25.9
7 1 1 285.27 28.4
7 1 1 201.28 19.6
-1 -7 -1 242.68 19.9
-7 -1 -1 204.98 19.7
1 7 1 255.47 19.9
1 7 1 259.47 26.7
-7 -1 -1 226.08 21
-7 -1 -1 246.18 27
8 2 1 3.6 24.3
-2 -8 -1 8.9 31
-2 -8 -1 0.4 15.7
8 2 1 -8.1 20.9
-2 -8 -1 -16 22.5
2 8 1 -1.1 13.5
-8 -2 -1 -13 10.9
-8 -2 -1 -1.8 25.4
-8 -2 -1 0.6 3
2 8 1 2.9 33.3
9 3 1 15.7 14.1
9 3 1 2.6 3.2
-3 -9 -1 4 2.5
-3 -9 -1 -0.7 2.1
-3 -9 -1 -2.7 12.9
-9 -3 -1 -16.2 13.5
-9 -3 -1 -2.2 3.7
3 9 1 4.3 12.4
3 9 1 -0.8 2
-4 -10 -1 513.55 44.3
-4 -10 -1 575.14 46.2
-4 -10 -1 501.75 55.59
10 4 1 620.84 57.19
10 4 1 460.45 44.5
4 10 1 441.46 43.9
-10 -4 -1 567.04 46.8
-10 -4 -1 517.05 58.89
-10 -4 -1 595.54 45.9
-5 -11 -1 212.58 22.1
-5 -11 -1 251.87 23.6
-5 -11 -1 176.18 32.3
11 5 1 284.37 22.9
5 11 1 239.78 22.6
-11 -5 -1 242.78 24.5
-11 -5 -1 296.27 23.3
-6 -12 -1 134.59 14.7
-6 -12 -1 138.19 13.7
12 6 1 126.19 13.5
-12 -6 -1 133.99 15.4
6 12 1 140.09 13.7
-12 -6 -1 155.18 14.1
13 7 1 -4.6 3.5
-7 -13 -1 -5.5 4.5
-7 -13 -1 -10.2 5.9
7 13 1 -3.9 4.5
-13 -7 -1 -8.7 7.4
-13 -7 -1 -4.9 3.6
-8 -14 -1 20.7 4.8
-8 -14 -1 22.4 6.5
14 8 1 12.6 5.9
-14 -8 -1 20.8 6.6
-9 -15 -1 76.59 10.3
-9 -15 -1 72.29 10.4
15 9 1 61.39 8.8
-15 -9 -1 73.59 10.6
9 15 1 63.79 8.8
-10 -16 -1 36.2 7.8
16 9 -1 4.6 5.5
-9 -16 1 3.4 4.7
-9 -16 1 6.4 6.3
-16 -9 1 9.6 8.8
-16 -9 1 -6.6 5.3
-8 -15 1 4.2 5.9
15 8 -1 5.7 5.6
-8 -15 1 17.2 6.2
8 15 -1 13.2 4.9
-15 -8 1 21.5 6.9
14 7 -1 -2.2 6.3
-7 -14 1 -0.7 5.2
7 14 -1 -6.4 3.8
-14 -7 1 -1.8 7.3
-14 -7 1 -11 5.2
-6 -13 1 6 4.7
13 6 -1 13.5 4.1
-13 -6 1 16.4 6.7
-13 -6 1 14.1 5.2
6 13 -1 6.8 3.3
-5 -12 1 -1.5 4.6
12 5 -1 3.3 4.4
-5 -12 1 8.6 3.6
5 12 -1 -4.9 4.4
-12 -5 1 11.6 5.4
-12 -5 1 7.6 5
11 4 -1 110.29 12.4
-4 -11 1 136.49 12.9
-4 -11 1 119.59 12.6
4 11 -1 113.59 11.8
-11 -4 1 145.59 13.1
-11 -4 1 113.29 12.8
-3 -10 1 38 5.4
-3 -10 1 39.5 18.1
-3 -10 1 49.8 6.2
10 3 -1 47.1 5.9
3 10 -1 37.2 8
-10 -3 1 32.6 6.6
-10 -3 1 46.2 6.9
9 2 -1 20.3 15
-2 -9 1 49.2 5.2
-2 -9 1 31.1 14
9 2 -1 31.5 4.9
-2 -9 1 44.4 5
2 9 -1 56.79 17.2
-9 -2 1 37.9 16.7
2 9 -1 41.2 4.8
-9 -2 1 36.5 6.1
-1 -8 1 19.3 3
-1 -8 1 17.7 10.6
1 8 -1 9.2 11.1
-8 -1 1 14.5 3.9
1 8 -1 15.5 2.8
-8 -1 1 9 9.2
0 -7 1 -0.8 7.9
7 0 -1 2.2 2.2
7 0 -1 -0.1 9.4
0 -7 1 -0.5 1.9
0 -7 1 2.4 1.9
-7 0 1 -3.6 9.2
-7 0 1 3.8 2.4
0 7 -1 3.3 1.9
0 7 -1 -1.9 6.5
6 -1 -1 318.07 33.1
1 -6 1 341.17 32.3
6 -1 -1 350.86 29.9
1 -6 1 332.37 30
-1 6 -1 404.66 33.9
-6 1 1 312.57 29
-6 1 1 412.46 34.6
5 -2 -1 39 9.2
2 -5 1 41.4 5
2 -5 1 48.7 18.1
5 -2 -1 53.99 5.1
2 -5 1 37.3 18.1
-2 5 -1 58.49 15
-5 2 1 53.19 9.8
-5 2 1 53.19 4.9
-2 5 -1 54.49 17.1
-5 2 1 56.49 5.1
-2 5 -1 44.1 5.1
3 -4 1 25.3 7.7
3 -4 1 24 2.6
4 -3 -1 19.5 2.5
-4 3 1 16 2.1
-3 4 -1 20.1 6.9
-4 3 1 16.8 6.7
-3 4 -1 17.9 2.3
-4 3 1 7.6 4.6
3 -4 -1 17.3 2.1
4 -3 1 4.6 5.1
3 -4 -1 17.8 6.7
-4 3 -1 18 6.6
-4 3 -1 12.3 1.9
-3 4 1 4.6 5
-4 3 -1 34.3 8.4
-4 3 -1 14.4 2
-3 4 1 13.8 2
5 -2 1 54.49 5.5
2 -5 -1 39.5 15.4
5 -2 1 54.69 10.4
-2 5 1 58.39 12.6
-5 2 -1 57.39 5.5
-5 2 -1 63.39 6
-2 5 1 50.79 26.3
-5 2 -1 44.2 10.1
1 -6 -1 297.57 29.8
6 -1 1 395.46 29.6
1 -6 -1 299.27 33.1
-1 6 1 401.86 32.9
-6 1 -1 394.66 29.3
-6 1 -1 304.17 32.2
-6 1 -1 310.07 29.2
7 0 1 0.9 1.5
0 -7 -1 6.1 9.3
7 0 1 -0.5 10.2
7 0 1 0.2 2.1
0 7 1 0.4 8.6
0 7 1 6.2 2.4
-7 0 -1 2.8 3.6
-7 0 -1 6 9.4
8 1 1 15.6 12.2
-1 -8 -1 11.5 2.3
-1 -8 -1 8.8 8.2
-1 -8 -1 17.5 2.9
8 1 1 15.5 2.7
1 8 1 15.6 3
-8 -1 -1 12.3 12
-8 -1 -1 14.7 3.2
-8 -1 -1 16.4 3.8
1 8 1 14.6 11
-2 -9 -1 29.9 4
9 2 1 31.4 15.1
-2 -9 -1 19 10.7
-2 -9 -1 27.3 3.8
2 9 1 48.9 14.7
-9 -2 -1 30.5 5.4
-9 -2 -1 15.7 14.8
-3 -10 -1 40.7 6.9
10 3 1 48.6 6.9
-3 -10 -1 39.2 6.3
10 3 1 30.8 14.3
-10 -3 -1 38.4 7.7
3 10 1 26.9 18.5
-10 -3 -1 47.5 8.4
3 10 1 43.3 9.9
-10 -3 -1 17.1 19.1
-4 -11 -1 104.39 11.9
-4 -11 -1 119.99 12.3
11 4 1 108.39 11.8
-4 -11 -1 82.39 21.4
-11 -4 -1 111.79 11.4
-11 -4 -1 106.09 24.5
4 11 1 125.19 12.2
-11 -4 -1 112.99 13.2
-5 -12 -1 12.2 5.5
-5 -12 -1 6.1 4.8
12 5 1 8.7 3.8
-12 -5 -1 13.5 4.1
-12 -5 -1 26.3 7.9
-6 -13 -1 17.7 4.6
13 6 1 9.6 4
-6 -13 -1 4.4 3.9
-13 -6 -1 8 3.8
-13 -6 -1 13.1 8.1
-7 -14 -1 -0.1 5.2
-7 -14 -1 -11.4 5.2
14 7 1 -8.6 6.7
-14 -7 -1 -2.6 6.4
7 14 1 -0.2 3.9
-14 -7 -1 -6.4 8.2
-8 -15 -1 3.7 6
15 8 1 4.7 5.8
8 15 1 8.7 5.4
-15 -8 -1 26.4 10.2
16 9 1 4.8 4.9
-9 -16 -1 11.1 6.2
-16 -9 -1 6.9 5
9 16 1 8.5 6.5
-16 -9 -1 4.7 10.2
-9 -17 1 13.7 6.3
-9 -17 1 16 5.6
-17 -9 1 18.8 9.3
-8 -16 1 13.2 6.2
-8 -16 1 4.8 4.3
16 8 -1 6.8 5.3
8 16 -1 -4.1 5.6
-16 -8 1 -3.9 7
-16 -8 1 0.2 8.1
-7 -15 1 -3.2 5.4
15 7 -1 4.2 5.7
-7 -15 1 -2.1 5.2
-15 -7 1 -10 7.7
7 15 -1 -2.9 4.9
-15 -7 1 0.8 6
-6 -14 1 15.7 5.5
-6 -14 1 20 5.5
-14 -6 1 29.6 8
6 14 -1 24.7 5.5
-14 -6 1 28.8 5.4
-5 -13 1 94.29 10.2
13 5 -1 94.09 10.2
-5 -13 1 89.69 9.9
5 13 -1 109.49 10.5
-13 -5 1 96.99 10.3
-13 -5 1 99.79 12.1
12 4 -1 81.69 9.1
-4 -12 1 97.89 9.7
-4 -12 1 89.39 9.5
-12 -4 1 81.19 10.2
-12 -4 1 88.19 9.3
4 12 -1 85.09 9.3
-3 -11 1 -2.4 3.9
3 11 -1 -6.2 3.9
-11 -3 1 -4.6 4.7
-11 -3 1 -5 5.9
-2 -10 1 -1.4 2.8
-2 -10 1 -3.9 14.3
-2 -10 1 -0.9 2
10 2 -1 -1 8.2
-10 -2 1 -2.7 8.9
-10 -2 1 9.6 4.4
-10 -2 1 -14.8 24.1
-1 -9 1 117.19 11.2
9 1 -1 135.59 21.8
-1 -9 1 112.79 11.3
-1 -9 1 116.89 20
-9 -1 1 103.59 19.3
-9 -1 1 131.89 12.5
1 9 -1 164.68 23
1 9 -1 128.39 11.2
8 0 -1 165.38 21.8
0 -8 1 157.88 20
0 -8 1 130.99 12.5
0 8 -1 136.09 12.5
0 8 -1 174.38 21.7
-8 0 1 164.28 21.7
7 -1 -1 221.28 18.2
1 -7 1 197.58 23.1
1 -7 1 213.68 17.9
-7 1 1 217.28 18.9
-1 7 -1 172.08 22.3
-7 1 1 228.18 25.4
-1 7 -1 211.28 17.9
-7 1 1 224.08 18.3
2 -6 1 73.39 6.5
2 -6 1 57.29 6.8
6 -2 -1 72.79 6.7
2 -6 1 68.49 11.6
6 -2 -1 51.29 10.9
-2 6 -1 80.69 13.6
-6 2 1 66.49 12.4
-6 2 1 70.79 6.6
-2 6 -1 71.29 6.4
-6 2 1 73.89 7
3 -5 1 26.8 3.3
3 -5 1 18.7 7.5
5 -3 -1 35.8 9.2
5 -3 -1 20 2.8
-5 3 1 23 2.8
-5 3 1 34.7 8.8
-3 5 -1 14 6.2
-3 5 -1 22.6 2.7
-5 3 1 26.6 2.9
-3 5 -1 18.7 2.5
-5 3 1 19.9 6.8
4 -4 1 145.69 12
4 -4 -1 131.49 11.9
-4 4 1 129.89 16.6
-4 4 1 155.58 16.8
-4 4 -1 111.49 15.9
-4 4 -1 144.19 17.7
-4 4 -1 142.29 12
-4 4 -1 143.59 12.1
5 -3 1 26.3 3
5 -3 1 33.7 10
5 -3 1 18.8 2.4
-5 3 -1 26.8 9.6
-5 3 -1 23.7 2.9
-3 5 1 21.8 2.8
-5 3 -1 25.2 3.1
-3 5 1 11.6 5.4
6 -2 1 65.89 6.4
2 -6 -1 64.39 11.5
2 -6 -1 68.19 6.4
6 -2 1 52.09 12
6 -2 1 59.69 6.1
-6 2 -1 59.69 11.3
-2 6 1 62.59 11.6
-2 6 1 70.09 6.4
-6 2 -1 76.89 7.1
-6 2 -1 74.19 6.5
1 -7 -1 141.69 13.9
7 -1 1 161.78 14
7 -1 1 152.88 14.2
1 -7 -1 160.48 19.8
-1 7 1 193.38 20
-7 1 -1 189.68 15.2
-7 1 -1 164.48 14.1
8 0 1 113.19 18.7
8 0 1 155.88 12.2
0 -8 -1 152.08 21.1
0 -8 -1 129.69 12
-8 0 -1 130.09 18.7
0 8 1 133.89 12.1
0 8 1 164.98 20.1
-8 0 -1 144.59 12.2
-8 0 -1 115.29 12.9
-1 -9 -1 85.99 17.2
9 1 1 120.79 10.6
9 1 1 108.79 20.7
-1 -9 -1 98.49 10.2
-1 -9 -1 116.69 10.6
-9 -1 -1 97.49 20.2
1 9 1 127.89 10.6
-9 -1 -1 112.69 10.7
-9 -1 -1 112.39 12
1 9 1 102.59 18.9
10 2 1 2.7 50.59
-2 -10 -1 -22.9 16.7
-2 -10 -1 -1.4 2.9
-2 -10 -1 -0.2 2.8
10 2 1 -2.3 7.5
2 10 1 -2.3 13.5
2 10 1 -1.2 2.2
-10 -2 -1 -22.3 16.8
-10 -2 -1 -0.9 14.2
-10 -2 -1 0 3.6
-3 -11 -1 0.5 3.9
-3 -11 -1 -7.9 14.4
-11 -3 -1 -32.7 22.1
-11 -3 -1 -2.9 6.1
3 11 1 -9.1 14.1
-4 -12 -1 95.19 10.4
-4 -12 -1 99.89 10.2
12 4 1 92.29 9.9
-12 -4 -1 101.19 12.7
4 12 1 82.59 9.4
-12 -4 -1 91.99 10.1
-5 -13 -1 91.09 9.9
13 5 1 85.79 10.2
-5 -13 -1 83.99 10.4
-13 -5 -1 95.09 9.9
5 13 1 100.29 10.3
-13 -5 -1 93.89 13.1
-6 -14 -1 21.5 6.3
-6 -14 -1 23.4 6.2
14 6 1 21.4 5.9
-14 -6 -1 24.7 5.7
-14 -6 -1 23.8 7.3
15 7 1 2.3 5.5
-7 -15 -1 -6.7 5.3
7 15 1 -6.1 5.8
-15 -7 -1 8 5.9
-15 -7 -1 6.2 8.9
16 8 1 -1.3 5.2
-8 -16 -1 1.8 5.8
-16 -8 -1 3.4 8.8
8 16 1 -7.4 6.4
-16 -8 -1 -2.4 6.5
-9 -17 -1 16.1 5.2
17 9 1 -4.1 6.3
9 17 1 5.3 6.1
-17 -9 -1 19.5 11.3
-8 -17 1 -8.5 4.6
-8 -17 1 8.9 4.6
-17 -8 1 7.3 6.9
-17 -8 1 1.7 8.1
8 17 -1 8.8 5.6
-7 -16 1 59.79 9.1
-7 -16 1 75.49 9.1
16 7 -1 82.39 10.4
-16 -7 1 78.19 10.6
7 16 -1 69.19 9.2
-6 -15 1 5.1 4.2
-6 -15 1 -2.5 3.9
6 15 -1 1.4 5.7
-15 -6 1 7.7 8.3
-5 -14 1 -4.4 4.1
-5 -14 1 -0.9 3.7
14 5 -1 1.7 4.4
-14 -5 1 -4.4 4.8
5 14 -1 1.2 2.8
-14 -5 1 0.1 3.8
13 4 -1 12 4.7
-4 -13 1 10.2 4.4
-4 -13 1 10 4.5
-13 -4 1 9.5 3.8
-3 -12 1 13.6 4
-3 -12 1 12.9 4.5
-12 -3 1 11.9 5.1
-12 -3 1 15.5 5
11 2 -1 226.88 21.7
-2 -11 1 258.87 21.7
-2 -11 1 250.97 22
-11 -2 1 244.38 21.9
2 11 -1 251.47 21.6
-11 -2 1 261.47 23.3
10 1 -1 118.99 80.89
-1 -10 1 9.6 59.09
10 1 -1 221.88 98.79
-1 -10 1 -20.7 72.39
1 10 -1 -8.1 57.79
-10 -1 1 95.69 25.3
-10 -1 1 73.49 117.69
0 -9 1 0.6 2.9
9 0 -1 4.3 3.3
0 -9 1 4.7 11.1
9 0 -1 -5.8 10.8
0 -9 1 3.4 2.7
0 9 -1 0.6 2.7
-9 0 1 7.9 3.2
0 9 -1 1.2 12.1
-9 0 1 0.6 3.3
-9 0 1 12.4 12.7
8 -1 -1 9.8 8.8
1 -8 1 -3.8 9.2
1 -8 1 12.8 2.7
8 -1 -1 14.4 2.9
-1 8 -1 11.9 2.5
-1 8 -1 5.3 8.6
-8 1 1 22.6 11.6
-8 1 1 15.5 3
-8 1 1 15.9 3.3
7 -2 -1 84.79 15.2
7 -2 -1 128.39 10.1
2 -7 1 113.19 9.9
2 -7 1 116.49 16
-2 7 -1 102.49 9.8
-7 2 1 115.49 17.3
-7 2 1 111.49 9.9
-2 7 -1 106.39 9.9
-2 7 -1 103.79 16.9
6 -3 -1 184.08 21.7
3 -6 1 187.78 15.9
6 -3 -1 182.08 16
3 -6 1 186.18 21.2
3 -6 1 205.08 16.5
-3 6 -1 173.68 15.9
-6 3 1 200.08 22.9
-6 3 1 189.78 16.2
-3 6 -1 162.28 21.2
-6 3 1 187.48 15.9
4 -5 1 1.2 2
5 -4 -1 7.4 2.7
4 -5 1 0.4 1.4
4 -5 1 4.6 6.1
-4 5 -1 3.5 1.7
-5 4 1 1.2 7.1
-4 5 -1 -1.6 7.3
-4 5 -1 13.2 8
-5 4 1 3.5 1.3
-5 4 1 -2.8 7.2
5 -4 1 4.9 8.6
4 -5 -1 -1.7 7.7
5 -4 1 5.7 33.6
-4 5 1 1.6 1.4
-5 4 -1 11.5 10.2
-5 4 -1 2.9 2.7
-4 5 1 -6.3 6.9
-5 4 -1 -1.4 8.6
-5 4 -1 7.3 9.9
-4 5 1 -1.8 7.1
3 -6 -1 151.58 18.7
3 -6 -1 157.58 12.9
6 -3 1 160.68 19.7
6 -3 1 142.29 12.9
-6 3 -1 183.38 21.1
-6 3 -1 128.59 12.8
-3 6 1 172.28 19.1
-6 3 -1 146.89 13.3
7 -2 1 109.09 9.6
2 -7 -1 117.59 16.2
7 -2 1 107.69 9.4
-2 7 1 88.29 9.3
-7 2 -1 118.59 17.2
-7 2 -1 113.49 9.6
1 -8 -1 16.2 2.2
1 -8 -1 36.2 12.1
8 -1 1 19.3 13.3
8 -1 1 18.8 2.8
8 -1 1 18.9 2.8
1 -8 -1 14.1 2.6
-8 1 -1 13.2 2.5
-8 1 -1 17.5 3.9
-8 1 -1 16.5 11
9 0 1 3.6 2.8
0 -9 -1 1.9 2.4
0 -9 -1 -1.6 11.8
-9 0 -1 -4.4 12.1
0 9 1 8.5 10.8
0 9 1 1.5 2.5
-9 0 -1 -2.8 3
10 1 1 142.89 148.39
-1 -10 -1 6.6 46.7
-1 -10 -1 -13.1 36.2
1 10 1 0.1 56.69
1 10 1 -2.2 59.79
-10 -1 -1 -7.6 64.29
-2 -11 -1 218.98 33.7
-2 -11 -1 247.38 21.2
11 2 1 261.37 21.2
-2 -11 -1 245.88 21.1
-11 -2 -1 257.97 21.2
-11 -2 -1 182.68 30.6
-11 -2 -1 209.08 22.2
2 11 1 212.38 31.7
-3 -12 -1 -15 22
-3 -12 -1 9.2 4.6
12 3 1 10.4 4.7
-12 -3 -1 18.8 6.6
-12 -3 -1 10.9 5
3 12 1 14.4 3.6
13 4 1 4 4.6
-4 -13 -1 3.8 4.8
-13 -4 -1 3.9 4.7
-13 -4 -1 2.5 5.6
4 13 1 7.4 4.7
-5 -14 -1 0.2 3.7
14 5 1 -8.3 4.9
-14 -5 -1 -1.8 4.4
5 14 1 -2.8 3.4
-14 -5 -1 -4.5 5.6
15 6 1 4.2 7.1
-15 -6 -1 -0.8 9.4
6 15 1 -5.4 6.6
-15 -6 -1 6.6 6.6
-7 -16 -1 75.79 9.1
16 7 1 71.79 10.1
7 16 1 78.79 10.1
-16 -7 -1 60.19 12.4
-16 -7 -1 79.49 10.4
17 8 1 -6.2 4.6
-8 -17 -1 3.4 4.4
-17 -8 -1 -7.6 6.4
-17 -8 -1 -10.2 10
8 17 1 -0.6 5.4
-7 -17 1 10.6 4.3
-7 -17 1 12.9 4.5
-17 -7 1 7.1 6.7
-17 -7 1 17.6 6.7
7 17 -1 9.1 4.9
-6 -16 1 5.9 3.8
16 6 -1 11.9 6.5
6 16 -1 13.3 4.3
15 5 -1 294.97 26.5
-5 -15 1 282.97 26.2
-5 -15 1 318.37 26.1
-15 -5 1 292.17 26.2
5 15 -1 282.17 25.5
-15 -5 1 263.07 27.5
14 4 -1 59.69 7.9
-4 -14 1 61.39 7.4
-4 -14 1 44.9 6.7
-14 -4 1 53.29 7.2
-14 -4 1 53.29 8.2
4 14 -1 52.49 6.8
-3 -13 1 4.2 4.3
3 13 -1 9.7 4
-2 -12 1 59.09 7.2
-2 -12 1 63.89 7.1
12 2 -1 61.99 7.2
-12 -2 1 63.89 7.9
2 12 -1 50.79 6.9
-12 -2 1 72.79 8.8
11 1 -1 71.39 8.1
-1 -11 1 54.29 7
-1 -11 1 80.19 7.9
-11 -1 1 74.89 8.3
-11 -1 1 68.49 8.4
1 11 -1 59.09 7.3
0 -10 1 1641.24 144.39
0 -10 1 1625.14 171.08
10 0 -1 1412.16 150.48
10 0 -1 1831.42 158.48
-10 0 1 1674.43 158.88
-10 0 1 1598.44 158.88
0 10 -1 1601.04 135.89
9 -1 -1 95.19 19.7
1 -9 1 85.69 16.5
1 -9 1 99.99 9.4
9 -1 -1 106.19 9.8
-9 1 1 100.49 9.7
-1 9 -1 110.59 9.4
-9 1 1 87.59 18.5
-1 9 -1 97.39 17.9
8 -2 -1 7.4 10.5
2 -8 1 -0.1 4.6
8 -2 -1 -13 25
2 -8 1 -6.1 6.5
-8 2 1 -0.2 21.8
-2 8 -1 -4.5 9.7
-8 2 1 -0.5 12.2
-8 2 1 -3.9 3
-2 8 -1 -1.6 12.1
3 -7 1 34.1 4
3 -7 1 37.5 4.4
7 -3 -1 31.5 4.1
3 -7 1 34.4 10.4
-7 3 1 43.2 4.4
-3 7 -1 29.1 3.8
-3 7 -1 24.8 8.9
-7 3 1 30.3 9.5
-3 7 -1 36.6 3.8
-7 3 1 39.6 4.4
4 -6 1 102.89 9.9
6 -4 -1 135.19 63.79
4 -6 1 107.19 10.2
4 -6 1 92.89 15.3
-4 6 -1 134.29 17.7
-6 4 1 132.89 56.39
-4 6 -1 125.39 10.1
-4 6 -1 121.39 10.1
-6 4 1 166.78 92.39
-6 4 1 80.99 21.8
5 -5 1 2487.65 309.67
-5 5 1 2235.78 231.98
-5 5 -1 2236.08 219.88
-5 5 -1 2639.14 291.97
-5 5 -1 2464.25 258.97
-5 5 -1 2702.33 255.37
-5 5 1 2109.29 244.38
4 -6 -1 103.69 9.1
6 -4 1 93.09 21.1
4 -6 -1 108.59 16.3
6 -4 1 90.89 8.7
-4 6 1 85.49 14.6
-6 4 -1 121.29 26.4
-6 4 -1 136.79 68.39
-6 4 -1 132.59 25
-6 4 -1 142.39 74.89
7 -3 1 33.2 4.1
3 -7 -1 25.1 3.4
3 -7 -1 37.9 10.2
-7 3 -1 30.6 3.8
-7 3 -1 28.7 3.5
-3 7 1 30.5 3.7
-3 7 1 21.1 9.6
-7 3 -1 37.5 11.5
8 -2 1 25 37.6
2 -8 -1 -13.9 11.2
8 -2 1 11.1 34.5
2 -8 -1 -2.1 9.6
2 -8 -1 1.5 0.7
8 -2 1 4.6 26.1
-8 2 -1 1.7 13.2
-2 8 1 -1.1 14.6
-8 2 -1 5.6 29.2
-2 8 1 -9.9 12.1
-8 2 -1 0.9 20.7
1 -9 -1 81.49 8
9 -1 1 106.99 8.8
1 -9 -1 99.89 18.8
9 -1 1 82.99 8.7
-1 9 1 67.39 13.9
-9 1 -1 128.29 19.5
-1 9 1 87.69 8.5
-9 1 -1 102.19 9.6
-9 1 -1 90.29 8.6
0 -10 -1 1169.28 142.89
10 0 1 1428.86 119.99
0 -10 -1 1244.88 110.69
-10 0 -1 1310.57 114.29
-10 0 -1 1228.18 123.19
-1 -11 -1 6.4 14.5
11 1 1 36.5 5.1
-1 -11 -1 49.1 6.1
11 1 1 53.89 19.2
-11 -1 -1 38.4 5.8
-11 -1 -1 40.8 7.3
-11 -1 -1 12.2 19.3
-2 -12 -1 51.49 6.7
-2 -12 -1 54.39 6.3
12 2 1 46.8 6.2
-2 -12 -1 49.7 23.6
-12 -2 -1 44 7.5
2 12 1 62.49 6.7
-12 -2 -1 52.39 6.5
13 3 1 16.6 5.1
-3 -13 -1 4.4 4.4
-13 -3 -1 11.2 5.4
3 13 1 9.2 4.2
-13 -3 -1 14.4 5.8
-4 -14 -1 56.49 7.6
14 4 1 57.29 7.8
-14 -4 -1 66.99 10.7
4 14 1 67.29 7.8
-14 -4 -1 56.89 7.9
-5 -15 -1 323.77 27.4
15 5 1 311.47 27.6
-15 -5 -1 314.07 30.7
-15 -5 -1 278.07 27.1
5 15 1 299.97 27.2
16 6 1 3.5 5.5
-6 -16 -1 -3.1 4.9
-16 -6 -1 9.3 5.6
-16 -6 -1 -4.9 7.8
17 7 1 12 6.3
-7 -17 -1 5.6 5
-17 -7 -1 8.6 9.8
-17 -7 -1 8.1 6.4
7 17 1 12.4 4.5
-6 -17 1 20.5 6.3
17 6 -1 29.4 7.2
-17 -6 1 24 6.7
16 5 -1 -2.3 4.8
-5 -16 1 4.3 4.8
-5 -16 1 -0.1 5
-16 -5 1 -5.4 4.4
5 16 -1 1.8 4.6
-16 -5 1 0.9 7.4
15 4 -1 -5.1 4.9
-4 -15 1 -0.2 5.7
-15 -4 1 1.4 4.5
4 15 -1 4.6 5.3
-15 -4 1 -2.6 6.4
-3 -14 1 39.1 5.9
-3 -14 1 37.7 6.2
14 3 -1 26.7 6.3
-14 -3 1 30.2 6.2
3 14 -1 33.2 5.7
-14 -3 1 35.4 7.4
-2 -13 1 152.98 14.9
13 2 -1 179.08 15.7
-2 -13 1 156.08 15
-13 -2 1 161.88 15.7
-13 -2 1 153.38 16.3
2 13 -1 149.09 14.7
-1 -12 1 49.2 6.8
-1 -12 1 60.59 6.9
12 1 -1 73.69 8.2
-12 -1 1 72.99 8.3
-12 -1 1 65.69 8.5
1 12 -1 63.29 7.1
0 -11 1 -2.2 3.2
11 0 -1 0.4 4.1
-11 0 1 -0.2 3.9
0 11 -1 -0.1 3.6
-11 0 1 9.8 4.4
10 -1 -1 -8.2 49.5
1 -10 1 25.9 53.99
10 -1 -1 1.8 33.9
1 -10 1 4.9 46.5
-10 1 1 8.4 64.19
-1 10 -1 195.28 89.09
-10 1 1 13.8 62.09
9 -2 -1 46 16.2
2 -9 1 39.4 4.6
9 -2 -1 35.2 4.6
2 -9 1 28.1 9.5
-2 9 -1 40.5 4.7
-9 2 1 34.9 4.7
-9 2 1 35 4.5
-9 2 1 35.2 14.3
-2 9 -1 46.9 14.8
8 -3 -1 786.62 65.49
3 -8 1 814.92 64.79
3 -8 1 748.03 63.79
8 -3 -1 715.73 68.39
-3 8 -1 603.54 60.09
-8 3 1 750.32 67.09
-3 8 -1 643.44 63.29
-8 3 1 698.53 65.69
-3 8 -1 679.03 66.89
7 -4 -1 0 9.2
7 -4 -1 14.6 3
4 -7 1 11.5 11.3
4 -7 1 -2.3 10.5
4 -7 1 13.2 3.1
-4 7 -1 8.5 4.7
-7 4 1 12.9 2.6
-4 7 -1 16.8 9.9
-7 4 1 13.3 2.4
-4 7 -1 8.4 3.1
-7 4 1 12 9.3
-7 4 1 22.3 11.4
5 -6 1 6.7 2.7
5 -6 1 5.2 2.1
-6 5 1 8.9 2
-6 5 1 -4.5 6.8
-5 6 -1 -6.7 9.8
-6 5 1 29.5 12.1
-5 6 -1 3.9 1.9
-5 6 -1 4.4 2.1
-5 6 -1 -1.5 6.9
5 -6 -1 2.5 7.2
6 -5 1 6.8 1.8
-6 5 -1 8.3 2.1
-5 6 1 14.2 9.4
-6 5 -1 4.2 13
-6 5 -1 8.4 11
-5 6 1 -0.2 2.4
-6 5 -1 5.2 7.9
-5 6 1 -6.4 6.8
7 -4 1 6.4 2.5
7 -4 1 8.7 11.4
4 -7 -1 6 7.8
7 -4 1 8.4 1.5
4 -7 -1 3.7 4.4
-7 4 -1 7.4 1.9
-7 4 -1 17.5 12.4
-4 7 1 1.1 9.3
-7 4 -1 14.7 11.6
-4 7 1 11.8 2.5
3 -8 -1 740.53 64.39
8 -3 1 616.34 68.69
8 -3 1 762.52 66.29
8 -3 1 597.24 62.49
3 -8 -1 752.42 64.59
-3 8 1 807.32 64.99
-8 3 -1 768.62 65.79
-8 3 -1 783.52 65.39
-8 3 -1 630.54 61.49
9 -2 1 30.2 4
2 -9 -1 46.2 14.1
9 -2 1 25.6 16.8
9 -2 1 25.9 3.2
-2 9 1 29.8 9.5
-9 2 -1 30.7 5
-9 2 -1 20.6 3.7
-9 2 -1 11.8 12.3
10 -1 1 0.3 78.89
10 -1 1 6 2.3
10 -1 1 1.3 34.2
-10 1 -1 -7.7 63.89
-10 1 -1 9.7 69.39
-10 1 -1 3.7 4.3
11 0 1 3.7 3.7
0 -11 -1 25 19.3
0 -11 -1 2.9 2.3
0 -11 -1 -0.9 4.3
11 0 1 -22.1 23.6
-11 0 -1 4.4 3.6
-11 0 -1 -14 16.8
0 11 1 0.5 3.9
0 11 1 0.9 15.2
-11 0 -1 -1 4.3
-1 -12 -1 47.1 6.7
-1 -12 -1 29 20.2
1 12 1 51.79 6.7
-12 -1 -1 55.99 7.3
-12 -1 -1 61.89 8.8
13 2 1 162.48 15
-2 -13 -1 158.48 15
2 13 1 157.68 14.9
-13 -2 -1 157.88 15.2
-13 -2 -1 147.69 16.8
-3 -14 -1 32.7 6.1
14 3 1 33.6 6.1
-14 -3 -1 24.7 6.1
3 14 1 38.9 6.1
-14 -3 -1 44.5 8.8
-4 -15 -1 2.3 4.1
15 4 1 -1.4 4.8
4 15 1 -1.5 6.2
-15 -4 -1 -3.6 4.4
-15 -4 -1 1.1 7.8
16 5 1 4.8 4
-5 -16 -1 3 4.8
5 16 1 -5.3 5
-16 -5 -1 8.8 7.6
-16 -5 -1 4.4 4.2
17 6 1 20.6 6.3
-17 -6 -1 22.8 5.5
-17 -6 -1 32.4 10.5
6 17 1 26.3 6.1
-6 -18 1 28.9 6.9
-5 -17 1 14.6 6.3
17 5 -1 27.5 5.9
5 17 -1 17.4 6.2
-17 -5 1 36.3 9.1
-17 -5 1 26.6 6.3
-4 -16 1 19 4.8
16 4 -1 17.5 5.3
4 16 -1 25.2 5.9
-16 -4 1 17.7 6.2
-3 -15 1 14.1 4.9
-3 -15 1 6.2 4.9
15 3 -1 9.5 4.7
-15 -3 1 1.2 6.3
3 15 -1 10.2 4.6
-2 -14 1 -1.3 3.5
-2 -14 1 -9.6 4.4
14 2 -1 -11.7 5.1
2 14 -1 -2.1 3.5
-14 -2 1 -9.7 5.5
13 1 -1 63.79 8.1
-1 -13 1 68.59 7.8
-1 -13 1 86.89 8.7
-13 -1 1 71.29 8.6
-13 -1 1 62.79 9.1
1 13 -1 82.29 8.4
0 -12 1 111.79 10.2
12 0 -1 108.19 10.6
0 -12 1 91.99 9.8
-12 0 1 95.89 11
0 12 -1 92.69 9.6
-12 0 1 114.59 10.9
11 -1 -1 36.4 5.4
1 -11 1 48.2 5.4
-1 11 -1 38.5 4.7
-11 1 1 42.1 5.3
-11 1 1 36.9 5.6
10 -2 -1 -1.2 2.8
2 -10 1 -5.6 2.9
2 -10 1 -15.7 12.7
-2 10 -1 -1.7 2.7
-10 2 1 -10.4 14.6
-10 2 1 1.2 2.1
3 -9 1 1.9 7.3
9 -3 -1 1.2 2.6
9 -3 -1 -8.2 13.7
3 -9 1 1.1 2.1
3 -9 1 2.3 2.1
-9 3 1 5 2.7
-3 9 -1 1 1.6
-3 9 -1 1.4 2.1
-3 9 -1 7.8 12.5
-9 3 1 -5.7 11.9
-9 3 1 0 2
4 -8 1 44.6 13.4
8 -4 -1 77.69 16.5
8 -4 -1 54.69 10
4 -8 1 73.89 17.8
4 -8 1 65.19 6.8
-4 8 -1 56.79 14.3
-8 4 1 72.59 11.2
-4 8 -1 61.89 18.1
-4 8 -1 39.8 16.8
-8 4 1 71.39 6.8
-8 4 1 48.3 12.7
5 -7 1 15.4 11.3
5 -7 1 34.5 4.1
-5 7 -1 34.7 4
-5 7 -1 11.5 11.1
-7 5 1 43.3 12.3
-7 5 1 29 3.8
-7 5 1 30.9 3.7
-7 5 1 27.1 10.2
-5 7 -1 40.4 12.6
-5 7 -1 31.3 3.8
6 -6 1 12.1 2.8
6 -6 -1 11.9 2.4
-6 6 1 27.6 9.2
-6 6 -1 15.9 2.4
-6 6 -1 32.2 11.6
-6 6 1 14.3 2
-6 6 -1 9.1 8.5
-6 6 1 1.2 6.5
-6 6 1 16.8 2.7
7 -5 1 30.8 3.4
5 -7 -1 28.5 3.8
5 -7 -1 36.3 13
7 -5 1 34.5 3.9
-7 5 -1 30.8 10.8
-7 5 -1 29.4 3.9
-7 5 -1 34.2 4
-7 5 -1 67.19 16.5
-5 7 1 29.2 11.8
-5 7 1 30.3 9.2
8 -4 1 62.79 17
4 -8 -1 66.09 17.7
8 -4 1 70.19 11.3
4 -8 -1 53.79 15.4
-4 8 1 74.09 14.9
-8 4 -1 62.89 11.9
-8 4 -1 64.09 16.2
-8 4 -1 64.29 7
-4 8 1 61.09 22
3 -9 -1 5.4 8.6
9 -3 1 5 2.5
3 -9 -1 3.4 2.1
9 -3 1 14.5 15.4
-3 9 1 13.1 10.8
-9 3 -1 1.1 3.1
-9 3 -1 16.2 11.5
-9 3 -1 2.2 2.3
2 -10 -1 -0.9 16.5
10 -2 1 0.1 2.7
10 -2 1 -9.3 17.9
2 -10 -1 -13 17.4
-10 2 -1 -0.7 2.8
-2 10 1 7.1 5.8
-10 2 -1 -1.4 2.5
-10 2 -1 -20 14.7
-2 10 1 -3 17.4
1 -11 -1 11.2 18.1
1 -11 -1 32.5 4.5
-1 11 1 29.7 4.3
-1 11 1 11.2 16.1
0 -12 -1 108.39 26.1
12 0 1 101.09 10.2
0 -12 -1 99.29 10.2
-12 0 -1 111.49 12.1
0 12 1 91.99 10
-12 0 -1 118.79 10.7
13 1 1 56.19 7
-1 -13 -1 72.09 8.2
-13 -1 -1 58.39 7.3
-13 -1 -1 63.69 9.5
2 14 1 1.2 3.8
-14 -2 -1 7.9 6.8
-3 -15 -1 14.4 5.5
15 3 1 8.9 4.1
-15 -3 -1 8.4 8.2
3 15 1 9.6 5.3
-15 -3 -1 3.3 4.2
16 4 1 11.1 4.5
-16 -4 -1 12.2 5.6
17 5 1 26 5.4
-5 -17 -1 20.1 6.3
5 17 1 23.4 6.3
-17 -5 -1 16.6 6.4
18 6 1 17.7 5
6 18 1 7.7 5.9
-5 -18 1 -3.6 5.6
-18 -5 1 -1.8 6.9
-18 -5 1 -13.5 7
5 18 -1 5.1 5.3
-4 -17 1 -2.6 3.7
17 4 -1 4.2 6
-17 -4 1 1 5.8
-3 -16 1 79.59 9.7
16 3 -1 78.89 10.1
-16 -3 1 70.99 10.1
-16 -3 1 72.29 10.4
3 16 -1 64.89 9.2
-2 -15 1 21.2 6
15 2 -1 30.3 6.4
-2 -15 1 27.8 5.3
-15 -2 1 31.6 6.3
2 15 -1 19.6 4.5
-15 -2 1 24.3 5.9
-1 -14 1 -2.1 3.3
-14 -1 1 5.4 3.9
0 -13 1 3.6 4.1
13 0 -1 0.9 4.7
0 13 -1 -1 3.7
-13 0 1 3.2 3.5
1 -12 1 69.79 7.1
12 -1 -1 55.49 7.2
-12 1 1 49.99 7.5
-1 12 -1 62.59 6.8
11 -2 -1 232.28 20
2 -11 1 202.58 19.4
-11 2 1 218.68 20.5
-2 11 -1 226.88 19.5
-11 2 1 238.48 19.9
10 -3 -1 31.8 4.9
3 -10 1 33 4.6
3 -10 1 51.69 15.6
-10 3 1 29.6 5.2
-3 10 -1 34.1 4.4
-10 3 1 39.4 7.4
9 -4 -1 15 3.5
4 -9 1 22 12.6
4 -9 1 7.3 2.5
9 -4 -1 4.6 13.4
4 -9 1 9.8 2.7
-9 4 1 14 3.2
-9 4 1 14.4 3.3
-4 9 -1 7 1.9
-4 9 -1 20.5 11.4
-9 4 1 7.1 10.5
-4 9 -1 10.2 2.7
5 -8 1 19.9 3.4
5 -8 1 17.7 3.2
5 -8 1 15.1 12.4
8 -5 -1 21 3.9
-5 8 -1 11.2 9.4
-8 5 1 -2.6 11.6
-8 5 1 5.1 12.5
-5 8 -1 19.5 2.8
-5 8 -1 16.5 2.9
-8 5 1 22.1 3.2
7 -6 -1 161.98 14
6 -7 1 175.08 13.9
-6 7 -1 185.98 13.8
-6 7 -1 154.18 22.5
-6 7 -1 153.58 23.3
-7 6 1 161.08 13.8
-7 6 1 111.19 20.7
-7 6 1 127.79 20.4
-6 7 -1 135.29 13.6
-7 6 1 132.29 13.5
7 -6 1 114.49 12
6 -7 -1 139.09 12.2
7 -6 1 152.78 12.5
-7 6 -1 154.98 23.4
-7 6 -1 118.49 20.4
-6 7 1 138.49 20.2
-6 7 1 148.59 21.6
5 -8 -1 9.8 2.7
8 -5 1 9.1 1.8
5 -8 -1 10.7 9.4
8 -5 1 13 2.7
-5 8 1 15.3 2.8
-8 5 -1 -6 11.5
-5 8 1 28.1 13
-8 5 -1 17.3 15.3
4 -9 -1 12.9 10.2
9 -4 1 1.9 15.9
9 -4 1 3.7 5.8
4 -9 -1 8.2 2.3
9 -4 1 9.6 4.4
-4 9 1 4.7 13
-4 9 1 14.6 3
-9 4 -1 -0.3 13.2
-9 4 -1 12.6 2.6
3 -10 -1 34.5 4.6
3 -10 -1 11.3 15.2
10 -3 1 32.1 21.6
-10 3 -1 32.4 5.9
-10 3 -1 40.5 17.7
-3 10 1 41.9 15.6
-10 3 -1 28.8 4.3
-3 10 1 37.2 4.7
2 -11 -1 162.88 26.6
11 -2 1 221.88 18.8
2 -11 -1 210.38 18.8
-2 11 1 158.48 27.2
-11 2 -1 168.08 28.3
-11 2 -1 220.98 20
-2 11 1 249.28 19
-11 2 -1 218.68 19
1 -12 -1 38.1 21.4
12 -1 1 48.8 5.6
-12 1 -1 40.7 5.2
-12 1 -1 36.8 6.2
0 -13 -1 0.6 4.3
0 13 1 5.5 4.3
-1 -14 -1 -0.3 4.7
1 14 1 1 4.1
-14 -1 -1 3.7 6.5
-2 -15 -1 25 6.9
-15 -2 -1 24.3 5.6
2 15 1 30.2 5.9
-15 -2 -1 41.3 9.3
16 3 1 76.79 9.8
-3 -16 -1 73.79 9.5
-16 -3 -1 79.19 10.1
-16 -3 -1 60.69 11.7
3 16 1 69.99 9.6
-4 -17 -1 1.1 4.6
17 4 1 -1.4 5.2
-17 -4 -1 -0.4 5.5
-17 -4 -1 1.4 6
4 17 1 6.9 3.9
-5 -18 -1 6.2 5.1
18 5 1 1.2 5.9
5 18 1 6.9 5.8
-18 -5 -1 -2 9.4
-18 -5 -1 -7.4 6.3
-4 -18 1 32.5 6.1
-18 -4 1 49.1 9.9
-18 -4 1 33.8 8.3
-3 -17 1 2.3 5
3 17 -1 3.8 4.2
-17 -3 1 0.6 6.6
-17 -3 1 3.5 6.1
16 2 -1 -9.6 7.3
-2 -16 1 0.6 4.5
-16 -2 1 -15.2 7.9
2 16 -1 -3.6 3.8
-16 -2 1 -0.2 6.1
15 1 -1 149.79 14.3
-1 -15 1 127.79 13.3
1 15 -1 122.49 13.1
-15 -1 1 142.19 15.4
-15 -1 1 154.88 14.4
14 0 -1 137.69 13.2
0 -14 1 126.69 12.4
0 14 -1 106.09 11.7
-14 0 1 149.09 13.5
-14 0 1 119.89 13.8
13 -1 -1 70.69 8.1
1 -13 1 50.09 6.5
-1 13 -1 59.69 6.9
-13 1 1 56.59 8.2
-13 1 1 71.49 8
12 -2 -1 47.1 6.3
2 -12 1 41 5.4
-2 12 -1 49 5.9
-12 2 1 51.19 6.4
-12 2 1 52.69 7
11 -3 -1 -4.7 3.3
3 -11 1 -3.1 3.7
-3 11 -1 2.2 3
-11 3 1 -3.9 3.4
-11 3 1 -0.5 3.2
4 -10 1 318.37 41.9
4 -10 1 363.96 33.7
10 -4 -1 457.45 34.8
4 -10 1 456.55 35
-10 4 1 417.16 38
-10 4 1 387.36 34
-4 10 -1 384.16 34.7
5 -9 1 343.97 29.3
9 -5 -1 384.06 29.7
5 -9 1 294.87 29.5
5 -9 1 340.97 39
-9 5 1 354.66 34.1
-5 9 -1 325.87 29
-5 9 -1 351.36 29.5
-9 5 1 366.26 40.4
-9 5 1 392.36 40.4
-9 5 1 332.17 29.2
6 -8 1 15.2 3.7
6 -8 1 18.2 3.3
8 -6 -1 14.2 3.4
-8 6 1 19.1 3.1
-6 8 -1 -1.4 12.9
-6 8 -1 21.2 12
-8 6 1 15.1 13.8
-6 8 -1 15.9 2.8
-6 8 -1 16 3
-8 6 1 1.3 11.2
7 -7 1 104.99 8.8
7 -7 -1 75.79 8.6
7 -7 1 97.29 8.8
-7 7 -1 97.89 8.8
-7 7 1 78.19 15.9
-7 7 1 76.49 8.3
-7 7 -1 97.69 17.2
-7 7 -1 99.39 9
-7 7 -1 71.89 17
-7 7 1 97.29 17.6
-7 7 1 95.39 8.7
8 -6 1 11 2.7
8 -6 1 9.2 2
6 -8 -1 14.6 3.3
6 -8 -1 -21.8 15.7
-6 8 1 -11.3 11.8
-6 8 1 16.6 3.2
-8 6 -1 15.4 3.6
-8 6 -1 15 3.1
-6 8 1 8.8 9.4
-8 6 -1 6.5 12.4
-8 6 -1 11.7 11
5 -9 -1 300.37 29.1
9 -5 1 298.97 28.9
9 -5 1 420.56 44.4
-9 5 -1 351.96 29.5
-9 5 -1 359.86 30.6
-5 9 1 372.06 39.3
-9 5 -1 309.27 37.7
-5 9 1 378.26 29.2
10 -4 1 303.57 30.3
4 -10 -1 400.56 30.9
10 -4 1 342.57 41.5
4 -10 -1 321.87 40.5
-10 4 -1 369.56 30.5
-4 10 1 359.56 40.3
-10 4 -1 335.17 39.5
-10 4 -1 351.06 31.4
-4 10 1 401.66 30.8
3 -11 -1 18.4 18.1
11 -3 1 -9.2 4.4
-11 3 -1 -25.3 18
-11 3 -1 -10.8 4.7
-3 11 1 -4.1 13.6
-11 3 -1 -4.8 4.4
2 -12 -1 50.09 6
2 -12 -1 38.6 17.7
12 -2 1 46.3 6.1
-12 2 -1 51.99 6.8
-2 12 1 51.99 6.3
-12 2 -1 53.09 6.5
1 -13 -1 52.19 6.8
13 -1 1 74.09 7.7
-13 1 -1 64.79 9.1
-1 13 1 52.99 7.2
-13 1 -1 69.79 7.6
14 0 1 133.19 13.3
0 -14 -1 147.79 13.6
0 14 1 139.89 13.2
-14 0 -1 113.79 14.8
-14 0 -1 132.49 13.5
15 1 1 117.49 12.5
-15 -1 -1 130.69 15.5
1 15 1 138.49 12.7
-15 -1 -1 115.49 13.1
16 2 1 -8.5 6.2
-2 -16 -1 -1.3 6.2
-16 -2 -1 -10.7 6.7
-16 -2 -1 -3.7 8.3
2 16 1 -0.6 4.3
17 3 1 7.7 5.3
3 17 1 -0.1 4.9
-17 -3 -1 2.7 5.7
-17 -3 -1 5.3 5.6
-4 -18 -1 27.8 6.3
-18 -4 -1 16.6 6.7
4 18 1 26.4 5.4
3 18 -1 39.2 6
-18 -3 1 34.2 6.9
-18 -3 1 47.6 9.8
-2 -17 1 2.4 3.7
2 17 -1 6.2 4.7
-17 -2 1 7.7 6.9
-1 -16 1 43.1 7.8
16 1 -1 64.19 9.6
-16 -1 1 56.99 9.4
1 16 -1 46.1 7.3
-15 0 1 4.8 5.3
-15 0 1 4.6 5.4
14 -1 -1 -3.1 4.9
-1 14 -1 11.5 3.4
-14 1 1 -2 3.9
-14 1 1 -2 5.1
2 -13 1 108.39 10.7
-2 13 -1 116.59 10.7
-13 2 1 111.39 11.8
3 -12 1 9.6 3.6
12 -3 -1 7.7 4.3
-12 3 1 7.3 4
-3 12 -1 11.1 2.9
-3 12 -1 12.6 2.8
-12 3 1 10.6 3.4
11 -4 -1 59.89 8.1
4 -11 1 81.39 8.3
4 -11 1 80.79 8.3
-11 4 1 86.29 8.9
-4 11 -1 64.39 7.4
-11 4 1 76.39 8.6
-4 11 -1 87.99 8.7
5 -10 1 -2 5.1
5 -10 1 5.2 4
10 -5 -1 -8.5 4.9
-10 5 1 -1.1 2.9
-10 5 1 -2.1 3.4
-5 10 -1 -4.6 5.4
-5 10 -1 -2.6 4.7
-10 5 1 -6.4 12.2
6 -9 1 47.1 5.4
6 -9 1 42.8 14.7
6 -9 1 31.8 4.8
-9 6 1 37.9 5
-6 9 -1 50.99 14.2
-6 9 -1 40 5.5
-9 6 1 28.1 4.7
-6 9 -1 42.1 4.9
7 -8 1 148.79 13.6
7 -8 1 148.39 13.3
8 -7 -1 153.48 13.7
-8 7 1 145.89 25.7
-7 8 -1 144.29 23.7
-7 8 -1 128.59 13.1
-8 7 1 158.48 24.4
-7 8 -1 152.18 13.4
8 -7 1 120.89 10.8
8 -7 1 115.59 10.2
7 -8 -1 117.79 10.9
-7 8 1 113.69 20.2
-8 7 -1 116.59 24
-7 8 1 116.19 21.8
-8 7 -1 106.09 10.5
-8 7 -1 101.49 10.1
-7 8 1 91.69 10.1
6 -9 -1 35 6
6 -9 -1 28.9 19.8
9 -6 1 28.3 3.5
9 -6 1 28.4 4.7
-9 6 -1 38.5 5.1
-6 9 1 28.1 14.8
-9 6 -1 30.6 4.9
-9 6 -1 39.1 17.7
-6 9 1 37.7 5.8
5 -10 -1 -3.3 3.7
5 -10 -1 -14 17.3
10 -5 1 -5.4 6.3
10 -5 1 -0.7 1.6
-10 5 -1 -3.2 3.6
-10 5 -1 1.3 4.1
-10 5 -1 -9.1 12.7
-5 10 1 0.8 2.7
-5 10 1 -3.8 12.2
4 -11 -1 72.19 7.9
4 -11 -1 83.29 22
11 -4 1 76.49 8.9
-11 4 -1 79.09 8.6
-11 4 -1 67.69 7.9
-4 11 1 65.19 20.6
-4 11 1 68.19 7.8
3 -12 -1 2.3 18.6
3 -12 -1 19.4 4.3
-12 3 -1 10.4 4.4
13 -2 1 128.29 12
-13 2 -1 126.39 12.1
-2 13 1 116.49 11.8
-13 2 -1 120.69 13.3
-14 1 -1 1.1 5.4
0 -15 -1 19.1 6.1
-1 -16 -1 35.7 6.4
1 16 1 41.6 7.1
-2 -17 -1 7.5 5
-17 -2 -1 0 3.9
2 17 1 5 3.9
-17 -2 -1 8.5 7.4
18 3 1 30.5 5.8
-18 -3 -1 25.6 5.8
-19 -3 1 6.4 6.9
3 19 -1 -1.2 3.4
-19 -3 1 2.1 6.7
-18 -2 1 6.4 7
-18 -2 1 -8.7 6.7
-1 -17 1 32.1 6.4
17 1 -1 41.7 6.6
-17 -1 1 33.2 8.5
1 17 -1 41.3 6.4
-17 -1 1 35.7 6.7
0 -16 1 102.19 11.5
16 0 -1 124.29 12.8
-16 0 1 100.49 12.4
0 16 -1 108.09 11.2
-16 0 1 88.49 12.6
15 -1 -1 123.39 13.4
1 -15 1 132.39 13.2
-1 15 -1 146.79 13.3
-15 1 1 142.99 14.1
-15 1 1 121.09 14.6
14 -2 -1 -3.5 3.9
2 -14 1 -4.9 4.3
-14 2 1 -6.7 5.3
3 -13 1 14.9 4.3
-13 3 1 14.7 4.7
-13 3 1 19.7 5.7
-3 13 -1 18.2 3.6
12 -4 -1 66.19 7.3
4 -12 1 66.99 7.3
-12 4 1 71.29 8.7
-4 12 -1 66.09 7.2
-4 12 -1 62.09 6.7
-12 4 1 58.29 7
5 -11 1 181.88 15.7
11 -5 -1 142.09 15.4
-5 11 -1 143.39 14.9
-5 11 -1 156.28 15
-11 5 1 186.08 15.8
-11 5 1 190.48 16.2
-11 5 1 169.48 32.4
6 -10 1 232.98 22.5
10 -6 -1 270.47 23.2
-6 10 -1 277.47 22.7
-10 6 1 233.08 34.2
9 -7 -1 45.3 5.2
7 -9 1 32.3 5.6
-9 7 1 17.5 12.6
-7 9 -1 30.5 5
-9 7 1 33.6 4.7
-7 9 -1 32.2 17.6
-7 9 -1 35.6 5
8 -8 1 18.5 3.4
8 -8 -1 16.2 3.8
-8 8 1 35.6 16.2
-8 8 -1 24.7 3.9
-8 8 -1 22 3.7
-8 8 1 22 3.7
-8 8 -1 22.3 12.9
9 -7 1 23.5 3.1
7 -9 -1 21 4.8
9 -7 1 29.6 4.4
-7 9 1 41.2 17.7
-9 7 -1 7.8 17.1
-9 7 -1 25.8 3.8
-7 9 1 21 4.1
-9 7 -1 28.4 3.8
6 -10 -1 209.08 33.7
10 -6 1 248.38 22.4
6 -10 -1 253.57 22.8
-6 10 1 200.98 30.5
-10 6 -1 260.07 22.8
-10 6 -1 291.07 23.2
-6 10 1 272.77 22.6
11 -5 1 177.48 16
5 -11 -1 123.19 27.5
5 -11 -1 160.58 15.6
-11 5 -1 153.38 15.6
-11 5 -1 156.88 15.2
-5 11 1 187.28 15.6
-5 11 1 142.59 29.7
4 -12 -1 38.4 18.1
4 -12 -1 68.59 7.7
12 -4 1 78.79 8.2
-12 4 -1 70.19 9
-4 12 1 88.69 8.4
-12 4 -1 66.49 7.9
13 -3 1 3.4 3.9
-13 3 -1 9.1 4.9
2 -14 -1 -1.2 4.3
14 -2 1 -0.9 3.9
-2 14 1 -5.1 4.2
-14 2 -1 -6.4 4.3
-14 2 -1 2.3 5.2
1 -15 -1 106.99 12.5
-15 1 -1 132.59 15
-15 1 -1 159.28 13.7
-1 15 1 117.29 12.5
16 0 1 121.59 11.8
0 -16 -1 107.69 11.5
-16 0 -1 86.89 11
-16 0 -1 105.59 13.6
0 16 1 99.09 11.4
17 1 1 41.5 6.9
-1 -17 -1 50.19 7.2
1 17 1 47.6 7.3
-17 -1 -1 33.9 7.5
-2 -18 -1 3.1 4.1
18 2 1 -1 5.6
-18 -2 -1 5.2 5.9
2 18 1 0.6 4.8
-18 -2 -1 -1 6
19 3 1 -5.3 5.9
-19 -3 -1 6.9 6.4
-19 -3 -1 21.3 9.5
-19 -2 1 13.4 6.6
-19 -2 1 10.1 8.6
-1 -18 1 -0.4 4.9
1 18 -1 -3.1 3.4
-18 -1 1 2.2 7.4
17 0 -1 -0.2 5.6
0 -17 1 0.4 4.3
0 17 -1 3.4 3.4
-17 0 1 -5.7 6.4
-17 0 1 0.4 7.5
16 -1 -1 42.4 7.9
-16 1 1 44.6 7.3
-16 1 1 46.9 9.1
2 -15 1 42.4 7
-2 15 -1 48.7 7
-15 2 1 30.2 6.8
14 -3 -1 25.6 5.5
3 -14 1 21.5 4.8
-14 3 1 24.5 5.5
-14 3 1 32.2 5.6
-3 14 -1 27.4 4.7
13 -4 -1 3.9 4.2
4 -13 1 2.1 3.4
-13 4 1 7.4 3.6
-4 13 -1 7.2 3.6
5 -12 1 7.5 3
12 -5 -1 3.6 4.4
-5 12 -1 4.7 3.3
-12 5 1 3.3 3.3
11 -6 -1 92.19 10.9
6 -11 1 125.09 11.2
-11 6 1 115.09 11.2
-6 11 -1 115.19 11
-6 11 -1 106.39 10.7
7 -10 1 5.4 5.8
-10 7 1 18.9 14.5
-10 7 1 16 3.7
9 -8 -1 24 3.9
8 -9 1 26.4 4.9
8 -9 1 32.6 4.1
-8 9 -1 27 4.4
-9 8 1 34.7 4.4
-8 9 -1 30.8 4.7
-9 8 1 7.4 17.5
9 -8 1 20.6 2.9
9 -8 1 24.8 3.6
8 -9 -1 18.8 4.3
-8 9 1 20.2 3.9
-8 9 1 2 16.6
7 -10 -1 5 5.3
-7 10 1 48.2 22.2
-10 7 -1 16.2 3.3
-10 7 -1 17.6 4
6 -11 -1 101.89 26
11 -6 1 120.59 11.5
6 -11 -1 89.69 10.6
-11 6 -1 120.09 11.2
-11 6 -1 116.79 11.5
12 -5 1 2.9 2.9
-5 12 1 3.9 2.8
-12 5 -1 0.5 3.9
-12 5 -1 -1.8 3.6
4 -13 -1 4 2.8
-13 4 -1 -1.2 4.1
-4 13 1 2.1 4.1
14 -3 1 31.5 5.4
-3 14 1 30.6 5.6
-14 3 -1 31.9 5.3
15 -2 1 17.3 5.4
-15 2 -1 27 5.9
-15 2 -1 16.3 5.9
16 -1 1 38.7 6.5
-16 1 -1 41.5 8.6
-16 1 -1 46 7.4
0 -17 -1 5.7 5.2
17 0 1 8.1 5.3
-17 0 -1 8.4 5.8
0 17 1 11 5.3
-17 0 -1 2.9 7.2
18 1 1 4.1 5.6
-1 -18 -1 -7.1 5.3
1 18 1 -10.8 5.6
-18 -1 -1 7.2 5.4
-18 -1 -1 7.9 8.3
19 2 1 8.8 5
-19 -2 -1 12.8 5
-19 -2 -1 2.7 7.2
-19 -1 1 20.5 7.6
-19 -1 1 12.9 10.6
0 -18 1 47 7
0 18 -1 38.3 6.6
-18 0 1 43.2 7.4
-18 0 1 44.1 11.6
1 -17 1 26.3 5.4
17 -1 -1 32.9 7.1
-17 1 1 36 9.5
-1 17 -1 39.4 6.1
2 -16 1 -1 4.7
-16 2 1 -12.5 6.1
-2 16 -1 3.1 3.8
15 -3 -1 7 4.7
3 -15 1 8.1 4.8
-3 15 -1 15.6 4.9
-15 3 1 8.1 5
14 -4 -1 49.2 7
4 -14 1 49.7 7.5
4 -14 1 45.7 6.6
-14 4 1 63.29 7.4
-4 14 -1 51.39 6.7
5 -13 1 62.49 7.9
5 -13 1 69.59 8
13 -5 -1 71.19 8.3
-13 5 1 82.49 8.4
-5 13 -1 71.59 7.8
6 -12 1 77.79 8.4
12 -6 -1 94.29 9.4
6 -12 1 68.99 8.6
-6 12 -1 86.69 8.7
-12 6 1 93.59 9.1
11 -7 -1 30.3 5.4
7 -11 1 23.3 4.9
-11 7 1 23.9 4.1
-7 11 -1 21.9 4.7
8 -10 1 49.3 6.6
8 -10 1 45.6 5.6
-8 10 -1 46.6 6.2
-8 10 -1 56.79 6.5
9 -9 1 94.79 9.4
9 -9 -1 88.29 9.3
-9 9 -1 84.29 9.5
-9 9 1 85.19 9.1
-9 9 -1 88.99 9.2
10 -8 1 51.19 6.4
8 -10 -1 48.5 7.1
-10 8 -1 68.39 7.5
-8 10 1 56.39 6.9
-10 8 -1 57.59 6.8
11 -7 1 22.6 4.4
7 -11 -1 37.5 5.5
-7 11 1 30.8 5.2
-11 7 -1 27.5 5.1
-11 7 -1 33.9 5.3
6 -12 -1 91.89 9.5
12 -6 1 81.79 9.3
-6 12 1 94.89 9.2
-12 6 -1 82.79 9.7
-12 6 -1 78.89 8.7
13 -5 1 63.29 7.3
5 -13 -1 62.89 7.8
-13 5 -1 76.89 7.6
-13 5 -1 75.29 9.1
14 -4 1 34.6 5.4
4 -14 -1 46.7 6
-14 4 -1 53.39 7.7
-4 14 1 50.49 6.8
-14 4 -1 41.5 5.8
15 -3 1 -1.1 4.4
-15 3 -1 7 4.1
-15 3 -1 6.6 4.5
2 -16 -1 0 6
16 -2 1 -5.3 5.3
-16 2 -1 -3.2 5.5
-2 16 1 -3.8 6.1
-16 2 -1 4.9 4.9
17 -1 1 27.2 6.1
1 -17 -1 35.4 6.7
-1 17 1 34.5 5.7
-17 1 -1 39.5 8.4
-17 1 -1 29.7 5.7
18 0 1 41.9 6.8
0 -18 -1 35.9 6.6
0 18 1 34.5 5.9
-19 -1 -1 8.6 7.5
-19 -1 -1 4.7 6.2
-19 0 1 -7.7 7
1 -18 1 5.9 5.3
-1 18 -1 5.3 4.4
17 -2 -1 -1.6 3.8
2 -17 1 8.4 4.8
-2 17 -1 7.8 4.5
-17 2 1 -1.2 4
16 -3 -1 69.49 9.1
3 -16 1 54.69 7.5
-16 3 1 77.59 9.2
-3 16 -1 64.49 8.2
15 -4 -1 -0.3 5.2
4 -15 1 -3.8 4.5
4 -15 1 -2.5 4.7
-4 15 -1 0.7 4.4
-15 4 1 -5.9 4.8
14 -5 -1 -5.6 3.2
5 -14 1 -0.2 3
5 -14 1 2.5 4
-14 5 1 -5.3 3.7
-5 14 -1 -0.8 3.5
6 -13 1 -2.5 4
6 -13 1 10.5 4
13 -6 -1 8.6 3.2
-13 6 1 5.5 2.7
-6 13 -1 0.3 3.3
7 -12 1 -1.1 2.3
12 -7 -1 1.4 3
7 -12 1 -5.1 3.1
-7 12 -1 -2 2.6
-12 7 1 -4.8 3.6
8 -11 1 42.2 5.7
8 -11 1 47.8 6.2
11 -8 -1 39.1 5.8
-8 11 -1 55.29 6.2
-11 8 1 59.49 6.6
-9 10 -1 15.3 3.8
9 -10 -1 0.4 3.7
10 -9 1 4.2 3.5
-9 10 1 1 3.4
-10 9 -1 2.7 3.2
11 -8 1 47.9 6.6
8 -11 -1 43.8 6.5
-11 8 -1 49.4 6.5
-11 8 -1 42.8 6.2
-8 11 1 59.49 6.6
7 -12 -1 -0.5 3.4
12 -7 1 -1 3.8
-12 7 -1 1 3.8
-12 7 -1 -3.4 3.5
13 -6 1 4.5 3.6
6 -13 -1 4.3 4.3
-6 13 1 7.4 3.2
-13 6 -1 2.8 3.5
-13 6 -1 5.8 5.8
14 -5 1 -3 4
5 -14 -1 -0.3 3.3
-5 14 1 1.7 3.8
-14 5 -1 -5.1 4.4
-14 5 -1 1 4
4 -15 -1 -1.8 3.8
-15 4 -1 -4 6.9
-15 4 -1 1.6 3.9
-4 15 1 -4.8 4.4
16 -3 1 64.79 8.5
3 -16 -1 69.29 9
-16 3 -1 64.49 8.5
-16 3 -1 74.99 11
-3 16 1 70.89 9
17 -2 1 19.6 5.4
2 -17 -1 13.9 4.5
-17 2 -1 14.6 7
-2 17 1 20 6
18 -1 1 -6.8 5.5
1 -18 -1 10.2 5
-1 18 1 3.9 5.5
-18 1 -1 -14.3 6.2
-18 1 -1 -4.6 6.4
0 -19 -1 -0.4 3.9
-19 0 -1 1.4 8.4
-19 0 -1 0.6 4.2
0 19 1 7.7 5.7
1 -19 1 12.2 4.4
-1 19 -1 20.1 5.6
2 -18 1 -7.4 4
-2 18 -1 4.5 4.6
-18 2 1 -9 5.1
17 -3 -1 3.8 5.1
3 -17 1 2 3.9
3 -17 1 -5 4.9
-17 3 1 11.9 5.6
4 -16 1 9.1 4.8
4 -16 1 14.3 4.9
16 -4 -1 18.9 5.3
-4 16 -1 5.7 4.5
-16 4 1 11.3 4.1
5 -15 1 203.48 20.9
5 -15 1 248.78 21
15 -5 -1 226.68 21.1
-5 15 -1 236.58 20.7
-15 5 1 215.88 20.7
6 -14 1 16.9 4.9
6 -14 1 18 5.1
-6 14 -1 18.4 4.4
7 -13 1 -1.3 3.4
13 -7 -1 -9 4.2
7 -13 1 -5.3 3.8
-13 7 1 -6.1 3.6
-7 13 -1 -1.2 3.3
8 -12 1 3.8 3.2
12 -8 -1 -6.9 4.7
-8 12 -1 -2.1 2.3
-12 8 1 0.8 3.8
-11 9 1 119.49 13.2
10 -10 -1 361.56 31.8
-11 9 -1 52.69 9.1
8 -12 -1 3.4 2.8
12 -8 1 -6.8 4.2
-12 8 -1 1.5 2.6
-8 12 1 -1 3.4
7 -13 -1 -8.8 4.3
13 -7 1 0 3.6
-13 7 -1 0 2.5
-13 7 -1 2.4 3.8
-7 13 1 -3.5 3.5
6 -14 -1 13.5 4.1
14 -6 1 10 3.5
-6 14 1 12.3 3.6
15 -5 1 240.58 21.2
5 -15 -1 204.48 20.7
-15 5 -1 226.38 22.9
-5 15 1 218.28 20.9
-15 5 -1 246.18 21.5
4 -16 -1 20.1 6
-16 4 -1 16.5 5.6
17 -3 1 8.5 4.7
3 -17 -1 3.5 5.1
-17 3 -1 22.6 9
-3 17 1 -1.4 5.1
-17 3 -1 0 4.4
18 -2 1 17.4 4.6
2 -18 -1 -1.3 5.4
-18 2 -1 7.5 8.8
-2 18 1 0.3 5.6
-19 1 -1 30.8 8.2
-1 19 1 13.8 6
2 -19 1 10.1 5.6
3 -18 1 36.9 8
3 -18 1 35.6 6.9
-3 18 -1 38.4 6.8
4 -17 1 -0.2 4.3
17 -4 -1 1 4
4 -17 1 1 3.3
-4 17 -1 3.3 4.1
-17 4 1 0.6 3.6
5 -16 1 0.2 4.3
16 -5 -1 -0.1 4.7
-5 16 -1 -2.2 4
-16 5 1 3.6 4.8
6 -15 1 -4 5.7
15 -6 -1 -6.8 6.2
-6 15 -1 -2 4.8
-15 6 1 -2.6 6
14 -7 -1 6.4 3.5
7 -14 1 -11 6.3
-14 7 1 -7.8 3.8
8 -13 1 86.59 9.6
13 -8 -1 92.89 10.3
-8 13 -1 84.69 9.4
12 -9 -1 -5 4.6
9 -12 1 -0.5 2.9
-9 12 -1 0.8 2.7
-12 9 1 -3.3 2.9
11 -10 -1 5.4 4.1
10 -11 1 3.3 4
-10 11 -1 0.1 3.7
-10 11 1 1 3.7
-11 10 -1 5.3 3.3
9 -12 -1 -5.8 3.3
-9 12 1 -3.9 3.9
-12 9 -1 -3.9 3
8 -13 -1 95.59 10.1
13 -8 1 75.59 9.2
-13 8 -1 85.49 9.7
-8 13 1 104.09 10
14 -7 1 -4.8 4.4
7 -14 -1 -9.8 6.2
-14 7 -1 -9.1 4.1
-7 14 1 -8.5 4.8
6 -15 -1 -6.7 5
-6 15 1 3.3 6.1
-15 6 -1 1 3.6
5 -16 -1 -3.5 4.6
16 -5 1 0.5 4.4
-16 5 -1 -4.9 5.5
-16 5 -1 4.5 4.8
-5 16 1 -1.3 3.5
4 -17 -1 -7 5.2
17 -4 1 -0.4 4.4
-17 4 -1 -4.1 6.5
-17 4 -1 -11 5
-4 17 1 -5.3 5.5
3 -18 -1 22.1 6.3
-3 18 1 29.5 5.6
-2 19 1 14.3 5.8
-19 2 -1 27.1 12.5
-19 2 -1 8.6 4.7
3 -19 1 2.2 6.1
3 -19 1 -3.4 3.9
4 -18 1 27.8 6.4
4 -18 1 23.1 6.9
-4 18 -1 23.3 4.8
-18 4 1 28.5 5.6
5 -17 1 13.1 5.9
5 -17 1 16 5.6
-5 17 -1 13 4.9
-17 5 1 25.8 6.4
6 -16 1 9.4 5.2
16 -6 -1 3.8 3.7
-16 6 1 8.4 4.6
-6 16 -1 4.7 3.6
15 -7 -1 -4.2 4.5
7 -15 1 -10.4 4.5
-7 15 -1 -2 3
-15 7 1 -4.9 4
8 -14 1 12.8 4.8
14 -8 -1 16.6 5
-8 14 -1 10.1 3.4
-14 8 1 14.6 4.4
9 -13 1 25.3 5.4
13 -9 -1 33.9 5.2
-13 9 1 31.5 5.4
-9 13 -1 26.1 5.1
10 -12 1 15.6 3.7
12 -10 -1 16.2 5.1
-10 12 -1 18.8 4.4
11 -11 1 9.3 4.1
11 -11 -1 9.1 4.3
-11 11 -1 10.6 4
-11 11 1 8.6 3.9
12 -10 1 15.6 3.7
-12 10 -1 12.9 4
-10 12 1 10.8 4.3
9 -13 -1 22.3 5.7
13 -9 1 29.6 5.7
-9 13 1 32.4 5.4
-13 9 -1 29.9 5.4
8 -14 -1 7.9 3.9
14 -8 1 0.8 4.3
-8 14 1 4.8 3.4
7 -15 -1 -4.3 3.7
-15 7 -1 -2.1 4
-7 15 1 -0.7 4.8
-6 16 1 7.8 4.8
-16 6 -1 8.5 5.2
17 -5 1 11 4.6
5 -17 -1 14.2 5.9
-17 5 -1 12.2 4.2
18 -4 1 27.4 6.1
-4 18 1 25.8 6.7
-3 19 1 1.8 5.7
5 -18 1 -1.4 5.4
5 -18 1 0.4 3.5
-18 5 1 -1.6 5.4
-5 18 -1 -9.3 4.8
6 -17 1 21.4 5.8
6 -17 1 18.1 6
-17 6 1 17.1 4.7
7 -16 1 40.8 6.3
-7 16 -1 40.4 5.8
15 -8 -1 4.9 4.7
8 -15 1 13.9 3.9
-8 15 -1 10.6 4.3
-15 8 1 10.8 3.6
9 -14 1 3 3.1
14 -9 -1 0.8 4.7
-9 14 -1 1.4 2.7
-14 9 1 2.1 4
10 -13 1 9.8 4.8
13 -10 -1 14.4 4.2
-10 13 -1 7.2 3.2
11 -12 1 52.29 7.3
-12 11 1 55.09 6.6
-11 12 -1 47.8 7
11 -12 -1 45.6 7.4
12 -11 1 66.69 7.8
-12 11 -1 54.59 6.7
-11 12 1 48.8 7.1
13 -10 1 12.8 5
10 -13 -1 12.2 5.2
-13 10 -1 9.9 4.8
-10 13 1 8.7 3.4
9 -14 -1 4.4 3.6
14 -9 1 -3.5 4.5
-9 14 1 1.8 4
-14 9 -1 -0.1 2.8
15 -8 1 13.6 4.9
8 -15 -1 11.9 5.1
-15 8 -1 3.2 4.1
-8 15 1 9.1 5.2
7 -16 -1 56.29 7.8
16 -7 1 46.4 6.8
-7 16 1 54.89 8.2
-16 7 -1 49.6 6.9
17 -6 1 17.2 5.2
6 -17 -1 5.3 4.2
-6 17 1 12 4.2
-17 6 -1 1.8 5.1
18 -5 1 -4.7 3.6
-18 5 -1 -3.5 3.8
-5 18 1 -6.1 5.5
6 -18 1 12.6 5.8
-18 6 1 22.8 6.2
-6 18 -1 16.3 5.1
-7 17 -1 7.6 3.4
-17 7 1 2.9 4.9
8 -16 1 -2 3.9
-8 16 -1 -4 4.5
-16 8 1 1.7 4.5
9 -15 1 50.49 7.8
-9 15 -1 59.89 7.7
-15 9 1 59.09 7.9
14 -10 -1 57.89 8.6
10 -14 1 48.2 6.9
-10 14 -1 54.19 7.3
-14 10 1 63.29 8.3
13 -11 -1 12.4 4.4
11 -13 1 20.7 4.3
-13 11 1 17.2 5.2
-11 13 -1 16.5 4.4
12 -12 -1 23.8 5.6
12 -12 1 16.8 5.2
-12 12 1 20.2 5
-12 12 -1 20 4.4
13 -11 1 11.6 5.1
11 -13 -1 10.7 4
-13 11 -1 14.2 4.9
10 -14 -1 46.8 7.7
14 -10 1 59.89 8.1
-14 10 -1 44.1 6.5
-10 14 1 57.69 7.5
9 -15 -1 54.99 8.3
15 -9 1 45.1 7.4
-15 9 -1 46.2 7.2
16 -8 1 6.4 3.4
8 -16 -1 -7.1 5.8
-8 16 1 -10.3 5.8
-16 8 -1 -0.7 3.4
17 -7 1 12.8 5.1
-17 7 -1 11.1 5.6
-7 17 1 7.2 5.5
18 -6 1 2.7 4.9
-18 6 -1 12.6 5.3
8 -17 1 1.1 4.9
-17 8 1 4.4 5.4
-8 17 -1 4 4.8
9 -16 1 -5.4 5
-16 9 1 7.3 4.7
-9 16 -1 1.4 4.2
10 -15 1 -4 4.9
-15 10 1 0.9 4.4
11 -14 1 1.1 4.9
-11 14 -1 -0.4 4.4
-14 11 1 9.4 4.6
12 -13 1 2.7 4.4
-12 13 -1 7.4 4.1
-13 12 1 7.6 3.5
13 -12 1 9.2 3.6
-12 13 1 6.4 4.7
-13 12 -1 5.7 4.2
14 -11 1 3 4.7
-11 14 1 -0.8 5.1
-14 11 -1 0.3 3.1
15 -10 1 -2.2 5
-10 15 1 0.2 4.3
-15 10 -1 4.7 4.6
16 -9 1 4.8 3.7
-9 16 1 12.2 5
-16 9 -1 3.6 4.3
17 -8 1 -0.7 4.4
-8 17 1 2.3 5.7
-17 8 -1 -7.6 4.9
9 -17 1 9.2 5.5
-9 17 -1 2.2 4.3
-17 9 1 5.8 5.1
10 -16 1 27.5 6.1
-10 16 -1 15.9 4.1
-16 10 1 20.9 5.3
11 -15 1 26.3 5.5
-11 15 -1 20.1 4.3
-15 11 1 12.6 4.8
12 -14 1 -1.3 4.6
-12 14 -1 -1.5 3.1
-14 12 1 2.3 4.6
-13 13 -1 8.2 3.4
-13 13 1 12.4 4.8
14 -12 1 2.9 4.9
-12 14 1 9.5 3.8
-14 12 -1 7.3 4.6
15 -11 1 26.4 6.3
-11 15 1 29.7 5.3
16 -10 1 15 4.5
-16 10 -1 24.4 5
-9 17 1 5.1 4.2
-17 9 -1 7.7 4.1
12 -15 1 13.7 5.2
-12 15 -1 9.5 4.7
-15 12 1 11 4.1
13 -14 1 16.1 5.4
-14 13 1 11.6 5
14 -13 1 9.8 4.4
-14 13 -1 6.6 4.7
-15 12 -1 -1.6 4.3
-12 15 1 14.8 5.6
-13 -13 2 0.6 4.4
-13 -13 2 -6.9 7.5
-12 -12 2 -12.1 6.4
-12 -12 2 -7.8 5.8
-11 -11 2 64.89 10
-11 -11 2 80.89 10.4
10 10 -2 374.86 36.7
-10 -10 2 389.66 36.5
-10 -10 2 420.86 36.7
-9 -9 2 37.2 5.6
9 9 -2 28.7 14.1
8 8 -2 -7.1 3.6
-8 -8 2 -0.4 3.8
-8 -8 2 2.6 3
-7 -7 2 0.2 2.4
7 7 -2 -2.4 3.7
6 6 -2 478.05 57.09
6 6 -2 382.46 44.7
-6 -6 2 450.15 62.09
5 5 -2 2805.72 364.96
-5 -5 2 2776.22 368.56
-5 -5 2 2654.83 345.57
-5 -5 2 2877.41 401.06
5 5 -2 2110.99 284.47
4 4 -2 215.68 24.6
-4 -4 2 199.28 19.2
-4 -4 2 201.88 18.5
3 3 -2 1 1.2
-3 -3 2 -0.3 1.1
-3 -3 2 -1.2 2.5
-3 -3 2 0.1 2
3 3 -2 2.5 6.1
-3 -3 2 -1.2 4.9
2 2 -2 1.8 0.8
-2 -2 2 7.6 2.3
-2 -2 2 3.6 3.5
-2 -2 2 3.7 1.4
-1 -1 -2 458.35 72.69
-2 -2 -2 -1.6 3.2
2 2 2 2.8 2.5
2 2 2 4.6 3.7
-2 -2 -2 1.9 1.5
3 3 2 -0.9 6.2
-3 -3 -2 -0.6 1.9
-3 -3 -2 0.3 2.8
3 3 2 -1.4 3.4
-3 -3 -2 -2.2 5.2
4 4 2 332.77 34.6
-4 -4 -2 318.47 35.2
-4 -4 -2 280.77 34
4 4 2 366.36 41.7
4 4 2 328.47 40.8
-5 -5 -2 1891.11 283.87
-5 -5 -2 2475.95 299.57
-5 -5 -2 2515.25 336.17
5 5 2 2787.72 329.37
5 5 2 2527.25 311.77
6 6 2 416.66 33.2
6 6 2 348.07 41.5
-6 -6 -2 314.57 41.6
-6 -6 -2 370.56 32.7
-6 -6 -2 347.07 35.3
-7 -7 -2 -3.7 4.4
7 7 2 5.1 4.2
-7 -7 -2 22.5 19.4
7 7 2 -4.7 11.5
-8 -8 -2 -1.1 6.6
-8 -8 -2 -40.7 23.9
-8 -8 -2 -4.9 4.2
8 8 2 14.5 23.8
8 8 2 4.4 3.8
9 9 2 42.9 6.4
-10 -10 -2 420.86 35.1
10 10 2 303.47 33
-12 -12 -2 8.6 10
-13 -13 -2 3.6 11.3
13 13 2 -2.3 5
-12 -13 2 0.6 4.7
-13 -12 2 -9.8 7.1
-12 -11 2 14.9 6.2
-10 -11 2 7.1 7.6
-11 -10 2 0.8 8.1
10 11 -2 -3.5 7.5
10 9 -2 -1.1 27.4
-9 -10 2 2.4 4.2
9 10 -2 9.6 29.4
-10 -9 2 1.4 4.1
-8 -9 2 19.3 4.7
8 9 -2 5.3 3.8
-9 -8 2 10.8 4.1
-9 -8 2 13.8 4.1
-7 -8 2 3.9 3.3
8 7 -2 -3.1 4.5
7 8 -2 0 2.3
-8 -7 2 -7.6 6.2
-8 -7 2 -0.4 4.4
-6 -7 2 93.79 19.8
-6 -7 2 117.19 13.3
7 6 -2 116.59 25.7
7 6 -2 126.09 12.7
-7 -6 2 130.49 12.9
6 7 -2 97.39 23.7
6 7 -2 130.79 12.7
-7 -6 2 121.79 12.9
-7 -6 2 130.79 23.6
-5 -6 2 -27 22.3
-5 -6 2 -19.7 36.7
6 5 -2 23.5 35.8
-5 -6 2 29 18.2
-5 -6 2 31.2 22.8
6 5 -2 6.8 97.49
5 6 -2 9.7 33.4
5 6 -2 30.3 28.1
-6 -5 2 4.6 13.5
-6 -5 2 21.9 5.8
-6 -5 2 5.4 34.4
-6 -5 2 65.49 65.89
-4 -5 2 16 19.2
-4 -5 2 32.9 51.49
-4 -5 2 37.9 49.4
-4 -5 2 46.9 114.89
5 4 -2 12.6 25.3
4 5 -2 27.5 51.79
-5 -4 2 35.4 33.4
-5 -4 2 14.1 19
4 5 -2 49.99 42.1
-3 -4 2 180.68 16.9
4 3 -2 185.58 20.9
-3 -4 2 201.48 17.7
-3 -4 2 221.48 22
-4 -3 2 193.08 21.2
-4 -3 2 197.28 19.5
-4 -3 2 166.68 16.6
-2 -3 2 18.8 6
-2 -3 2 26 3
-2 -3 2 36.5 4
-3 -2 2 30.9 3.3
2 3 -2 35.8 7.8
2 3 -2 26.7 2.9
-3 -2 2 29 6.7
-1 -2 2 158.68 26.5
-1 -2 2 198.38 23.7
-2 -1 2 182.48 36
-2 -1 2 182.88 25.9
-2 -1 2 149.88 16.6
0 -1 2 27.5 8.6
0 1 -2 29.2 7.3
0 1 -2 54.79 29.1
0 -1 -2 90.69 47.3
1 0 2 52.09 17.9
-1 0 -2 114.39 82.19
-1 0 -2 56.89 13.9
2 1 2 174.18 28.7
2 1 2 225.48 24.3
-1 -2 -2 152.88 16.1
-1 -2 -2 187.58 19.4
-2 -3 -2 12 4.9
-2 -3 -2 22.6 3.7
3 2 2 33.6 7.5
-2 -3 -2 19.8 2.5
-3 -2 -2 26.2 7.6
-3 -2 -2 18.6 3.2
-3 -2 -2 16.9 2.5
4 3 2 240.18 20.7
-3 -4 -2 199.08 20.5
-3 -4 -2 185.58 23.7
-3 -4 -2 203.38 19.4
4 3 2 239.58 24.6
4 3 2 245.88 20.1
-4 -3 -2 205.98 19.9
-4 -3 -2 208.48 25.1
-4 -3 -2 213.58 18.8
-4 -5 -2 8.9 44.2
-4 -5 -2 9.4 82.69
5 4 2 15.5 25
5 4 2 4.3 26.3
-4 -5 -2 38.9 31.4
-5 -4 -2 13.3 21
4 5 2 47.2 52.79
4 5 2 47 42.5
-5 -4 -2 11.9 17.7
-5 -6 -2 48.5 62.79
-5 -6 -2 37.8 46
6 5 2 4 17.2
6 5 2 60.39 98.49
-5 -6 -2 123.19 98.49
5 6 2 10.8 47.8
5 6 2 80.69 99.59
-6 -5 -2 24 21.9
-6 -5 -2 30.6 30.9
-6 -7 -2 103.79 24.7
-6 -7 -2 121.89 12.7
7 6 2 129.89 12.8
7 6 2 104.19 21.6
6 7 2 122.69 23.8
-7 -6 -2 89.09 21.1
-7 -6 -2 114.69 13.8
-7 -6 -2 114.09 12.4
-7 -8 -2 16.8 15.3
8 7 2 -1.4 5.1
8 7 2 -3.2 13.5
-8 -7 -2 -6 4.8
7 8 2 19.7 29.4
-8 -7 -2 -0.1 18.4
-8 -7 -2 5.1 7.9
7 8 2 -3 4.4
-8 -9 -2 18.4 27.1
-9 -8 -2 9.6 5.1
-9 -8 -2 -20.1 27.4
-9 -10 -2 4.7 6.8
10 9 2 1.3 4.9
-10 -11 -2 36.6 9.6
-11 -12 -2 18.2 5.4
12 11 2 18.3 6.4
-12 -11 -2 8.6 10.5
-12 -11 -2 15.1 6.7
11 12 2 30.2 7.1
13 12 2 1.1 7.1
-12 -13 -2 -21.9 11
12 13 2 -12.9 7.5
-13 -12 -2 -11.6 8.1
-12 -14 2 -6.9 6.7
-12 -14 2 -13.5 7.4
-14 -12 2 -10.9 8
-14 -12 2 -3 6.1
-11 -13 2 -2.8 5.8
-11 -13 2 11.1 6.6
-13 -11 2 10 5.4
-13 -11 2 -1.5 4.8
-10 -12 2 -3.6 4.7
-12 -10 2 2.3 6
-12 -10 2 -7.6 5.2
-9 -11 2 60.89 12.9
11 9 -2 5.6 25.4
-11 -9 2 43.9 12.6
-8 -10 2 6.3 4.9
10 8 -2 3.2 4.6
-8 -10 2 -2.4 4.6
8 10 -2 2.5 11
-10 -8 2 -2.5 3.7
-10 -8 2 5.8 5.2
9 7 -2 -10.6 20.3
-7 -9 2 6.4 4.6
-7 -9 2 -6.5 5.9
-9 -7 2 -14.7 7.2
-9 -7 2 -6.7 10.6
7 9 -2 -8 10.1
-8 -6 2 0.7 5
-8 -6 2 4.9 3.3
-5 -7 2 6.2 18.1
-5 -7 2 24.1 6.9
-5 -7 2 4.5 15.2
-7 -5 2 13.3 3.8
-7 -5 2 -0.4 9.4
5 7 -2 10.1 16.3
5 7 -2 8.3 14.4
-4 -6 2 201.28 32
-4 -6 2 191.08 20.2
-4 -6 2 203.88 30.2
6 4 -2 159.58 25.6
-4 -6 2 259.67 34
6 4 -2 211.18 21.9
4 6 -2 444.76 154.88
-6 -4 2 150.48 24.8
-6 -4 2 174.68 17.7
4 6 -2 186.78 28.6
-6 -4 2 212.38 21.5
-3 -5 2 45.1 6.9
5 3 -2 40.2 5
-5 -3 2 41.6 5
-5 -3 2 40.9 10.4
-5 -3 2 33.6 5.1
-2 -4 2 14.1 5.6
2 4 -2 11.5 2.4
3 1 -2 21.5 2.3
-1 -3 2 13.3 3.6
3 1 -2 22.8 5.7
-1 -3 2 13.4 2.1
1 3 -2 14.3 2
-3 -1 2 18.9 2.1
-3 -1 2 20.2 2.7
-3 -1 2 17.7 2.3
1 3 -2 33.5 7
-3 -1 2 26.5 5.6
-3 -1 2 17.3 4
2 0 -2 13 2.8
-2 0 2 15.3 2
1 -1 -2 268.77 52.29
-1 1 -2 328.07 92.19
2 0 2 31.3 5.7
2 0 2 19.3 2
0 -2 -2 19 2.6
0 2 2 18.8 1.9
-2 0 -2 21.5 2.7
-1 -3 -2 12.4 3.2
3 1 2 17.7 3.1
-3 -1 -2 13.4 3.8
1 3 2 5.7 4.6
-3 -1 -2 10.3 5
1 3 2 12.3 2.2
4 2 2 11.4 5.7
4 2 2 10.2 17
4 2 2 18 35.2
-2 -4 -2 5.1 7.6
2 4 2 14.9 4.8
-4 -2 -2 4.3 10
-4 -2 -2 9.7 8.8
-4 -2 -2 23.5 17.4
-3 -5 -2 39.3 11
5 3 2 37.4 9.8
5 3 2 45.5 5.1
5 3 2 40.2 6
-5 -3 -2 63.29 14.1
3 5 2 46.9 11.3
-5 -3 -2 33.3 4.8
6 4 2 338.37 42.7
-4 -6 -2 284.97 174.28
-4 -6 -2 291.77 146.59
-4 -6 -2 320.07 113.29
4 6 2 203.48 75.29
-6 -4 -2 350.96 45.1
4 6 2 244.78 108.89
-6 -4 -2 404.66 44
-6 -4 -2 360.86 35
7 5 2 7.1 5.2
-5 -7 -2 -3.8 6.9
7 5 2 17.7 11.4
-5 -7 -2 -24.4 18.5
-7 -5 -2 4.7 3.7
5 7 2 5.1 4.8
5 7 2 4.9 12.4
-7 -5 -2 -4.5 11.7
8 6 2 -11.7 15.9
8 6 2 0.6 7
-6 -8 -2 -3.8 18.6
-8 -6 -2 -44.5 25
-8 -6 -2 -3.7 6.4
6 8 2 7.4 13.7
-8 -6 -2 9.8 7.9
9 7 2 -1.7 11.3
-7 -9 -2 -3.9 3.9
9 7 2 -9.1 18.1
-7 -9 -2 -31.7 18.7
7 9 2 -14.7 21
-9 -7 -2 -14.4 19.5
7 9 2 -12.5 7
-9 -7 -2 -2.7 7.9
-8 -10 -2 1.2 5.6
-8 -10 -2 3.6 7.9
10 8 2 -2.2 3.8
-10 -8 -2 3.5 5.4
-10 -8 -2 7.1 7.6
11 9 2 75.19 18.4
-11 -9 -2 68.39 18.4
-10 -12 -2 15.7 9.1
-10 -12 -2 4.7 6
-12 -10 -2 -6.4 6.9
10 12 2 4.1 6.6
-12 -10 -2 5.4 7
13 11 2 1 6.7
-11 -13 -2 -0.7 8.8
11 13 2 -12.4 6.8
-13 -11 -2 5.9 10.8
-13 -11 -2 2.6 6.4
14 12 2 0.9 7.6
-12 -14 -2 5.8 11.1
-14 -12 -2 12.5 11.5
-11 -14 2 -6.1 4.8
-14 -11 2 4.1 7.2
-14 -11 2 1.7 7.3
-10 -13 2 -6.5 5.2
-10 -13 2 3.5 4.3
-13 -10 2 -8.3 7
-13 -10 2 -6.3 6
-9 -12 2 10.1 4.7
-9 -12 2 4.8 6.6
-12 -9 2 4.5 5.7
-12 -9 2 4.7 4.7
9 12 -2 6 4.5
-8 -11 2 16.1 4.9
11 8 -2 27.7 23.4
-8 -11 2 32.5 5.9
8 11 -2 25.8 5.9
-11 -8 2 24.6 5.3
-7 -10 2 -3.5 5
10 7 -2 -12.2 11.3
7 10 -2 -17.1 8.3
-10 -7 2 -13.3 7.9
-10 -7 2 6.6 7.2
-6 -9 2 47.8 9.1
-6 -9 2 58.09 7.7
9 6 -2 75.09 13.7
-9 -6 2 62.79 13.8
6 9 -2 51.99 11.1
-5 -8 2 -0.1 3.5
-5 -8 2 -3 14.3
-5 -8 2 1.7 3.2
8 5 -2 -2 3.3
-8 -5 2 1.3 2.1
-8 -5 2 -3 3.2
-8 -5 2 -6.9 15.5
-8 -5 2 1.7 3.6
5 8 -2 0.2 2.3
-4 -7 2 68.79 8.1
-4 -7 2 78.89 8.1
-4 -7 2 92.99 18.1
-7 -4 2 63.89 7.7
-7 -4 2 52.29 14.3
4 7 -2 71.39 7.8
-3 -6 2 132.49 14.3
6 3 -2 152.38 13.6
-6 -3 2 202.98 23.9
-6 -3 2 153.08 14.2
-6 -3 2 147.99 13.6
5 2 -2 11 37.8
-2 -5 2 10.1 23.2
5 2 -2 30 108.59
-2 -5 2 -1.5 7
-5 -2 2 15.7 27.4
-5 -2 2 11.6 10.6
2 5 -2 8.9 2.2
-5 -2 2 2.5 53.59
-5 -2 2 -12 65.49
-1 -4 2 285.97 29.5
4 1 -2 249.78 33.6
4 1 -2 285.37 30.9
-1 -4 2 340.37 31
-4 -1 2 315.57 31.4
1 4 -2 332.37 35.9
-4 -1 2 303.07 38.8
-4 -1 2 277.97 27.9
0 -3 2 14.1 14.2
0 3 -2 8.5 1.5
-3 0 2 6.5 2.3
-3 0 2 10.6 1.7
1 -2 2 170.78 20.9
1 -2 2 163.88 27.5
-1 2 -2 213.58 30.6
-1 2 -2 205.48 25.9
-2 1 2 140.69 20.6
2 -1 2 218.78 29.9
2 -1 2 216.98 33.1
-2 1 -2 167.18 17.6
-2 1 -2 192.68 18.5
-1 2 2 161.98 18.7
-2 1 -2 193.48 18.9
3 0 2 13.3 2
-3 0 -2 8.8 2.5
-3 0 -2 2.5 4.8
0 3 2 30.8 11.3
0 3 2 12.5 1.8
-1 -4 -2 299.57 27
-1 -4 -2 333.47 31.1
-1 -4 -2 293.67 28.9
4 1 2 238.38 48.4
4 1 2 376.76 64.19
-4 -1 -2 284.87 67.59
1 4 2 288.37 29.4
-4 -1 -2 339.77 47.4
-4 -1 -2 368.46 51.39
-2 -5 -2 5.3 9.1
5 2 2 11.9 77.89
-2 -5 -2 -1.4 2.5
5 2 2 10.4 80.29
5 2 2 21.6 192.68
-5 -2 -2 3.7 67.49
-5 -2 -2 15.2 57.19
-5 -2 -2 -8.1 57.79
2 5 2 -7.3 8.6
2 5 2 3.5 4
6 3 2 269.07 21.4
-3 -6 -2 206.98 28.6
6 3 2 241.88 22.1
-3 -6 -2 203.88 21.8
-3 -6 -2 215.68 23.5
3 6 2 236.08 28.7
-6 -3 -2 257.37 31.4
3 6 2 244.78 21.9
-6 -3 -2 260.47 21.2
-4 -7 -2 71.79 16.6
7 4 2 141.99 21.3
7 4 2 118.79 11.6
-4 -7 -2 82.59 10.1
-4 -7 -2 103.39 12.8
4 7 2 116.89 10.8
-7 -4 -2 118.89 12.6
-7 -4 -2 96.79 11.2
-7 -4 -2 69.19 17.7
4 7 2 96.19 19.1
8 5 2 7.7 10.6
8 5 2 -3.1 4.4
-5 -8 -2 -0.8 4.1
-5 -8 -2 -5.9 4.4
-5 -8 -2 -12.5 17.7
-8 -5 -2 -13.3 14.1
5 8 2 -3.3 4.1
-8 -5 -2 -8.1 4.7
-8 -5 -2 -13.3 6.9
5 8 2 13.2 16.5
9 6 2 62.59 27.3
-6 -9 -2 23.1 23.5
-6 -9 -2 53.39 16.9
9 6 2 41.2 27
-6 -9 -2 82.19 11.3
-9 -6 -2 2.6 29.5
6 9 2 58.89 26.5
-9 -6 -2 52.39 20.1
6 9 2 67.59 19
-7 -10 -2 3.7 20.8
10 7 2 4.1 21.5
-7 -10 -2 4.6 6.5
-7 -10 -2 -3.4 4
-10 -7 -2 -5.1 9.7
-10 -7 -2 -35.4 27.9
11 8 2 21.6 6.2
-8 -11 -2 18 7.4
8 11 2 25.8 6.8
-11 -8 -2 36.4 6.9
12 9 2 4.1 6.2
-9 -12 -2 5.6 5.4
9 12 2 -2.6 6.6
-12 -9 -2 -12.2 6.8
13 10 2 -3.3 5.3
-10 -13 -2 -13.2 9.1
-13 -10 -2 10.2 10.2
-13 -10 -2 -4.8 4.5
10 13 2 -1.2 5.8
-11 -14 -2 -6.9 10
14 11 2 -2.2 5.7
11 14 2 3.4 5.9
-10 -14 2 28.1 5.8
-9 -13 2 1.1 4.8
-9 -13 2 7.9 5.4
-13 -9 2 -2.2 6
-13 -9 2 4.1 5.6
-8 -12 2 3.1 4.7
-12 -8 2 2.7 5.3
-12 -8 2 -2.1 5.7
11 7 -2 5.1 25.8
-7 -11 2 -3.7 4.8
-11 -7 2 3.3 4.1
-11 -7 2 -0.4 3.8
7 11 -2 -6.1 19.9
10 6 -2 438.46 39.5
-6 -10 2 409.86 39.3
-6 -10 2 413.36 39.6
6 10 -2 409.46 39.7
-10 -6 2 447.56 40.5
9 5 -2 202.18 21.7
-5 -9 2 223.98 21.5
-9 -5 2 228.98 22
5 9 -2 281.17 22.9
-9 -5 2 230.38 22.8
8 4 -2 10.6 13.6
-4 -8 2 5.8 9.4
-8 -4 2 6.9 14.6
4 8 -2 19.4 18.1
-3 -7 2 -2.4 4.4
7 3 -2 -1.9 11.6
-3 -7 2 2.1 3.4
-3 -7 2 -15.6 11.7
7 3 -2 -3.9 3
-3 -7 2 -2.2 3.5
-7 -3 2 -1.2 3.6
3 7 -2 -21.5 16.5
-7 -3 2 -2.8 11.7
-7 -3 2 -3.4 2.9
3 7 -2 0.1 2.1
-7 -3 2 -3.1 1.9
-2 -6 2 -4.4 9.2
-2 -6 2 13.5 4
6 2 -2 16.3 4.1
-6 -2 2 10.2 2.7
-6 -2 2 7.5 4.4
-6 -2 2 15.6 12.8
2 6 -2 2.7 9.1
-1 -5 2 912.61 126.79
5 1 -2 1073.99 125.09
-5 -1 2 902.41 122.09
-5 -1 2 1524.25 180.48
0 -4 2 1147.69 116.79
0 -4 2 1095.09 128.89
4 0 -2 958.7 172.88
0 -4 2 1104.19 144.89
-4 0 2 1221.08 161.98
-4 0 2 1162.28 170.08
-4 0 2 960.3 129.49
1 -3 2 16.2 9.4
1 -3 2 19.1 5.1
1 -3 2 12.5 2
2 -2 -2 0.3 0.8
2 -2 2 5.3 1.8
-2 2 2 0.7 0.7
-2 2 -2 4.5 3.7
-2 2 2 2.3 2.9
-2 2 2 2.1 1.2
-2 2 -2 0.7 4.1
-2 2 -2 5.4 1.8
3 -1 2 18.1 5.4
3 -1 2 14.3 2.1
1 -3 -2 12.4 2.2
-1 3 2 16.5 1.9
-1 3 2 13.4 2
-3 1 -2 13.6 4.5
-3 1 -2 14.8 2.2
0 -4 -2 889.11 142.09
0 -4 -2 1143.39 159.28
0 -4 -2 1065.19 160.98
-4 0 -2 1227.08 138.49
0 4 2 1137.39 179.58
-4 0 -2 1240.78 169.78
-4 0 -2 793.52 115.49
-1 -5 -2 1416.66 178.98
5 1 2 1549.05 172.98
5 1 2 1501.75 159.48
5 1 2 1460.95 163.28
-1 -5 -2 1422.06 176.68
-5 -1 -2 1215.58 139.59
1 5 2 1360.66 199.58
-5 -1 -2 1459.25 144.59
-5 -1 -2 1489.25 153.68
1 5 2 1500.55 198.98
-2 -6 -2 3.4 10.8
-2 -6 -2 6.5 4.7
6 2 2 2.7 10.4
6 2 2 26.3 30.2
2 6 2 -0.1 10.1
-6 -2 -2 11.7 13.3
-6 -2 -2 4.6 7.4
-3 -7 -2 -1.6 5.1
-3 -7 -2 -7.3 9.4
-3 -7 -2 -2.9 3.1
7 3 2 -9 12.4
7 3 2 -5.9 4.2
3 7 2 1.7 3.7
-7 -3 -2 -7.7 14.2
-7 -3 -2 4.3 5
3 7 2 6.4 9
-7 -3 -2 0.5 3.2
-4 -8 -2 3.1 13.1
8 4 2 12.9 14.5
-4 -8 -2 4.6 2.2
4 8 2 2.7 2.9
4 8 2 11.3 13.7
-8 -4 -2 3.7 5.4
-8 -4 -2 2.2 3.3
-8 -4 -2 -30.4 14.5
-5 -9 -2 265.57 39.6
9 5 2 331.17 30.9
9 5 2 303.17 40.7
-5 -9 -2 304.97 29.2
-9 -5 -2 248.18 38.6
-9 -5 -2 284.27 30
5 9 2 316.67 42
5 9 2 346.17 30.7
-6 -10 -2 348.27 35.2
-6 -10 -2 290.27 47.8
10 6 2 396.16 38.3
10 6 2 260.67 46.5
-10 -6 -2 366.46 37.7
-10 -6 -2 363.56 40.4
6 10 2 428.46 36.8
6 10 2 357.76 51.59
11 7 2 -6.6 3.9
-7 -11 -2 -3.7 4.6
-7 -11 -2 -1.2 6.5
-11 -7 -2 0.8 6.3
-11 -7 -2 -5.8 5.3
7 11 2 4.6 5.2
8 12 2 -3.6 4.8
-12 -8 -2 3.4 6.6
-9 -13 -2 4 5.4
13 9 2 -4.2 3.8
-9 -13 -2 10.7 8.1
-13 -9 -2 -3.5 8.5
9 13 2 2.8 5.5
-13 -9 -2 2.4 5.3
14 10 2 41.7 9.1
-14 -10 -2 43 9
10 14 2 35.2 8.4
11 15 2 50.09 10.1
-15 -10 2 29.3 8.7
-9 -14 2 15.4 6.1
-14 -9 2 13.3 5.1
-8 -13 2 1.2 5
-8 -13 2 2.1 3.3
8 13 -2 11.8 4.8
-13 -8 2 6.3 4.9
-13 -8 2 -8.3 5.7
-7 -12 2 10.6 3.9
-6 -11 2 31.1 6.2
6 11 -2 34.7 6.9
10 5 -2 16.7 8.9
-5 -10 2 8.7 11.3
-10 -5 2 14.6 10.5
-4 -9 2 109.59 11.3
-4 -9 2 91.09 12.1
-9 -4 2 125.49 11.3
4 9 -2 86.59 10
-9 -4 2 153.98 26.5
-9 -4 2 111.09 12.2
8 3 -2 2.9 2.5
8 3 -2 1 12.9
-3 -8 2 -0.9 3
-3 -8 2 0.4 10.7
-3 -8 2 5.8 2.7
-3 -8 2 5.6 2.5
-8 -3 2 5.9 2.7
-8 -3 2 30.8 15
3 8 -2 -9.3 16.4
-8 -3 2 -0.5 2.6
3 8 -2 3.2 2.4
-8 -3 2 2.2 1.7
-2 -7 2 48.1 5.3
-2 -7 2 49 6.3
-2 -7 2 54.79 12.7
-2 -7 2 50.39 5.7
7 2 -2 75.09 15.6
-7 -2 2 44.8 5.9
-7 -2 2 39.9 12.3
2 7 -2 78.09 17.3
-7 -2 2 38.8 4.9
2 7 -2 54.99 5.2
6 1 -2 285.97 105.29
-1 -6 2 221.28 19.8
-1 -6 2 205.68 26.3
-1 -6 2 218.78 26.8
6 1 -2 237.48 85.89
-6 -1 2 234.88 81.09
-6 -1 2 221.78 79.29
1 6 -2 218.38 35
0 -5 2 52.89 37
1 -4 2 267.77 31
4 -1 -2 279.97 41.7
1 -4 2 225.48 35.4
1 -4 2 262.07 25.6
4 -1 -2 257.07 30.9
-1 4 -2 237.08 33.2
-4 1 2 255.37 27.5
-4 1 2 274.37 34.5
-1 4 -2 301.47 36
-4 1 2 199.08 30
2 -3 2 17.3 6.3
3 -2 -2 13.2 1.8
-3 2 2 10.7 1.5
-3 2 2 13.5 4
-3 2 2 12.6 1.7
-3 2 2 10.2 1.8
3 -2 2 29.7 3
3 -2 2 29.5 3.2
-3 2 -2 39.1 8
-2 3 2 17.6 4.5
-3 2 -2 32.5 8.4
1 -4 -2 181.48 51.99
1 -4 -2 202.28 48.7
4 -1 2 308.17 26.8
-1 4 2 220.28 48
-4 1 -2 259.57 28.4
-1 4 2 378.46 124.29
-1 4 2 228.38 60.79
-4 1 -2 301.17 27.9
-4 1 -2 321.07 41.6
0 -5 -2 110.09 38.7
5 0 2 154.58 197.08
5 0 2 119.79 194.08
5 0 2 51.89 41.9
0 -5 -2 119.59 36.6
-5 0 -2 49.9 74.89
0 5 2 146.29 35.1
-5 0 -2 40.5 58.69
-5 0 -2 47.9 116.09
-1 -6 -2 138.49 15.5
6 1 2 291.17 219.18
-1 -6 -2 165.48 16.8
6 1 2 217.18 87.49
6 1 2 190.18 73.99
-1 -6 -2 120.69 19.5
-6 -1 -2 214.48 81.79
-6 -1 -2 153.08 56.69
-6 -1 -2 163.38 64.59
7 2 2 39.6 5.3
-2 -7 -2 26.3 12.6
-2 -7 -2 41.5 4.9
7 2 2 41 6.4
-2 -7 -2 34.1 5.8
-7 -2 -2 39.1 5.2
2 7 2 31.8 12.3
2 7 2 37.4 4.7
-7 -2 -2 32.9 5.6
-7 -2 -2 26.3 12.2
-3 -8 -2 2.2 4.1
-3 -8 -2 2.5 9.6
8 3 2 5.9 12.3
8 3 2 1.1 3.7
8 3 2 -0.9 2.9
3 8 2 1.9 2.9
-8 -3 -2 0 4.8
-8 -3 -2 3 3.2
-8 -3 -2 -38.4 16.9
3 8 2 10.4 12.9
-4 -9 -2 71.99 9
-4 -9 -2 92.29 10.6
9 4 2 78.49 9
9 4 2 46.1 16.5
-4 -9 -2 62.69 18.2
-9 -4 -2 73.29 9.1
4 9 2 110.49 23.1
-9 -4 -2 112.19 26.9
-5 -10 -2 10.6 12.2
-5 -10 -2 17.8 24.4
10 5 2 11 23.8
10 5 2 9.4 9.8
-10 -5 -2 25 28.2
5 10 2 7 30.6
-10 -5 -2 12.2 10.2
11 6 2 41.6 7.3
12 7 2 23.7 5.7
-7 -12 -2 1.2 5.4
7 12 2 4.8 5.4
-12 -7 -2 4.1 5.1
-8 -13 -2 3.2 4.8
-8 -13 -2 -4.5 6.7
13 8 2 4.4 4.3
-13 -8 -2 -7.7 5.9
-13 -8 -2 -3.4 9.8
8 13 2 4.5 4.9
14 9 2 1.2 5.7
-14 -9 -2 -1.8 5.3
9 14 2 6.9 5
-14 -9 -2 -2.4 10.5
15 10 2 19.7 6.2
-9 -15 2 47.1 8.4
-15 -9 2 39 9.3
-8 -14 2 -1.6 4.9
-8 -14 2 -8.7 5.4
-14 -8 2 -9.7 6.8
-14 -8 2 9.4 6.9
-7 -13 2 -4.9 4.5
-7 -13 2 -4.9 4.6
-13 -7 2 -5.4 5.3
-13 -7 2 -3 5.7
7 13 -2 -6 3
12 6 -2 3.4 17.7
-6 -12 2 1.2 3.1
-6 -12 2 1.2 4.4
6 12 -2 -4 4.1
-12 -6 2 3.7 4.1
-12 -6 2 1.6 4.4
11 5 -2 454.35 42
-5 -11 2 446.56 43.7
5 11 -2 460.55 40.7
-11 -5 2 423.56 42.8
-11 -5 2 470.05 42
-4 -10 2 419.36 36.6
10 4 -2 376.06 37.4
-4 -10 2 433.76 36.6
4 10 -2 416.46 36.5
-10 -4 2 369.56 36.1
-10 -4 2 389.46 37.3
9 3 -2 5.4 4.8
-3 -9 2 -0.6 2.9
-3 -9 2 -4.1 9.8
-3 -9 2 5.4 4
-9 -3 2 -20.7 18.9
-9 -3 2 -4.7 4.7
3 9 -2 2.3 3.4
8 2 -2 -0.8 9.2
-2 -8 2 -1.6 9.6
-2 -8 2 -0.9 2.2
-2 -8 2 2.1 2.5
-2 -8 2 -5.2 2.5
-8 -2 2 1.6 2.9
-8 -2 2 1.4 9.4
2 8 -2 -4.8 12
2 8 -2 -3.3 2.4
-1 -7 2 7 4.2
7 1 -2 6.2 10
-1 -7 2 3.5 2.8
-1 -7 2 -1 9.3
7 1 -2 3 4.3
-1 -7 2 2.3 3.1
-7 -1 2 1.6 9.6
-7 -1 2 3 2.7
-7 -1 2 3 3.9
1 7 -2 0.9 12
6 0 -2 1494.35 181.28
0 -6 2 1507.65 205.48
0 -6 2 1344.37 225.88
0 -6 2 1510.95 173.18
6 0 -2 1372.66 182.38
-6 0 2 1515.25 170.38
0 6 -2 1743.43 203.08
-6 0 2 1498.25 177.18
1 -5 2 1228.88 134.29
1 -5 2 1137.29 113.99
5 -1 -2 1030.7 138.89
1 -5 2 1339.97 153.68
-5 1 2 1040.4 122.09
-5 1 2 1086.39 124.39
-1 5 -2 959.6 115.69
2 -4 2 11.3 2.3
4 -2 -2 6.2 5.5
2 -4 2 7.9 3
-2 4 -2 9 7.3
-4 2 2 9.6 2.3
-4 2 2 14.5 5.9
-4 2 2 4.4 4.8
3 -3 -2 2 1.4
3 -3 -2 1 0.8
3 -3 2 -2.5 2.1
3 -3 2 -0.6 1.1
-3 3 2 3.8 1.7
-3 3 2 -3.3 4.5
-3 3 2 0.5 1
-3 3 -2 -1.6 5.1
-3 3 2 2.6 3.7
-3 3 -2 0.1 5.7
-3 3 -2 0.2 1.5
-3 3 -2 -1.3 1.3
4 -2 2 7.6 7.1
2 -4 -2 16.6 3
4 -2 2 13.9 5.6
-4 2 -2 4.5 7.1
1 -5 -2 1086.19 103.79
5 -1 2 841.52 133.19
1 -5 -2 1181.18 101.09
1 -5 -2 876.31 102.99
-1 5 2 1126.19 95.09
-5 1 -2 1097.59 203.08
-5 1 -2 1224.28 173.18
-1 5 2 1049.79 112.59
6 0 2 1510.15 165.28
0 -6 -2 1100.69 109.99
-6 0 -2 1414.76 169.88
-6 0 -2 1241.08 156.78
-6 0 -2 1343.17 157.58
0 6 2 1321.67 111.69
7 1 2 1.4 3.6
7 1 2 8.2 11.9
7 1 2 3.4 3.4
-1 -7 -2 -3.1 10.4
-1 -7 -2 8.9 2.7
-7 -1 -2 -1 2.6
-7 -1 -2 -7.9 8.1
-7 -1 -2 4.5 3.4
1 7 2 7.3 10.2
-2 -8 -2 -6.4 8.6
-2 -8 -2 -4.3 2
-2 -8 -2 0.2 3
8 2 2 -16.6 12.1
8 2 2 -5.6 4.8
2 8 2 -2.5 2.9
2 8 2 -15.1 11.5
-8 -2 -2 -2.7 4.9
-8 -2 -2 -4.1 13.9
9 3 2 -1.3 3.2
-3 -9 -2 19.6 16.4
9 3 2 22.5 16.1
-9 -3 -2 -27.8 18.8
-9 -3 -2 0.1 4.7
3 9 2 3.8 10.2
10 4 2 506.95 40.6
-4 -10 -2 415.66 38.3
-4 -10 -2 359.56 48.4
-4 -10 -2 369.16 42.1
10 4 2 400.36 50.39
4 10 2 436.86 39.5
-10 -4 -2 434.16 39.2
-10 -4 -2 320.97 52.69
-10 -4 -2 469.25 40.3
-5 -11 -2 325.17 30.2
-5 -11 -2 330.77 34.5
-5 -11 -2 265.17 45.2
-11 -5 -2 330.87 30.9
5 11 2 290.77 48.1
-11 -5 -2 366.36 32.1
-11 -5 -2 269.37 46.5
5 11 2 262.37 29
-6 -12 -2 2.7 3.2
12 6 2 -3.6 4.7
6 12 2 -2.5 4.4
-12 -6 -2 9.4 7.8
-12 -6 -2 -1.2 4.5
-7 -13 -2 0.6 3
-7 -13 -2 -2.8 5.8
-13 -7 -2 -11.6 5.8
-13 -7 -2 6 8.4
7 13 2 -5.1 4.5
14 8 2 -7.3 5.5
-14 -8 -2 6.1 7.8
8 14 2 2.5 3.6
-14 -8 -2 -8.4 4.5
15 9 2 66.89 9.8
9 15 2 43.8 9.4
-9 -16 2 3.4 6.8
-9 -16 2 6.5 6.6
-16 -9 2 3.8 8.4
-8 -15 2 -11.3 6
-15 -8 2 -2.4 5.5
-15 -8 2 9.6 7.6
-7 -14 2 -1.7 4.9
-7 -14 2 4.1 5.2
7 14 -2 -12.4 5.6
-14 -7 2 -2.8 5.1
-6 -13 2 10.5 4.4
-13 -6 2 14.9 5.5
-13 -6 2 18.5 6.5
12 5 -2 -2.9 5
-5 -12 2 -8.2 4.4
5 12 -2 1.3 3.2
-12 -5 2 0.3 5.7
-4 -11 2 27.1 11
11 4 -2 24.5 8.3
-11 -4 2 29.8 8
-3 -10 2 -5.6 11.9
-3 -10 2 5.2 7.2
-10 -3 2 4.2 4.6
-10 -3 2 1.5 2.1
3 10 -2 4.7 20.8
-2 -9 2 81.39 9
-2 -9 2 75.99 18.1
9 2 -2 80.39 11.3
9 2 -2 124.39 25.1
-2 -9 2 74.59 9.7
-9 -2 2 87.39 11.9
2 9 -2 83.99 8.9
-9 -2 2 94.69 24
8 1 -2 79.39 17.1
8 1 -2 89.89 8.8
-1 -8 2 92.59 9.2
-8 -1 2 89.59 8.9
-8 -1 2 84.29 18.8
-8 -1 2 82.19 9.6
1 8 -2 84.39 8.3
7 0 -2 8.1 7.2
0 -7 2 3 8.6
-7 0 2 -0.4 10
0 7 -2 2.4 1.8
0 7 -2 0.2 10.6
6 -1 -2 183.08 28.5
1 -6 2 178.28 47.7
1 -6 2 231.88 36.7
1 -6 2 214.88 49
-6 1 2 211.28 25.5
-1 6 -2 256.07 122.99
-6 1 2 191.08 24.2
-6 1 2 213.38 27
-1 6 -2 204.68 40.3
2 -5 2 -8.4 30.6
2 -5 2 3.1 34.1
5 -2 -2 2.6 6.1
2 -5 2 5.3 4.7
-5 2 2 4.8 7.2
-2 5 -2 14 44.2
-2 5 -2 4.6 26.4
-2 5 -2 -8.2 19.3
-4 3 2 119.39 10.7
-3 4 -2 90.49 9.5
-3 4 -2 141.59 16
-4 3 2 101.89 9.7
-4 3 2 81.29 12.6
-3 4 -2 117.89 9.8
-4 3 2 90.29 14.2
3 -4 -2 78.69 13.3
3 -4 -2 93.79 8.6
-3 4 2 91.69 13.1
-3 4 2 96.69 8.8
-3 4 2 100.79 12.5
5 -2 2 5.6 7.1
5 -2 2 4.2 3.5
2 -5 -2 -2.4 58.29
2 -5 -2 19.7 76.49
-2 5 2 3.1 67.19
-5 2 -2 7.4 7.9
-2 5 2 14.2 41.7
-5 2 -2 -0.4 3.6
6 -1 2 143.69 18.1
1 -6 -2 107.29 21.4
1 -6 -2 170.58 20.6
6 -1 2 126.29 18.4
1 -6 -2 136.79 27.5
-1 6 2 219.08 61.79
-6 1 -2 127.89 13.8
7 0 2 20.6 12.7
0 -7 -2 -2.9 10.6
-7 0 -2 6.7 9.2
0 7 2 19.7 10.4
8 1 2 82.39 8.5
-1 -8 -2 74.19 8.7
-1 -8 -2 74.19 17.2
-1 -8 -2 88.59 8.5
8 1 2 82.89 9.4
8 1 2 97.99 19.6
-8 -1 -2 85.99 10.3
1 8 2 89.39 8.5
-2 -9 -2 67.19 7.5
9 2 2 56.59 7.8
-2 -9 -2 69.69 19
9 2 2 51.39 8.9
9 2 2 48.1 17.1
-9 -2 -2 59.09 9.3
-9 -2 -2 109.59 24.4
2 9 2 33.1 12.7
-9 -2 -2 77.39 9.5
10 3 2 -11.5 9.4
-3 -10 -2 -29.8 19.6
10 3 2 -19.5 23.1
-3 -10 -2 -16.2 9.1
-10 -3 -2 -10 6.5
-10 -3 -2 -20.9 16.9
-10 -3 -2 -3.9 6.1
3 10 2 -48.3 23.8
3 10 2 3.5 11.7
-4 -11 -2 1.6 24
4 11 2 26.9 33.7
-11 -4 -2 8.2 29.5
12 5 2 2.1 4.9
-5 -12 -2 -2.9 25.8
-12 -5 -2 5.5 5
-12 -5 -2 -0.4 7.7
5 12 2 2.3 5.1
-6 -13 -2 18 6.3
-6 -13 -2 13.6 4.8
-13 -6 -2 11.8 5.3
14 7 2 -6.3 6.7
-14 -7 -2 -3.6 11.8
7 14 2 -5.8 6
-14 -7 -2 -8.9 6.9
15 8 2 -14.1 6.5
-15 -8 -2 -11.4 11.5
8 15 2 -11.6 6.6
16 9 2 2.2 5.2
-8 -16 2 -3.6 5.2
-8 -16 2 9.9 5.9
-16 -8 2 4 7.4
-16 -8 2 -0.3 7.2
-7 -15 2 -1.2 5.5
-15 -7 2 11.8 5.5
-15 -7 2 -0.1 5.6
-6 -14 2 21.1 4.9
-14 -6 2 16.5 7.7
-14 -6 2 29.8 8.1
6 14 -2 23.3 5.7
-5 -13 2 -2.8 3.8
-5 -13 2 3.5 3.9
-13 -5 2 5 4.2
-4 -12 2 -6.1 3.7
-4 -12 2 5.6 3.5
12 4 -2 -3.8 5.4
4 12 -2 0.2 4.4
-12 -4 2 9.5 5.3
-12 -4 2 -10.9 5.9
-3 -11 2 -3.4 5.1
-3 -11 2 -8.3 5.4
11 3 -2 -4.8 6.5
3 11 -2 -10.9 6
-11 -3 2 -8.4 6.6
-2 -10 2 17.3 4.5
-2 -10 2 22.9 5.1
10 2 -2 15.3 10
-10 -2 2 29.9 5.9
2 10 -2 24.3 4.5
-10 -2 2 12.3 7.1
9 1 -2 192.98 26.9
-1 -9 2 173.28 14.8
-1 -9 2 133.19 16
9 1 -2 120.69 14.5
-1 -9 2 140.99 14.6
-1 -9 2 169.38 23.9
1 9 -2 168.58 14.3
-9 -1 2 208.28 29.2
-9 -1 2 165.28 16.5
1 9 -2 159.78 26.1
0 -8 2 20.3 4.6
0 -8 2 18.1 3.6
8 0 -2 45.2 13.9
0 -8 2 22.7 11.2
-8 0 2 15.9 13.2
-8 0 2 23.6 4.7
1 -7 2 1.5 1.6
7 -1 -2 10.9 10.2
1 -7 2 3.5 6.1
-7 1 2 4.5 9.4
-1 7 -2 -5.4 10.1
6 -2 -2 -2.7 5.6
2 -6 2 8.7 6.9
-2 6 -2 20.3 7.1
-2 6 -2 8.2 11.5
-6 2 2 -5 8.6
3 -5 2 46.5 4.9
5 -3 -2 45.1 6.2
3 -5 2 38.6 10.9
-5 3 2 33.6 5.1
-3 5 -2 48 4.8
-5 3 2 44.4 4.9
-3 5 -2 47.3 5.4
4 -4 2 138.79 12.7
4 -4 -2 145.29 16.9
4 -4 2 146.59 13.1
-4 4 2 127.49 17.3
-4 4 2 141.59 18.1
-4 4 2 123.69 16.5
-4 4 -2 125.79 17.8
3 -5 -2 43.5 9.6
3 -5 -2 24.6 3.5
5 -3 2 47.2 12.4
-5 3 -2 21.2 3.4
-5 3 -2 46.1 12
-3 5 2 30 3.5
-5 3 -2 43.4 13.5
-3 5 2 30.1 8.1
-5 3 -2 27.9 4.5
2 -6 -2 7.6 7.1
2 -6 -2 13.4 3.1
-6 2 -2 4.7 10.7
-2 6 2 1.4 5.9
7 -1 2 17.6 12.5
7 -1 2 8.1 2.4
1 -7 -2 2.3 7.1
-1 7 2 10.8 9.1
-7 1 -2 -1.1 9.7
0 -8 -2 21.9 3.8
0 -8 -2 18.6 3.7
8 0 2 26.7 4.2
0 -8 -2 12.8 12.6
8 0 2 23.7 4.6
0 8 2 30.5 4.3
-8 0 -2 8.8 11.6
-8 0 -2 25.9 4.2
-1 -9 -2 149.79 25.6
9 1 2 110.29 20.8
9 1 2 103.09 12.9
-1 -9 -2 138.29 12.6
9 1 2 108.09 11.7
-9 -1 -2 142.29 15.6
1 9 2 163.98 22
-9 -1 -2 137.59 24.5
-9 -1 -2 105.79 11.8
-2 -10 -2 -4.1 17.6
10 2 2 -7.6 56.29
10 2 2 -13.9 21.8
10 2 2 10.5 25.2
-10 -2 -2 -1.6 36.2
2 10 2 13.9 17.5
-10 -2 -2 -12.8 29.5
-10 -2 -2 23.1 26
11 3 2 -56.79 25.4
-3 -11 -2 7.9 5.5
-3 -11 -2 -18.1 8.5
3 11 2 25.5 21.3
-11 -3 -2 -10.2 16.9
-11 -3 -2 3.2 5.7
-4 -12 -2 -14.5 30.3
-12 -4 -2 -0.9 4.1
4 12 2 -13.3 6.9
-12 -4 -2 8.6 7.3
13 5 2 3.2 3.1
-13 -5 -2 4.9 4.7
-13 -5 -2 -2.7 8.2
5 13 2 3.5 3.2
6 14 2 10.6 7.1
15 7 2 3.6 6.6
-15 -7 -2 -1.9 5
-15 -7 -2 -22.3 11.9
8 16 2 5 6.8
-16 -8 -2 5 9.6
-8 -17 2 -2.4 5.3
-8 -17 2 -5.1 4.7
-17 -8 2 -12.4 7.8
-17 -8 2 2.3 7.7
-7 -16 2 4.3 4
-7 -16 2 5.8 5.6
-6 -15 2 7.3 6.5
-15 -6 2 14.9 8.5
-15 -6 2 -3.4 9.9
6 15 -2 -10.7 6.2
-5 -14 2 2.6 3.6
-5 -14 2 3 4.9
5 14 -2 -0.5 4
-14 -5 2 -2 5.5
-14 -5 2 4.5 5.7
-4 -13 2 5.3 4.3
-13 -4 2 9.3 4.8
-13 -4 2 -0.9 5.3
4 13 -2 1 2.4
12 3 -2 5.7 4.5
-3 -12 2 11.8 3.9
-12 -3 2 21.4 5.3
3 12 -2 15.4 4.1
-2 -11 2 100.69 10.2
-2 -11 2 95.79 9.8
-11 -2 2 107.19 12.1
2 11 -2 79.39 9.4
-11 -2 2 70.69 10.7
10 1 -2 100.69 54.29
-1 -10 2 38.2 128.29
-1 -10 2 29.1 7.6
1 10 -2 14.3 80.39
-10 -1 2 52.59 51.09
9 0 -2 0.6 10.7
0 -9 2 2.2 12.5
0 9 -2 6.4 5.6
0 9 -2 10.1 18.5
-9 0 2 5.9 1.2
-9 0 2 6.4 12
8 -1 -2 74.89 7.9
8 -1 -2 80.39 17.1
1 -8 2 79.19 8.6
1 -8 2 77.89 7.3
1 -8 2 57.79 12.9
-1 8 -2 76.39 7.3
-1 8 -2 115.69 18.1
-8 1 2 45.6 14.1
-8 1 2 80.89 7.9
-8 1 2 65.29 8.1
7 -2 -2 35.1 5.1
2 -7 2 49.1 6
2 -7 2 47.3 4.8
2 -7 2 40.1 10.4
-7 2 2 34.6 4.9
-2 7 -2 47.7 5.1
-2 7 -2 42.2 4.7
-2 7 -2 43.2 11.2
-7 2 2 35.3 5
6 -3 -2 125.39 19.8
3 -6 2 168.98 14.4
3 -6 2 173.48 20.6
-6 3 2 122.19 19.3
-6 3 2 148.99 14.3
4 -5 2 19.4 15
4 -5 2 14.1 20.7
-4 5 -2 12 15.7
-4 5 -2 9.5 15.9
-5 4 2 12.5 25.1
-4 5 -2 14.7 16
4 -5 -2 7.8 9.3
5 -4 2 52.49 161.08
5 -4 2 26.8 60.99
-5 4 -2 56.99 99.69
-5 4 -2 4.7 46.5
-4 5 2 0.1 26.4
-5 4 -2 27.3 38.2
-4 5 2 13.2 11.5
-5 4 -2 40.3 69.99
3 -6 -2 138.29 13.7
6 -3 2 174.58 16.3
3 -6 -2 151.28 19.7
6 -3 2 139.49 15
6 -3 2 208.98 25.7
-3 6 2 128.29 18.9
-3 6 2 141.89 13.9
-6 3 -2 163.08 22.1
-6 3 -2 169.08 15.3
-6 3 -2 182.18 16
7 -2 2 43.5 4.7
2 -7 -2 30.8 10.9
7 -2 2 36.7 4.5
-2 7 2 33.7 4.4
-2 7 2 40.8 10.4
-7 2 -2 39.1 11.2
-7 2 -2 42.2 4.4
-7 2 -2 34.7 5.3
1 -8 -2 52.79 12.8
8 -1 2 52.09 5.6
8 -1 2 48 5.3
1 -8 -2 41.4 5.1
-1 8 2 55.09 12.1
-8 1 -2 48.6 5.4
-8 1 -2 57.59 6.5
9 0 2 -8.6 14
0 -9 -2 16.6 16.1
9 0 2 4.3 5
9 0 2 3.4 5.6
-9 0 -2 -3.4 5
0 9 2 -0.8 14.7
-9 0 -2 0.8 15.3
10 1 2 33.3 156.48
10 1 2 -40.2 92.39
-1 -10 -2 43.7 98.29
10 1 2 1.2 98.79
-1 -10 -2 -45.6 63.99
1 10 2 72.59 112.89
-10 -1 -2 -56.29 114.39
1 10 2 23.3 99.89
-10 -1 -2 -35.9 65.49
-2 -11 -2 65.89 20.4
11 2 2 98.49 11.4
-11 -2 -2 83.59 27.3
2 11 2 91.09 29.4
2 11 2 101.19 11.3
-11 -2 -2 112.39 11.9
-12 -3 -2 13.1 4.6
-12 -3 -2 3.3 4.9
3 12 2 -37.6 34.8
13 4 2 -2.4 2.8
-4 -13 -2 2.2 2.7
-13 -4 -2 -1.1 7.2
-13 -4 -2 8.8 3.5
14 5 2 0.2 3.8
-5 -14 -2 8.3 4.9
5 14 2 4.5 5.5
-14 -5 -2 -0.9 4.9
15 6 2 -13 6.7
-15 -6 -2 4.9 13.3
-15 -6 -2 -6.4 6.8
6 15 2 -1.9 6.1
16 7 2 10.1 6.5
7 16 2 1.6 4.2
-16 -7 -2 1.7 5.5
-16 -7 -2 8.1 7.5
-7 -17 2 6.2 5.3
-17 -7 2 2 5.4
-17 -7 2 -11.8 7.2
-16 -6 2 54.19 8.2
-5 -15 2 256.27 24.8
-5 -15 2 247.28 25.2
-15 -5 2 273.77 25.5
5 15 -2 253.67 23.8
-15 -5 2 246.18 26.3
-4 -14 2 32.5 5.6
4 14 -2 23.6 4.3
-14 -4 2 31.9 6.9
-3 -13 2 -1.4 3.9
-3 -13 2 -3.2 2.7
-13 -3 2 -2.6 3.8
-13 -3 2 1.9 4.5
12 2 -2 6.5 4.7
-2 -12 2 6.8 4
2 12 -2 -3.8 2.6
-12 -2 2 -2.7 3.5
-12 -2 2 5.9 4.5
-1 -11 2 218.38 20
-1 -11 2 192.08 21.4
11 1 -2 201.98 20.5
-11 -1 2 202.88 21.1
-11 -1 2 221.88 20.5
1 11 -2 220.38 20.2
0 -10 2 1218.48 139.29
10 0 -2 975.2 100.69
0 -10 2 988.1 91.49
-10 0 2 1122.49 132.49
-10 0 2 979.2 101.29
9 -1 -2 135.79 24.5
1 -9 2 155.38 15.5
1 -9 2 143.49 21
1 -9 2 146.79 13.5
9 -1 -2 145.19 14.5
-1 9 -2 139.39 13.4
-9 1 2 133.99 14.4
-9 1 2 135.29 24.2
-1 9 -2 182.88 26
2 -8 2 -1.8 2
2 -8 2 6.4 6.8
2 -8 2 -1.7 2.3
8 -2 -2 -1.2 1.7
8 -2 -2 -3.2 11.8
-8 2 2 -23.5 12.9
-2 8 -2 2.4 2.5
-8 2 2 -2.8 2.2
-2 8 -2 -9.7 12.5
-2 8 -2 0.4 1.7
-8 2 2 2.8 2.4
7 -3 -2 -3.2 7.6
3 -7 2 -0.2 8.8
3 -7 2 1.8 2.1
7 -3 -2 2 6.8
3 -7 2 1 2
-7 3 2 -2.3 5.2
-7 3 2 1.1 2.3
-3 7 -2 -2.5 1.7
-7 3 2 0.4 8.2
-3 7 -2 8.6 11
6 -4 -2 227.58 94.39
4 -6 2 142.99 18.4
4 -6 2 146.19 20.4
-6 4 2 150.68 19.8
-6 4 2 125.29 43.3
-6 4 2 166.18 75.29
-4 6 -2 209.28 33.1
-6 4 2 171.28 89.99
-4 6 -2 125.79 21.5
-4 6 -2 176.38 34
5 -5 -2 959.2 118.29
-5 5 2 1195.28 131.99
-5 5 2 1088.99 130.09
-5 5 -2 1043.1 149.39
6 -4 2 197.58 32.6
6 -4 2 235.58 97.89
4 -6 -2 140.19 21.9
4 -6 -2 129.99 15.4
-6 4 -2 139.49 41.7
-6 4 -2 241.78 157.38
-4 6 2 154.78 15.2
-6 4 -2 246.38 85.59
-6 4 -2 179.28 68.79
3 -7 -2 -0.7 2.1
7 -3 2 3 3.8
3 -7 -2 -1.2 9.1
7 -3 2 2.3 2.6
7 -3 2 0.9 13.4
-7 3 -2 -1.9 3.1
-3 7 2 2.3 8.7
-3 7 2 -1.2 1.7
-7 3 -2 -7.3 3.4
-7 3 -2 -16.8 11.7
8 -2 2 -4.1 2
2 -8 -2 -1.4 11
8 -2 2 1.5 14.1
8 -2 2 -3 2
-8 2 -2 -21.1 11.4
-2 8 2 12.6 9.9
-8 2 -2 -4.3 3
-8 2 -2 -2.3 2.2
1 -9 -2 94.89 11.2
9 -1 2 146.19 24.4
9 -1 2 124.09 12
9 -1 2 122.29 11.1
1 -9 -2 121.09 22.5
-9 1 -2 103.19 11.3
-1 9 2 121.79 21
0 -10 -2 1429.16 123.69
0 -10 -2 1524.65 123.99
10 0 2 1266.47 180.08
-10 0 -2 1092.59 121.89
-10 0 -2 1483.05 149.69
11 1 2 172.28 16.3
-1 -11 -2 181.08 31.9
11 1 2 131.79 31.4
-11 -1 -2 175.38 16.5
-11 -1 -2 141.29 17.5
1 11 2 110.99 26.2
1 11 2 149.29 15.6
12 2 2 -7.1 4.1
-2 -12 -2 -7.1 3.4
2 12 2 -0.6 4.2
-12 -2 -2 2.8 6.7
-12 -2 -2 -4 4.2
2 12 2 18.3 33.5
13 3 2 8.8 3.9
-3 -13 -2 4.1 17.3
3 13 2 9.3 4.2
-13 -3 -2 -3.8 5.2
-4 -14 -2 30.2 5.1
14 4 2 18.5 4.4
-14 -4 -2 23.1 5.3
-15 -5 -2 234.48 23.5
-15 -5 -2 212.78 25.4
5 15 2 263.37 23.3
16 6 2 28.9 5.7
-16 -6 -2 31.4 5.9
17 7 2 -3.9 5.9
-17 -7 -2 -3.4 10.7
-17 -7 -2 -3.6 5.6
7 17 2 -11.6 5.9
-6 -17 2 5.9 5.4
-17 -6 2 -3.5 7.6
-5 -16 2 15 6.4
-16 -5 2 7.5 7.4
-4 -15 2 -3.8 7.3
-4 -15 2 -2.3 8.1
4 15 -2 6.1 4.8
-15 -4 2 7.3 8.1
-3 -14 2 7.2 3.2
-3 -14 2 10 3.6
3 14 -2 4.1 3.9
-14 -3 2 -9 5.8
-14 -3 2 -0.9 5
-2 -13 2 0.7 2.5
-2 -13 2 3 3.6
2 13 -2 4.3 3.1
-13 -2 2 2.3 5
-13 -2 2 -3.1 3.3
12 1 -2 53.79 7.2
-1 -12 2 31.7 7.2
-1 -12 2 50.29 6.2
1 12 -2 38.2 5.5
-12 -1 2 53.89 7.2
11 0 -2 -1.7 12.4
0 -11 2 16.3 8.1
-11 0 2 9.4 11
10 -1 -2 18.8 92.39
1 -10 2 96.19 99.39
-1 10 -2 96.59 90.29
-10 1 2 18.4 94.89
9 -2 -2 39.2 5.8
9 -2 -2 36.8 15.3
2 -9 2 41.3 14.7
2 -9 2 56.99 6.8
-9 2 2 43 6
-2 9 -2 62.19 7.7
-9 2 2 49.3 6.2
-9 2 2 39 16.7
8 -3 -2 3 3.1
3 -8 2 -1.2 3
3 -8 2 0.5 2
8 -3 -2 6.4 8.3
3 -8 2 0 9.4
-8 3 2 2.2 10.8
-3 8 -2 3.3 1.6
-3 8 -2 0.9 2
-3 8 -2 -2.7 12.5
4 -7 2 94.69 16.6
7 -4 -2 69.49 8.1
4 -7 2 65.89 7.5
-7 4 2 76.49 16
-4 7 -2 62.99 7.1
-4 7 -2 47.4 13
-7 4 2 47.2 6.3
-7 4 2 47.2 14.2
-7 4 2 64.89 7.2
5 -6 2 36.7 60.79
5 -6 2 15.6 27.4
6 -5 -2 35.6 33
-5 6 -2 6.9 11.9
-6 5 2 19.1 13.1
-6 5 2 30 33.8
-5 6 -2 16.2 36
-5 6 -2 7.5 12.2
-5 6 -2 23.5 25.2
5 -6 -2 17.6 25.7
-5 6 2 12.5 13.4
-5 6 2 18.8 13.7
-6 5 -2 101.49 73.29
7 -4 2 60.49 6.6
7 -4 2 76.49 7.9
7 -4 2 94.19 20
-4 7 2 48.7 12.7
-7 4 -2 67.49 8.5
-7 4 -2 72.59 20.5
-4 7 2 53.49 6.8
-7 4 -2 66.29 7.4
8 -3 2 1.5 1.4
3 -8 -2 8.8 11.2
8 -3 2 -2.9 2.1
3 -8 -2 -1.2 2.3
8 -3 2 18.9 14.9
-8 3 -2 2.5 3.4
-8 3 -2 -1 11.6
-3 8 2 -7.8 7.3
-8 3 -2 0.1 1.5
-3 8 2 -0.1 1.7
9 -2 2 42.7 6
2 -9 -2 64.39 19.1
9 -2 2 60.99 6
9 -2 2 49.1 17.6
-9 2 -2 80.79 18.8
-9 2 -2 48.4 6.1
10 -1 2 10.7 99.59
10 -1 2 20.7 58.89
10 -1 2 -33.7 56.39
-10 1 -2 10.1 81.39
-10 1 -2 -20 46.8
11 0 2 10.9 11.1
11 0 2 2.1 24.2
0 -11 -2 24.7 17.3
0 11 2 -1.1 25.4
-11 0 -2 -2.9 20.3
-11 0 -2 -1.9 8.7
12 1 2 31.4 5.7
12 1 2 26.1 4.3
-12 -1 -2 30.2 4.8
1 12 2 38 4.9
-12 -1 -2 18.2 23.2
1 12 2 13.9 26.1
13 2 2 -1.8 3.8
2 13 2 4.1 4
-13 -2 -2 5.4 7.1
-13 -2 -2 -6.6 4.3
-3 -14 -2 8.1 3.4
14 3 2 0.5 3.2
-14 -3 -2 6.3 5.7
3 14 2 6.2 4.5
-14 -3 -2 5.9 3.8
15 4 2 1.4 6.2
-15 -4 -2 9.6 7.5
-15 -4 -2 20.8 8.3
-16 -5 -2 19.2 6.8
17 6 2 9.7 4.5
-17 -6 -2 12.8 5.2
-17 -6 -2 -8 10.5
-5 -17 2 3.8 5.4
-5 -17 2 -8.8 5.6
-17 -5 2 -2.2 6.1
-17 -5 2 3.2 6.5
-16 -4 2 43.5 9.6
-3 -15 2 3.2 6.2
-3 -15 2 -3.9 5.5
-15 -3 2 -13.4 8
3 15 -2 -6 5
-15 -3 2 7.5 6.1
-2 -14 2 -0.8 3.5
-14 -2 2 -9.2 6.9
2 14 -2 -2.9 4.1
-14 -2 2 -6.7 5.9
-1 -13 2 7.5 4.9
-13 -1 2 0.4 4.6
1 13 -2 7.4 3
-13 -1 2 13.6 4.9
12 0 -2 -0.3 4.4
0 12 -2 6.7 3.5
-12 0 2 4.8 3.7
1 -11 2 194.48 17.8
1 -11 2 217.68 19.6
11 -1 -2 171.28 19.3
-11 1 2 172.08 19
-11 1 2 175.68 18.9
-1 11 -2 189.28 17.7
2 -10 2 -1.6 18.7
-10 2 2 14.2 3.5
-2 10 -2 10.4 9.2
9 -3 -2 16 15.6
3 -9 2 -4 12
-3 9 -2 2.5 3.3
-9 3 2 8.6 14.8
-9 3 2 0.4 2.6
4 -8 2 7.5 11.1
8 -4 -2 4.7 12.6
4 -8 2 9.8 3.2
-4 8 -2 5.3 1.8
-4 8 -2 9.7 11.6
-8 4 2 9.7 12
-8 4 2 -0.9 11.7
5 -7 2 19.9 4.2
-7 5 2 -1.2 13.2
-5 7 -2 7.6 12.9
-5 7 -2 17 13.5
-5 7 -2 11.4 3
-7 5 2 7.4 5.7
-7 5 2 -5.9 9
6 -6 -2 205.48 17.9
6 -6 2 160.88 20
-6 6 -2 183.28 25.6
-6 6 2 229.78 26.9
-6 6 2 156.48 22.7
-6 6 2 171.78 17
5 -7 -2 -13.1 12.8
7 -5 2 4 12.2
-5 7 2 -5.2 10.7
-7 5 -2 7.3 6.1
-5 7 2 -8.5 11.5
-7 5 -2 -19.2 16.6
-7 5 -2 -38.8 25.4
-7 5 -2 9.2 9.1
4 -8 -2 7.5 2.6
8 -4 2 1.3 1.7
4 -8 -2 5.1 11.4
8 -4 2 15.1 15.5
-4 8 2 6.1 8.1
-8 4 -2 -2.1 12.6
-8 4 -2 2.7 2.5
-8 4 -2 2.7 19.6
3 -9 -2 20.2 15
9 -3 2 36.8 15.9
-3 9 2 14.4 14
-9 3 -2 3.9 14.5
2 -10 -2 -1.9 53.39
2 -10 -2 -44.2 24.9
-10 2 -2 16.7 4.8
-10 2 -2 10.8 4.2
-10 2 -2 8.9 17
-2 10 2 11.8 39.1
-2 10 2 -44.7 25.8
11 -1 2 176.28 19.1
11 -1 2 284.17 41.8
1 -11 -2 147.89 30.6
1 -11 -2 213.38 19.9
-11 1 -2 221.08 19.4
-11 1 -2 213.48 20.7
-1 11 2 200.78 19.8
0 -12 -2 -3.2 4.3
12 0 2 2.6 2.9
12 0 2 3.4 3.8
0 12 2 -31.8 35.9
-12 0 -2 4.1 4.4
-12 0 -2 -0.5 3.9
-12 0 -2 -5.5 15
-1 -13 -2 10.6 11.5
13 1 2 8.7 3.8
-13 -1 -2 2.5 3.8
-13 -1 -2 -2.9 6.2
-2 -14 -2 -9.4 4.3
14 2 2 -5.8 4.3
-14 -2 -2 6.8 8.4
15 3 2 -4.4 6.2
-15 -3 -2 -3.3 6.5
3 15 2 -6.7 6.7
-15 -3 -2 -3.1 6.3
16 4 2 44 8.6
-16 -4 -2 50.99 8.9
17 5 2 6.5 5.8
-17 -5 -2 3.7 10.1
-17 -5 -2 2.8 5.8
5 17 2 9.1 5.2
-5 -18 2 -5.4 5.7
-18 -5 2 9.9 7.1
-18 -5 2 -9.6 5.8
-4 -17 2 4.9 4.2
-17 -4 2 -0.3 6.7
-17 -4 2 2 7.5
-3 -16 2 15.7 7.2
-3 -16 2 18.9 6.2
-16 -3 2 7.9 8.1
3 16 -2 12.2 6.6
-15 -2 2 2.4 6.6
-15 -2 2 -22.7 11.3
2 15 -2 -3.2 5.4
-1 -14 2 21.7 6.3
-1 -14 2 11.8 6.1
-14 -1 2 26.6 5.8
-14 -1 2 26.4 6.8
1 14 -2 17.6 5.5
0 -13 2 0.2 2.6
0 -13 2 1.7 3.2
0 13 -2 -2.3 2.1
-13 0 2 -0.8 3.7
-13 0 2 1.2 4.4
1 -12 2 37.2 6.4
12 -1 -2 49.3 6.6
1 -12 2 28.8 4.5
-12 1 2 45 6.4
-12 1 2 33.6 5.8
-1 12 -2 37.5 5.1
2 -11 2 80.29 9.1
-2 11 -2 53.49 8
-11 2 2 57.99 8.9
-2 11 -2 79.19 8.3
3 -10 2 -2.7 4.1
10 -3 -2 7.2 8.1
-3 10 -2 -3.7 3.1
-3 10 -2 -8.7 5.9
9 -4 -2 69.99 8.2
4 -9 2 60.79 7.1
-4 9 -2 51.69 6.4
-9 4 2 48.1 6.9
-4 9 -2 58.09 6.2
-9 4 2 60.39 19.6
-9 4 2 94.19 20.6
-9 4 2 54.39 7.2
5 -8 2 3 2.7
8 -5 -2 -2.4 2.8
5 -8 2 0.9 2.3
5 -8 2 -0.5 9
-8 5 2 1.6 1.9
-8 5 2 -9.2 9.9
-5 8 -2 4.1 9.2
-8 5 2 -0.1 2.9
-8 5 2 -8.7 13.4
-5 8 -2 -4 3
6 -7 2 76.79 8.4
6 -7 2 72.59 8.2
7 -6 -2 64.79 8.3
-7 6 2 56.79 17.6
-6 7 -2 79.59 8.4
-6 7 -2 67.99 15.3
-6 7 -2 84.29 8.4
7 -6 2 64.99 7.4
7 -6 2 58.49 7.3
6 -7 -2 76.59 7.9
-6 7 2 50.69 15.6
-7 6 -2 82.69 9.3
-6 7 2 65.59 7.4
-6 7 2 74.29 16.8
-7 6 -2 79.89 8.1
-7 6 -2 44.6 15.7
8 -5 2 1.5 1.4
5 -8 -2 -0.6 2.2
5 -8 -2 8.1 10.6
8 -5 2 -1.5 3.1
-8 5 -2 -32.3 16.7
-5 8 2 3.9 2.9
-5 8 2 7.9 13.1
-5 8 2 7.4 9.1
-8 5 -2 -1.8 2.4
-8 5 -2 -2.9 4.2
9 -4 2 103.79 25.9
9 -4 2 53.89 7.7
4 -9 -2 76.39 7.8
-9 4 -2 74.79 21
-4 9 2 65.39 18.5
-4 9 2 79.19 8.2
-9 4 -2 55.69 7.6
3 -10 -2 -15.6 17.5
10 -3 2 -12 25.2
-3 10 2 -3.6 3.8
-10 3 -2 -14.3 14.1
-3 10 2 -10.7 18.4
11 -2 2 99.59 31.9
11 -2 2 58.49 7.6
2 -11 -2 91.39 25.4
-2 11 2 81.59 27.7
-11 2 -2 72.79 8.9
-11 2 -2 73.29 8.5
-11 2 -2 55.99 21.9
12 -1 2 43.7 5.5
1 -12 -2 40.8 5.6
12 -1 2 38.8 5.8
-12 1 -2 41 5.7
-1 12 2 10 35
0 -13 -2 4.6 24.2
13 0 2 2.1 3.6
0 13 2 2.4 2.9
-13 0 -2 4.2 3.7
-13 0 -2 -2.1 6
14 1 2 30 5.9
-14 -1 -2 27.3 6.2
1 14 2 20.6 7.2
15 2 2 -15.7 8.6
16 3 2 9.4 7.2
3 16 2 24.9 8.2
-16 -3 -2 38.9 10.2
17 4 2 1.5 5.5
-17 -4 -2 11.3 10.2
4 17 2 -4.4 5.4
-17 -4 -2 -5.6 5.6
-18 -5 -2 -19.7 11.2
-18 -5 -2 -13.4 6.2
5 18 2 -6.7 4.3
-4 -18 2 10.9 4.3
-18 -4 2 -4.8 7.7
-18 -4 2 -2.9 6.1
-17 -3 2 -1.6 5
-17 -3 2 -6.7 5.4
-2 -16 2 -12 6.6
2 16 -2 -6.8 4
-16 -2 2 2.8 7.1
-16 -2 2 -1.4 6.8
-1 -15 2 131.99 15.1
1 15 -2 98.69 11.6
-15 -1 2 122.79 13.8
0 -14 2 118.79 11.4
-14 0 2 98.59 11.8
-14 0 2 84.99 12.9
0 14 -2 120.49 11.1
1 -13 2 7.3 3.2
1 -13 2 13.8 4.1
-13 1 2 7.7 4
-13 1 2 4.4 5.3
-1 13 -2 5.6 2.3
2 -12 2 -2.4 3.1
-12 2 2 -4 3.2
-2 12 -2 0 2.3
-12 2 2 6.9 4.5
11 -3 -2 -1.6 9.3
-3 11 -2 -6.7 5.2
-11 3 2 -3.6 6.4
-3 11 -2 1.2 3.2
4 -10 2 293.27 25.7
4 -10 2 235.98 24.6
-4 10 -2 302.67 26.1
-4 10 -2 263.47 25.8
-10 4 2 302.07 28.7
5 -9 2 230.88 20.9
5 -9 2 185.18 19
-9 5 2 179.58 31.6
-9 5 2 183.58 20.1
-5 9 -2 209.78 19.5
-5 9 -2 142.49 25.3
-5 9 -2 200.98 19.3
6 -8 2 6.3 4.5
6 -8 2 3.4 2.8
-6 8 -2 4.7 3.6
-8 6 2 -1.1 14
-6 8 -2 -26.6 17.4
-8 6 2 -19.7 17
7 -7 2 3.5 2
7 -7 -2 -0.5 2.8
-7 7 2 1.7 1.9
-7 7 -2 1.8 2
-7 7 2 14.4 14.8
-7 7 -2 23.3 16.6
-7 7 2 -18.1 14.2
-7 7 -2 -1.9 3.1
8 -6 2 11.4 2.5
-8 6 -2 12.8 16.7
-8 6 -2 7.3 3.9
-6 8 2 6.4 10
-6 8 2 11.4 12.6
9 -5 2 174.18 17.5
5 -9 -2 183.18 18.2
9 -5 2 161.88 18.2
-9 5 -2 206.18 20
-9 5 -2 150.58 26.2
-9 5 -2 173.38 18.3
-5 9 2 194.78 30.4
-5 9 2 214.38 18.1
10 -4 2 214.78 35
10 -4 2 243.98 23.9
4 -10 -2 233.28 35.8
10 -4 2 213.28 22.5
-10 4 -2 296.47 26.3
-10 4 -2 258.77 35.7
-10 4 -2 271.37 23.6
3 -11 -2 -35.8 21.5
11 -3 2 0 3.4
-3 11 2 -2.7 28.4
-11 3 -2 -9.1 5.2
-11 3 -2 5.3 7.9
-11 3 -2 -48.6 21.6
2 -12 -2 5.1 3.9
12 -2 2 -3.5 3.3
-2 12 2 -1.9 23.9
-12 2 -2 0.5 5.3
-12 2 -2 -3.5 3.5
-2 12 2 4.9 4
13 -1 2 8.5 3.4
1 -13 -2 9.7 30
-13 1 -2 2.6 4.9
14 0 2 99.49 10.5
-14 0 -2 96.29 10.7
15 1 2 127.59 15.1
-15 -1 -2 129.09 16
-15 -1 -2 160.38 19.3
1 15 2 142.19 15.9
16 2 2 -1.8 6
2 16 2 -14.6 6.8
-16 -2 -2 9.3 8.7
-16 -2 -2 -10.2 6
-17 -3 -2 28.9 10.2
-17 -3 -2 2.8 3.9
3 17 2 1.6 5.4
18 4 2 3.7 4.2
4 18 2 2.6 5.4
-18 -4 -2 -0.5 10.2
-18 -4 -2 0.3 4
-3 -18 2 1.9 4.8
-18 -3 2 -2.4 6.3
-18 -3 2 -5.5 7.4
-2 -17 2 5.3 5.5
-2 -17 2 0.7 3.4
-17 -2 2 9.8 5.4
-17 -2 2 2.8 7.1
2 17 -2 3.8 3.8
-1 -16 2 25.9 7.3
-16 -1 2 19.4 7.9
-16 -1 2 20.4 7.8
0 -15 2 21.3 7.3
-15 0 2 40.8 10.9
1 -14 2 46 7.3
1 -14 2 31 6.6
-14 1 2 34.4 8.7
-1 14 -2 41.2 7
2 -13 2 -2.1 3.2
2 -13 2 5.5 3.3
-13 2 2 -3.3 6.1
-13 2 2 0.1 2.7
-2 13 -2 2.3 2.8
12 -3 -2 10.1 6.3
3 -12 2 11.6 3.5
-3 12 -2 9.5 3.5
-12 3 2 16.8 4.8
-3 12 -2 5.6 2.2
4 -11 2 29.1 11.7
-11 4 2 12.9 10.2
-4 11 -2 17.3 7.1
5 -10 2 7.2 6.1
10 -5 -2 14 9.8
-10 5 2 26.1 31.8
-10 5 2 -3.6 8.3
-6 9 -2 34.6 6.9
-6 9 -2 46.8 19.9
-9 6 2 18 18.9
7 -8 2 12.1 4
7 -8 2 5.5 2.5
-7 8 -2 -1.2 3.9
-8 7 2 11.4 15.8
-7 8 -2 8.4 3.5
-7 8 -2 1.1 11.5
7 -8 -2 2.1 5.7
-7 8 2 4.4 4.2
-8 7 -2 2.5 2.7
-7 8 2 -1.5 16.3
-8 7 -2 2.8 2.9
-8 7 -2 7.6 17.5
-9 6 -2 21.8 18.3
-6 9 2 5.9 21
5 -10 -2 24.6 18.8
10 -5 2 -26.5 31.3
10 -5 2 4.3 12.8
-10 5 -2 15.5 12.6
-5 10 2 -19.9 30
-10 5 -2 11.5 22.4
4 -11 -2 25.1 6.7
-11 4 -2 30.7 22.6
-4 11 2 28.1 31.6
12 -3 2 8 2.9
-3 12 2 10.5 3.2
-12 3 -2 -1.2 6
-3 12 2 40 34.5
2 -13 -2 6.5 3.1
13 -2 2 2.6 2.6
-2 13 2 2.1 4
-13 2 -2 2.5 4
-13 2 -2 6.5 3.5
-14 1 -2 43.8 9.1
-1 14 2 54.19 8.5
15 0 2 44.5 9.4
1 16 2 36.5 8
17 2 2 -1 4.3
-17 -2 -2 7.7 5.6
2 17 2 13 5.9
18 3 2 -10.8 5.7
-18 -3 -2 -2.7 5.8
-18 -3 -2 10.8 10.4
3 18 2 -0.9 5.4
-2 -18 2 4 6.6
-18 -2 2 -5.8 6.9
-18 -2 2 -4.5 8.2
-1 -17 2 3.4 6.3
-1 -17 2 -1.2 4.3
1 17 -2 2.7 3.9
-17 -1 2 -5.6 9.3
0 -16 2 124.49 12.5
0 -16 2 104.99 14.1
0 16 -2 122.09 12
-16 0 2 105.09 12.9
-16 0 2 85.49 13.3
1 -15 2 107.09 11.8
1 -15 2 95.99 12.9
-1 15 -2 133.79 12.7
-15 1 2 98.89 14.6
2 -14 2 2.4 3.7
2 -14 2 -3.5 4.9
-2 14 -2 -0.1 4.4
-2 14 -2 9.3 4.1
-14 2 2 -6.8 5.2
3 -13 2 -2.8 3.9
3 -13 2 -1.9 3.1
-3 13 -2 3.3 2.5
-13 3 2 7.7 3.5
-3 13 -2 -3 3
4 -12 2 -1.7 3.7
4 -12 2 -2.6 3
-4 12 -2 -1.4 2
-4 12 -2 -6.9 3.5
-12 4 2 -1.2 5.1
11 -5 -2 282.67 27.7
5 -11 2 305.97 26.9
5 -11 2 266.37 25.5
-5 11 -2 274.07 26.6
-11 5 2 213.18 42.1
-5 11 -2 281.67 26.6
6 -10 2 264.27 24.5
10 -6 -2 210.88 24.9
-6 10 -2 272.07 23.7
-6 10 -2 249.08 36.2
-10 6 2 206.38 23.7
-6 10 -2 207.68 23.2
7 -9 2 14.8 14.4
-7 9 -2 29.6 21.8
-9 7 2 -24.1 28.3
-7 9 -2 -11.5 14.8
8 -8 2 -0.3 2.2
8 -8 2 -1.6 2
8 -8 -2 0.6 2.2
-8 8 -2 7.2 13.1
-8 8 -2 0.5 2.8
-8 8 2 0.3 2.5
-8 8 -2 -5.4 2.7
-8 8 2 -13.9 27
9 -7 2 -0.5 2
7 -9 -2 -8.9 8.2
9 -7 2 -3.6 4
-7 9 2 6 5.5
-7 9 2 0.5 21.3
-9 7 -2 -2.5 3.5
-9 7 -2 -23.7 20.8
-9 7 -2 -3.9 2.8
10 -6 2 216.98 25.3
6 -10 -2 247.58 22.7
-10 6 -2 232.08 26.9
-10 6 -2 173.58 32.2
-6 10 2 185.58 42.8
-6 10 2 260.07 23
11 -5 2 227.78 24.6
5 -11 -2 292.07 25.9
-5 11 2 277.97 25.9
-5 11 2 285.57 45.3
12 -4 2 3.2 3
4 -12 -2 -0.7 4.1
-12 4 -2 -14.9 6.9
-12 4 -2 -2.9 3.4
-4 12 2 -5.9 4.3
13 -3 2 -2.1 3
-13 3 -2 -0.1 3
-3 13 2 -1.1 2.7
-13 3 -2 6.6 4.1
14 -2 2 -4.2 3.1
-14 2 -2 -8.3 4.1
-2 14 2 -8.4 5.5
-14 2 -2 0.1 6.2
-15 1 -2 128.39 15.1
-1 15 2 136.99 15.5
16 0 2 96.99 11.1
0 16 2 92.89 10.7
-16 0 -2 98.19 13.3
17 1 2 -0.9 4.9
-17 -1 -2 -2.2 5.4
-17 -1 -2 -3.5 6.4
1 17 2 0.1 3.6
18 2 2 -6.3 5.5
2 18 2 -1.3 5.2
-18 -2 -2 7.4 5.7
-18 -2 -2 9.7 9.5
-1 -18 2 2.7 4.8
-18 -1 2 3.1 5.4
0 -17 2 -4.1 6.5
0 -17 2 -1.7 4.5
0 17 -2 -3.8 3
1 -16 2 26.7 7.2
-16 1 2 34.3 10
-1 16 -2 32 7.2
2 -15 2 0 5
-2 15 -2 8.6 7
3 -14 2 1.4 3.8
3 -14 2 7.8 3.8
-14 3 2 3.7 3.9
-3 14 -2 5.1 3.8
-3 14 -2 10.1 3.9
4 -13 2 16.8 4.9
-13 4 2 8.9 4.3
5 -12 2 4.9 2.7
5 -12 2 3 4
-12 5 2 3 3.9
-5 12 -2 -4.1 3.3
-5 12 -2 2.5 2.3
6 -11 2 39.8 6.5
-6 11 -2 34.4 6.3
7 -10 2 -6.9 7.4
10 -7 -2 -5.9 5.2
-7 10 -2 12.4 12
-10 7 2 -8.1 4.7
-7 10 -2 -11.5 12.5
9 -8 -2 10.5 3.3
8 -9 2 12.6 3.2
-8 9 -2 16.4 4.2
-8 9 -2 11.1 3.4
-9 8 2 13.8 20.8
9 -8 2 11.7 2.7
9 -8 2 9.1 2.8
-9 8 -2 8.6 3.1
-8 9 2 33.2 27.3
7 -10 -2 -15.1 7.9
10 -7 2 -4.3 4.1
10 -7 2 -0.4 2.7
-7 10 2 -4.9 6
-10 7 -2 -2.7 3.2
-7 10 2 -0.4 22.3
11 -6 2 39.1 7.7
12 -5 2 -5.7 3.9
-12 5 -2 2.8 5.7
-12 5 -2 -3.5 3.8
-5 12 2 -3.9 3.5
13 -4 2 4.2 3.5
-13 4 -2 3.2 3.8
-13 4 -2 5.8 4.2
-4 13 2 -0.8 4
14 -3 2 5.4 3.7
-14 3 -2 7.6 4.1
-3 14 2 -3.3 5
15 -2 2 -11.3 5.2
-15 2 -2 3.6 5.5
-2 15 2 -13.6 10.1
16 -1 2 22.5 7.2
-16 1 -2 21.5 6.8
-1 16 2 19.3 6.3
-16 1 -2 6.7 6.8
17 0 2 -5.9 4.7
-17 0 -2 0.1 6
-17 0 -2 -0.4 3.7
0 17 2 -4.9 5.2
-18 -1 -2 2 4.8
1 18 2 -5.1 5.1
-18 -1 -2 7.7 7
0 -18 2 5.3 4.3
0 -18 2 5.4 6.8
-18 0 2 0.9 6.4
0 18 -2 -3.2 4.6
1 -17 2 7.3 6
1 -17 2 -3.2 3.2
-17 1 2 -0.4 4.4
-1 17 -2 -7.5 4.3
2 -16 2 -2.4 5.2
2 -16 2 2.2 4.3
-2 16 -2 -6.5 4.1
3 -15 2 1.9 3.8
-15 3 2 1.8 5.8
-3 15 -2 -7.2 4.8
4 -14 2 26.1 5
-4 14 -2 27 4.9
5 -13 2 8.9 3.5
5 -13 2 3.2 4
-13 5 2 7.9 3.8
-5 13 -2 2.9 3.2
-5 13 -2 10.5 3.4
6 -12 2 2.7 3.5
6 -12 2 -2 2.6
-12 6 2 -3.7 3.5
-6 12 -2 -1.4 2.5
-6 12 -2 4.5 2.4
7 -11 2 0 3.5
-7 11 -2 1.8 3.6
-11 7 2 0.2 3.7
-7 11 -2 1.2 3.4
8 -10 2 -2.1 3.6
8 -10 2 6.7 3.2
-8 10 -2 0.4 3.7
-8 10 -2 -0.8 3.2
9 -9 2 39 5.4
9 -9 2 28.3 4.6
-9 9 -2 37 5.2
-9 9 -2 33.8 5.6
-9 9 2 31.6 5.2
10 -8 2 4.8 4.5
-8 10 2 -2.2 3.4
-10 8 -2 1.1 3.5
11 -7 2 -1.3 3.3
-11 7 -2 -8.1 4.2
-7 11 2 0.7 2.9
-11 7 -2 -3.3 4.5
12 -6 2 0.3 2.6
-12 6 -2 0.3 3.5
-6 12 2 4.6 3.5
13 -5 2 4.7 3.5
-5 13 2 10.2 4.2
-13 5 -2 5.2 3.7
-13 5 -2 -2.8 5.3
-4 14 2 27.9 6.1
-14 4 -2 21.7 5.2
15 -3 2 -1.2 5.1
-3 15 2 -6.6 6.3
-15 3 -2 -9.5 5.9
16 -2 2 4.2 5.5
-16 2 -2 -7.8 7.7
-2 16 2 5 6.4
-16 2 -2 -9.5 4.5
17 -1 2 3.1 4.4
-17 1 -2 -0.5 7.6
-1 17 2 0 5.3
-17 1 -2 3.9 5.4
18 0 2 8.6 5.6
-18 0 -2 18.3 6.2
-18 0 -2 -1.9 8.2
1 -18 2 1 4.7
1 -18 2 -5.9 6.6
-18 1 2 -10.3 6.6
2 -17 2 0.9 4.1
-17 2 2 4.8 6
-2 17 -2 3.6 4.2
3 -16 2 10.7 4.4
3 -16 2 18.9 5.1
-3 16 -2 10.1 5.2
-16 3 2 26.4 7.9
4 -15 2 -14 6.4
-4 15 -2 -5.6 5.7
-15 4 2 -3.9 5.6
5 -14 2 3.8 4
-14 5 2 4.4 3.7
-5 14 -2 -3 3.5
6 -13 2 9.3 4.4
6 -13 2 4 3.6
-6 13 -2 10 3.5
-13 6 2 4.5 2.7
-7 12 -2 9.7 2.9
-7 12 -2 11.2 3.8
-12 7 2 10.7 3.3
8 -11 2 31.1 4.8
8 -11 2 24.4 5.2
-8 11 -2 32.5 5.1
-8 11 -2 26.8 5.2
9 -10 2 14.1 3.9
-9 10 -2 16.6 4.7
-8 11 2 17.1 4.6
-11 8 -2 18.9 5.1
12 -7 2 1.6 4.7
-12 7 -2 3.1 3.7
13 -6 2 13.8 4
-6 13 2 5.6 4.1
-13 6 -2 7.3 5.7
-13 6 -2 8.8 2.9
14 -5 2 -1.6 3.1
-14 5 -2 5.1 4.6
-5 14 2 5.2 5.2
-14 5 -2 4.6 4.1
16 -3 2 18.9 5.7
-16 3 -2 11.2 6.3
-3 16 2 10.6 7
17 -2 2 1.7 4.7
-17 2 -2 1.9 5
-2 17 2 1.6 5.4
-17 2 -2 0.9 8.2
18 -1 2 7.2 4
-18 1 -2 11 9.2
-18 1 -2 6.2 4.3
-1 18 2 -1.1 4
2 -18 2 -6.6 6.4
2 -18 2 -0.5 3.4
-18 2 2 -2.8 4.4
-2 18 -2 1.2 4.3
3 -17 2 2.1 4.4
3 -17 2 -1.2 4
-17 3 2 6.8 5.7
4 -16 2 25.4 6.5
-16 4 2 25.7 5.9
-4 16 -2 22.6 6
5 -15 2 216.48 19.8
5 -15 2 179.78 18.7
-15 5 2 202.28 20.1
-5 15 -2 163.28 17.8
6 -14 2 6.2 5.9
-14 6 2 2.6 6.2
7 -13 2 1.6 3.3
7 -13 2 1.5 3.7
-7 13 -2 2.4 3.3
8 -12 2 -2.3 3.4
-8 12 -2 -2.7 2.7
9 -11 2 13.9 10.9
-9 11 -2 13.8 10.4
10 -10 2 251.17 24.2
-10 10 -2 229.78 24.3
-10 10 2 242.88 23.6
-10 10 -2 245.58 23.4
-11 9 -2 58.89 12.7
-9 11 2 31.2 10.2
12 -8 2 -5.5 4
-8 12 2 -8.7 4.4
-12 8 -2 0.7 4.5
-12 8 -2 -8.5 5
13 -7 2 5.3 3.1
-13 7 -2 -6.2 6.2
-7 13 2 2.5 3.3
-13 7 -2 1.3 3.6
15 -5 2 153.18 15.1
-15 5 -2 143.89 15.5
-4 16 2 33.2 8.4
17 -3 2 -2.8 3.3
-3 17 2 -5.9 4.2
-17 3 -2 -1.1 4.6
-17 3 -2 12.6 9
-18 2 -2 -3.5 8.7
-2 18 2 -2.4 5.8
3 -18 2 0 4.8
3 -18 2 -1.9 5.4
-3 18 -2 4 4.6
4 -17 2 5.7 3.5
4 -17 2 4.9 4.2
-17 4 2 4.1 4
-4 17 -2 7.9 4.6
5 -16 2 -0.1 5
-5 16 -2 2.7 4.5
-16 5 2 2.3 5.6
6 -15 2 1 7.4
-6 15 -2 6.1 5.2
7 -14 2 -2.6 4.7
-14 7 2 -3.1 3.5
8 -13 2 5.1 3.8
-8 13 -2 -4 3.6
-13 8 2 1.5 2.6
9 -12 2 2.8 3.3
-12 9 2 -2 4.1
-9 12 -2 -6.3 4
-11 10 2 7.5 5.3
11 -10 2 4.2 5
12 -9 2 8.1 4.5
-9 12 2 -6.1 4.4
-12 9 -2 -4.9 6.7
-12 9 -2 -0.4 4.9
13 -8 2 -9.5 4.7
-13 8 -2 -3 3.9
-8 13 2 -1.4 3.2
-13 8 -2 3.3 5.3
14 -7 2 -0.4 3.8
-14 7 -2 -3.6 3.5
-14 7 -2 -9.4 8.1
-7 14 2 10.1 7.8
15 -6 2 -14.9 7.6
-15 6 -2 -5.1 8.4
16 -5 2 2.7 4.8
-16 5 -2 5.9 4.6
-17 4 -2 7.4 4.7
-17 4 -2 0.6 6.3
-4 17 2 -2.3 4.9
18 -3 2 -3.3 3.8
-18 3 -2 -8.1 6.9
-3 18 2 9.6 6.3
-18 3 -2 9 4.3
4 -18 2 -1.6 5.3
4 -18 2 0.6 4.6
-4 18 -2 -2.8 3.2
-18 4 2 -1.5 4
5 -17 2 4.3 4.9
5 -17 2 -4 4.7
-5 17 -2 -5.8 4.4
-17 5 2 -1 5
6 -16 2 27.3 5.9
7 -15 2 -5.1 4.4
7 -15 2 -0.1 3.3
-15 7 2 -6.2 5.5
-7 15 -2 1.6 3.6
8 -14 2 -3.5 4.4
8 -14 2 2.5 3
-8 14 -2 1.2 2.7
-14 8 2 -6.9 4
9 -13 2 -7.5 4.3
-13 9 2 4.9 3.8
-9 13 -2 6.9 3.4
10 -12 2 -3.8 4.8
-10 12 -2 -8.9 4.5
-12 10 2 0.9 3.2
11 -11 2 43.6 6.6
-11 11 -2 28.4 4.9
-11 11 2 37.4 6
13 -9 2 0.1 4.3
-13 9 -2 -5.5 3.6
-9 13 2 6.1 3.1
14 -8 2 -0.8 3
-14 8 -2 -5.2 4.2
-8 14 2 -7 5.2
15 -7 2 -8.6 5.8
-15 7 -2 -1.1 5
-15 7 -2 7.4 9.1
-7 15 2 -12.3 7.4
16 -6 2 27.7 5.7
-6 16 2 35.3 7
17 -5 2 6.2 4.7
-5 17 2 3.5 5.7
-17 5 -2 -3.3 4.8
-17 5 -2 4.1 12.1
-18 4 -2 -12.2 12.7
-18 4 -2 -0.6 4.9
-4 18 2 12.1 5.6
5 -18 2 -6.4 5
5 -18 2 4.3 5.4
-18 5 2 -6.7 5.6
6 -17 2 3.8 5.3
7 -16 2 12.1 4.8
7 -16 2 1.5 3.3
-16 7 2 -2.8 5.3
-7 16 -2 2.3 4.2
8 -15 2 -1.8 3.6
-15 8 2 -5.2 3.4
-8 15 -2 -5.4 4.3
9 -14 2 0.2 3
-14 9 2 2.1 4
10 -13 2 5.4 3.8
-13 10 2 10 4.4
-10 13 -2 3.6 2.8
-12 11 2 9.9 3.4
-11 12 -2 10.2 4.1
-12 11 -2 12.2 4.3
-11 12 2 12.7 4.6
13 -10 2 -4.7 4.6
-10 13 2 -1.9 3.5
-13 10 -2 -3.6 3
14 -9 2 3.7 4.1
-9 14 2 7.4 4.8
-14 9 -2 2.5 4.2
-8 15 2 -7.6 5.6
-16 7 -2 3.8 5.1
-7 16 2 14.1 6.1
17 -6 2 -2.1 3.5
-6 17 2 0.3 5.6
-17 6 -2 4.9 3.7
18 -5 2 -1.1 4.9
-18 5 -2 1.8 5.1
7 -17 2 -3.6 3.6
-7 17 -2 -8.7 4.5
-17 7 2 5.2 5.2
-8 16 -2 -2.4 4.5
-15 9 2 38 6.3
-9 15 -2 28.8 5.8
10 -14 2 32.1 6.2
-10 14 -2 29.6 5.7
11 -13 2 -2 4.4
-11 13 -2 5.1 4.4
-13 11 2 -2 4.6
12 -12 2 1.6 3.1
-12 12 2 -5 3.4
-12 12 -2 1.5 3.3
13 -11 2 1.4 4.7
-13 11 -2 -6.7 4.3
-11 13 2 -2.1 4.8
14 -10 2 23.2 5.8
-14 10 -2 16.9 5.7
15 -9 2 31.5 6.7
-9 15 2 34.6 6.5
-8 16 2 -3.2 4.4
-16 8 -2 -10.6 5.3
17 -7 2 -4.6 5.2
-17 7 -2 -8.5 5.7
-7 17 2 0.4 5.6
9 -16 2 4 5.6
-9 16 -2 7.1 3.5
-16 9 2 2.9 4.7
-10 15 -2 3.5 3.2
11 -14 2 -0.4 4.8
-11 14 -2 -0.3 3.3
-14 11 2 -2.8 5
12 -13 2 -4.1 5.1
-13 12 2 -8.2 4.8
-12 13 -2 -9.8 4.3
13 -12 2 -9.5 5
-13 12 -2 -6.1 4.3
-12 13 2 -9.7 5.3
14 -11 2 0.6 4
-14 11 -2 -9.2 5.3
-11 14 2 6.4 4.1
-10 15 2 1.8 3.9
-15 10 -2 2.3 3.6
16 -9 2 14.8 5.8
-16 9 -2 7.1 5.4
-9 16 2 3.7 5.2
12 -14 2 -0.9 4.6
-12 14 -2 0.1 4.9
13 -13 2 -2.2 3.8
-13 13 -2 -1.4 4.2
-13 13 2 -4 3.6
-12 14 2 5.8 5.7
-14 12 -2 -8.6 3.8
-12 -12 3 -1.4 4.4
-12 -12 3 3.9 4.6
-11 -11 3 0.1 5
-11 -11 3 4.3 8.3
-11 -11 3 -0.2 4
-9 -9 3 1.6 4.6
-8 -8 3 33.6 5.6
-7 -7 3 -0.8 2.5
-7 -7 3 -0.2 3.7
6 6 -3 29.6 19.7
-5 -5 3 109.59 14.9
-5 -5 3 69.29 16
4 4 -3 -0.7 9.2
-3 -3 3 60.59 9.8
-3 -3 3 48.3 6.1
-3 -3 3 40.2 6.8
-2 -2 3 10.9 1.7
1 1 -3 99.59 33.5
1 1 3 42.5 8.4
-1 -1 -3 33.4 8.8
2 2 3 44.3 8.9
-2 -2 -3 24.5 4.1
3 3 3 140.19 36.1
3 3 3 83.29 27.5
-3 -3 -3 62.59 13.3
-3 -3 -3 71.79 12.9
-3 -3 -3 50.69 12
-4 -4 -3 7.4 9.8
4 4 3 27.3 12.4
4 4 3 23.8 4.6
4 4 3 27.5 4.5
5 5 3 158.28 26.1
5 5 3 121.79 27.4
6 6 3 -16.9 25.4
7 7 3 0.9 3.7
-7 -7 -3 8.9 7.2
-9 -9 -3 -5.1 6.6
9 9 3 4.9 3.8
-11 -11 -3 18.8 9.9
-12 -12 -3 -6.5 8.5
12 12 3 1.5 6.4
-12 -13 3 -10.6 5.8
-12 -13 3 -2.2 6.3
-13 -12 3 -1.7 5.9
-13 -12 3 -7.9 7
-11 -12 3 4.4 3.9
-11 -12 3 -1.6 9.1
-12 -11 3 -2.5 5.6
-12 -11 3 9 6.4
-11 -10 3 6.7 5.5
-11 -10 3 7.8 5.1
-11 -10 3 1.1 6.2
-9 -10 3 15.9 5.6
-10 -9 3 7.8 5.8
-8 -9 3 0.8 2.8
-9 -8 3 6 4.3
-7 -8 3 0.4 2.5
-8 -7 3 2.4 3.8
-8 -7 3 4.8 3.8
-6 -7 3 16.7 3.9
-7 -6 3 10.1 3.1
-6 -5 3 20.3 6.3
-6 -5 3 4 9.9
-5 -4 3 38.3 5.7
4 3 -3 9.4 8.1
-3 -4 3 0.6 6.1
-3 -4 3 14.3 3.2
3 4 -3 11.6 1.7
-4 -3 3 2.2 6.8
3 2 -3 43.4 8.1
-2 -3 3 13.7 8.2
-3 -2 3 27.7 4
-3 -2 3 34 4.4
-1 -2 3 10.3 1.5
1 2 -3 12.5 4.1
1 2 -3 9.3 1.2
-2 -1 3 10.9 2
1 0 -3 64.09 36.2
0 1 -3 100.49 27.6
-1 0 -3 110.69 32.5
0 1 3 99.69 82.09
2 1 3 8 1.4
2 1 3 7.7 2.2
-1 -2 -3 7.9 2.4
-2 -1 -3 7.6 2.5
-2 -1 -3 3.7 4.4
1 2 3 8.5 2.2
1 2 3 8.9 1.3
3 2 3 68.29 12.4
3 2 3 51.39 17.6
-2 -3 -3 63.39 7.2
-2 -3 -3 45 6.4
2 3 3 41.5 5.8
-3 -2 -3 61.59 11.2
-3 -2 -3 52.99 10.1
-3 -2 -3 53.09 6.4
-3 -4 -3 4.5 8
-3 -4 -3 -2.7 3.2
4 3 3 10.9 9.1
4 3 3 4.4 2.6
4 3 3 1.9 2
-4 -3 -3 1.4 3.2
-4 -3 -3 -3 8.3
3 4 3 3.2 3.9
3 4 3 -1.6 2
3 4 3 6.6 9
-4 -3 -3 -0.2 1.8
4 5 3 51.69 9.3
4 5 3 81.19 19.9
4 5 3 60.39 12.3
6 5 3 19.3 22.9
6 5 3 43.4 9.7
6 5 3 59.89 9.1
5 6 3 -2.4 24.7
-6 -5 -3 34.6 17.9
7 6 3 13.7 3.4
7 6 3 28.1 25.9
6 7 3 23.8 26.2
8 7 3 3.9 3.9
-8 -7 -3 -1.2 7.7
-8 -9 -3 -3.3 8.3
8 9 3 5.7 4.7
-9 -8 -3 17.6 6.8
9 10 3 19.9 5.3
11 10 3 5.8 5.3
12 11 3 1.6 4.4
11 12 3 0.3 6
-12 -11 -3 10.1 11.7
13 12 3 -6 5.2
-12 -13 -3 5.3 11.2
-13 -12 -3 13.8 12.5
12 13 3 -7.5 6.9
-11 -13 3 -2.4 5.1
-11 -13 3 -4.8 8.2
-11 -13 3 5.3 5.4
-13 -11 3 1.9 4.7
-13 -11 3 -2.8 5.5
-10 -12 3 -1.6 5.9
-10 -12 3 -1.7 3.5
-10 -12 3 -6.5 5.4
-12 -10 3 -10.2 6.1
-12 -10 3 -6.5 4.2
-9 -11 3 8.5 6.1
-9 -11 3 5.1 6.4
-9 -11 3 4.5 6.3
-11 -9 3 0.9 5.9
-11 -9 3 1.7 4.7
-8 -10 3 5.1 4.2
-10 -8 3 4.7 5.8
-10 -8 3 -4.7 4.6
-7 -9 3 -5.8 4.8
-7 -9 3 1.9 4.2
-9 -7 3 -4.1 4
-9 -7 3 -7.8 4.7
-6 -8 3 0.9 2.3
-6 -8 3 4.5 4.1
-8 -6 3 -4.5 2.9
-8 -6 3 -0.2 3
-8 -6 3 2.4 4.2
-5 -7 3 5.3 9.3
-5 -7 3 0.3 3.5
-5 -7 3 2.7 2.8
-7 -5 3 9.1 12.6
-7 -5 3 1.7 2.9
-4 -6 3 -20.3 13
-4 -6 3 -4.3 6.8
6 4 -3 -0.1 9
-6 -4 3 2.7 11.1
4 6 -3 6.8 12.2
4 6 -3 1.1 4.8
-3 -5 3 -4 3.1
-3 -5 3 0.5 2
5 3 -3 7.1 8.5
5 3 -3 0.6 1.1
-3 -5 3 1.4 1.6
-3 -5 3 -10.2 7.5
3 5 -3 -1.7 7.5
-5 -3 3 1.5 1.9
-5 -3 3 -1.2 1.8
-5 -3 3 -1.3 7.5
3 5 -3 1.7 1.5
-5 -3 3 3.2 3.1
4 2 -3 -0.2 1.2
-2 -4 3 -4.7 4.5
4 2 -3 1.7 5.7
-4 -2 3 0.1 1.8
-4 -2 3 -1.2 1.3
-4 -2 3 8.4 5.4
3 1 -3 -5.6 3.3
-1 -3 3 1.4 1.5
-1 -3 3 2.9 3.2
-3 -1 3 0.9 1.1
1 3 -3 0.6 0.7
1 3 -3 7.2 5.9
-3 -1 3 4.7 3.4
0 -2 3 1.8 2.7
0 -2 3 0.8 1
0 2 -3 3.6 4.2
0 2 -3 2.9 2.9
1 -1 -3 42.5 5.1
-1 1 3 48.7 5.7
-1 1 -3 58.29 10.2
0 -2 -3 1 1.6
2 0 3 -0.8 2.2
2 0 3 0.9 0.8
0 2 3 2.4 2.3
-2 0 -3 -1 1.5
3 1 3 6.1 5.2
-1 -3 -3 0.6 4.6
-1 -3 -3 -1.1 1.5
-1 -3 -3 0.7 1
3 1 3 0.9 1.9
-3 -1 -3 -1.7 5.8
-3 -1 -3 4.5 2.6
4 2 3 0.5 1.9
-2 -4 -3 -8.1 7.1
4 2 3 2.4 8
-2 -4 -3 5.3 2.8
4 2 3 3 2.3
2 4 3 3.8 3.6
-4 -2 -3 0.1 3
-4 -2 -3 9.4 8
-4 -2 -3 0.1 1.8
2 4 3 -3.2 6.3
5 3 3 2.4 2.2
-3 -5 -3 1.4 2.4
-3 -5 -3 4 4.3
-3 -5 -3 -15.5 9.1
5 3 3 0 10.4
5 3 3 4.7 3.6
-5 -3 -3 4.7 10.6
-5 -3 -3 -0.5 2.6
3 5 3 1.2 11.2
-5 -3 -3 0.6 1.7
6 4 3 8.9 6.7
6 4 3 6.1 17.6
-4 -6 -3 -2.2 6.6
-4 -6 -3 4.8 12.9
-6 -4 -3 -15.8 12.4
-6 -4 -3 5.2 5.2
4 6 3 -7.3 16.2
7 5 3 6.7 20
-5 -7 -3 2.5 6.1
7 5 3 4.1 3.1
-7 -5 -3 -0.9 5.8
-7 -5 -3 1.4 3.4
5 7 3 -0.1 3.3
5 7 3 -9 24.4
-6 -8 -3 14.6 7.1
8 6 3 1 4.1
-8 -6 -3 8.6 7.6
6 8 3 0.5 3.9
-7 -9 -3 -0.3 6.8
-9 -7 -3 10.3 7.8
7 9 3 -0.4 4.5
10 8 3 -2 3.7
-8 -10 -3 5.8 9.3
-10 -8 -3 4.4 9.6
8 10 3 -2.9 5.1
11 9 3 -0.4 5.6
-9 -11 -3 15 10.9
9 11 3 0 7.6
-11 -9 -3 -3.4 7.3
12 10 3 -5.5 6
-10 -12 -3 14.8 10.4
-12 -10 -3 15.8 8.7
10 12 3 -7.8 5.9
13 11 3 -0.3 6.6
-11 -13 -3 7.1 10.5
-13 -11 -3 13.9 11.1
11 13 3 -1.1 4.7
-11 -14 3 -1.7 5.7
-11 -14 3 -7.8 7.1
-11 -14 3 7.4 5.1
-14 -11 3 -1.5 7.2
-10 -13 3 4.8 4.7
-10 -13 3 -0.7 5
-13 -10 3 13.1 6
-13 -10 3 7.7 6.7
-9 -12 3 -3.6 4.8
-9 -12 3 3.6 3.8
-9 -12 3 -3.3 6
-12 -9 3 -0.5 6
-12 -9 3 -4.3 5.3
-8 -11 3 5.1 5.6
-8 -11 3 -10.5 6.1
-8 -11 3 -1.4 4.3
-11 -8 3 -3.9 4.8
-11 -8 3 3.2 5.5
-7 -10 3 -6.4 3.5
-7 -10 3 0.7 4.4
-7 -10 3 -4.5 4.2
-10 -7 3 -2.9 5.1
-10 -7 3 0.8 5.2
-10 -7 3 0.5 5
-6 -9 3 2.3 5.5
-6 -9 3 4.2 3.5
-9 -6 3 15.7 6.6
-9 -6 3 -13.4 9
-5 -8 3 8.8 3.1
-5 -8 3 6 3.1
-8 -5 3 3.1 2.9
7 4 -3 2.2 12.6
-4 -7 3 1.6 2.5
-4 -7 3 -17.3 10.9
-7 -4 3 6.6 8.9
-7 -4 3 -0.1 2.5
4 7 -3 -8.4 18.5
-3 -6 3 -0.9 4.4
-3 -6 3 9.6 6.6
6 3 -3 16.3 10.5
3 6 -3 7 2.1
-6 -3 3 -5.7 8.7
3 6 -3 12.7 12.4
-6 -3 3 3.8 1.8
-2 -5 3 5.6 6.7
-2 -5 3 4.5 1.5
5 2 -3 -1.6 1.5
-5 -2 3 -3.1 7.4
-5 -2 3 -1.7 2.1
-5 -2 3 -0.8 1.5
-5 -2 3 1.9 2.8
2 5 -3 11 10.3
4 1 -3 24 2.7
-1 -4 3 30.5 4.1
-1 -4 3 17.5 2.7
-4 -1 3 24.3 3
0 -3 3 0.2 0.8
3 0 -3 -1.8 2.5
0 -3 3 -2.4 2.1
0 -3 3 0.3 3.7
-3 0 3 0.3 0.6
0 3 -3 3.1 2.3
-3 0 3 1.4 2.6
0 3 -3 -1.9 5.6
1 -2 3 24.8 3.4
-1 2 -3 24.9 3.8
1 -2 -3 9.4 2
2 -1 3 9 2.1
2 -1 3 6.9 1.2
-2 1 -3 4.6 4.2
-1 2 3 8.2 1.9
3 0 3 5.7 1.4
0 -3 -3 3.6 3.7
3 0 3 12.9 6.5
3 0 3 3 2.6
0 3 3 1.7 3.7
-3 0 -3 0.1 1.6
-3 0 -3 9.7 5
4 1 3 25.6 5.4
-1 -4 -3 17.8 3.5
-1 -4 -3 19.7 2.7
-4 -1 -3 13.8 3.7
1 4 3 25.3 3.9
5 2 3 -0.8 2.9
5 2 3 -5.3 9.7
-2 -5 -3 1.2 3
-2 -5 -3 4.4 8.5
2 5 3 9.3 10
-5 -2 -3 4.2 10.6
2 5 3 0 3.8
-5 -2 -3 1.8 2.5
-5 -2 -3 0.6 4.2
6 3 3 -21 14.7
-3 -6 -3 2.5 11.2
-3 -6 -3 -1.2 3.1
3 6 3 14.4 12.8
3 6 3 -0.3 3
-6 -3 -3 1.6 2.8
-6 -3 -3 -0.9 13.8
-6 -3 -3 6 4.4
7 4 3 -4.9 3.3
-4 -7 -3 5.2 5.2
7 4 3 -21.4 21.9
7 4 3 3.3 3.7
-7 -4 -3 -0.9 5.4
-7 -4 -3 -12.8 17.5
4 7 3 -31.1 23.4
-7 -4 -3 -2.8 3.5
-5 -8 -3 13.8 5.6
8 5 3 -2.3 26.8
5 8 3 9.8 3.9
-8 -5 -3 9 6.7
9 6 3 -11.8 10.6
-6 -9 -3 15.4 7.1
6 9 3 4.1 6.7
10 7 3 -0.1 4.6
-10 -7 -3 -0.5 6.5
7 10 3 -10.4 5
-8 -11 -3 8.2 9.2
11 8 3 -3.3 4.4
8 11 3 -7.9 4.4
-11 -8 -3 -17 10.6
12 9 3 2.4 6
-9 -12 -3 -2 9
9 12 3 -6.7 5.7
13 10 3 4.3 6.5
-10 -13 -3 5.7 9.5
-13 -10 -3 16 12.5
10 13 3 -2 4.1
-14 -11 -3 -20.8 14
11 14 3 -4.7 6.9
-10 -14 3 -1.4 4.7
-14 -10 3 -4.6 5.2
-14 -10 3 11.6 6.6
-9 -13 3 4.1 5.8
-9 -13 3 14.3 5.3
-9 -13 3 0.8 4.7
-13 -9 3 14.8 6.1
-8 -12 3 -0.4 5.8
-8 -12 3 -5.3 4.4
-8 -12 3 -7.7 4.7
-12 -8 3 -6 5.1
-12 -8 3 -0.4 5.2
-7 -11 3 19 4.8
-11 -7 3 16.4 5.5
-6 -10 3 7.7 5.7
-10 -6 3 2.9 8.4
-4 -8 3 2.5 2
-4 -8 3 7.3 4.2
-8 -4 3 -2 2.4
-8 -4 3 -6.7 11.5
-8 -4 3 8.6 3.1
-3 -7 3 10.4 4.2
7 3 -3 13.4 10.8
-3 -7 3 2 3.3
-3 -7 3 6.3 7.4
3 7 -3 -2.2 15
3 7 -3 0.4 2
-7 -3 3 1.2 10.7
-2 -6 3 13.6 6.7
2 6 -3 25.4 13.4
-6 -2 3 13.2 2.8
-6 -2 3 13.7 9.8
-1 -5 3 65.89 7.5
-1 -5 3 79.09 15.1
-1 -5 3 56.59 12
-5 -1 3 81.69 14.1
1 5 -3 79.29 16.6
-5 -1 3 66.69 34.2
-5 -1 3 76.29 34.4
4 0 -3 45.1 7.8
-4 0 3 32.8 5.1
1 -3 3 2.2 2.2
1 -3 3 -0.4 4.4
3 -1 -3 -0.3 1.6
-1 3 -3 2.2 5.6
-1 3 -3 0.7 1.8
-3 1 3 3.1 3.1
-1 3 -3 6.3 4.7
-3 1 3 -0.1 2
-1 3 -3 3.9 1.1
2 -2 3 18.5 2.4
2 -2 3 18.6 2.2
-2 2 -3 17.6 2.3
-2 2 3 25.2 3.4
-2 2 -3 20.7 6.3
1 -3 -3 0.5 1.5
1 -3 -3 -0.7 2.6
3 -1 3 0.5 4.8
3 -1 3 1.2 1.7
-1 3 3 0.6 0.6
-1 3 3 5.3 2.4
-3 1 -3 0.2 4.4
-3 1 -3 3.7 2.5
-3 1 -3 4.7 5.9
0 -4 -3 49.2 10
-4 0 -3 69.19 10.2
0 4 3 58.79 16.1
0 4 3 85.19 19.8
5 1 3 102.49 21.7
5 1 3 101.59 13.2
1 5 3 78.09 16.2
-5 -1 -3 54.69 12.3
-5 -1 -3 73.39 10
1 5 3 83.59 10.4
1 5 3 76.29 14.4
6 2 3 2.5 12.7
-2 -6 -3 21 5.1
-2 -6 -3 14.7 11
-6 -2 -3 -1.9 12.3
2 6 3 19.7 14.9
2 6 3 25.1 3.9
7 3 3 11.4 16.9
-7 -3 -3 1.3 2.5
-7 -3 -3 3.8 5.9
3 7 3 -5.8 19.7
-7 -3 -3 21 13.4
8 4 3 2.9 2.9
8 4 3 4.4 6.1
8 4 3 -24.6 27
-8 -4 -3 6.1 6.4
4 8 3 7.3 17.7
6 10 3 7.3 7
7 11 3 7.5 5.3
12 8 3 -10.4 5.8
-8 -12 -3 -1 7.7
8 12 3 -3 5.4
-12 -8 -3 -1.2 7.1
13 9 3 -7.5 5.6
9 13 3 -1.1 4.1
-13 -9 -3 0.6 7.8
14 10 3 21.3 6.1
-14 -10 -3 25 10.3
-9 -14 3 -4.7 3.8
-9 -14 3 12.6 5.5
-9 -14 3 0.3 5.9
-14 -9 3 5.7 6.9
-14 -9 3 2.8 4.5
-8 -13 3 4.2 5
-13 -8 3 6.1 6.4
-13 -8 3 6.9 5.6
-7 -12 3 8.1 6.2
-12 -7 3 9.5 5
-12 -7 3 14.3 6.1
-5 -10 3 63.09 8.5
-10 -5 3 61.59 8.5
-4 -9 3 -1.8 4.7
-4 -9 3 3.3 3.2
-9 -4 3 1.4 3.1
-3 -8 3 32.7 4.2
-8 -3 3 15.8 13.1
-8 -3 3 26.5 4.4
-2 -7 3 -4.7 9.2
7 2 -3 5.7 9.7
2 7 -3 13.8 12
-7 -2 3 26.9 12.4
-1 -6 3 16.6 3.3
-6 -1 3 18.4 3.6
0 -5 3 155.38 17.6
-5 0 3 172.58 21.9
-5 0 3 155.88 21.9
1 -4 3 18.3 2.8
-1 4 -3 19.5 2.5
-1 4 -3 3.8 6.8
3 -2 -3 38 8.3
2 -3 3 53.49 12.7
-2 3 -3 53.99 7.7
-2 3 -3 53.89 10.4
-2 3 -3 67.89 11.2
2 -3 -3 38.7 4.5
3 -2 3 42.5 4.8
3 -2 3 43.6 5.5
-2 3 3 49.9 5.4
4 -1 3 21.9 3.6
1 -4 -3 25.9 11.4
1 -4 -3 15.3 7.8
1 -4 -3 9.4 6.6
-1 4 3 -3.6 21.6
-1 4 3 -8.6 18.4
-1 4 3 45.5 15
0 -5 -3 187.38 20.7
5 0 3 266.87 40.7
0 -5 -3 173.78 19.6
-5 0 -3 210.58 26.6
0 5 3 141.09 18.9
0 5 3 192.18 24
6 1 3 19.5 4.6
-1 -6 -3 36.7 12.5
-1 -6 -3 20.6 5.7
6 1 3 -2.4 14.6
-6 -1 -3 32.6 7.4
7 2 3 25.2 5.7
7 2 3 -4.3 16.2
-2 -7 -3 18.4 11.8
-7 -2 -3 21.4 15.2
2 7 3 23.4 20.1
8 3 3 19.7 19.2
3 8 3 33.4 22.7
-8 -3 -3 24.9 4.4
10 5 3 101.79 14.1
5 10 3 135.99 14.5
-6 -11 -3 5.5 7.3
11 6 3 4.6 4.4
12 7 3 -4 4.8
-7 -12 -3 -0.2 7.7
-12 -7 -3 14.2 10.2
7 12 3 0.6 4.3
-13 -8 -3 -2.3 10.7
9 14 3 0.6 5.7
-14 -9 -3 27.5 13.4
-9 -15 3 2.3 5
-15 -9 3 4.3 6.9
-8 -14 3 4.4 4.2
-8 -14 3 -3.6 4.1
-14 -8 3 4.6 4.9
-14 -8 3 -0.1 5.5
-7 -13 3 9.3 5.6
-7 -13 3 2.3 5.9
-13 -7 3 -7.4 4.3
-13 -7 3 5.4 4.3
-6 -12 3 20.2 6.8
-6 -12 3 9.1 4.1
-12 -6 3 5.4 4.8
-5 -11 3 24.9 5.6
-4 -10 3 20.6 6.8
-3 -9 3 5.4 4.2
-3 -9 3 8.5 4.5
-9 -3 3 5.5 3.9
-2 -8 3 1.5 9.9
-2 -8 3 11.9 3.4
8 2 -3 6.4 13.1
-8 -2 3 6.7 2.4
-8 -2 3 19.9 14.6
-1 -7 3 8.2 8.7
7 1 -3 17.9 11.1
-7 -1 3 6.8 1.7
-7 -1 3 -7 11.2
1 7 -3 13.3 12.2
0 -6 3 40.5 11.8
0 -6 3 30.1 9.9
-6 0 3 37.9 5.7
0 6 -3 52.19 21.1
0 6 -3 50.99 15
1 -5 3 102.79 15.6
-1 5 -3 82.79 18.9
-1 5 -3 162.68 66.99
2 -4 3 1.2 1.8
2 -4 3 1 1.4
-4 2 3 -8.2 4.3
-4 2 3 4.8 5.6
-2 4 -3 -7.4 7.4
-2 4 -3 1.8 1.4
-2 4 -3 -2.6 3
-2 4 -3 1.4 6.5
3 -3 -3 55.39 7.9
-3 3 3 81.59 22
-3 3 -3 64.49 7.2
2 -4 -3 1 1.1
2 -4 -3 0.5 1.4
2 -4 -3 1.3 5
4 -2 3 -0.2 1.4
-4 2 -3 2.1 6.4
-2 4 3 1.8 4.1
-4 2 -3 4.2 2.9
-4 2 -3 0.6 1.4
-4 2 -3 -6.3 9.1
1 -5 -3 78.19 10.3
1 -5 -3 77.79 13.5
1 -5 -3 80.99 10.7
5 -1 3 110.59 40.2
5 -1 3 118.29 49.7
-1 5 3 89.39 13.5
-1 5 3 67.69 15
-5 1 -3 83.79 35.5
0 -6 -3 43.8 7.4
6 0 3 56.19 7.7
-6 0 -3 52.79 9.9
7 1 3 24.2 16.9
-1 -7 -3 15.2 12.6
-1 -7 -3 21.9 4.9
1 7 3 18.3 15.4
-7 -1 -3 20.4 5.1
-7 -1 -3 -5.8 11.7
8 2 3 32.9 6.1
-2 -8 -3 39.3 6.9
2 8 3 73.49 22.2
2 8 3 35.2 6.1
-8 -2 -3 6.2 12.1
-8 -2 -3 28.5 6
9 3 3 5.3 4.8
9 3 3 -5.8 20.5
-9 -3 -3 -2.6 4.2
4 10 3 85.39 12.4
-5 -11 -3 9.2 7.7
11 5 3 5 5.5
12 6 3 23.8 5.7
6 12 3 12 5.2
13 7 3 0 3.5
-13 -7 -3 5.8 9.8
7 13 3 3.3 4.9
8 14 3 6.5 5.3
15 9 3 1 4.5
-15 -9 -3 28 12.8
9 15 3 3.5 4.6
-8 -15 3 1.5 4.9
-8 -15 3 -3.6 4.9
-8 -15 3 14.7 6.3
-15 -8 3 3.2 6.4
-15 -8 3 1.1 6.9
-7 -14 3 0.9 3.9
-7 -14 3 -0.4 5.9
-14 -7 3 -1.4 6.7
-6 -13 3 5.6 6.2
-6 -13 3 11.1 5.5
-13 -6 3 0.6 5.7
-13 -6 3 4.6 3.7
-5 -12 3 -1.8 3.6
-5 -12 3 5.3 4.2
-5 -12 3 10.3 5.2
-12 -5 3 1 4.5
-4 -11 3 -3 6.8
-4 -11 3 1.6 7
-11 -4 3 -4 7
-3 -10 3 0.9 3.5
-3 -10 3 7 3.9
-3 -10 3 -4.5 5
-10 -3 3 -0.9 3.4
-2 -9 3 -3 2.9
-9 -2 3 -15.2 15.3
-9 -2 3 -1.9 3.3
-9 -2 3 -0.6 1.8
8 1 -3 -4.1 9.1
-1 -8 3 -8.8 10.3
-1 -8 3 0.6 2.2
1 8 -3 7.1 14.5
-8 -1 3 0.5 2.1
-8 -1 3 2 1.4
1 8 -3 1.4 1.5
-8 -1 3 16.8 13.7
0 -7 3 5.9 6.2
7 0 -3 -2.3 6.9
0 -7 3 0.5 3.1
-7 0 3 8.1 9.2
-7 0 3 1.6 1.3
-7 0 3 2.7 2.4
0 7 -3 11.7 12.4
-7 0 3 2.1 2
6 -1 -3 4.7 8.3
-1 6 -3 16.1 12.4
5 -2 -3 0.4 1.3
2 -5 3 4.5 7.8
-2 5 -3 -11.5 9.8
-5 2 3 11.2 7.3
-5 2 3 3.1 6.6
-2 5 -3 0.8 3.1
3 -4 3 3.3 2.3
4 -3 -3 1.2 1.5
4 -3 -3 0.1 1.6
3 -4 3 -0.4 1.4
-4 3 3 -2.5 5.9
-4 3 3 -0.9 1.3
-3 4 -3 -6.5 7.2
-4 3 3 2 1.7
-3 4 -3 -6 7.7
-4 3 3 2.6 4.9
-4 3 3 0.7 1
4 -3 3 0.6 1.1
3 -4 -3 -0.5 1.1
4 -3 3 4 2.3
-4 3 -3 0.8 1.8
-4 3 -3 0.6 1.6
-4 3 -3 -9.1 8.7
-4 3 -3 5.5 6.3
-3 4 3 5.1 5.1
-3 4 3 0.1 0.9
5 -2 3 -5.6 10.6
2 -5 -3 -2 5.6
5 -2 3 2.9 2.8
-2 5 3 5.1 6.9
-5 2 -3 3.6 2.9
-5 2 -3 -0.1 11.7
-5 2 -3 0.8 1.2
-5 2 -3 -0.9 7.1
6 -1 3 20.3 3.8
1 -6 -3 18.2 3.8
1 -6 -3 22 3.8
6 -1 3 37.6 16.4
-1 6 3 12.6 9.6
-6 1 -3 34.9 11.2
0 -7 -3 10 3.2
0 -7 -3 -8.6 11.6
7 0 3 15.2 17.6
7 0 3 0.8 3
0 7 3 15.6 12.7
-7 0 -3 -5.8 9.9
8 1 3 6.2 3.2
8 1 3 -12.6 17.4
-8 -1 -3 3.5 3.2
1 8 3 4.1 14.3
-8 -1 -3 6.2 14.6
-2 -9 -3 1.5 4.6
9 2 3 -1 3.3
9 2 3 -7.5 4.3
9 2 3 -42.1 33.5
2 9 3 -1.1 3.4
-9 -2 -3 2.8 5.4
10 3 3 -6.7 3.2
10 3 3 -7.2 5.1
-10 -3 -3 -1.8 6.2
3 10 3 3.9 3.5
4 11 3 7.3 5.4
-11 -4 -3 7 5.9
5 12 3 12.1 4.9
-12 -5 -3 9.6 8.6
13 6 3 3.9 3.6
-13 -6 -3 2.5 8.9
14 7 3 -2.5 5.9
-14 -7 -3 -4.4 8.2
7 14 3 -9.7 5
8 15 3 -1.3 5.7
-15 -8 -3 9.7 9.6
-8 -16 3 -4.8 6.4
-8 -16 3 -4.9 6.5
-8 -16 3 0.9 5.6
-16 -8 3 9.7 7.5
-16 -8 3 6.2 7.4
-7 -15 3 -7.8 6.8
-7 -15 3 -12.6 6.1
-7 -15 3 -7.2 5.2
-15 -7 3 -11.3 5.2
-6 -14 3 -3.9 5
-6 -14 3 1.5 3.4
-6 -14 3 5.7 6.4
-14 -6 3 -7.4 5.7
-5 -13 3 5.7 4.1
-5 -13 3 5.6 4.3
-13 -5 3 6.6 4
-13 -5 3 5.7 5.5
-4 -12 3 20.8 6.2
-4 -12 3 12.4 4.1
-3 -11 3 12.6 5.3
-3 -11 3 3.5 3.9
-3 -11 3 -1.5 5.1
-2 -10 3 -0.5 4.1
-2 -10 3 -1.7 3.1
-10 -2 3 -2.5 3.8
-1 -9 3 14.2 3.4
-9 -1 3 15.8 16.8
-9 -1 3 15.6 3.9
8 0 -3 24.2 11.6
0 -8 3 21.7 10.4
-8 0 3 33.3 14.6
0 8 -3 9.3 19.4
1 -7 3 26.9 9.8
1 -7 3 17.2 2.7
7 -1 -3 10.1 10.2
-1 7 -3 18.7 2.7
-1 7 -3 17.4 13.3
-7 1 3 13.4 2.9
-1 7 -3 10.9 2.9
2 -6 3 9.6 8.9
6 -2 -3 -6.1 6.8
-6 2 3 7.3 8
-6 2 3 -14.9 10.2
-2 6 -3 27.4 12.1
5 -3 -3 1 1.7
3 -5 3 -1.4 1.4
3 -5 3 3 1.9
-3 5 -3 1 1.7
-3 5 -3 0.4 2.7
-5 3 3 1.8 1.7
-3 5 -3 -1.3 7.8
-5 3 3 10.1 7.7
-5 3 3 8.7 7.9
-3 5 -3 -15.8 10.4
4 -4 -3 8.4 1.8
4 -4 -3 7.1 2.1
-4 4 3 10.5 2
-4 4 -3 10 10
-4 4 3 11.6 8.1
-4 4 -3 8.3 1.9
-4 4 3 4.2 7.2
3 -5 -3 6.2 7.6
3 -5 -3 2.1 1.5
5 -3 3 0.2 1.9
-3 5 3 -3.3 5.6
-5 3 -3 0.5 2.7
-5 3 -3 -1.8 8.4
-3 5 3 10.6 7
-5 3 -3 -1.4 9
-5 3 -3 -0.6 1.3
6 -2 3 19.4 3.1
-6 2 -3 12 9.5
-2 6 3 15.3 10.8
7 -1 3 16.5 2.8
-1 7 3 29.2 16.3
-7 1 -3 7.4 11.3
-7 1 -3 15 2.9
8 0 3 16.5 3.7
8 0 3 -3.3 26.5
-8 0 -3 31.4 14.3
0 8 3 39.4 18.3
0 8 3 19.1 3.7
9 1 3 40.8 33.2
-9 -1 -3 6.8 5.1
10 2 3 5.7 33.1
10 2 3 -12.1 5.4
10 2 3 0.2 4.2
2 10 3 -1 3.8
-10 -2 -3 -11.4 5.7
11 3 3 7.2 5.2
11 3 3 0.3 4.2
12 4 3 5.6 3.3
-12 -4 -3 4 5.7
13 5 3 1.8 3.3
-13 -5 -3 -3 9.3
5 13 3 7.9 3.9
6 14 3 -12.7 5.7
15 7 3 1.4 5.7
-15 -7 -3 30.6 12.9
-7 -16 3 10.2 7.4
-7 -16 3 4.3 6.4
-16 -7 3 8.5 6.3
-16 -7 3 15.8 7.1
-6 -15 3 -1.2 5.4
-15 -6 3 8 6.2
-15 -6 3 2.9 4.7
-5 -14 3 1.4 6.2
-14 -5 3 4.2 5.4
-4 -13 3 7.3 4.1
-13 -4 3 15.4 5
-13 -4 3 2.4 3.9
-3 -12 3 3.5 3.8
-12 -3 3 13.9 5.5
-12 -3 3 -3.6 3.9
-2 -11 3 17 4.1
-11 -2 3 26 5.6
-1 -10 3 18.9 7.2
-10 -1 3 23.2 8.2
0 -9 3 40.5 5.1
0 9 -3 36.1 4.7
8 -1 -3 15.4 12
1 -8 3 -0.1 2
1 -8 3 -7.9 9.1
-8 1 3 2.7 3
-1 8 -3 -1.3 14.8
-8 1 3 2.9 12.6
-1 8 -3 3.5 2.9
7 -2 -3 0.7 9.1
2 -7 3 -2.2 6.6
-2 7 -3 -1.9 12.1
-7 2 3 9.7 9.6
3 -6 3 1 2.2
3 -6 3 1.2 8.7
3 -6 3 -2.1 2.3
-3 6 -3 1.5 3
-6 3 3 -10 12.9
-3 6 -3 7 11.5
-6 3 3 -3.1 8.6
-3 6 -3 8.5 9.2
4 -5 3 55.99 9.3
4 -5 3 64.09 7.8
-5 4 3 63.39 9.6
-5 4 -3 60.49 9.1
-5 4 -3 72.39 17.3
-4 5 3 40.5 6.8
3 -6 -3 0.8 8.9
6 -3 3 3.7 3
6 -3 3 13.3 10.2
3 -6 -3 3.2 1.4
-6 3 -3 -2 10.7
-6 3 -3 1.3 8.8
-3 6 3 14.2 12.6
-6 3 -3 6.4 2.9
7 -2 3 11.8 3.4
7 -2 3 -3.2 17.5
-2 7 3 11.5 15.6
-7 2 -3 12.4 2.8
8 -1 3 -0.6 2.3
8 -1 3 -5.5 27.8
-8 1 -3 3.7 4.4
-8 1 -3 -2.2 1.9
-8 1 -3 -6.9 11.9
9 0 3 50.29 6.9
0 9 3 54.89 7.2
10 1 3 44 10.2
10 1 3 -2.4 29.8
1 10 3 61.79 10
11 2 3 16.8 6.2
11 2 3 17.1 4.8
2 11 3 25.9 5
12 3 3 -6.8 4
3 12 3 5 4.2
-12 -3 -3 -8.5 7.5
13 4 3 2.6 3.3
4 13 3 10 4.6
-13 -4 -3 1.7 5.9
14 5 3 11.4 4.1
5 14 3 21.8 5.3
6 15 3 4 4.8
16 7 3 5.1 6
-16 -7 -3 -2.7 12.6
7 16 3 -1.5 5.2
-6 -16 3 6.8 7.3
-6 -16 3 5.1 6
-6 -16 3 4.9 3.9
-16 -6 3 3 4.7
-16 -6 3 0.4 7.1
-15 -5 3 46 8.5
-4 -14 3 -9.1 5.4
-4 -14 3 7.2 5.7
-4 -14 3 3.8 3.6
-14 -4 3 4.9 5.9
-14 -4 3 1.6 5.1
-3 -13 3 12.7 3.7
-13 -3 3 18.6 5.4
-13 -3 3 7.8 5.7
-2 -12 3 3.3 3.4
-12 -2 3 5.9 4.5
-12 -2 3 6.1 4.6
-11 -1 3 10.4 4.4
0 -10 3 111.69 11.4
-10 0 3 84.29 11.6
1 -9 3 17 5.2
1 -9 3 6.4 3.6
-1 9 -3 1.2 2.8
-9 1 3 -0.6 13.6
-9 1 3 4.1 4
8 -2 -3 28.2 11.7
2 -8 3 30 5.5
-8 2 3 56.19 16.1
3 -7 3 -3.1 9.8
-7 3 3 18 11.9
-7 3 3 0 2.4
-7 3 3 2.2 2.1
-7 3 3 -2.7 14.7
-3 7 -3 6.1 14.1
-4 6 -3 43.1 14.9
-6 4 3 -8.2 14.8
-4 6 -3 8.2 9.4
5 -5 3 114.99 15.5
5 -5 3 86.09 13.2
-5 5 -3 119.69 14.1
-5 5 -3 118.19 18.6
6 -4 3 15.4 3.6
-4 6 3 -13.6 14.3
-4 6 3 0.9 8.8
-6 4 -3 13.4 10.5
-6 4 -3 38.2 29.9
-6 4 -3 13.2 16
7 -3 3 39.4 23.5
-7 3 -3 19.2 20.9
-7 3 -3 -5.3 11.3
8 -2 3 82.99 7.8
8 -2 3 73.09 8.4
-8 2 -3 61.79 9.4
-8 2 -3 64.69 8.1
9 -1 3 -1.9 35.8
9 -1 3 12.8 4.6
-9 1 -3 7 4.6
-9 1 -3 -2 5.4
10 0 3 79.39 9.5
-10 0 -3 72.99 8.9
11 1 3 15.3 4.4
11 1 3 12.6 4.7
12 2 3 -2.3 3.8
12 2 3 0.5 4.8
2 12 3 2.6 3.9
-12 -2 -3 -4.9 7
13 3 3 14.2 4.8
14 4 3 9.1 3.7
-14 -4 -3 -4.5 6.8
16 6 3 4 5.8
-16 -6 -3 28.2 12.6
-5 -16 3 2.5 6.7
-16 -5 3 1.7 6.5
-4 -15 3 1.6 3.8
-15 -4 3 6.3 6.8
-3 -14 3 5.2 3
-3 -14 3 1 5.8
-14 -3 3 2.4 5.8
-14 -3 3 0.2 5.2
-2 -13 3 6.9 2.9
-13 -2 3 2.8 5.3
-1 -12 3 16 3.7
-12 -1 3 12.5 3.9
-12 -1 3 13.6 4.9
0 -11 3 17.8 4.3
-11 0 3 30.7 6.3
-1 10 -3 41.2 6.5
2 -9 3 -0.9 2.5
2 -9 3 4.8 3.9
-2 9 -3 2.5 2
-9 2 3 -5.6 15
-2 9 -3 -7.1 3.8
-9 2 3 3.9 3.2
3 -8 3 41.6 5.1
3 -8 3 33.6 5.7
-8 3 3 32.7 5.5
-3 8 -3 43.1 5.2
4 -7 3 -8.3 9.6
-4 7 -3 5.3 9.5
-4 7 -3 -1.4 2.6
-7 4 3 4.2 8.8
-4 7 -3 -2.5 2.8
-7 4 3 2 2.4
5 -6 3 36 6
5 -6 3 25.8 5.4
-6 5 3 19.4 13.5
-6 5 3 20.5 15.4
-5 6 -3 20.3 16.1
-6 5 3 37.3 6.6
-5 6 -3 56.19 17.2
-6 5 -3 65.39 9.9
-5 6 3 44.5 13.6
7 -4 3 2.3 2.6
7 -4 3 2.6 2.6
-7 4 -3 2 3.3
-4 7 3 -4.1 10.1
-4 7 3 7.2 10.2
-7 4 -3 -1.6 11.4
8 -3 3 31.2 4.1
8 -3 3 41.7 31.3
-8 3 -3 35.6 14.4
-8 3 -3 32.1 4.9
-8 3 -3 33.8 5.6
9 -2 3 -1.4 2.8
9 -2 3 0.5 2.6
9 -2 3 -10.9 26
-9 2 -3 -0.4 4.6
-9 2 -3 -4.5 3.1
-2 9 3 -0.7 2.5
10 -1 3 36.5 8
10 -1 3 5.9 33.6
-10 1 -3 36.3 8.1
11 0 3 46.4 7.3
-11 0 -3 39.7 9.2
12 1 3 12.9 4.9
12 1 3 11.9 3.7
-12 -1 -3 16.9 5.6
1 12 3 22.3 4.8
13 2 3 12.7 4.6
13 2 3 9.6 5.1
14 3 3 -5.1 3.3
-14 -3 -3 -5.6 6.3
15 4 3 8.5 4.2
-15 -4 -3 8.7 7.9
16 5 3 5.7 4.1
-16 -5 -3 10.4 10.8
-5 -17 3 5.4 5.4
-5 -17 3 5.8 5.5
-17 -5 3 -1 6.3
-17 -5 3 -9.7 7.7
-4 -16 3 1.1 3.8
-4 -16 3 15.9 6.9
-16 -4 3 2.6 6.1
-16 -4 3 1.7 6.7
-3 -15 3 1.2 4.6
-3 -15 3 6.2 6.6
-15 -3 3 -1.6 5.1
-15 -3 3 -12.1 6.8
-2 -14 3 -3.6 3.9
-14 -2 3 -9.1 5.9
-14 -2 3 1.8 5.4
-1 -13 3 0.4 2.3
-13 -1 3 6.3 5.6
-13 -1 3 0.1 3.4
0 -12 3 2.4 4.4
0 -12 3 7.1 3
-12 0 3 2.6 5
-1 11 -3 12.8 3.4
2 -10 3 -0.8 3.8
2 -10 3 8.7 4.7
-2 10 -3 -7.1 5
-2 10 -3 -1.1 3.7
-10 2 3 3.2 3.6
-10 2 3 -2.9 2.7
3 -9 3 2.3 1.8
-9 3 3 3.1 2.9
-9 3 3 2 2.4
-3 9 -3 3.3 2.3
4 -8 3 1.7 2.8
-4 8 -3 2.3 2.7
-8 4 3 -2.4 12.8
5 -7 3 0.2 2.6
-5 7 -3 2.5 2.7
-7 5 3 5.8 12
-5 7 -3 -15.8 14.3
-5 7 -3 -0.8 2.9
-7 5 3 3.4 2.6
-6 6 -3 14.2 12.7
-6 6 3 -3.5 11.8
7 -5 3 8.3 3
-7 5 -3 3.9 2.8
-5 7 3 2.1 7.5
-7 5 -3 18.5 16
8 -4 3 -1.9 2.7
-8 4 -3 -10.2 15.5
-8 4 -3 0.5 2.4
9 -3 3 6.3 37.9
9 -3 3 0.6 2.8
-9 3 -3 0.6 1.9
-3 9 3 -4.6 3.2
10 -2 3 -1.4 3.8
10 -2 3 10.2 39.1
-2 10 3 4.7 5.5
11 -1 3 12.3 3.3
-1 11 3 3.9 3.8
12 0 3 13.9 3.7
0 12 3 19.3 4.8
-12 0 -3 15.8 6.5
13 1 3 -1.8 4.4
13 1 3 1.6 4
1 13 3 2.7 3.2
-13 -1 -3 3.8 6.9
14 2 3 -0.4 3.1
2 14 3 5.8 4.9
-14 -2 -3 18.5 8.8
15 3 3 -2 3.5
-15 -3 -3 2.1 6.6
16 4 3 4.5 4.7
4 16 3 -2.3 4.3
17 5 3 1.7 3.8
-17 -5 -3 28.3 9.5
5 17 3 1.8 5.6
-4 -17 3 -8.7 7.3
-17 -4 3 0.1 6.5
-17 -4 3 -9.9 6.1
-3 -16 3 5.5 5
-3 -16 3 4.9 7.1
-16 -3 3 14.7 7
-16 -3 3 0.6 5.2
-2 -15 3 2.4 5
-2 -15 3 -6.8 4.4
-15 -2 3 2.2 5.1
-15 -2 3 -13.7 7.4
-1 -14 3 -1.9 3.8
-1 -14 3 0.8 3.7
-14 -1 3 10.6 6.6
-14 -1 3 -6.7 5.8
0 -13 3 1.9 2.8
-13 0 3 6.7 5
-13 0 3 11.3 6.5
1 -12 3 8.4 2.6
-12 1 3 2.4 3.3
-1 12 -3 8.5 2.7
2 -11 3 22.3 4.1
-11 2 3 16.3 4.5
-11 2 3 23.6 5
-2 11 -3 15.6 4.1
3 -10 3 -6.9 3.2
-10 3 3 -3.7 3.7
-3 10 -3 -2.1 2.2
-3 10 -3 -1.3 2.3
-4 9 -3 3.6 2.8
-9 4 3 0.9 2.3
5 -8 3 -1.1 2.3
-5 8 -3 5.6 2.3
-5 8 -3 0.8 1.9
6 -7 3 8.9 2.6
-7 6 3 -9.1 11.7
-7 6 -3 16.4 4
-8 5 -3 6.7 4.1
9 -4 3 20.8 41.3
9 -4 3 15.8 3.4
9 -4 3 25 3.7
-9 4 -3 25.2 4
10 -3 3 23.4 40.3
11 -2 3 10.9 3.1
-11 2 -3 10.1 3.7
12 -1 3 20.1 4.2
13 0 3 13.8 4.3
0 13 3 12.7 4.8
-13 0 -3 8.5 6.9
14 1 3 4 3.4
1 14 3 2.3 4.9
2 15 3 -6.3 5.9
16 3 3 0.5 5.1
3 16 3 9.2 5.9
-16 -3 -3 4.8 7.4
17 4 3 -12.4 5.7
4 17 3 -0.1 4.3
-17 -4 -3 0.2 7.8
-3 -17 3 -5.4 7.3
-3 -17 3 3.1 4.3
-17 -3 3 -1 7.9
-2 -16 3 6.5 5.6
-2 -16 3 7.6 3.5
-16 -2 3 7.7 6.6
0 -14 3 6.1 5.9
0 -14 3 16.6 4.2
-14 0 3 9.2 7.5
-14 0 3 11.2 5.1
-13 1 3 11.7 4.8
-13 1 3 10 5.3
-1 13 -3 7.3 3.2
2 -12 3 -0.3 3
-12 2 3 4.1 4.3
3 -11 3 18.8 4.4
-11 3 3 0.2 4.9
-3 11 -3 11.1 3.8
-4 10 -3 22 5.7
-5 9 -3 28.8 5.5
6 -8 3 1.5 3.3
6 -8 3 1.6 3.5
-8 6 3 -0.9 2.5
-6 8 -3 2.1 3.1
7 -7 3 1.4 2.8
-7 7 -3 1.2 2.5
-7 7 -3 2.6 2.1
-7 7 3 1.7 2.4
8 -6 3 0.5 1.7
8 -6 3 -3.7 2.3
-8 6 -3 -0.5 3.5
-6 8 3 1.9 2.5
10 -4 3 20.8 3.9
10 -4 3 72.29 52.69
11 -3 3 4.4 4.4
-11 3 -3 -8 4.9
-3 11 3 5 4.6
12 -2 3 8.1 3.4
12 -2 3 2.2 3
-12 2 -3 9 5.9
13 -1 3 19.2 4.5
-1 13 3 15.8 5.2
14 0 3 12.5 3.5
0 14 3 15.3 4.9
15 1 3 12.7 6.2
16 2 3 24.3 6.1
2 16 3 23.4 6.5
17 3 3 -0.2 5
-17 -3 -3 10.1 8.1
3 17 3 6.6 5.7
-2 -17 3 5.2 6.4
-2 -17 3 2.4 4.5
-17 -2 3 -1.6 4.8
-1 -16 3 -12.2 7.1
-1 -16 3 -3.5 4.3
-15 0 3 79.89 11.3
1 -14 3 -0.6 3.5
1 -14 3 2.4 5.7
-14 1 3 -1.4 4
-1 14 -3 3.5 3.5
2 -13 3 5.5 5
2 -13 3 8.5 3.6
-2 13 -3 11.6 3.5
-13 2 3 17.2 5.3
3 -12 3 2.2 4.2
3 -12 3 -0.7 3
-3 12 -3 -5 3
-12 3 3 -7.7 3.6
4 -11 3 1.8 3.4
-4 11 -3 2 3.3
5 -10 3 49.7 7.2
-5 10 -3 56.89 7.5
6 -9 3 -9.1 6.4
-9 6 3 -0.5 4.4
-6 9 -3 -3.6 4.1
-6 9 -3 -0.2 4.3
7 -8 3 3.5 2.6
7 -8 3 -2 3.3
-7 8 -3 3.2 3.2
-7 8 -3 3.3 2.8
8 -7 3 2.9 3.2
-8 7 -3 0.5 2.2
-7 8 3 3.3 3
-9 6 -3 -1.3 4.7
10 -5 3 121.29 12.3
10 -5 3 107.59 12.5
-5 10 3 107.99 12.3
11 -4 3 28.6 5.4
11 -4 3 25.2 5.2
12 -3 3 2.4 2.9
12 -3 3 4.6 3.3
-3 12 3 2 4.1
-12 3 -3 -0.1 5.6
13 -2 3 0.9 3.4
14 -1 3 -3.1 2.9
-1 14 3 1.1 3.8
-14 1 -3 -2.7 7.4
15 0 3 65.09 9.1
0 15 3 78.69 9.9
16 1 3 18.9 5.5
17 2 3 2.9 3.7
-17 -2 -3 6.1 7.2
2 17 3 9.3 5.8
-1 -17 3 -0.3 4.2
-1 -17 3 2.1 6.6
-17 -1 3 3 6.6
0 16 -3 7.2 4.7
-16 0 3 -2.4 4.7
1 -15 3 30.5 6.1
-15 1 3 20.8 8.1
2 -14 3 -7.8 4
2 -14 3 -2.3 5.4
-2 14 -3 -1.7 3.3
-14 2 3 -3.2 4
3 -13 3 19.7 4.3
-3 13 -3 18.3 3.9
4 -12 3 8 3.4
4 -12 3 17 5.1
-5 11 -3 3.9 4
-11 5 3 2.4 4.2
6 -10 3 6.5 6.6
7 -9 3 -4 3.7
-9 7 3 -1.2 3.3
-7 9 -3 -4.2 4.4
8 -8 3 33.9 5.4
9 -7 3 -1 2.8
9 -7 3 -0.8 2
-9 7 -3 0.9 4.1
-7 9 3 0.6 2.8
10 -6 3 -2 4.7
-6 10 3 5.8 5
-5 11 3 1.8 3.6
12 -4 3 3.4 3.6
12 -4 3 -0.2 2.8
-12 4 -3 7.1 5.8
13 -3 3 14.6 4
-13 3 -3 4.4 4.8
-3 13 3 25.8 5.6
14 -2 3 0.7 2.8
-14 2 -3 -5.2 7.1
-2 14 3 -1.7 5.2
15 -1 3 39.8 7.2
-1 15 3 30.1 7.8
16 0 3 -4.6 3.7
-16 0 -3 5.5 6.8
17 1 3 3.6 5.1
1 17 3 4.3 4.1
-17 -1 -3 18.3 9.1
0 -17 3 -1.9 4
0 -17 3 -9.1 6.9
0 17 -3 5.6 5.3
-17 0 3 7.1 7
1 -16 3 14.9 6.2
-16 1 3 14.7 6.2
2 -15 3 -6 4.8
-15 2 3 -5.3 6.3
-2 15 -3 2.8 4.6
3 -14 3 -4.2 5.4
3 -14 3 -0.2 3.7
-14 3 3 -0.7 3.7
-13 4 3 3.4 3.1
-4 13 -3 2.7 2.7
5 -12 3 2.3 3.2
5 -12 3 3.5 4.5
-5 12 -3 2.8 3.1
-6 11 -3 6.5 2.7
7 -10 3 2.7 3.4
-7 10 -3 1.2 2.8
8 -9 3 -1.3 2.6
8 -9 3 0.6 3.2
-8 9 -3 7.8 3.3
-9 8 3 8.9 2.7
9 -8 3 6 2.9
9 -8 3 0.8 3.4
-9 8 -3 0.8 2.9
10 -7 3 -6.8 4.1
10 -7 3 -3.5 2.9
-10 7 -3 2.9 3.3
11 -6 3 3.6 3.7
-11 6 -3 3.4 5.2
12 -5 3 1.3 3.5
-5 12 3 -2.1 4
-12 5 -3 0.9 5.5
13 -4 3 25 4.9
-3 14 3 -3.9 5.2
-14 3 -3 2.4 6.9
-2 15 3 9 6.3
-15 2 -3 4.1 5.6
16 -1 3 9.7 5.1
-1 16 3 6.4 4.5
17 0 3 8.1 5.2
0 17 3 3.6 5.7
-17 0 -3 2.9 9.7
1 -17 3 5.7 6.1
1 -17 3 6.5 4.6
-17 1 3 -0.9 6.6
2 -16 3 10.9 4.6
-16 2 3 1.6 6.3
-2 16 -3 8.8 3.6
3 -15 3 3.1 4
3 -15 3 2.6 4.4
-3 15 -3 -1.8 4.1
-15 3 3 3.8 5.4
4 -14 3 4.2 5
4 -14 3 10.1 3.8
-14 4 3 2 3.3
-4 14 -3 -2.8 2.8
-5 13 -3 4.4 3.5
-13 5 3 2.6 3.8
6 -12 3 4 3.2
7 -11 3 12 4.2
8 -10 3 -0.3 3.4
8 -10 3 3 3
-10 8 3 1.3 3.3
-8 10 -3 7.6 3.8
9 -9 3 2.1 2.7
-9 9 -3 4.4 3.9
10 -8 3 -2.2 3.6
10 -8 3 0.9 1.9
-8 10 3 2 2.5
-10 8 -3 7.5 4.3
11 -7 3 24.6 5
11 -7 3 14.5 3.6
12 -6 3 9.7 3.9
-5 13 3 -2.2 3.2
-14 4 -3 5.6 6.6
-4 14 3 5.4 5
15 -3 3 -5 4.3
-15 3 -3 -2.3 6.8
-3 15 3 -11.2 6
16 -2 3 17.9 5.4
-2 16 3 20.8 5.8
-17 1 -3 10.3 9.9
-1 17 3 9.4 6.3
2 -17 3 -4.4 3.3
2 -17 3 -3.7 4.7
-17 2 3 1.6 4.7
3 -16 3 1.6 4.6
-16 3 3 13 6.6
4 -15 3 3.5 4
4 -15 3 5.6 4.5
-4 15 -3 6.7 3.5
-15 4 3 3.5 3.9
6 -13 3 4.9 4.5
6 -13 3 -3.2 3.6
-6 13 -3 7.4 4.3
-13 6 3 -4.6 3.1
7 -12 3 -4.7 3.6
-12 7 3 -1.9 2.9
-7 12 -3 2.2 3.7
8 -11 3 5.7 4
-8 11 -3 1.7 3.3
-9 10 -3 -1.1 5.1
10 -9 3 4.7 3.6
11 -8 3 3.3 4.4
-8 11 3 2.7 2.7
12 -7 3 4.1 3.9
-12 7 -3 -0.9 3.8
-7 12 3 1.2 2.8
-13 6 -3 4.2 5.8
14 -5 3 3.6 3.2
-14 5 -3 5.5 5.2
15 -4 3 36.4 6.2
-4 15 3 22.6 6.9
16 -3 3 -0.8 3.4
-3 16 3 -2 5.6
-16 3 -3 5.4 8.9
17 -2 3 4.5 4.9
-17 2 -3 11.9 9.5
-2 17 3 1.6 5.9
3 -17 3 -3 5.5
3 -17 3 8.8 4.7
-17 3 3 -7 6.5
4 -16 3 7.8 4.8
4 -16 3 4 4.3
-16 4 3 0.1 4.2
6 -14 3 3.6 3.4
-14 6 3 -1.2 4.7
7 -13 3 -0.2 3.6
7 -13 3 5.1 4.5
-13 7 3 1.4 3.8
-7 13 -3 -0.5 3.3
8 -12 3 -3.7 3.8
8 -12 3 1.2 3.1
-8 12 -3 -8 4.9
-12 8 3 0.6 3.7
9 -11 3 -3.7 4.4
-11 9 3 0 4.4
-9 11 -3 -0.9 5.4
11 -9 3 0.1 5.5
-9 11 3 -0.3 3.3
12 -8 3 -6.3 4.5
-8 12 3 1.9 2.8
-12 8 -3 -2.3 6.2
13 -7 3 -3.9 2.8
-7 13 3 0.8 4.3
-6 14 3 0.6 4.2
-14 6 -3 6.9 7.1
-15 5 -3 43.5 10.4
-5 15 3 35 7.4
16 -4 3 0.3 4.5
-4 16 3 -6.3 6.3
-16 4 -3 8.3 7.9
17 -3 3 -0.9 3.4
-17 3 -3 1 6.4
-3 17 3 8.3 5.4
4 -17 3 9.1 4.7
4 -17 3 -4.3 5.9
-17 4 3 7.2 5.4
5 -16 3 9.7 3.8
-16 5 3 6.9 5.5
6 -15 3 20 5.2
-15 6 3 3.2 5.8
7 -14 3 -1 3.9
7 -14 3 -6 4.2
-14 7 3 -2.3 4.7
8 -13 3 6.5 3.1
-13 8 3 1.6 3.5
9 -12 3 -0.8 3.8
9 -12 3 4.8 3.6
-12 9 3 0.9 3.5
10 -11 3 4.7 3.4
-11 10 3 4.6 3.9
-10 11 3 1 3.2
12 -9 3 1.6 3.2
-12 9 -3 -8.2 7.6
-9 12 3 -5.5 3.5
-8 13 3 15.7 4.8
14 -7 3 -7.3 3.6
-7 14 3 -4.5 4
15 -6 3 0.6 5.1
-15 6 -3 5.8 5.8
16 -5 3 5.1 4.1
17 -4 3 2.5 4.6
-17 4 -3 15.3 10
5 -17 3 -6.7 3.5
5 -17 3 -0.3 5
-17 5 3 4.7 5.8
6 -16 3 5.7 4.8
-16 6 3 -3.6 4.9
7 -15 3 0.6 4.5
7 -15 3 19.3 5.7
-15 7 3 -0.4 3.6
8 -14 3 2.3 4.3
8 -14 3 6.4 4.6
-14 8 3 6.1 4.2
9 -13 3 3.5 3.8
9 -13 3 3.8 4
-13 9 3 0.6 3.9
10 -12 3 4.2 3
-12 10 3 -0.9 4
-11 11 3 5.5 4
12 -10 3 0 3.1
-12 10 -3 -1.9 8.3
-10 12 3 1.7 2.9
13 -9 3 -6.6 4.7
-9 13 3 3.8 4.3
-13 9 -3 -10.7 8.8
14 -8 3 -0.6 2.8
-8 14 3 0.3 3.4
15 -7 3 0.5 4.8
-15 7 -3 12.4 9.5
-7 15 3 -2.5 5.8
-6 16 3 11.4 6.2
-16 6 -3 15.6 10.4
17 -5 3 5.4 4.4
-17 5 -3 19.3 10.4
-5 17 3 1.4 6
7 -16 3 3.6 4.8
-16 7 3 5.3 5.1
8 -15 3 2.5 4.4
9 -14 3 -3.6 4.5
-14 9 3 2.9 3
10 -13 3 2.5 4.2
-13 10 3 4.4 4.2
11 -12 3 -1.3 4.3
-12 11 3 13.9 4.6
12 -11 3 8.4 3.7
13 -10 3 2.8 4.7
-10 13 3 0.1 4.2
14 -9 3 1 3.1
-9 14 3 3 4.2
15 -8 3 0.5 3.6
-8 15 3 -0.6 5.2
-15 8 -3 12.1 10.1
16 -7 3 8.4 5.1
-7 16 3 12.3 6.3
-16 7 -3 5.6 9.6
9 -15 3 2.5 4
-15 9 3 5.8 4.7
10 -14 3 8.1 3.6
-14 10 3 -3.1 4.2
11 -13 3 -5.9 3.5
-13 11 3 -6.1 4.2
-12 12 3 -4.5 4.7
13 -11 3 -2.1 4.6
-11 13 3 7.6 3.6
14 -10 3 4.8 3.7
11 -14 3 -1.3 5.1
-14 11 3 -10.9 5.1
12 -13 3 -11.4 5.5
-13 12 3 4.4 4.7
13 -12 3 -3.7 4.9
-12 13 3 -1.7 4.8
14 -11 3 1.9 3.9
-11 -11 4 2.4 4.4
-10 -10 4 1 4.8
-9 -9 4 28.1 5.1
-9 -9 4 24.6 7.2
-8 -8 4 -7.2 3.2
-8 -8 4 -6.5 4.9
-8 -8 4 -0.8 4
-7 -7 4 22.4 4.2
-7 -7 4 35.6 6.4
-5 -5 4 -28.6 17.6
-5 -5 4 -18.9 14.7
-4 -4 4 53.39 10.6
4 4 -4 74.69 13.9
-4 -4 4 62.69 8.9
-4 -4 4 54.29 5.7
-3 -3 4 8.1 2.7
3 3 -4 16.1 6.9
-3 -3 4 7.6 5.4
-3 -3 4 8.4 1.4
2 2 -4 18.4 11.1
-2 -2 4 24.2 5
-1 -1 -4 175.78 76.39
2 2 4 18.3 3.3
2 2 4 16.6 2.2
-3 -3 -4 11 3
3 3 4 15.3 2.5
4 4 4 66.99 13.2
-5 -5 -4 26.1 22
5 5 4 70.29 80.39
5 5 4 8.8 24.3
6 6 4 32 8
-6 -6 -4 65.49 11.2
6 6 4 46.9 6.9
-7 -7 -4 36.2 9.2
7 7 4 29.7 5.8
-8 -8 -4 8 7.9
8 8 4 -6.2 3.3
9 9 4 36.9 7.1
10 10 4 2.8 7
-10 -10 -4 4.8 11.7
-11 -11 -4 5.4 11.4
-11 -12 4 2.7 6.5
-11 -12 4 -5.1 4.9
-12 -11 4 -2.3 6.6
-12 -11 4 0.5 4.4
-10 -11 4 77.49 11.3
-10 -11 4 87.79 13.3
-11 -10 4 84.09 11.8
-11 -10 4 108.19 12.8
-9 -10 4 49.3 8.6
-9 -10 4 60.49 9.1
-10 -9 4 59.49 8.7
-10 -9 4 73.69 9.2
-8 -9 4 0.8 4.9
-8 -9 4 8.4 4.8
-9 -8 4 6.8 5.4
-9 -8 4 2.8 3
-9 -8 4 5.6 5.8
-7 -8 4 -6.2 4.9
-7 -8 4 -6.9 4.3
-8 -7 4 -8.4 5.6
-8 -7 4 0.1 4.1
-6 -7 4 0.2 2.7
-6 -7 4 -0.9 3.8
-6 -7 4 0.7 2.8
-7 -6 4 -2.9 2.8
-7 -6 4 4.2 3.6
-5 -6 4 282.57 26.4
-5 -6 4 285.07 33.1
-5 -6 4 283.57 26.7
6 5 -4 242.98 33.6
-6 -5 4 315.87 40.3
-4 -5 4 254.37 36.8
5 4 -4 293.27 32.7
-4 -5 4 250.27 29.1
-4 -5 4 294.47 31.3
4 5 -4 313.97 34.3
-5 -4 4 247.28 28.9
-5 -4 4 200.58 45.6
-5 -4 4 242.18 32.3
-3 -4 4 7.1 6.7
4 3 -4 25.7 8.2
-4 -3 4 4.6 6.8
2 3 -4 6.1 5.9
-1 -2 4 23.7 36.5
2 1 -4 53.79 83.59
-2 -1 4 11.7 19.1
1 2 -4 67.99 61.69
0 -1 -4 670.53 220.08
-2 -1 -4 9.6 10.6
3 2 4 -1.4 1.7
3 2 4 10.1 4
-2 -3 -4 -1.5 2.1
-3 -2 -4 2 3
2 3 4 2.2 1.6
2 3 4 2 2.6
3 4 4 26.7 5.3
3 4 4 25.4 3.8
5 4 4 338.57 34.5
-4 -5 -4 470.55 43.8
5 4 4 441.46 38.9
4 5 4 337.27 36.1
-5 -4 -4 389.66 36.6
-5 -6 -4 549.95 87.49
6 5 4 579.04 59.99
6 5 4 582.24 85.49
5 6 4 549.35 65.09
-6 -5 -4 513.45 64.39
7 6 4 -0.2 3.3
-6 -7 -4 2.3 7.2
6 7 4 -2.2 3.7
-7 -6 -4 8.4 6.8
-7 -8 -4 2.8 7.1
-8 -7 -4 1 7.9
7 8 4 -4.9 4.4
-8 -9 -4 -16.6 9.1
9 8 4 6.9 4.9
-9 -8 -4 12.3 8.6
8 9 4 4.6 3.4
-9 -10 -4 99.89 15.8
10 9 4 101.19 13.8
-10 -9 -4 126.49 17.9
9 10 4 133.79 13.8
11 10 4 118.19 15.5
-11 -10 -4 98.89 15.6
10 11 4 98.09 14.5
-11 -12 -4 -2.2 11.1
12 11 4 -2.8 6.2
-12 -11 -4 10.1 10.4
11 12 4 -6.4 5.7
-10 -12 4 3.4 10.2
-10 -12 4 2.8 4.8
-10 -12 4 1.9 4.6
-12 -10 4 0.4 5.3
-12 -10 4 -0.5 5.1
-9 -11 4 8.6 6.4
-9 -11 4 0.6 5.3
-11 -9 4 -2.1 4.2
-8 -10 4 -6.4 4
-8 -10 4 -0.3 3.8
-10 -8 4 -8.1 4.4
-10 -8 4 4 5.7
-7 -9 4 23.9 5.6
-7 -9 4 21.3 5.9
-9 -7 4 18.1 7.1
-6 -8 4 23.2 3.9
-6 -8 4 33.3 5.6
-8 -6 4 38.3 6.7
-8 -6 4 33.6 4.9
-5 -7 4 -4.8 3.8
-7 -5 4 3.3 5.7
-7 -5 4 -1 7.2
-4 -6 4 27.3 14.2
-6 -4 4 33.2 8
-6 -4 4 26.7 19.4
-3 -5 4 -3.3 2.2
-3 -5 4 -11.7 9
5 3 -4 -3.2 8
-5 -3 4 -2.9 8.4
3 5 -4 3.9 11.8
-5 -3 4 -1.9 1.5
-5 -3 4 -3.4 2.9
-2 -4 4 54.69 9.2
-2 -4 4 52.29 5.1
-4 -2 4 38.3 8.9
-4 -2 4 48.2 5.5
-1 -3 4 87.69 9.5
-3 -1 4 100.69 9.3
1 3 -4 70.29 11.5
2 0 -4 21.9 26
0 -2 4 77.19 118.79
0 2 -4 44 26.4
1 -1 -4 213.98 62.19
0 2 4 12.9 55.79
-2 0 -4 5.1 58.69
3 1 4 69.39 9.6
-1 -3 -4 78.29 8.3
3 1 4 75.19 7.9
4 2 4 114.89 31.4
-2 -4 -4 107.59 10.7
4 2 4 100.99 12.1
2 4 4 96.19 10.3
-4 -2 -4 117.89 11.2
5 3 4 6.6 14.8
5 3 4 -1.5 10
3 5 4 21 23.9
6 4 4 118.09 17
4 6 4 107.29 34.5
7 5 4 6 5.6
-5 -7 -4 17.3 6.4
5 7 4 2 3.5
8 6 4 47 7.1
-6 -8 -4 42.8 7.9
6 8 4 48.6 6.7
9 7 4 15.8 6.6
-9 -7 -4 27 9.6
7 9 4 7 5.7
-8 -10 -4 6.3 9.8
-10 -8 -4 -5.1 6.9
11 9 4 5 7.7
9 11 4 -11.6 7.8
12 10 4 1 6
10 12 4 1.6 5.5
-12 -10 -4 -21.6 12.2
-10 -13 4 -11.1 7.8
-10 -13 4 3.2 3.4
-10 -13 4 8.4 6.6
-13 -10 4 -4.7 6.4
-13 -10 4 3.8 5.1
-9 -12 4 4.3 6.4
-9 -12 4 14.3 7.1
-9 -12 4 -8 5.1
-12 -9 4 -10.8 5.2
-12 -9 4 -8 6.2
-8 -11 4 -3.7 3.9
-8 -11 4 -1.5 6.5
-11 -8 4 7.2 4.8
-7 -10 4 11.9 4.4
-7 -10 4 11.6 5.7
-10 -7 4 6 5.2
-6 -9 4 50.09 8.1
-6 -9 4 62.09 8.1
-6 -9 4 61.99 7.8
-9 -6 4 49.7 13.1
-8 -5 4 2 2.8
-8 -5 4 3.9 2.9
-4 -7 4 -10.4 10.6
-7 -4 4 1.4 3.2
-7 -4 4 20.5 24.5
-3 -6 4 -10 9.8
-3 -6 4 2.5 3.2
-3 -6 4 -4 3.3
3 6 -4 -20.6 15.4
-6 -3 4 -0.6 2.7
-6 -3 4 0.4 11.6
-2 -5 4 15.2 2.5
-2 -5 4 23.7 7.9
-5 -2 4 17.6 6.2
-1 -4 4 114.79 14.4
-1 -4 4 101.79 11.9
-1 -4 4 139.79 19.1
0 -3 4 18.7 2.4
2 -1 -4 16.9 3.8
-2 1 -4 17.6 14.4
3 0 4 45.7 5.7
0 -3 -4 40.1 6.4
-3 0 -4 55.79 7.2
-3 0 -4 35.2 10
4 1 4 211.78 44.7
-1 -4 -4 164.88 16.1
1 4 4 148.09 15.1
-2 -5 -4 30.5 5.9
-5 -2 -4 39.8 8.2
2 5 4 36.7 4.7
2 5 4 50.69 7.3
3 6 4 5.8 5.3
3 6 4 11.2 6
7 4 4 -8.2 10.6
7 4 4 4.4 4.3
-7 -4 -4 3.4 5.2
4 7 4 2.3 7.2
8 5 4 8.7 3.3
8 5 4 12.2 4.8
-6 -9 -4 91.39 13.2
6 9 4 68.49 25.3
10 7 4 6.4 6.9
-10 -7 -4 25.2 11.1
7 10 4 -2.3 5.7
8 11 4 1.7 6.2
-11 -8 -4 4.8 10
-12 -9 -4 -18.9 8.9
9 12 4 -4.7 5.6
-13 -10 -4 -3.5 10.9
10 13 4 6.7 5.8
-9 -13 4 4.7 5.3
-9 -13 4 -7 4.1
-9 -13 4 -2.4 5.7
-13 -9 4 0.3 4.3
-13 -9 4 -2.2 5
-8 -12 4 -5.2 6.1
-8 -12 4 1.6 6.4
-12 -8 4 5 5.6
-12 -8 4 -0.2 4.7
-7 -11 4 15.5 4.8
-7 -11 4 20.1 5.6
-11 -7 4 23.4 5.6
-6 -10 4 20.8 23.1
-10 -6 4 0.7 12.2
-5 -9 4 2.8 4.5
-5 -9 4 -2 3.6
-4 -8 4 23.9 3.7
-8 -4 4 31.5 5.7
-8 -4 4 22 3.8
7 3 -4 -10.5 12
-3 -7 4 14.1 2.9
-3 -7 4 22.6 9.6
-7 -3 4 19.3 24.4
-7 -3 4 16.7 3
-2 -6 4 74.59 7
-2 -6 4 58.79 12.5
6 2 -4 78.69 14.1
2 6 -4 81.29 17.6
-6 -2 4 65.29 15
-6 -2 4 71.69 9.3
-6 -2 4 60.19 8.5
-1 -5 4 24.5 33.5
-1 -5 4 37.2 40
-5 -1 4 56.79 134.49
-5 -1 4 28.6 102.99
-5 -1 4 232.28 120.49
1 5 -4 132.99 81.19
0 -4 4 20.9 23.1
0 -4 4 7.5 7.7
0 4 -4 87.89 42.1
0 4 -4 -8.4 12.5
1 -3 4 75.09 11
3 -1 -4 74.99 14.8
-1 3 -4 89.59 13.9
-1 3 -4 87.79 8.5
-3 1 4 77.69 8.5
2 -2 -4 22.5 3.8
-2 2 4 29 4.5
-2 2 -4 28.4 4.6
-2 2 -4 11.1 6.6
3 -1 4 63.19 8.2
-1 3 4 67.19 8
4 0 4 132.39 59.59
0 4 4 141.59 110.99
-4 0 -4 50.29 57.29
-1 -5 -4 43.1 25.2
5 1 4 130.79 185.38
-5 -1 -4 69.59 63.39
6 2 4 109.59 14.9
2 6 4 132.99 13.3
2 6 4 115.29 11.4
-6 -2 -4 115.69 14
7 3 4 26 4.2
-3 -7 -4 17.9 4.9
3 7 4 20.1 4.4
-4 -8 -4 41.8 7.6
8 4 4 37 5.5
8 4 4 28.1 5.8
4 8 4 34 5.1
-8 -4 -4 31.3 6.4
9 5 4 -5.6 6.4
9 5 4 9.2 9.8
-9 -5 -4 5.6 6.9
5 9 4 -3.6 5.9
10 6 4 -19 9.7
11 7 4 22.9 6.6
12 8 4 3.2 4.5
8 12 4 -13.8 7.4
13 9 4 1.9 5.2
-13 -9 -4 -21.6 12.9
9 13 4 2.3 5.5
-9 -14 4 16.9 8.1
-14 -9 4 16.6 6.5
-8 -13 4 -7 4.3
-8 -13 4 -6.8 4.7
-8 -13 4 -2.1 5
-13 -8 4 0.9 5.8
-13 -8 4 -5.9 5.3
-7 -12 4 1.8 6.3
-7 -12 4 -0.5 3.1
-7 -12 4 -2.5 5.6
-12 -7 4 11.6 4.7
-12 -7 4 -4.4 4.5
-6 -11 4 114.19 13.9
-6 -11 4 107.99 11.6
-11 -6 4 109.39 12.2
-11 -6 4 134.79 14.1
-5 -10 4 349.67 39.7
-5 -10 4 436.66 36.2
-10 -5 4 423.76 36.6
-10 -5 4 408.86 40.9
-4 -9 4 43.7 5.3
-4 -9 4 60.89 8.2
-9 -4 4 46.2 6
-3 -8 4 3.9 3.2
-8 -3 4 -2.5 2.1
-8 -3 4 -2.2 2.1
-2 -7 4 -4.7 9
-2 -7 4 0.5 2.1
7 2 -4 -3 9.7
-7 -2 4 1.5 3.4
2 7 -4 -3.9 21.4
-7 -2 4 -3.8 15.4
-7 -2 4 -3.5 2.6
-1 -6 4 112.39 17.5
-1 -6 4 143.69 13.4
-6 -1 4 130.99 19.5
-6 -1 4 142.19 13.1
1 6 -4 212.88 134.99
0 -5 4 849.41 95.59
5 0 -4 496.85 100.09
0 -5 4 922.31 117.79
0 -5 4 939.31 111.09
-5 0 4 649.24 73.09
-5 0 4 666.63 88.29
1 -4 4 125.49 22
1 -4 4 148.19 46.2
4 -1 -4 164.98 29
-4 1 4 151.28 30.9
-1 4 -4 185.88 36.5
2 -3 4 -0.4 1.1
2 -3 4 0 2.1
3 -2 -4 -4.5 2.4
-2 3 -4 -3.2 8.4
-2 3 -4 3.9 7.3
-3 2 4 0.6 2.5
-3 2 -4 -6.4 6.6
-3 2 -4 4.2 3.1
4 -1 4 152.38 15.4
1 -4 -4 128.39 41
-1 4 4 328.07 99.69
-4 1 -4 136.79 21.5
-4 1 -4 143.59 48
5 0 4 1070.19 135.99
5 0 4 1579.14 319.37
-5 0 -4 873.71 117.29
0 5 4 814.62 170.08
0 5 4 1055.29 135.89
6 1 4 337.47 50.89
6 1 4 229.98 46.7
1 6 4 234.88 28.3
-6 -1 -4 283.27 47.4
7 2 4 9.1 4.6
7 2 4 -1.5 2.2
-7 -2 -4 -1.5 3.7
8 3 4 -3.9 4.5
8 3 4 -3.3 3.3
3 8 4 5.2 3.2
-8 -3 -4 -7.5 5.2
9 4 4 86.09 11.6
9 4 4 92.99 10.3
4 9 4 94.29 9.9
-9 -4 -4 90.09 13
-10 -5 -4 449.56 44.5
5 10 4 520.25 44.9
6 11 4 85.09 9.8
12 7 4 -8.3 3.8
7 12 4 -5.9 4.7
-12 -7 -4 4 6.8
8 13 4 3.5 5
-13 -8 -4 11.5 11.8
-8 -14 4 -9.3 6.7
-8 -14 4 -15.9 7.5
-14 -8 4 -1.3 5.3
-14 -8 4 1.2 6.2
-7 -13 4 3.6 4.1
-7 -13 4 -4.8 3.1
-7 -13 4 1.7 5
-13 -7 4 0.3 5.9
-13 -7 4 -6 5
-6 -12 4 28.1 7.7
-6 -12 4 33.1 7.1
-6 -12 4 19.3 4.7
-12 -6 4 22.3 5.6
-5 -11 4 -3.9 5.8
-10 -4 4 1.2 5.8
-3 -9 4 34.7 4.7
-9 -3 4 35.8 5
-2 -8 4 3.1 2
-2 -8 4 4.9 3.7
-8 -2 4 2.3 1.9
-8 -2 4 1.6 1.9
-8 -2 4 5.9 25.7
-1 -7 4 41.6 4.7
7 1 -4 27 11.1
-7 -1 4 47.6 15.8
-7 -1 4 53.19 5.2
-7 -1 4 34.8 5.4
1 7 -4 91.39 24.2
0 -6 4 6.3 16.8
0 -6 4 0.5 14.6
0 -6 4 61.79 102.29
0 6 -4 56.29 50.29
0 6 -4 24.9 18.6
1 -5 4 24.5 32.6
1 -5 4 -22.1 33.8
-5 1 4 19.4 36.7
-1 5 -4 41.1 132.29
-5 1 4 8.3 10.3
-1 5 -4 40 38.4
2 -4 4 66.09 6.8
-2 4 -4 124.29 38.5
-2 4 -4 84.09 15.2
3 -3 4 18.9 3.5
3 -3 -4 24.7 3.7
3 -3 4 20.6 2.7
-3 3 -4 11.4 8.9
-3 3 4 26.4 4.1
2 -4 -4 66.19 8.7
4 -2 4 77.29 7.8
-2 4 4 52.39 11.7
-4 2 -4 57.49 14.5
5 -1 4 169.38 136.19
5 -1 4 109.89 135.19
1 -5 -4 147.49 47.8
-1 5 4 255.07 102.59
0 -6 -4 75.59 12.7
0 6 4 116.59 53.39
7 1 4 84.29 9.5
-1 -7 -4 62.89 9.1
7 1 4 80.09 8.3
-7 -1 -4 71.99 10.1
1 7 4 81.79 8.2
8 2 4 5.6 4.4
-8 -2 -4 5.4 4.8
2 8 4 7.7 3
9 3 4 37.3 6.1
9 3 4 40 7
3 9 4 27.8 4.9
10 4 4 1.3 27.8
4 10 4 89.99 20.9
11 5 4 5 7.2
5 11 4 4.6 6.1
12 6 4 17.8 4.7
6 12 4 26.6 5.8
7 13 4 7.7 5
-13 -7 -4 14.9 10.6
14 8 4 -3.2 5
8 14 4 -2.8 5.4
-14 -8 -4 5.7 9.1
-7 -14 4 -1.1 6.3
-7 -14 4 0.8 6.3
-14 -7 4 -5 4.6
-6 -13 4 -0.1 3.8
-6 -13 4 -4.7 6.6
-13 -6 4 3 3.5
-5 -12 4 4.5 4.5
-5 -12 4 -0.3 4.3
-12 -5 4 3.7 5.1
-12 -5 4 7.7 5.6
-11 -4 4 92.39 11.4
-3 -10 4 15.1 5.5
-3 -10 4 4 4.2
-2 -9 4 1.9 4.2
-2 -9 4 4.6 2.7
-9 -2 4 -2.1 4.9
8 1 -4 19.3 12.7
-8 -1 4 30.2 27.8
7 0 -4 11.2 9.6
0 -7 4 -10.4 10.1
-7 0 4 8 15.3
0 7 -4 10.5 19.8
1 -6 4 183.18 16.9
1 -6 4 192.08 17.4
1 -6 4 172.08 23.2
-6 1 4 177.98 20.3
-6 1 4 178.08 22.1
-6 1 4 161.18 24
2 -5 4 20.9 3.8
-5 2 4 13.5 11
-5 2 4 19.1 2.8
-2 5 -4 20.2 16.8
-2 5 -4 44.4 12.8
-3 4 -4 10 9.6
-4 3 4 6.2 9
4 -3 4 17.4 2.8
4 -3 4 13 3.9
-4 3 -4 14 9.3
-4 3 -4 13.4 3.4
-3 4 4 8.3 10.3
2 -5 -4 31 6.5
5 -2 4 34.9 6.4
5 -2 4 23 3.6
-2 5 4 10.6 9.9
-5 2 -4 19.7 5.3
-2 5 4 22.1 3.8
-5 2 -4 16.4 13.5
6 -1 4 183.28 15
-1 6 4 151.18 17.7
-1 6 4 125.99 16.4
8 1 4 10.4 2.7
8 1 4 15.7 4.4
1 8 4 11.4 3.1
9 2 4 -9.3 5.2
9 2 4 -7.8 7.7
2 9 4 4.7 3.8
-9 -2 -4 1.2 4.6
10 3 4 5.5 12.4
10 3 4 4.4 3.6
-10 -3 -4 15 5.7
3 10 4 7.1 5.2
11 4 4 44.7 7.2
4 11 4 41.2 7.5
12 5 4 -5.1 5.1
5 12 4 -0.2 4.9
-12 -5 -4 -2.5 6.1
13 6 4 -0.9 5.2
6 13 4 -5.7 4.7
-13 -6 -4 4.7 10.2
14 7 4 -3.7 4.6
-14 -7 -4 -3.2 12.2
-7 -15 4 -9.5 7.4
-7 -15 4 -4.4 4.3
-7 -15 4 3.6 4.7
-15 -7 4 -10.6 8.2
-6 -14 4 -4 5
-14 -6 4 -17 7.4
-14 -6 4 7.9 6.3
-5 -13 4 2.6 3.6
-5 -13 4 6.6 6.5
-13 -5 4 5.5 3.4
-13 -5 4 -4.1 4.8
-12 -4 4 25.7 6.3
-12 -4 4 17.2 5.2
-3 -11 4 41.7 6.5
-11 -3 4 26.4 4.9
-2 -10 4 4.9 4.7
-2 -10 4 -2 8.1
-10 -2 4 -10.6 8.8
-1 -9 4 58.29 11.6
-9 -1 4 65.49 9.8
0 -8 4 3 2
8 0 -4 14.5 13.3
0 -8 4 0.8 3.9
-8 0 4 13.9 28.1
0 8 -4 -0.9 2.7
1 -7 4 51.39 5.5
-7 1 4 36 16.2
-7 1 4 51.19 5.7
2 -6 4 48.8 13
2 -6 4 71.39 7.4
-6 2 4 69.59 8
-6 2 4 72.59 7.4
-6 2 4 84.49 18.1
3 -5 4 0.5 3.7
5 -3 -4 3.7 4.5
3 -5 4 1.5 3.1
-5 3 4 6.9 13.1
-3 5 -4 -1.9 10.7
-3 5 -4 -6.2 5.6
-5 3 4 1 3
-5 3 4 -14.2 12.5
4 -4 4 81.39 9.3
4 -4 4 78.69 8.4
-4 4 -4 75.49 9
5 -3 4 6.3 26.7
5 -3 4 -3.4 6.7
-3 5 4 -7.3 11.4
-5 3 -4 1.5 4.8
-5 3 -4 -17.6 11.8
-2 6 4 101.59 13.4
-6 2 -4 135.49 27
7 -1 4 61.59 6.8
7 -1 4 64.99 7
-1 7 4 62.19 6.6
8 0 4 4.4 3.7
-8 0 -4 -0.2 4.7
9 1 4 73.99 10.5
9 1 4 86.89 11.7
-9 -1 -4 94.09 12.4
1 9 4 66.89 10.7
10 2 4 -14.6 27.9
10 2 4 1.6 24
2 10 4 -2.5 4
11 3 4 47.5 8.3
11 3 4 43.1 8.6
12 4 4 18.2 5.3
4 12 4 13.4 5.6
13 5 4 -4.8 4.6
-13 -5 -4 4.8 6.9
5 13 4 1.2 4.1
14 6 4 -0.8 5.9
6 14 4 4 4.5
-5 -14 4 30.1 5.2
-4 -13 4 2 2.8
-4 -13 4 10.1 4.8
-13 -4 4 6.7 4.8
-13 -4 4 4 3.7
-3 -12 4 5.7 4.2
-12 -3 4 -5.3 4.3
-12 -3 4 0.5 4.2
-2 -11 4 -0.2 3.6
-2 -11 4 -5.4 3
-11 -2 4 -8.4 6.2
-1 -10 4 261.77 22.2
-1 -10 4 243.08 23.4
-10 -1 4 234.48 23.3
-10 -1 4 238.98 24.5
0 -9 4 165.28 16.8
0 -9 4 170.88 15.2
-9 0 4 169.28 17.2
1 -8 4 14.1 4.1
8 -1 -4 0.2 10.8
-1 8 -4 10.5 3
-8 1 4 27.2 18.2
2 -7 4 -1 1.8
2 -7 4 -0.1 3.8
-7 2 4 0.3 2.1
-7 2 4 2 2.6
-2 7 -4 1.3 4
-7 2 4 -23.5 16.3
3 -6 4 0 2.9
-3 6 -4 -13.4 17.7
-6 3 4 -1.6 7.4
-3 6 -4 6.3 34.2
-6 3 4 -25.2 17.4
4 -5 4 328.07 30.6
-5 4 4 251.27 25.8
-5 4 4 249.78 32.2
-4 5 4 239.48 28.5
-4 5 4 230.28 30.1
6 -3 4 16 4
-6 3 -4 12.4 20
-3 6 4 -1.3 12.4
7 -2 4 2.6 2.4
7 -2 4 -1.4 3.6
-7 2 -4 0.6 2.9
-2 7 4 1.4 2.1
-8 1 -4 13.9 4
9 0 4 239.48 22.5
9 0 4 280.87 23.6
-9 0 -4 232.18 24.7
10 1 4 402.56 33
-10 -1 -4 281.07 31.1
11 2 4 16.6 6.6
-11 -2 -4 8.9 7
2 11 4 0.7 4.1
12 3 4 -6.8 5.3
12 3 4 -0.9 4.2
3 12 4 2 4.6
-12 -3 -4 0.2 7.8
13 4 4 0.2 4.2
-13 -4 -4 14.1 8.3
4 13 4 4.6 4.4
14 5 4 44.9 8
5 14 4 46.4 7.7
15 6 4 46.6 7.7
-5 -15 4 -9.2 5
-15 -5 4 7.2 7
-15 -5 4 -4.5 5.2
-4 -14 4 8.5 4.7
-4 -14 4 2.4 6.8
-14 -4 4 2.1 5.4
-3 -13 4 -0.8 3.1
-3 -13 4 7 5.8
-13 -3 4 9.7 5.4
-13 -3 4 -9 4.8
-2 -12 4 9.1 3.5
-12 -2 4 11.2 3.6
-12 -2 4 10.6 4
-1 -11 4 33.8 7.3
0 -10 4 24.6 8.2
-10 0 4 31.1 11.6
1 -9 4 43.5 7.3
1 -9 4 43.6 11.2
-9 1 4 57.19 6.9
-9 1 4 42.3 6.8
2 -8 4 3.7 3.1
8 -2 -4 5.9 13.7
-8 2 4 -2.8 18.7
-2 8 -4 5.8 3.3
-8 2 4 1.3 2.4
3 -7 4 8.8 2.7
-3 7 -4 14.6 3.3
-7 3 4 20.4 20.8
4 -6 4 64.19 12.9
-4 6 -4 51.39 12.1
5 -5 4 11.1 20.4
5 -5 4 -6.3 30.8
-5 5 4 -2.7 7
-5 5 4 26.8 27.2
-5 5 4 -5.2 16.9
-5 5 -4 4.7 15.5
6 -4 4 73.99 30.1
-4 6 4 39.6 5.5
-6 4 -4 70.49 36.5
-4 6 4 31.7 16.4
-3 7 4 15 2.6
-3 7 4 17.5 12.5
8 -2 4 5.6 2.3
8 -2 4 2.5 2.4
-2 8 4 1.2 1.9
-8 2 -4 1.7 3.8
9 -1 4 94.89 11.5
-1 9 4 103.89 12
11 1 4 71.29 22.8
-11 -1 -4 93.59 14
1 11 4 56.79 16.5
12 2 4 19.9 5.7
2 12 4 26.3 5.3
13 3 4 -0.6 4.2
13 3 4 1.6 5.3
-13 -3 -4 -3.7 8.2
3 13 4 -7.9 4.5
4 14 4 11.7 5.6
-14 -4 -4 9.6 7.6
5 15 4 7.1 5.5
-4 -15 4 62.29 11.4
-4 -15 4 60.89 9
-15 -4 4 86.09 10.5
-3 -14 4 3.8 3.9
-3 -14 4 7.2 5.3
-2 -13 4 -1.7 2.9
-2 -13 4 1.6 3.8
-13 -2 4 0.4 5.8
-1 -12 4 0.7 3.6
-12 -1 4 -2.3 4.1
-12 -1 4 7.4 6.2
0 -11 4 270.37 27.6
0 -11 4 275.97 25.2
0 11 -4 308.67 27.3
-11 0 4 297.77 26.5
1 -10 4 240.18 24.4
1 -10 4 244.28 23.4
-1 10 -4 298.37 25.9
2 -9 4 3.6 3.4
2 -9 4 -3.4 4.2
-9 2 4 4.7 3.4
3 -8 4 -0.8 2.2
3 -8 4 1.3 3.1
-8 3 4 -5.2 2.4
-8 3 4 0.7 18.6
-3 8 -4 -4.3 3.4
4 -7 4 -2.2 2.8
4 -7 4 -0.3 12.3
-4 7 -4 -2.1 8
-7 4 4 -15.4 19.5
5 -6 4 275.17 29.5
-6 5 4 362.06 31
-5 6 -4 334.07 36.1
-6 5 4 318.17 41.7
-6 5 4 382.46 48.1
6 -5 4 561.74 55.99
6 -5 4 682.93 66.69
-6 5 -4 559.54 58.29
7 -4 4 -2.7 2.8
7 -4 4 5.9 4.4
-7 4 -4 -1.2 35.3
-4 7 4 1.4 1.8
8 -3 4 -2.6 2.3
8 -3 4 -0.4 3
-8 3 -4 4.2 4
-3 8 4 -0.8 2
9 -2 4 0.6 4.2
9 -2 4 7.6 3.5
10 -1 4 273.87 25.9
10 -1 4 278.47 25.9
-10 1 -4 312.47 27.1
-1 10 4 263.67 26.7
11 0 4 348.77 31.8
11 0 4 331.47 32.4
-11 0 -4 346.07 33.7
0 11 4 391.86 32.2
12 1 4 4.6 4.6
-12 -1 -4 0.4 4.8
1 12 4 13.6 4.7
13 2 4 2.4 4.8
13 2 4 -0.4 4.1
-13 -2 -4 -1.6 7.7
2 13 4 -3 4.4
14 3 4 -5.7 4.6
3 14 4 -1.2 4.9
-14 -3 -4 2.8 9
15 4 4 49.99 8.7
4 15 4 72.99 9.3
-4 -16 4 -2.8 5.2
-4 -16 4 4.8 7.7
-16 -4 4 6.6 5.5
-16 -4 4 5.2 7
-3 -15 4 1.5 3.7
-3 -15 4 5.9 5.3
-15 -3 4 -2.2 8.9
-2 -14 4 3.3 3.7
-14 -2 4 -0.2 5.5
-14 -2 4 22.5 8
-1 -13 4 7.6 5.7
-1 -13 4 12.3 3.5
1 13 -4 12 3.4
-13 -1 4 10.6 4.9
0 -12 4 -1 3
0 -12 4 2.8 4.9
0 12 -4 -1.9 3.9
-12 0 4 -0.2 2.9
-12 0 4 2.2 4.4
-1 11 -4 88.49 12.5
2 -10 4 12 14.9
-10 2 4 -6.2 6.9
3 -9 4 23.1 3.9
3 -9 4 21.7 4.3
-9 3 4 31.3 4.7
-3 9 -4 20.5 4.4
4 -8 4 27.1 3.9
-8 4 4 17.9 3.5
5 -7 4 -0.1 3
5 -7 4 4.9 9.1
-7 5 4 2 2.4
-7 5 4 -31.9 22.1
-6 6 4 13.4 20.9
7 -5 4 -1.2 3.2
-7 5 -4 -4.9 16.3
-5 7 4 -4.8 14.5
8 -4 4 30 4.3
-4 8 4 22.2 3.5
9 -3 4 44.9 6.3
9 -3 4 44.1 5.4
10 -2 4 -6.1 4.7
10 -2 4 -2.6 8.4
-10 2 -4 -2.4 6.1
11 -1 4 34 11
11 -1 4 42.3 7.4
-1 11 4 71.49 18
12 0 4 4.5 3.7
12 0 4 -1.1 2.9
-12 0 -4 6.9 7.1
0 12 4 -1.1 3.7
13 1 4 11.3 4
1 13 4 13.8 4.3
14 2 4 1.3 3.8
14 2 4 -4.2 4.8
2 14 4 4.9 5.5
-14 -2 -4 19.8 9.6
-15 -3 -4 13.3 9.5
3 15 4 8 6.3
16 4 4 -5.2 6.3
-16 -4 -4 8.2 8.4
-3 -16 4 -8.9 5
-3 -16 4 5 7.2
-16 -3 4 -2.1 6.5
-2 -15 4 -3.5 4.7
-2 -15 4 3.8 6.7
-1 -14 4 28.6 7.3
-1 -14 4 20.8 4.3
-14 -1 4 34.5 6.9
0 -13 4 12 5.7
0 -13 4 13.8 3.6
1 -12 4 7.8 2.8
-12 1 4 3 4.5
-1 12 -4 4.4 3.8
2 -11 4 4.7 4.4
-11 2 4 -3.8 5.4
-2 11 -4 5 5.4
-3 10 -4 -1.5 5.2
-10 3 4 6.9 4.1
4 -9 4 53.49 6.8
-4 9 -4 48.7 6.2
-9 4 4 49.4 6.4
5 -8 4 14 3.6
-8 5 4 10.4 3.2
-5 8 -4 18.4 4.5
6 -7 4 3.4 3
6 -7 4 2.3 2.1
-7 6 4 2.3 2.4
-6 7 -4 0.2 3.4
7 -6 4 3.3 2.7
7 -6 4 2.7 2.5
-6 7 4 3 2.1
-7 6 -4 -1.6 3.9
8 -5 4 7.8 3.1
8 -5 4 10.5 3.5
-8 5 -4 15.5 4.5
-5 8 4 11.1 2.8
9 -4 4 70.99 7
-4 9 4 52.19 6.8
10 -3 4 38.6 6.2
10 -3 4 29.2 5.1
11 -2 4 1.1 4.1
11 -2 4 -2.5 7.5
-2 11 4 2.8 5.1
-11 2 -4 2.7 4.2
12 -1 4 -2.6 2.8
12 -1 4 5.4 3.6
-12 1 -4 2.3 6.4
13 0 4 3.5 2.9
0 13 4 3.8 4.5
14 1 4 37.3 6.4
1 14 4 33.5 6.8
2 15 4 -2.7 5.6
-16 -3 -4 3.9 7.5
-2 -16 4 8.5 4.8
-16 -2 4 2.9 6.7
-1 -15 4 12.9 6.4
1 15 -4 3 5.2
0 -14 4 2 2.7
0 -14 4 4.2 4.4
-14 0 4 11.8 5.4
1 -13 4 17.6 3.9
-1 13 -4 17.4 4.4
-13 1 4 18.9 5.5
-2 12 -4 15 4.1
-12 2 4 15.9 4.4
3 -11 4 39.8 5.8
3 -11 4 33.6 5.8
-11 3 4 39.9 8.8
4 -10 4 6.3 7.2
-10 4 4 -9 7.5
-4 10 -4 1.5 6
5 -9 4 3.6 4.9
5 -9 4 5 5.6
-5 9 -4 4.3 4.5
-9 5 4 -0.9 3.7
6 -8 4 34 5.1
6 -8 4 35.5 5.6
-6 8 -4 39.8 5.7
-8 6 4 29.2 4.6
7 -7 4 29.8 4.7
7 -7 4 18.5 3.9
-7 7 4 24.8 3.7
-7 7 -4 32.1 5.2
8 -6 4 56.49 6.9
8 -6 4 54.29 6.6
-8 6 -4 47.4 7.2
9 -5 4 3 3.2
9 -5 4 2 5.8
-5 9 4 2.4 3.5
-9 5 -4 3.2 6.4
10 -4 4 0.7 11.4
-4 10 4 0.6 16.4
11 -3 4 31 6.1
11 -3 4 37.1 7.1
-3 11 4 28.7 5.2
-11 3 -4 43.6 7.6
12 -2 4 15.6 4.2
12 -2 4 15.7 4.1
-12 2 -4 14.4 6.7
13 -1 4 12.7 4.7
-1 13 4 15.7 5.5
-14 0 -4 29.3 9.5
0 14 4 21 6.4
15 1 4 33.8 8.2
1 15 4 27.9 8
16 2 4 4.6 4
2 16 4 5.2 4.4
-16 -2 -4 3.1 7.7
-1 -16 4 36.5 8.3
-1 -16 4 16.7 4.5
1 16 -4 19.9 5.4
0 15 -4 125.69 12.8
-14 1 4 17.8 5.2
2 -13 4 5.5 3.2
2 -13 4 -1.4 3.9
-13 2 4 4.8 4.8
-2 13 -4 2.5 3.5
3 -12 4 5.6 5.1
3 -12 4 -0.7 2.8
-3 12 -4 -3.3 3.4
4 -11 4 47.6 14
4 -11 4 59.59 8.1
-11 4 4 37.5 7.9
-4 11 -4 70.69 16.9
5 -10 4 355.06 36.5
5 -10 4 385.66 35.2
-10 5 4 416.56 35.7
-5 10 -4 423.16 40.3
6 -9 4 43.2 8.1
-9 6 4 55.09 7.5
7 -8 4 -3.3 2.8
-8 7 4 1.2 2.3
-7 8 -4 -4.3 3.2
8 -7 4 -3.4 3.4
-8 7 -4 -3.3 4.1
-9 6 -4 68.79 14.8
-6 9 4 95.79 11.2
10 -5 4 392.66 32.3
10 -5 4 360.66 33.2
-5 10 4 337.87 32.5
11 -4 4 82.69 11.1
11 -4 4 101.09 11.1
-11 4 -4 92.99 12.4
12 -3 4 1.1 3.8
12 -3 4 -0.3 3.3
-12 3 -4 -6.9 6.7
-3 12 4 -4 4.3
13 -2 4 -6.9 4
13 -2 4 2.8 2.7
-13 2 -4 -0.7 4.6
-2 13 4 -0.3 3.8
14 -1 4 31.6 5.7
-1 14 4 20.2 5.5
15 0 4 116.19 12.5
16 1 4 27.5 6.2
1 16 4 34.5 7
-16 0 4 11.8 7.2
-15 1 4 2.2 10.6
2 -14 4 9.2 4.4
2 -14 4 7.9 6.2
-2 14 -4 5.3 4.6
-14 2 4 0.4 5.1
3 -13 4 2.1 3
3 -13 4 2.9 5.1
-13 3 4 -1.5 4.1
-3 13 -4 -4.8 3.1
4 -12 4 15 3.9
-4 12 -4 13.9 4.1
-12 4 4 11.6 4.6
5 -11 4 -0.8 4.8
-11 5 4 1.5 5.2
-10 6 4 -2.9 9.2
7 -9 4 6.7 4.8
-7 9 -4 -1.6 23.2
8 -8 4 -2.2 2.5
8 -8 4 -4.8 3.3
-8 8 4 2.6 2.3
-8 8 -4 -3.7 2.8
9 -7 4 13.1 4.4
-7 9 4 15.2 4.3
10 -6 4 18.6 16.1
10 -6 4 23.3 19.7
11 -5 4 -3.8 5.1
11 -5 4 6.6 5.8
-5 11 4 -5.4 5.2
-12 4 -4 33.7 8.1
13 -3 4 -3.8 2.7
-3 13 4 -8.6 4.8
-13 3 -4 -1.9 5.8
14 -2 4 6.4 4.4
-2 14 4 0.3 5.6
15 -1 4 33.9 8
-1 15 4 27.8 10.6
16 0 4 19.9 6.1
0 16 4 6.5 6.7
-16 0 -4 7.2 7.3
1 -16 4 28.1 5.7
2 -15 4 -5.4 5.8
-15 2 4 -13.3 7
-2 15 -4 -9.9 6.2
3 -14 4 -5.7 3.9
3 -14 4 -0.9 5.5
-14 3 4 -3.1 5.3
4 -13 4 12.7 5.4
4 -13 4 -0.6 3.3
-13 4 4 1.4 3.4
-4 13 -4 6.9 2.8
5 -12 4 2.6 3.7
-5 12 -4 8.1 4.1
-12 5 4 3.2 4.1
6 -11 4 85.49 10.1
-11 6 4 101.39 10.8
-6 11 -4 93.59 10.1
-7 10 -4 2.9 3.9
8 -9 4 0.2 2.8
8 -9 4 -7.6 3.8
-9 8 4 4.4 2.4
-8 9 -4 0.5 4
9 -8 4 14.2 3.9
-9 8 -4 9.6 3.5
10 -7 4 -5.2 5.4
10 -7 4 -3.4 4.6
-10 7 -4 1.3 5
11 -6 4 80.09 9.1
11 -6 4 76.19 9.1
-6 11 4 64.99 8.1
12 -5 4 10.2 3.2
-5 12 4 2.2 4.2
-12 5 -4 15.3 6.3
13 -4 4 -1 3.6
-4 13 4 9.9 4.1
-13 4 -4 2.5 6.2
14 -3 4 -4.2 3
-3 14 4 6.7 5.6
-14 3 -4 1.1 6.9
-15 2 -4 3 6.2
-2 15 4 -5.8 8.7
16 -1 4 21.7 6
2 -16 4 2.7 3.4
-16 2 4 1.3 5
-15 3 4 -12.8 7
-3 15 -4 -6.1 5.1
4 -14 4 8.1 5.8
-4 14 -4 8.2 3.3
-14 4 4 15.9 5.7
5 -13 4 1.7 4.5
5 -13 4 3.8 3.7
-13 5 4 0.6 3.7
-5 13 -4 -1.5 2.7
6 -12 4 14.4 3.7
-6 12 -4 18.1 4.4
8 -10 4 -0.5 2.6
-10 8 4 -2.3 3.4
9 -9 4 20 4.9
-9 9 -4 25.2 5.5
-9 9 4 19 3.9
10 -8 4 -0.9 3.7
-10 8 -4 -5.5 3.7
-8 10 4 0 3.3
11 -7 4 27.3 5.3
11 -7 4 21 5
-7 11 4 19 4.5
12 -6 4 17.9 4.3
13 -5 4 3.5 3.8
-13 5 -4 -9.6 6.4
14 -4 4 16.8 4.7
-4 14 4 13.1 5.6
15 -3 4 -2 5.2
-15 3 -4 -7.9 8.2
-3 15 4 -7.2 6.6
16 -2 4 13.3 4.6
-2 16 4 7 7
3 -16 4 -2.5 4.6
-3 16 -4 2.7 6
4 -15 4 51.69 7.5
-4 15 -4 48.4 7.5
-5 14 -4 26.4 4.8
-14 5 4 27.2 6.1
6 -13 4 4.3 3.9
6 -13 4 -0.4 3.3
-13 6 4 5 3.4
-6 13 -4 -1.6 2.9
-12 7 4 2.4 4
-7 12 -4 3.5 3.9
8 -11 4 -9.3 4.4
8 -11 4 0.2 2.8
-11 8 4 -0.7 4.1
9 -10 4 63.99 7.6
9 -10 4 68.09 8.7
-9 10 -4 52.09 7.7
-10 9 4 43.6 6.5
10 -9 4 58.39 8
10 -9 4 60.59 7.3
-9 10 4 48.2 7.4
11 -8 4 2.1 5.3
11 -8 4 3.7 4.2
-8 11 4 -1.3 3.6
-11 8 -4 3.4 5
12 -7 4 -2.4 4.1
13 -6 4 -2.2 3
-6 13 4 3.5 4.6
-13 6 -4 -7.5 6.2
14 -5 4 57.89 7.7
-5 14 4 53.59 8.1
15 -4 4 45.6 7.2
-4 15 4 66.39 9.1
16 -3 4 -6.2 5.3
-3 16 4 2.9 6.7
4 -16 4 -0.7 5.3
-4 16 -4 14.6 6.1
-16 4 4 5.7 7.1
5 -15 4 7 4
-15 5 4 5 5.7
6 -14 4 5.9 4
-14 6 4 -3.6 4.5
-6 14 -4 9.7 4.4
7 -13 4 -1.7 3.8
7 -13 4 -3.1 4.5
-7 13 -4 -1.6 3.8
8 -12 4 2.9 3.6
8 -12 4 0.7 3.8
-12 8 4 -1.6 3.4
-8 12 -4 -1.4 4.2
-9 11 -4 4.4 5.4
10 -10 4 6.6 5.1
10 -10 4 5.1 4.4
-10 10 4 2.5 4.1
-10 10 -4 -0.4 4
11 -9 4 0.7 5.9
-9 11 4 1.4 4
12 -8 4 1.5 3.8
-8 12 4 4.5 3.9
-12 8 -4 3.9 6
13 -7 4 -8.9 4.8
-13 7 -4 -8.4 6.2
-7 13 4 5.2 4.4
14 -6 4 0.6 4.4
-6 14 4 10.6 4.6
-5 15 4 -1.9 6.2
16 -4 4 1.2 3.9
-4 16 4 -7.6 7.1
6 -15 4 56.49 7.9
6 -15 4 51.39 7.8
-15 6 4 44.8 7.8
7 -14 4 -3.6 5.1
7 -14 4 -4 5
-7 14 -4 -3 4.7
-14 7 4 0.9 4.8
8 -13 4 0.8 2.9
8 -13 4 5.5 4.5
-13 8 4 1.4 4.3
-8 13 -4 -4.1 4.7
9 -12 4 -0.6 4
9 -12 4 -7.6 5.6
-12 9 4 -13 5.9
10 -11 4 64.59 8.7
10 -11 4 52.79 10
-11 10 4 72.29 9.4
-10 11 -4 76.89 10.9
11 -10 4 111.59 12.1
-10 11 4 79.29 11.2
-11 10 -4 89.39 11.7
12 -9 4 14 6.4
-12 9 -4 -17 10
-9 12 4 3.4 4.4
13 -8 4 -1.4 4.2
-14 7 -4 -8.2 6.1
15 -6 4 62.19 8.8
-6 15 4 62.59 9.7
7 -15 4 2.3 3.8
7 -15 4 -11.6 6
8 -14 4 -7.4 5.5
8 -14 4 0.6 4.5
-14 8 4 -3.3 4.7
9 -13 4 5.9 4.2
9 -13 4 -2 4.1
-13 9 4 4.2 3.4
-9 13 -4 -6 5.6
10 -12 4 -0.2 2.7
10 -12 4 -5.3 3.5
-12 10 4 -2 2.8
-10 12 -4 -3.1 7.1
-11 11 -4 -3.9 7.2
-11 11 4 8.8 3.8
12 -10 4 1.1 4.8
-10 12 4 2.5 3.9
13 -9 4 0.7 4.1
-9 13 4 -5.4 4.2
-13 9 -4 -8.2 6.6
-14 8 -4 3.3 7.5
10 -13 4 -0.9 4.3
-13 10 4 1.5 3.8
11 -12 4 1.1 4.7
-12 11 4 -4.5 3.9
-11 12 -4 3.8 7.3
12 -11 4 0 4.6
-11 12 4 -6.2 3.4
-12 11 -4 8.3 9.6
13 -10 4 0 3.9
-10 13 4 0 4.1
-13 10 -4 -10.1 10.1
-10 -10 5 -0.9 4.7
-10 -10 5 10 4.8
-9 -9 5 1.9 5.6
-9 -9 5 -3 3.8
-8 -8 5 54.29 6.8
-8 -8 5 54.39 8.6
-7 -7 5 4.4 2.9
-7 -7 5 -0.7 3
-6 -6 5 26.1 3.9
4 4 -5 10.5 3.3
-4 -4 5 4.2 3.1
-3 -3 5 98.89 9.6
-2 -2 5 46.1 5.8
2 2 -5 41.1 6.1
-1 -1 5 58.19 8
1 1 -5 81.89 8.4
0 0 5 30.3 7.4
-1 -1 -5 45.1 5.9
1 1 5 53.09 8.6
-2 -2 -5 30.8 5.1
2 2 5 36.7 5.3
-3 -3 -5 141.69 14.2
3 3 5 158.08 14.4
-5 -5 -5 -3.6 5.6
5 5 5 1.6 6.5
-6 -6 -5 38.8 8.4
6 6 5 55.59 6.5
6 6 5 49.8 8.5
-7 -7 -5 14.1 7
8 8 5 98.49 10.9
-8 -8 -5 111.49 14.4
9 9 5 -2.6 3.9
-9 -9 -5 -8.3 7
10 10 5 -1.6 5.4
-10 -10 -5 11.2 10.3
-9 -10 5 48.2 6.5
-9 -10 5 45.6 8.3
-9 -10 5 65.39 10.7
-10 -9 5 43.9 7.8
-10 -9 5 52.19 7.3
-8 -9 5 15 7
-7 -8 5 6.3 4.4
-7 -8 5 -2.8 3.1
-8 -7 5 3.4 3.2
-8 -7 5 0.8 4.1
-6 -7 5 18.4 3.7
-6 -7 5 13.3 3.2
-7 -6 5 9.3 3.1
-5 -6 5 90.39 8.8
-5 -6 5 68.49 7.3
-6 -5 5 76.49 8.4
-4 -5 5 157.08 13.7
-5 -4 5 131.59 13.3
-2 -3 5 3 3.1
3 2 -5 -2.2 3.4
2 3 -5 2.7 4.1
-3 -2 5 0.1 2.1
2 1 -5 9.9 7.3
-1 -2 5 5.5 2.7
-2 -1 5 2.6 3.3
1 0 -5 133.09 14.5
0 -1 -5 176.38 16.9
-1 0 -5 144.69 14.4
-1 -2 -5 6.7 2.9
-2 -1 -5 7.2 3.1
1 2 5 7.3 2.7
-3 -4 -5 3.9 3.8
4 3 5 0.4 3.8
-4 -3 -5 2.5 2.8
3 4 5 -1.6 5.5
5 4 5 166.08 14.2
-4 -5 -5 139.19 15.1
4 5 5 150.08 14.3
4 5 5 141.19 14.9
-5 -4 -5 176.08 15.8
-5 -6 -5 135.39 14.4
6 5 5 129.59 13.9
5 6 5 136.79 12.7
5 6 5 122.69 14.3
-6 -5 -5 125.89 14
7 6 5 14.9 4.4
-6 -7 -5 18.2 6.8
7 6 5 22.2 5.6
6 7 5 18.4 4.4
-7 -8 -5 4.6 7.2
-8 -7 -5 3.6 7.1
7 8 5 -4.5 4.2
8 9 5 16.5 5.1
-9 -8 -5 25.4 9.5
10 9 5 61.59 9.2
9 10 5 65.29 8.9
-10 -9 -5 80.59 13.9
-9 -11 5 21.2 9.8
-9 -11 5 -5.2 4
-9 -11 5 1 4.4
-11 -9 5 -1.4 4.5
-8 -10 5 4.7 3.6
-8 -10 5 13 6.8
-10 -8 5 11.1 5.9
-10 -8 5 -0.4 4
-7 -9 5 -5.5 3.6
-9 -7 5 -4.9 3.7
-9 -7 5 0.4 5.7
-6 -8 5 9.8 4.3
-6 -8 5 7 3
-8 -6 5 4.4 3.1
-5 -7 5 4.4 2.8
-4 -6 5 15.2 3.1
-4 -6 5 21 3.9
-6 -4 5 17.3 3.6
-3 -5 5 2.1 2.5
3 5 -5 2.7 2.8
-2 -4 5 8.2 2.9
-4 -2 5 5.1 2.7
2 4 -5 1.6 3.5
3 1 -5 3.5 3.4
-3 -1 5 0.4 2.6
1 3 -5 3.1 3
1 -1 -5 48.2 5.9
1 -1 5 52.09 6.1
-1 1 5 38.2 6.1
-1 1 -5 61.79 6.6
2 0 5 5.1 2.4
0 2 5 4.6 6.3
-2 0 -5 4.7 2.5
-1 -3 -5 4.4 2.7
3 1 5 8.3 3.4
-3 -1 -5 10 3.4
4 2 5 -2.9 3.8
-2 -4 -5 1.1 2.2
-4 -2 -5 6 3.3
6 4 5 27.3 4.7
4 6 5 17.7 4.5
4 6 5 30.1 5.7
-6 -4 -5 23.4 5.2
7 5 5 7.2 3.5
7 5 5 3.1 4.8
-7 -5 -5 4.6 4.2
5 7 5 1.2 3.8
8 6 5 14.3 6
-6 -8 -5 6.4 6.2
6 8 5 10.8 4.1
-8 -6 -5 3.4 5.8
10 8 5 -1.7 4.3
8 10 5 7 4.8
-10 -8 -5 7.1 6.7
11 9 5 -6.7 5.7
9 11 5 4.1 5.2
-11 -9 -5 13.6 10.7
-8 -11 5 3.4 4.1
-8 -11 5 13.6 7.1
-11 -8 5 3.1 5.4
-7 -10 5 2.5 5.3
-7 -10 5 -1.5 3.4
-10 -7 5 -7.3 4.4
-10 -7 5 6 5.3
-6 -9 5 11.2 3.4
-9 -6 5 10.2 5.9
-9 -6 5 13.8 4.5
-5 -8 5 20.2 3.8
-5 -8 5 17.5 4.1
-8 -5 5 18.9 4.5
-4 -7 5 8.8 3
-4 -7 5 14.5 4.3
-7 -4 5 8.5 3.5
-3 -6 5 0.2 1.8
-3 -6 5 7 3.3
3 6 -5 -3.4 3.7
5 2 -5 1.1 2.7
-2 -5 5 -0.7 2.8
-5 -2 5 -7.3 3.3
2 5 -5 -7.5 4.2
-1 -4 5 48.1 5.5
4 1 -5 41.1 6.2
-4 -1 5 45.1 5.7
1 4 -5 47.5 6.2
3 0 -5 5 2.3
0 -3 5 6.5 3.2
0 3 -5 5.1 2.5
-3 0 5 2.6 2.1
-1 2 5 14.5 3.5
0 -3 -5 3.9 1.9
0 3 5 3.2 3.4
-3 0 -5 2.3 2.3
4 1 5 52.79 6.6
-4 -1 -5 52.29 6.6
1 4 5 43.4 6.3
-2 -5 -5 2.1 3.3
5 2 5 -3.4 2.9
2 5 5 1.5 4
-3 -6 -5 3.6 3.6
6 3 5 -7 3.1
6 3 5 -9 4.6
-6 -3 -5 5.5 3.5
7 4 5 20.7 5.4
7 4 5 10 3.5
-4 -7 -5 19.3 5.6
4 7 5 3.3 4.1
4 7 5 12.1 3.9
8 5 5 28.5 6.2
-8 -5 -5 36.1 7.3
5 8 5 25.4 5.3
9 6 5 17.7 5.1
6 9 5 8.9 8.3
10 7 5 3.8 4.1
7 10 5 2.4 3.6
-10 -7 -5 7.8 8.4
11 8 5 5.8 5.2
8 11 5 -2.1 3.9
-11 -8 -5 18.3 8.2
-8 -12 5 4.2 5.2
-8 -12 5 1.9 3.7
-12 -8 5 -3.5 5.2
-12 -8 5 8.8 6.9
-7 -11 5 35.1 7.8
-7 -11 5 29.4 5.3
-11 -7 5 34.7 6.6
-6 -10 5 2.7 5.2
-6 -10 5 2.3 4.8
-10 -6 5 2.8 4.9
-10 -6 5 1.8 4.9
-5 -9 5 -4.8 3.3
-5 -9 5 -3.3 3.3
-9 -5 5 0.6 3.8
-9 -5 5 -1.9 3.3
-4 -8 5 2.6 3.9
-4 -8 5 3.1 2.6
-3 -7 5 11.5 2.5
-7 -3 5 14.3 4
3 7 -5 19.4 3.8
-2 -6 5 19.9 3.1
-2 -6 5 29.6 4.1
-6 -2 5 28.6 4.6
2 6 -5 29.8 4.6
5 1 -5 74.79 17.6
-5 -1 5 132.19 51.99
4 0 -5 5.3 18.9
0 -4 5 -2.3 9.7
-4 0 5 3.3 2.5
0 4 -5 0.7 3
1 -3 5 2.9 2.4
2 -2 -5 30.5 4.6
-2 2 5 37.7 4.9
3 -1 5 0.6 3.4
-4 0 -5 7.5 19.8
0 4 5 20.4 18.1
5 1 5 5.6 26.5
-1 -5 -5 -1 9.6
5 1 5 5.9 11.5
-5 -1 -5 -0.3 10.3
6 2 5 43.8 5.5
6 2 5 51.99 6.7
-6 -2 -5 41.8 6.9
2 6 5 40.9 6.8
7 3 5 16.2 3.8
7 3 5 16.8 5.3
3 7 5 24.1 4.1
3 7 5 21 5.5
8 4 5 0.3 3.3
8 4 5 6.1 3.8
9 5 5 -5.5 4.3
9 5 5 2.7 6.1
5 9 5 -1.7 4
-9 -5 -5 -0.3 7.4
10 6 5 -5.2 4.9
6 10 5 2.1 3.8
-10 -6 -5 2.5 6.4
11 7 5 32.3 6.3
7 11 5 38.4 6.7
-11 -7 -5 37.9 11.3
-12 -8 -5 16.6 11
8 12 5 -2.5 5.1
-7 -12 5 2.2 5.6
-12 -7 5 5.5 6.8
-12 -7 5 2.8 5.9
-6 -11 5 5.2 4.5
-6 -11 5 3.2 3.7
-11 -6 5 3.3 4.4
-5 -10 5 189.48 17.3
-5 -10 5 200.88 19.1
-10 -5 5 185.38 17.4
-10 -5 5 198.38 19.1
-4 -9 5 50.29 7.1
-4 -9 5 36.2 4.9
-3 -8 5 -1.3 2.5
-2 -7 5 9.8 2.7
2 7 -5 17.6 4.7
-7 -2 5 10.6 3.7
-1 -6 5 11.6 2.4
-6 -1 5 20.5 5.2
1 6 -5 15.3 33.9
5 0 -5 441.36 51.59
-5 0 5 390.66 51.39
1 -4 5 48.3 8
4 -1 -5 41.4 5.9
-4 1 5 44.3 6.1
-1 4 -5 51.29 7.2
3 -2 -5 0.6 2.8
2 -3 5 6.2 3.6
-2 3 -5 0.1 2.4
2 -3 -5 -3.5 2
3 -2 5 -1.9 3.7
-2 3 5 -0.6 2.3
1 -4 -5 28.8 17.1
4 -1 5 38.4 4.5
4 -1 5 50.59 22
-1 4 5 59.29 20.9
-4 1 -5 42.5 10.6
5 0 5 500.05 46.2
5 0 5 532.15 109.29
0 5 5 494.55 50.29
6 1 5 23.5 3.9
6 1 5 27.1 5.2
-6 -1 -5 22.7 5.2
7 2 5 19.3 3.5
-7 -2 -5 12.9 4.2
8 3 5 0.3 3.5
8 3 5 -6.9 3.5
-8 -3 -5 2 3.8
9 4 5 53.19 8.1
9 4 5 49 6.5
4 9 5 48.9 6.8
-9 -4 -5 57.99 9.4
10 5 5 321.77 26.7
5 10 5 260.47 26.5
-10 -5 -5 304.17 29.3
11 6 5 6.5 4.6
-11 -6 -5 4.7 6.9
12 7 5 5 4.7
7 12 5 5.5 4.3
-12 -7 -5 13.5 10.5
-7 -13 5 3 4.1
-7 -13 5 -4.2 7
-13 -7 5 12.2 7
-13 -7 5 -8.5 6.9
-6 -12 5 8.1 3.9
-12 -6 5 15.8 7
-12 -6 5 6.3 5.1
-5 -11 5 4.9 5.7
-5 -11 5 0 3.4
-11 -5 5 -8.6 5.9
-11 -5 5 -1.1 4.3
-4 -10 5 6.2 5.8
-4 -10 5 1.1 3.4
-10 -4 5 -0.2 5.3
-3 -9 5 11.9 3
-3 -9 5 10.7 4.7
-2 -8 5 47.6 5.6
-2 -8 5 61.29 7.3
-7 -1 5 11.7 3.8
1 7 -5 12.2 4.4
0 -6 5 -1.1 3
0 -6 5 8.5 32.2
0 6 -5 19.9 22.1
-6 0 5 4.2 3.4
1 -5 5 2.1 8.8
1 -5 5 14 4.1
-5 1 5 8.4 12.2
-1 5 -5 6.5 47
-4 2 5 23.4 4.3
3 -3 5 120.59 14.5
-3 3 5 129.09 12.8
-3 3 -5 155.08 13
4 -2 5 1.2 3.4
-4 2 -5 1.3 2.4
5 -1 5 32.7 12.3
5 -1 5 51.99 20.8
6 0 5 2.6 2.8
0 6 5 10.8 16.6
-6 0 -5 8.7 4.7
7 1 5 17.5 4.6
1 7 5 22.4 5.4
-7 -1 -5 23.3 5.6
8 2 5 81.29 8.3
8 2 5 75.39 9.2
2 8 5 76.09 8.4
-8 -2 -5 75.19 9.9
9 3 5 12 4.3
9 3 5 15.9 4.5
10 4 5 2 6
10 4 5 6.9 9.7
-10 -4 -5 10.9 5.7
11 5 5 -0.4 4.3
11 5 5 0.1 4.2
5 11 5 -7.6 4.5
-11 -5 -5 0.1 8.1
-12 -6 -5 27.2 9.4
6 12 5 18.7 5.2
-6 -13 5 0.6 6.8
-6 -13 5 3.3 3.4
-13 -6 5 16.7 7.2
-5 -12 5 4.9 2.8
-5 -12 5 8.7 6.8
-12 -5 5 9.9 4.3
-12 -5 5 8.8 6.5
-4 -11 5 0.8 3.6
-3 -10 5 8.5 5.2
-2 -9 5 1.1 2.4
-2 -9 5 -4 3.8
2 9 -5 -4 3.1
-1 -8 5 15.3 4
-1 -8 5 9.4 2.8
1 8 -5 15.1 3.7
0 -7 5 7.6 2.6
0 7 -5 12.2 3.3
1 -6 5 10.5 2.7
-6 1 5 12 3.7
-1 6 -5 21.6 4.8
5 -2 -5 -4 2.9
2 -5 5 4 2.3
2 -5 5 -3.5 1.9
-5 2 5 2.4 2.9
-2 5 -5 -4.1 2.8
3 -4 5 4.5 1.9
3 -4 5 5.8 3.6
-3 4 -5 5.6 2.7
-4 3 5 -0.4 3.1
4 -3 5 8.9 3.6
4 -3 5 0 1.7
-3 4 5 3.2 2.5
-4 3 -5 3.6 3.3
5 -2 5 0.6 2.1
5 -2 5 -4.2 3
-5 2 -5 -0.3 2.8
6 -1 5 22.9 3.5
6 -1 5 18.9 4.2
-6 1 -5 13.5 3.6
-1 6 5 23.3 5.2
7 0 5 9.7 2.8
-7 0 -5 12.4 3.8
0 7 5 15.9 4.6
8 1 5 21 4.3
9 2 5 -3.3 3.5
-9 -2 -5 6.9 5.4
2 9 5 2.3 3.4
10 3 5 2.5 3.8
10 3 5 12.2 5.6
3 10 5 3.4 5.1
-10 -3 -5 0.3 6.6
11 4 5 5.3 5
11 4 5 21.2 6.3
-11 -4 -5 8.5 6.1
4 11 5 13.3 4.9
12 5 5 9.4 4.3
-12 -5 -5 9.9 9.1
13 6 5 12.2 5.4
-13 -6 -5 4.2 9.4
6 13 5 -0.5 4.3
-5 -13 5 -8.2 4.1
-5 -13 5 3.5 5
-13 -5 5 -1.4 4.7
-13 -5 5 -0.4 5.9
-4 -12 5 0.5 4.9
-4 -12 5 -1.5 2.4
-12 -4 5 -0.7 6.1
-12 -4 5 4.5 4.1
-3 -11 5 22.8 4
-3 -11 5 24.1 5.5
-2 -10 5 8.4 2.8
2 10 -5 8.4 3.6
-1 -9 5 2.9 2.3
-1 -9 5 4.8 4.2
1 9 -5 5.1 4.3
0 -8 5 8.1 3.9
0 8 -5 1.9 4
1 -7 5 9.5 2.7
-1 7 -5 10.4 3.4
2 -6 5 30.6 4.1
2 -6 5 41.4 5.3
-2 6 -5 38.6 5.7
3 -5 5 12.6 3
-5 3 5 4.1 4.1
-3 5 -5 9.1 3.2
4 -4 5 17.1 4.5
-5 3 -5 14.2 4.1
-3 5 5 19.4 4.4
6 -2 5 25.3 4.4
6 -2 5 37.7 4.1
-2 6 5 27.9 4.8
7 -1 5 17.7 4.3
-7 1 -5 13.3 4.5
-1 7 5 11.3 3.6
8 0 5 4.1 4
8 0 5 -5.9 3.2
-8 0 -5 -4.3 4.8
9 1 5 13.5 5.2
-9 -1 -5 16.8 6.3
10 2 5 12.3 4.4
10 2 5 6 4.3
-10 -2 -5 2.3 5.3
11 3 5 32.2 5.8
3 11 5 35.1 6.9
12 4 5 -1.6 3.2
12 4 5 -1.1 4.3
-12 -4 -5 -6.9 7.9
4 12 5 -2.7 4
13 5 5 -6.8 5.2
5 13 5 -1.2 4.1
-13 -5 -5 9.6 10
-4 -13 5 17.6 7.5
-4 -13 5 18.2 4.3
-13 -4 5 16 6.2
-3 -12 5 2.3 2.1
-3 -12 5 4.5 6.1
-12 -3 5 -5.9 5.1
-2 -11 5 0.2 2.1
-2 -11 5 -0.4 5.2
2 11 -5 2.2 3.1
-11 -2 5 3 6.8
-1 -10 5 90.89 10.7
-1 -10 5 81.99 8.8
1 10 -5 97.79 10.2
0 -9 5 118.59 11.8
0 -9 5 134.49 13.4
0 9 -5 136.49 13
1 -8 5 14.4 3.2
1 -8 5 14.3 4.1
-1 8 -5 17.4 4.6
2 -7 5 15.1 3.1
-2 7 -5 22.8 4.6
3 -6 5 1.2 3.5
3 -6 5 -2.7 2.3
4 -5 5 181.88 18
4 -5 5 219.18 18.5
-5 4 5 203.58 19
5 -4 5 155.98 13.7
-4 5 5 120.69 13.1
6 -3 5 -5.8 3.2
6 -3 5 -2.3 2
-3 6 5 5.7 4.1
-6 3 -5 -0.1 4.1
7 -2 5 14.5 3.6
7 -2 5 18.9 3.1
-7 2 -5 21.5 4.8
-8 1 -5 24.5 6
9 0 5 112.79 11.9
9 0 5 150.28 13.2
-9 0 -5 122.39 13.6
10 1 5 107.39 12.5
10 1 5 132.39 11.8
1 10 5 113.49 11.9
-10 -1 -5 116.39 13.3
11 2 5 5.9 4.9
11 2 5 2.5 4
2 11 5 -1.6 5
-11 -2 -5 6.7 7.3
12 3 5 7.8 4
12 3 5 -4.8 5.7
-12 -3 -5 1 5.3
13 4 5 8.7 5
13 4 5 25.3 5.9
-13 -4 -5 40 10.9
4 13 5 15.6 5.2
-4 -14 5 -4 3
-4 -14 5 2.2 5.1
-14 -4 5 -3.3 6.4
-14 -4 5 -3.6 9.6
-3 -13 5 30.3 8.1
-3 -13 5 30.1 5
-2 -12 5 -6.3 6.1
-2 -12 5 -1.8 2.4
-12 -2 5 7.6 7.1
2 12 -5 -1.6 3.1
-1 -11 5 34.2 5.9
-1 -11 5 24.9 4.5
1 11 -5 31.7 6.1
0 -10 5 -4.8 2.9
0 10 -5 7.7 3.8
1 -9 5 -2.2 3.5
1 -9 5 -2.3 3.3
-1 9 -5 4.5 3.4
2 -8 5 59.29 6.4
2 -8 5 57.59 6.9
3 -7 5 23 3.9
3 -7 5 19.9 3.4
-3 7 -5 25.3 4.9
4 -6 5 23 3.8
-4 6 -5 23.4 4.4
5 -5 5 -0.4 4.7
-5 5 5 3 5
-5 5 -5 -10.9 4.9
6 -4 5 24.1 3.4
6 -4 5 31.5 5.7
-6 4 -5 22.4 5.4
-4 6 5 20.8 5.2
7 -3 5 23.2 4.3
7 -3 5 22 3.4
-7 3 -5 25.5 5.4
8 -2 5 71.39 7.4
8 -2 5 56.49 6.5
9 -1 5 4.1 4.3
9 -1 5 12.2 3.8
-9 1 -5 3.6 3.7
10 0 5 -2.1 3.3
11 1 5 28.9 5.9
-11 -1 -5 41.2 8.4
12 2 5 3.8 4.7
12 2 5 0.2 4
2 12 5 1.7 5.6
13 3 5 29.6 7.1
-13 -3 -5 32 8.1
3 13 5 22.2 6.2
14 4 5 -4.1 5.1
-14 -4 -5 6.9 10
4 14 5 -1.3 4.9
-3 -14 5 12.3 4.2
-3 -14 5 -7.2 7.3
3 14 -5 11 3.9
-2 -13 5 -5 5.8
-2 -13 5 3.4 3.4
2 13 -5 1.9 3.4
-1 -12 5 24.7 6.8
-1 -12 5 16.7 3.8
1 12 -5 21.1 5.3
0 -11 5 59.99 8.3
0 -11 5 44.4 6
0 11 -5 50.19 6.7
1 -10 5 93.29 10.7
1 -10 5 95.49 9.8
-1 10 -5 113.39 11
2 -9 5 1.3 2.4
2 -9 5 2.2 3.3
-2 9 -5 0.5 3.9
3 -8 5 2.9 2.8
-3 8 -5 3.8 2.8
4 -7 5 10.5 2.7
5 -6 5 139.79 12.8
5 -6 5 118.59 11.6
-5 6 -5 120.59 12.2
6 -5 5 132.89 12.6
-6 5 -5 148.89 13.9
7 -4 5 17.5 3.2
7 -4 5 23.7 5.2
-7 4 -5 15.1 4.8
8 -3 5 0.1 3.4
-8 3 -5 7.6 3.6
9 -2 5 -2.1 2.9
9 -2 5 -6.8 3
-9 2 -5 -9.7 4.5
10 -1 5 104.09 10.8
10 -1 5 115.09 11.6
-10 1 -5 112.39 12.9
11 0 5 41 6
0 11 5 51.99 7
-11 0 -5 58.39 8
12 1 5 18.5 4.9
-12 -1 -5 26.8 8.2
1 12 5 29.3 6.7
13 2 5 15.4 5
13 2 5 -4.3 4.9
2 13 5 12.9 6.6
-13 -2 -5 0.8 5.9
14 3 5 -13.1 6.5
14 3 5 -3.4 4.8
-14 -3 -5 5.4 9.1
3 14 5 -1.5 5
-2 -14 5 17.1 7.2
2 14 -5 11.1 5.1
-1 -13 5 -0.3 5.9
-1 -13 5 -7.8 3.4
1 13 -5 -4.9 4.6
0 -12 5 -4.5 3.3
0 -12 5 3 4
0 12 -5 3.2 3.1
1 -11 5 35.9 5.3
-1 11 -5 47 6.7
2 -10 5 14 3.8
2 -10 5 13.1 4.1
3 -9 5 17.8 3.5
3 -9 5 14.6 4.5
4 -8 5 2.9 3.7
4 -8 5 2.2 2.1
-4 8 -5 5 3.4
5 -7 5 8.8 2.8
5 -7 5 5.5 3
6 -6 5 48.6 5.6
-6 6 -5 47.9 6.5
7 -5 5 13.6 3.9
7 -5 5 6 2.5
-7 5 -5 -0.6 4.4
8 -4 5 -4.8 4.2
9 -3 5 13.5 3.3
9 -3 5 23.5 4.9
10 -2 5 10.6 3.6
10 -2 5 15.9 3.9
11 -1 5 34 5.4
-1 11 5 22.5 5.2
12 0 5 -1.7 3.4
0 12 5 -1.3 4.5
-12 0 -5 -10.9 7.1
13 1 5 -9.5 4.6
13 1 5 -3.5 5.4
1 13 5 -11.7 6.7
14 2 5 11 5
14 2 5 6.6 4.4
-14 -2 -5 1.7 7.5
-1 -14 5 24.4 7.6
-1 -14 5 28.9 5.1
0 -13 5 26.5 7.2
0 -13 5 18.3 4
0 13 -5 23 4.5
1 -12 5 23.3 6.2
1 -12 5 21.3 4.2
-1 12 -5 16.5 4.9
-2 11 -5 1.4 4.2
3 -10 5 2.9 2.4
-3 10 -5 -5.2 4.4
4 -9 5 58.59 7.1
4 -9 5 40.1 6
-4 9 -5 57.99 7.1
5 -8 5 30.5 5.5
-5 8 -5 30.8 5.3
6 -7 5 15.9 3.9
6 -7 5 25.3 4
-6 7 -5 18 3.8
7 -6 5 19.6 3.8
-7 6 -5 24.7 5.1
8 -5 5 33 4.9
8 -5 5 26.7 4.1
-8 5 -5 35.3 5.7
9 -4 5 55.29 6.3
9 -4 5 67.39 7.7
-9 4 -5 46.7 7
10 -3 5 8.3 4.5
10 -3 5 2.2 3
-10 3 -5 7.8 5.7
11 -2 5 4.3 4.1
11 -2 5 3.5 3.7
-11 2 -5 -1.3 3.9
12 -1 5 16.5 4.2
12 -1 5 18 3.6
-1 12 5 26.5 6.1
13 0 5 33.5 5.8
13 0 5 28.2 6.6
0 13 5 33.3 7.5
-13 0 -5 38.4 8.6
-14 -1 -5 24.5 7.6
0 -14 5 10 6.2
0 -14 5 -6.7 3.3
0 14 -5 -2.1 3.3
1 -13 5 -3.3 4.1
1 -13 5 -0.4 2.7
2 -12 5 -2 3.3
2 -12 5 0.6 4.8
-2 12 -5 4 3.7
3 -11 5 32.5 5.5
3 -11 5 22.1 4
-3 11 -5 19.5 4.4
4 -10 5 5.1 4.4
4 -10 5 1.3 3
-4 10 -5 0.9 3.2
5 -9 5 -2.8 3.3
5 -9 5 -9.3 4.4
-5 9 -5 -1.3 3.8
6 -8 5 4.6 3.9
6 -8 5 8.4 3.1
7 -7 5 4.2 2.8
7 -7 5 -0.7 2.9
-7 7 -5 6.1 2.9
8 -6 5 11.5 3
8 -6 5 11.9 4.4
-8 6 -5 5.1 4.3
9 -5 5 -3.8 2.4
9 -5 5 -1.4 3.5
-9 5 -5 1.5 3.1
10 -4 5 -3.8 5.1
11 -3 5 29.4 5.7
11 -3 5 22.1 4.1
-11 3 -5 37.1 6.4
12 -2 5 6.9 4.4
-12 2 -5 10.9 6.7
13 -1 5 5.9 4.3
13 -1 5 -7.3 4.4
-13 1 -5 -1.8 6.5
-1 13 5 -3.1 6.2
14 0 5 5.6 4.7
-14 0 -5 14.9 6.7
0 14 5 9.5 7.7
1 -14 5 14.5 7
1 -14 5 17.6 4
-1 14 -5 24.1 5.5
2 -13 5 0 2.6
2 -13 5 -4.9 5.5
-2 13 -5 -1.9 3.7
3 -12 5 2.3 3.5
-3 12 -5 0.6 3.4
4 -11 5 2.8 3.1
5 -10 5 192.68 19.6
5 -10 5 263.27 21.2
-5 10 -5 221.28 20.6
6 -9 5 20.5 5.6
6 -9 5 18.8 6.8
7 -8 5 -3.1 3.2
-7 8 -5 -7.9 4.2
8 -7 5 -2.6 3.1
8 -7 5 -1.5 3.3
-8 7 -5 -3 4.2
9 -6 5 19.7 5.9
-9 6 -5 24.5 6
10 -5 5 343.07 28.7
-10 5 -5 293.87 29
11 -4 5 5.6 2.6
11 -4 5 10.9 3.7
12 -3 5 -2.3 3.3
12 -3 5 4.3 3.8
-12 3 -5 8.5 6.4
13 -2 5 3.2 4.8
13 -2 5 5.8 4.3
-2 13 5 4.7 5.5
-13 2 -5 -3.4 4.9
14 -1 5 10.8 5.5
14 -1 5 19.3 5.2
-1 14 5 35.4 7.8
-14 1 -5 30.1 8.8
2 -14 5 3.8 4
2 -14 5 13.4 6
-2 14 -5 4.1 4.2
3 -13 5 34.6 7.1
3 -13 5 21.5 4.7
-3 13 -5 30.4 5.6
4 -12 5 1.6 3.8
4 -12 5 4.6 3.6
5 -11 5 0.4 2.5
5 -11 5 2 4.6
-5 11 -5 3.7 4.1
6 -10 5 -0.2 3.3
-6 10 -5 7 5.9
7 -9 5 -3.4 2.7
7 -9 5 7.6 4.1
-7 9 -5 -3.9 4.3
8 -8 5 63.49 7.4
8 -8 5 54.39 6.8
-8 8 -5 64.99 7.6
9 -7 5 -4.4 3.3
9 -7 5 -3.7 4.4
-9 7 -5 -0.6 4.6
10 -6 5 -0.3 3.6
10 -6 5 -4.2 3.2
11 -5 5 -1.8 2.4
12 -4 5 -4.6 3.9
12 -4 5 -2.8 3
-12 4 -5 3.1 6
13 -3 5 38.4 5.9
13 -3 5 29.7 5.3
-13 3 -5 33 6.9
-3 13 5 36.6 6.6
-2 14 5 15.4 6
-14 2 -5 15.7 8.1
3 -14 5 -2.5 4
-3 14 -5 8.4 4.3
4 -13 5 23.7 6.7
4 -13 5 26 5.3
-4 13 -5 27.1 5.5
5 -12 5 11.1 3.9
5 -12 5 14.1 4.2
-5 12 -5 14.1 4.7
6 -11 5 4.7 3.4
6 -11 5 -0.3 4.2
-6 11 -5 2.3 4
7 -10 5 1 3.8
-7 10 -5 1.5 3.9
8 -9 5 21.6 5.1
8 -9 5 31.1 5
-8 9 -5 20.7 5.3
9 -8 5 23.7 4.8
9 -8 5 16.6 4.1
-9 8 -5 20.9 4.5
10 -7 5 2.2 3.3
10 -7 5 -3.6 4.4
-10 7 -5 7.7 5
11 -6 5 -1.1 3.3
11 -6 5 0.4 3.8
-11 6 -5 4.7 5.6
12 -5 5 5.8 3.7
12 -5 5 10.6 3
13 -4 5 27.9 5.3
13 -4 5 25 5.4
-13 4 -5 35.3 8.2
14 -3 5 -0.2 3.7
-14 3 -5 -9.6 7.6
-3 14 5 5.3 6.4
4 -14 5 -2.3 4.1
4 -14 5 7.1 5.5
-4 14 -5 5.5 4.2
5 -13 5 -0.1 4.1
5 -13 5 0.4 5.2
-5 13 -5 12.9 4.4
6 -12 5 14.7 4.2
6 -12 5 14 3.6
-6 12 -5 8.9 3.5
7 -11 5 29.6 5.3
-7 11 -5 24.6 4.5
8 -10 5 2.5 4.2
8 -10 5 16.4 4.8
9 -9 5 -0.9 3
9 -9 5 -2.4 3.2
-9 9 -5 -2.3 4.6
10 -8 5 11.2 4.8
-10 8 -5 15.8 5.4
11 -7 5 29.9 5.9
11 -7 5 39.5 5.8
-11 7 -5 48.4 6.9
12 -6 5 12.5 4.3
-12 6 -5 14.7 6.8
-13 5 -5 9.1 6.5
14 -4 5 5.5 4.4
-14 4 -5 -2.5 7.3
6 -13 5 21.5 5.8
-6 13 -5 8.6 3.5
7 -12 5 8.1 3.7
7 -12 5 8.7 4.1
-7 12 -5 11.3 4
8 -11 5 -0.3 4
8 -11 5 0.8 4.2
-8 11 -5 -5.3 3.8
9 -10 5 54.39 7.2
9 -10 5 42.5 6.2
-9 10 -5 41.4 6.5
10 -9 5 70.49 9
10 -9 5 74.29 9
-10 9 -5 64.79 9.3
11 -8 5 3.2 4.7
11 -8 5 -4.7 4.4
-11 8 -5 3.8 6
12 -7 5 7.3 4.2
12 -7 5 13.9 4.8
-12 7 -5 7.9 6.4
13 -6 5 16.9 4.8
-13 6 -5 18.1 5.9
8 -12 5 5.8 3.3
8 -12 5 -0.9 4.1
-8 12 -5 -7 4.5
9 -11 5 -2.6 4.4
9 -11 5 2.7 3.1
-9 11 -5 1.9 4.7
10 -10 5 -2.2 4.1
10 -10 5 -5.8 4.5
-10 10 -5 6.6 4.6
11 -9 5 1.2 3.5
11 -9 5 0.7 4.2
-11 9 -5 5.1 4.2
12 -8 5 0.4 3.7
12 -8 5 0.3 3.1
-12 8 -5 0.1 5.5
-5 -5 6 3.1 15.5
-4 -4 6 36.7 6.4
4 4 -6 52.79 8.9
-3 -3 6 18.9 3.9
3 3 -6 22 5.6
-2 -2 6 37.7 22.4
2 2 -6 48 15.4
0 0 -6 61.99 29.5
-1 -1 -6 63.99 23
1 1 6 66.79 35
2 2 6 25 5.6
-2 -2 -6 25 5.2
3 3 6 25.4 5.5
-3 -3 -6 20.1 5
4 4 6 91.89 11.3
5 5 6 6.6 12.4
-5 -5 -6 6.7 11.4
-6 -6 -6 29.1 7.7
-7 -8 6 1.6 4.4
-6 -7 6 3.2 4.5
-7 -6 6 9.9 5.1
-5 -6 6 339.57 28.9
-6 -5 6 280.47 29.1
-4 -5 6 331.07 27.5
5 4 -6 264.07 25.8
-5 -4 6 248.38 25.6
4 5 -6 300.67 26.2
-3 -4 6 12.3 4.3
3 4 -6 15.2 4.7
-4 -3 6 4.7 4
-2 -3 6 5.5 4.3
-3 -2 6 2 3.3
2 1 -6 107.99 51.49
-1 -2 6 28.1 36.6
-2 -1 6 14.4 24
1 2 -6 21 45.5
1 2 6 9.6 7
-2 -1 -6 12.2 5.1
-2 -3 -6 1.7 3.3
3 2 6 5.8 5.1
2 3 6 4.4 4.6
-3 -2 -6 1.3 3.2
-3 -4 -6 5.6 5.1
-4 -3 -6 5 3.7
-4 -5 -6 292.97 27.3
5 4 6 314.67 27.4
4 5 6 339.37 30.3
-5 -4 -6 247.18 26.7
-5 -6 -6 323.47 28.8
6 5 6 339.87 28.5
-6 -5 -6 255.27 27.5
5 6 6 301.87 29.5
7 6 6 0.1 5.7
-7 -6 -6 7.2 6
6 7 6 1 4.2
-8 -7 -6 4.4 7.5
-7 -9 6 12.1 5.6
-6 -8 6 22.6 4.9
-7 -5 6 10.4 4.6
-4 -6 6 34.1 6.5
6 4 -6 32.1 6.4
-6 -4 6 30.8 5.4
-3 -5 6 -3 4.1
5 3 -6 3.1 4.2
3 5 -6 -13.2 12.2
-5 -3 6 0.3 4.3
4 2 -6 96.59 11.3
-2 -4 6 87.19 10.2
2 4 -6 107.59 11.5
-4 -2 6 94.99 10.9
3 1 -6 72.79 19.9
-1 -3 6 86.89 43.8
-3 -1 6 60.79 7.7
1 3 -6 77.69 8.8
0 -2 6 65.29 53.89
2 0 -6 38.3 42.8
-2 0 6 39.5 6.1
1 -1 -6 122.89 15.9
0 2 6 15.2 48.5
-2 0 -6 1.1 33.4
-1 -3 -6 64.69 8.2
1 3 6 62.99 8
-3 -1 -6 70.79 9
4 2 6 52.99 7.6
-2 -4 -6 42.4 6.6
-4 -2 -6 60.89 8.1
7 5 6 -1.2 3.8
-7 -5 -6 1.9 5.4
5 7 6 -15.9 7.2
-8 -6 -6 29.3 7.6
-9 -7 -6 21.1 8.8
-7 -10 6 3.9 5.3
-6 -9 6 43 6.6
-5 -8 6 5.8 4.5
5 8 -6 12.5 5.6
-4 -7 6 12.5 4.6
-2 -5 6 25.9 4.7
-5 -2 6 14.6 10.6
2 5 -6 33.8 7.3
-1 -4 6 162.48 14.9
4 1 -6 147.19 15.9
1 4 -6 165.68 15.4
-4 -1 6 135.99 14.9
0 -3 6 32.7 6.3
3 0 -6 24 5.7
-3 0 6 29.2 5.2
-1 2 -6 11.9 4.1
2 -1 6 5.1 5.2
3 0 6 31.5 5.8
0 -3 -6 23.4 4.9
-3 0 -6 36.6 6.4
4 1 6 168.98 17.1
-4 -1 -6 139.89 15.2
1 4 6 157.38 15.2
5 2 6 22.3 7
3 6 6 22.2 7.1
7 4 6 0.9 4.8
4 7 6 -13.4 7.1
-7 -4 -6 5.3 5.5
8 5 6 7 6.1
-8 -5 -6 5.7 6.7
-9 -6 -6 74.69 12
-5 -9 6 3.2 4.6
5 9 -6 13.9 5.6
-4 -8 6 24.5 5.4
4 8 -6 25.5 6.1
7 3 -6 25.8 5.6
-3 -7 6 15.2 3.9
3 7 -6 24.1 6.2
-2 -6 6 88.89 9.2
-6 -2 6 74.59 10.4
2 6 -6 71.69 12
1 5 -6 93.59 26.6
-5 -1 6 118.29 41.2
0 -4 6 4.2 36.7
4 0 -6 49.7 47.4
0 4 -6 6.5 8.1
3 -1 -6 73.49 8.7
-1 3 -6 69.59 8.4
-3 1 6 66.19 8.5
2 -2 6 34.2 6.3
-2 2 -6 38 6.7
-2 2 6 40.6 6.5
3 -1 6 87.59 9.9
-3 1 -6 96.59 10.5
-1 3 6 79.69 10.5
-4 0 -6 30.6 53.69
5 1 6 67.69 72.59
-5 -1 -6 7.1 33.5
6 2 6 62.89 9.7
-6 -2 -6 65.39 9.7
2 6 6 60.69 8.6
7 3 6 22.5 6
-7 -3 -6 27.4 5.5
8 4 6 35.5 6.8
9 5 6 3.4 5.4
-9 -5 -6 -1 7.8
-10 -6 -6 7.3 8.2
-5 -10 6 290.87 27.3
-4 -9 6 69.19 9.3
4 9 -6 71.69 9.6
-3 -8 6 5.3 4.1
3 8 -6 -1.4 3.5
7 2 -6 5.1 3.6
2 7 -6 1.8 5.7
-1 -6 6 154.98 14.3
6 1 -6 185.38 49.6
1 6 -6 200.78 86.79
-6 -1 6 119.19 14.5
5 0 -6 626.94 67.89
0 -5 6 833.92 77.09
1 -4 6 167.98 23.2
-1 4 -6 189.48 25.2
-4 1 6 168.28 17.1
-3 2 6 -4.6 4.4
-2 3 -6 -2.3 5.3
-3 2 -6 -5.6 4.9
4 -1 6 192.38 62.79
-1 4 6 160.38 33.1
-4 1 -6 153.38 28.2
5 0 6 871.71 77.09
0 5 6 735.33 79.49
-5 0 -6 773.92 81.09
6 1 6 170.48 19.8
1 6 6 154.28 16
-6 -1 -6 158.98 21.5
7 2 6 0.1 4.5
-7 -2 -6 0.8 5.7
8 3 6 -5.4 4.6
-8 -3 -6 1.8 5.3
-9 -4 -6 50.69 8.4
10 5 6 320.77 32.2
-10 -5 -6 382.36 34.3
5 11 -6 5.3 5
-4 -10 6 0.1 6.1
4 10 -6 10.1 13.8
-2 -8 6 14.3 4.3
2 8 -6 14.8 5.3
7 1 -6 31.4 5.9
-1 -7 6 54.39 7.1
1 7 -6 45.7 6.6
0 -6 6 36.9 66.59
0 6 -6 5.6 26.3
1 -5 6 28.1 9.5
-1 5 -6 15.2 101.49
-5 1 6 5.7 90.69
2 -4 6 106.29 11.4
-2 4 -6 102.79 11.9
3 -3 6 25.6 6.4
-3 3 6 38.1 5.8
4 -2 6 91.39 11.1
-2 4 6 75.69 9
-4 2 -6 73.89 8.9
-1 5 6 195.08 28
0 6 6 36.3 30
7 1 6 34.8 6.2
1 7 6 35.3 6.2
-7 -1 -6 42.7 7.8
8 2 6 6.9 5.4
-8 -2 -6 7.7 4.2
9 3 6 21.4 6.4
-10 -4 -6 4.9 6
-4 -11 6 79.59 11
4 11 -6 73.39 11.3
3 10 -6 6.6 5.9
-2 -9 6 6.5 3.5
2 9 -6 2.3 3.8
0 -7 6 21 5
0 7 -6 7.7 6.3
1 -6 6 184.38 18.5
-1 6 -6 220.38 19.6
2 -5 6 34.6 5.5
-2 5 -6 21.8 6.9
3 -4 6 13.9 4.9
-4 3 -6 10.9 3.7
5 -2 6 8.8 33.7
-5 2 -6 25.6 6.4
6 -1 6 159.08 15.8
-1 6 6 148.49 19.4
-6 1 -6 183.98 16.9
7 0 6 33.3 6.4
-7 0 -6 23.4 5.4
8 1 6 13.5 4.7
-8 -1 -6 14.4 6.2
9 2 6 -1.1 6.2
-9 -2 -6 8.3 6
10 3 6 1.9 6
-10 -3 -6 4.2 7.1
11 4 6 59.39 9.2
-11 -4 -6 71.59 11.6
3 11 -6 24.7 7.3
-2 -10 6 1.3 4.5
2 10 -6 -5 5
1 9 -6 55.19 8.2
0 -8 6 -1.3 3.2
0 8 -6 -5.5 4
1 -7 6 58.99 7.7
-1 7 -6 55.39 7.4
2 -6 6 104.69 11
-2 6 -6 92.99 11.3
3 -5 6 -1.7 4.7
-3 5 -6 -9.3 13.4
4 -4 6 71.59 9.6
-4 4 -6 60.69 7.8
5 -3 6 -7.3 16
-5 3 -6 -1.6 5.1
6 -2 6 103.79 13.5
-2 6 6 97.09 11.4
-6 2 -6 79.59 9.8
7 -1 6 46.3 6.6
-7 1 -6 48.8 7.5
-1 7 6 34.6 7.7
8 0 6 2.2 4.7
-8 0 -6 1.7 5.7
-9 -1 -6 33.4 6.9
10 2 6 -0.2 4.9
-10 -2 -6 8 7.6
11 3 6 30.3 7.7
-2 -11 6 9.9 6
2 11 -6 5.7 5.9
-1 -10 6 215.08 20.5
1 10 -6 207.68 20
0 -9 6 172.48 18.9
0 9 -6 242.68 20
1 -8 6 5.8 4.3
2 -7 6 0.6 4.2
-2 7 -6 -8 5.1
-3 6 -6 6.6 7.9
4 -5 6 487.45 44.2
-4 5 6 288.77 26.8
6 -3 6 -3.4 4.9
-6 3 -6 6.2 9.1
7 -2 6 1.4 4.5
-2 7 6 0.9 5.1
-7 2 -6 -5.5 4.8
8 -1 6 5.6 5
-8 1 -6 9.8 5.7
9 0 6 167.48 18.1
-9 0 -6 222.28 19.8
-10 -1 -6 233.88 23.4
11 2 6 -3.8 6.2
-11 -2 -6 15.5 8.7
-2 -12 6 16.4 6.5
2 12 -6 3.1 5.2
1 11 -6 20.4 5.3
1 -9 6 50.39 7.6
-1 9 -6 46.1 8.4
2 -8 6 18 4.7
-2 8 -6 9.8 4.7
3 -7 6 20.7 4.3
-3 7 -6 21.7 6.1
4 -6 6 51.29 10.2
-4 6 -6 60.19 10.2
5 -5 6 -8.2 14.4
-5 5 -6 -0.2 16.1
6 -4 6 64.79 29.4
-6 4 -6 44.9 8.4
7 -3 6 30.7 6.4
-7 3 -6 34 6.5
-3 7 6 24.8 5.8
8 -2 6 10.1 4
-8 2 -6 14.1 5.7
9 -1 6 64.09 9
-11 -1 -6 60.39 11.2
-1 -12 6 -1.1 4.2
1 12 -6 1.1 3.6
0 -11 6 207.68 21.9
0 11 -6 247.28 21.8
1 -10 6 230.08 21.1
-1 10 -6 209.88 20.6
2 -9 6 -1 4.5
3 -8 6 -0.9 2.8
-3 8 -6 -2.1 4.6
4 -7 6 -5.8 5
-4 7 -6 -0.7 9.9
5 -6 6 422.06 37.1
6 -5 6 440.36 39.7
-6 5 -6 468.85 42.7
7 -4 6 6.9 6.2
-7 4 -6 3.1 12.3
8 -3 6 -3.5 4.6
-8 3 -6 -4.6 4.8
9 -2 6 -8.9 4.3
-9 2 -6 -1 5.9
10 -1 6 241.98 22.3
-10 1 -6 230.28 23
11 0 6 218.68 22.3
-11 0 -6 258.17 24.1
12 1 6 6.6 5.8
-12 -1 -6 7.1 6.7
0 -12 6 -1.7 5.6
0 12 -6 2.3 5
1 -11 6 22.9 5.7
2 -10 6 19.9 6.1
-3 9 -6 13.2 10.4
4 -8 6 22.1 5.7
-4 8 -6 26.6 5.5
5 -7 6 -8.5 12.8
-5 7 -6 5.8 4.9
6 -6 6 59.19 9.1
7 -5 6 -0.9 3.6
-7 5 -6 -5 4.3
8 -4 6 32.6 6.2
-8 4 -6 32.5 6.8
9 -3 6 26.3 6.4
-9 3 -6 24.6 6.6
10 -2 6 3.9 4.3
-10 2 -6 2.3 5.7
11 -1 6 36.7 7.5
12 0 6 4 5.3
-12 0 -6 7.8 6.8
1 -12 6 2.9 5.1
-1 12 -6 2.1 4.8
-2 11 -6 -5.5 5.7
4 -9 6 82.79 9.8
-4 9 -6 77.19 8.9
6 -7 6 6.7 5
-6 7 -6 1.9 3.2
7 -6 6 -6.7 5
-7 6 -6 3.6 4.8
8 -5 6 13.3 5.1
9 -4 6 76.89 9.4
-9 4 -6 75.09 9.2
10 -3 6 -2.1 5.8
-10 3 -6 16.8 6.5
11 -2 6 -3.9 4.3
-11 2 -6 6.7 6.7
12 -1 6 4.8 5.5
12 -1 6 -6.4 5.5
-12 1 -6 17.4 6.4
2 -12 6 15.5 5.6
-2 12 -6 12.2 4.5
3 -11 6 41.6 7.2
-3 11 -6 24.5 22.5
4 -10 6 0.2 4.8
-4 10 -6 -0.4 5.1
5 -9 6 1.9 5
6 -8 6 36.9 6.7
-6 8 -6 25.8 6.3
7 -7 6 46.4 7.3
-7 7 -6 35.5 6.7
-8 6 -6 24.1 5.5
-9 5 -6 -10 5.7
10 -4 6 19.3 6.9
11 -3 6 46.6 8.1
4 -11 6 56.89 8.2
-4 11 -6 74.59 9.5
5 -10 6 373.86 30.1
-5 10 -6 286.87 29
6 -9 6 78.59 10
-6 9 -6 58.39 8
7 -8 6 -7.7 5.4
-7 8 -6 -3.4 3.8
8 -7 6 -0.4 5.3
9 -6 6 97.19 11.9
-9 6 -6 72.39 10.6
10 -5 6 383.36 34.9
-10 5 -6 399.36 35.7
11 -4 6 60.59 8.4
11 -4 6 54.39 8.8
-11 4 -6 66.79 9.4
-5 11 -6 2.3 4.5
-6 10 -6 20.4 15.7
7 -9 6 18.4 5.8
-7 9 -6 7.3 12.3
8 -8 6 0.5 4.8
-8 8 -6 -11.2 5.4
9 -7 6 2.2 4.7
-9 7 -6 12.5 4.3
10 -6 6 -12.7 7
10 -6 6 -4.5 8.1
-10 6 -6 2.7 4.2
8 -9 6 5.6 5.2
8 -9 6 -2.9 5.1
9 -8 6 0.3 5.2
-9 8 -6 9.3 5.2
-5 -5 7 -4.8 6.8
5 5 -7 5.7 4.5
-4 -4 7 0.2 5
4 4 -7 7.3 5.6
-3 -3 7 27.1 5.4
3 3 -7 38.8 6.8
2 2 -7 0.7 3.6
1 1 -7 32.9 6.6
1 1 7 7.3 5.7
2 2 7 11.6 5.3
-2 -2 -7 3.1 4.5
-3 -3 -7 16.1 5.4
4 4 7 3.8 5.5
-5 -6 7 39 7.7
5 4 -7 46.6 7.9
-4 -5 7 51.19 7.5
4 5 -7 43.9 7
-3 -4 7 7.1 5.1
-4 -3 7 -4.2 4.7
3 2 -7 -3.2 4.9
-2 -3 7 6.1 3.5
2 3 -7 -0.9 3.5
-3 -2 7 2.3 4.7
2 1 -7 -2.7 3.7
0 -1 7 59.99 8.4
1 0 -7 51.19 8.1
0 1 -7 55.09 8.4
-1 0 7 68.89 8.4
0 -1 -7 36.1 6.8
1 0 7 55.39 7.4
0 1 7 40.8 7
-1 0 -7 40.5 7.2
2 1 7 6.4 4.7
-1 -2 -7 -2.5 3.1
-2 -1 -7 -1.9 3.4
1 2 7 -3.1 4.5
3 2 7 9.8 4.9
2 3 7 4.4 4.1
-3 -2 -7 3 4.4
4 3 7 4 5.1
-4 -3 -7 -2.7 5.1
3 4 7 -5.3 4
4 5 7 42.8 7
-5 -4 -7 42.7 7.9
5 6 7 24.8 5.9
6 4 -7 1.5 5.1
-4 -6 7 5.4 4.9
-3 -5 7 2.2 3.3
-5 -3 7 10.4 6.8
3 5 -7 -2.4 5.5
-2 -4 7 6.9 4.8
2 4 -7 4.8 4.7
-4 -2 7 10 5.7
3 1 -7 -11.2 5.2
-1 -3 7 -4 4.9
1 3 -7 -10.6 5.1
-3 -1 7 4.1 4.3
-2 0 7 3.2 3.8
1 -1 7 9.5 3.8
2 0 7 1.6 3
-2 0 -7 -5.8 4.8
0 2 7 -0.5 3.5
3 1 7 5.9 3.4
-3 -1 -7 2.3 4.5
1 3 7 0.6 3.5
4 2 7 3.3 3.6
2 4 7 5 4.3
-4 -2 -7 6.8 3.7
5 3 7 2.5 3.9
6 4 7 6.1 4.8
-6 -4 -7 21.7 6.4
-4 -7 7 5.3 4.2
7 4 -7 5.7 5.2
4 7 -7 2.3 4
-3 -6 7 4.7 4.7
6 3 -7 -2.5 4
5 2 -7 4.6 4.3
-2 -5 7 3.5 4.1
-5 -2 7 -7.8 6.4
2 5 -7 -0.7 5.3
4 1 -7 13.1 5.4
-1 -4 7 22.7 5.3
0 -3 7 0.3 5
-3 0 7 4.2 3.6
0 3 -7 6.5 4.8
1 -2 7 8.5 4.9
-2 1 7 1.2 3.2
-1 2 -7 7.5 3.5
2 -1 7 2.3 4.2
-1 2 7 -0.9 4
-2 1 -7 11.7 4.8
3 0 7 4.2 4.5
-3 0 -7 4.6 3.5
0 3 7 0.4 4.6
-4 -1 -7 17.7 5.6
5 2 7 -7.2 6
2 5 7 -2.1 5.5
-5 -2 -7 -2.9 5.4
6 3 7 -1.1 5.4
-6 -3 -7 0 3.9
3 6 7 -2 5.5
7 3 -7 -4.4 3.6
-3 -7 7 0.6 4.5
3 7 -7 2.1 5
2 6 -7 10.4 4.3
1 5 -7 12.9 5.8
0 -4 7 -1.3 4.8
0 4 -7 -3 4.3
-4 0 7 -3.2 5.2
1 -3 7 -2.3 3.5
-3 1 7 -1.5 3.5
-1 3 -7 -1.8 3.3
-2 2 -7 2.8 4.3
3 -1 7 -4.7 3.4
-3 1 -7 2.7 4.3
-1 3 7 -4.4 5.4
5 1 7 -5.6 4.4
1 5 7 3 5.5
-5 -1 -7 2.9 4.2
6 2 7 1 3.8
-6 -2 -7 13.3 6.1
7 3 7 4 4.1
-7 -3 -7 0.2 4.6
3 7 7 11.3 5.7
-2 -7 7 4.3 4.8
0 -5 7 175.88 15.6
0 5 -7 127.99 15
1 -4 7 14.4 5.7
-4 1 7 2.5 4.6
2 -3 7 8.8 4.9
-3 2 7 -1.3 4.4
-2 3 -7 -1 4.7
3 -2 7 -1.5 4.8
-1 4 7 29.9 7.1
-5 0 -7 147.59 14.8
0 5 7 124.29 14.8
6 1 7 5.6 5.4
-6 -1 -7 -3.7 5.6
7 2 7 6.6 5.5
-7 -2 -7 6.5 5.8
2 7 7 7.5 4.5
-1 -7 7 1.2 3.4
1 7 -7 4.4 5.4
0 6 -7 8.1 6
1 -5 7 6.6 5.1
2 -4 7 0.4 3.5
-2 4 -7 0.5 5.1
3 -3 7 30.9 5.7
-3 3 -7 40.7 6.3
4 -2 7 3.1 3.8
-2 4 7 13.5 5.8
-4 2 -7 3.2 4.7
5 -1 7 17 4.6
6 0 7 6 3.8
-6 0 -7 9.6 4.9
0 6 7 0.8 5.9
7 1 7 5.8 3.9
1 7 7 -1.4 3.8
-7 -1 -7 5.6 5.8
0 7 -7 3.4 3.8
2 -5 7 6.5 5.3
-2 5 -7 0.1 4.4
3 -4 7 2.7 5.1
-3 4 -7 4.5 3.5
4 -3 7 1.6 4.7
-3 4 7 0.8 6
-4 3 -7 5 4.8
5 -2 7 -7.6 5.5
-5 2 -7 -5.1 5.1
-2 5 7 8.7 6.4
-6 1 -7 10.4 4.3
-1 6 7 8.4 6
7 0 7 0 4.8
0 7 7 -2.8 4.5
-7 0 -7 -10.4 6.1
0 -8 7 0.2 5
0 8 -7 -10.2 5.5
1 -7 7 -2.6 4.3
-1 7 -7 2.3 5.2
2 -6 7 30.1 6.4
-3 5 -7 2.3 5.2
4 -4 7 0.1 4.2
-4 4 -7 -3.5 5
5 -3 7 1.4 3.9
-5 3 -7 4 5.2
-3 5 7 9.5 5.8
6 -2 7 0.8 3.5
-2 6 7 4.1 7.7
7 -1 7 2.7 4.6
-1 7 7 -3.8 6.1
-7 1 -7 10.9 6
2 -7 7 12.6 5.3
-2 7 -7 -5 5.2
3 -6 7 -0.4 3.6
-3 6 -7 1.4 5.2
4 -5 7 56.49 8.2
-4 5 -7 63.39 8.8
5 -4 7 67.49 9
-5 4 -7 53.79 8.7
6 -3 7 -5.5 5.3
-6 3 -7 -9.2 4.3
7 -2 7 10.2 5.1
-2 7 7 -2 7.7
-7 2 -7 -4.2 5.5
3 -7 7 5 3.8
-3 7 -7 -2 3.8
4 -6 7 7 6
-4 6 -7 2.4 3.8
-5 5 -7 -0.7 3.9
6 -4 7 -7.3 5.8
-6 4 -7 6 5.6
-7 3 -7 -1.9 5.5
5 -6 7 49.5 8.6
-5 6 -7 55.29 8.2
6 -5 7 44.2 7.8
-6 5 -7 31.8 7.2
