#------------------------------------------------------------------------------
#$Date: 2018-01-31 02:16:12 +0200 (Wed, 31 Jan 2018) $
#$Revision: 205917 $
#$URL: file:///home/coder/svn-repositories/cod/cif/4/12/71/4127110.cif $
#------------------------------------------------------------------------------
#
# This file is available in the Crystallography Open Database (COD),
# http://www.crystallography.net/
#
# All data on this site have been placed in the public domain by the
# contributors.
#
data_4127110
loop_
_publ_author_name
'Galley, Shane S.'
'Arico, Alexandra A.'
'Lee, Tsung-Han'
'Deng, Xiaoyu'
'Yao, Yong-Xin'
'Sperling, Joseph M.'
'Proust, Vanessa'
'Storbeck, Julia S.'
'Dobrosavljevic, Vladimir'
'Neu, Jennifer N.'
'Siegrist, Theo'
'Baumbach, Ryan E.'
'Albrecht-Schmitt, Thomas E'
'Kaltsoyannis, Nikolas'
'Lanat\`a, Nicola'
_publ_section_title
;
 Uncovering the Origin of Divergence in the CsM(CrO4)2 (M = La, Pr, Nd,
 Sm, Eu; Am) Family through Examination of the Chemical Bonding in a
 Molecular Cluster and by Band Structure Analysis.
;
_journal_name_full               'Journal of the American Chemical Society'
_journal_paper_doi               10.1021/jacs.7b09474
_journal_year                    2018
_chemical_formula_moiety         'Am Cr2 O8, Cs'
_chemical_formula_sum            'Am Cr2 Cs O8'
_chemical_formula_weight         607.91
_chemical_name_systematic
;
 ?
;
_space_group_crystal_system      triclinic
_space_group_IT_number           2
_space_group_name_Hall           '-P 1'
_space_group_name_H-M_alt        'P -1'
_symmetry_space_group_name_Hall  '-P 1'
_symmetry_space_group_name_H-M   'P -1'
_audit_creation_method           SHELXL-2013
_cell_angle_alpha                73.026(4)
_cell_angle_beta                 88.581(5)
_cell_angle_gamma                81.081(5)
_cell_formula_units_Z            2
_cell_length_a                   5.8341(14)
_cell_length_b                   7.2548(17)
_cell_length_c                   9.786(2)
_cell_measurement_reflns_used    7299
_cell_measurement_temperature    131(2)
_cell_measurement_theta_max      30.501
_cell_measurement_theta_min      2.176
_cell_volume                     391.27(15)
_computing_cell_refinement       'SAINT V8.37A (Bruker, 2016)'
_computing_data_collection       'Apex2 (Bruker, 2016)'
_computing_data_reduction        'SAINT V8.37A (Bruker, 2016)'
_computing_structure_refinement
;  
SHELXL-2016/6 (Sheldrick, 2015, 2016), 
SHELXLE Rev714 (H\"ubschle et al., 2011)
;
_computing_structure_solution    'SHELXS-97 (Sheldrick, 2008)'
_diffrn_ambient_temperature      131(2)
_diffrn_measured_fraction_theta_full 1.000
_diffrn_measured_fraction_theta_max 1.000
_diffrn_measurement_device_type  'Bruker ApexII CCD diffractometer'
_diffrn_measurement_method       '0.5 wide w/ exposures'
_diffrn_radiation_type           MoK\a
_diffrn_radiation_wavelength     0.71073
_diffrn_reflns_av_R_equivalents  0.0299
_diffrn_reflns_av_unetI/netI     0.0327
_diffrn_reflns_Laue_measured_fraction_full 1.000
_diffrn_reflns_Laue_measured_fraction_max 1.000
_diffrn_reflns_limit_h_max       8
_diffrn_reflns_limit_h_min       -8
_diffrn_reflns_limit_k_max       10
_diffrn_reflns_limit_k_min       -10
_diffrn_reflns_limit_l_max       13
_diffrn_reflns_limit_l_min       -13
_diffrn_reflns_number            7299
_diffrn_reflns_point_group_measured_fraction_full 1.000
_diffrn_reflns_point_group_measured_fraction_max 1.000
_diffrn_reflns_theta_full        25.242
_diffrn_reflns_theta_max         30.501
_diffrn_reflns_theta_min         2.176
_diffrn_source                   'I-mu-S microsource X-ray tube'
_exptl_absorpt_coefficient_mu    17.021
_exptl_absorpt_correction_T_max  0.7465
_exptl_absorpt_correction_T_min  0.3425
_exptl_absorpt_correction_type   multi-scan
_exptl_absorpt_process_details
;
 SADABS 2016/2: Krause, L., Herbst-Irmer, R., Sheldrick G.M. & Stalke D.,
 J. Appl. Cryst. 48 (2015) 3-10
;
_exptl_crystal_colour            rod
_exptl_crystal_density_diffrn    5.160
_exptl_crystal_description       'Dark red'
_exptl_crystal_F_000             524
_exptl_crystal_size_max          0.05
_exptl_crystal_size_mid          0.03
_exptl_crystal_size_min          0.01
_refine_diff_density_max         2.274
_refine_diff_density_min         -1.432
_refine_diff_density_rms         0.283
_refine_ls_extinction_method     none
_refine_ls_goodness_of_fit_ref   1.074
_refine_ls_hydrogen_treatment    undef
_refine_ls_matrix_type           full
_refine_ls_number_parameters     109
_refine_ls_number_reflns         2385
_refine_ls_number_restraints     0
_refine_ls_restrained_S_all      1.074
_refine_ls_R_factor_all          0.0278
_refine_ls_R_factor_gt           0.0218
_refine_ls_shift/su_max          0.001
_refine_ls_shift/su_mean         0.000
_refine_ls_structure_factor_coef Fsqd
_refine_ls_weighting_details
'w=1/[\s^2^(Fo^2^)+(0.0177P)^2^+0.9603P] where P=(Fo^2^+2Fc^2^)/3'
_refine_ls_weighting_scheme      calc
_refine_ls_wR_factor_gt          0.0456
_refine_ls_wR_factor_ref         0.0471
_reflns_Friedel_coverage         0.000
_reflns_number_gt                2140
_reflns_number_total             2385
_reflns_threshold_expression     'I > 2\s(I)'
_cod_data_source_file            ja7b09474_si_001.cif
_cod_data_source_block           test
_cod_original_cell_volume        391.28(16)
_cod_database_code               4127110
_shelx_space_group_comment
;
The symmetry employed for this shelxl refinement is uniquely defined
by the following loop, which should always be used as a source of
symmetry information in preference to the above space-group names.
They are only intended as comments.
;
_shelxl_version_number           2013-4
_shelx_res_file
;
TITL test in P-1
CELL 0.71073   5.83410   7.25480   9.78620  73.0265  88.5814  81.0811
ZERR    2.00   0.00140   0.00170   0.00240   0.0041   0.0045   0.0045
LATT  1
SFAC O CR CS
SFAC Am 36.6706 0.483629 24.0992 3.20647 17.3415 14.3136 3.49331 =
        102.273 13.3592 -7.8986 4.5125 18900 3.0 243
UNIT 16 4 2 2
TEMP -142.050

L.S. 4
BOND
ACTA
LIST 4
FMAP 2
PLAN 20

WGHT    0.017700    0.960300
FVAR       0.09040
AM1   4    0.844484    0.253297    0.030920    11.00000    0.00811    0.00522 =
         0.00835   -0.00288    0.00045   -0.00194
CS1   3    0.808443    0.243078    0.574174    11.00000    0.01532    0.01250 =
         0.01269   -0.00134    0.00048   -0.00239
CR1   2    0.698189    0.731524    0.158377    11.00000    0.00828    0.00597 =
         0.00742   -0.00257    0.00027   -0.00252
CR2   2    0.311579    0.280204    0.268260    11.00000    0.00976    0.00911 =
         0.00991   -0.00328    0.00059   -0.00247
O6    1    0.109217    0.170603    0.221831    11.00000    0.01463    0.01006 =
         0.01672   -0.00059   -0.00416   -0.00158
O1    1    0.887848    0.894273    0.117105    11.00000    0.01067    0.00590 =
         0.01331   -0.00572    0.00299   -0.00280
O4    1    0.791947    0.576097    0.064329    11.00000    0.01602    0.00750 =
         0.01361   -0.00756    0.00231   -0.00233
O2    1    0.434286    0.841019    0.109280    11.00000    0.01182    0.00772 =
         0.01235   -0.00298    0.00028   -0.00425
O3    1    0.707485    0.623063    0.326087    11.00000    0.01750    0.01094 =
         0.00877   -0.00148   -0.00023   -0.00461
O5    1    0.236891    0.518234    0.205001    11.00000    0.01826    0.00948 =
         0.01358    0.00025   -0.00286   -0.00408
O7    1    0.325414    0.219438    0.438396    11.00000    0.01769    0.02032 =
         0.01202   -0.00370   -0.00106   -0.00372
O8    1    0.563645    0.213060    0.205253    11.00000    0.01385    0.01504 =
         0.01784   -0.00627    0.00591   -0.00126
HKLF 4

REM  test in P-1
REM R1 =  0.0218 for    2140 Fo > 4sig(Fo)  and  0.0278 for all    2385 data
REM    109 parameters refined using      0 restraints

END

WGHT      0.0176      0.9813

REM Highest difference peak  2.274,  deepest hole -1.432,  1-sigma level  0.283
Q1    1   0.7082  0.2630  0.0419  11.00000  0.05    2.27
Q2    1   0.9181  0.2176  0.5403  11.00000  0.05    1.68
Q3    1   0.9746  0.2676  0.0307  11.00000  0.05    1.64
Q4    1   0.9346  0.1644  0.1012  11.00000  0.05    1.55
Q5    1   0.7697  0.2968  0.5062  11.00000  0.05    1.37
Q6    1   0.6793  0.2242  0.5834  11.00000  0.05    1.35
Q7    1   0.7620  0.3366 -0.0339  11.00000  0.05    1.30
Q8    1   0.5764  0.8410  0.0924  11.00000  0.05    1.03
Q9    1   0.0457  0.1802  0.1533  11.00000  0.05    1.00
Q10   1   0.9066  0.1629 -0.0034  11.00000  0.05    0.97
Q11   1   0.5699  0.2492  0.4098  11.00000  0.05    0.97
Q12   1   0.4705  0.7572  0.1547  11.00000  0.05    0.97
Q13   1   0.9003  0.8060  0.0815  11.00000  0.05    0.95
Q14   1   0.8650  0.8127  0.1422  11.00000  0.05    0.94
Q15   1   0.4727  0.2854  0.2674  11.00000  0.05    0.92
Q16   1   0.3286  0.2345  0.3613  11.00000  0.05    0.91
Q17   1   0.8669  0.3005  0.4571  11.00000  0.05    0.90
Q18   1   0.7238  0.3299  0.6212  11.00000  0.05    0.88
Q19   1   0.2371  0.4199  0.1892  11.00000  0.05    0.87
Q20   1   0.8325  0.5311 -0.0008  11.00000  0.05    0.86
;
_shelx_res_checksum              93751
_shelx_hkl_file
;
  -1   0   0   64.67    2.09
  -1   0   0   65.86    2.08
  -1   0   0   65.02    2.01
  -1   0   0   62.83    2.06
   1   0   0   65.87    2.07
   1   0   0   63.81    2.07
   1   0   0   63.80    2.01
   1   0   0   63.96    2.08
  -2   0   0  324.16    9.72
  -2   0   0  314.44    9.73
  -2   0   0  316.98    9.39
  -2   0   0  319.87    9.66
   2   0   0  275.74    9.71
  -3   0   0  178.74    5.75
  -3   0   0  180.98    5.71
  -3   0   0  180.18    5.53
   3   0   0  170.14    5.67
  -4   0   0   37.61    1.52
  -4   0   0   38.95    1.50
  -4   0   0   38.42    1.61
   4   0   0   37.74    1.52
  -5   0   0    3.37    0.59
  -5   0   0    2.47    0.64
  -5   0   0    3.69    0.60
   5   0   0    3.14    0.56
  -6   0   0   96.66    3.53
  -6   0   0   96.37    3.52
   6   0   0   94.20    3.53
   6   0   0   95.52    3.72
  -7   0   0   33.05    2.01
   7   0   0   30.06    2.09
   7   0   0   31.26    1.92
  -8   0   0   19.02    1.86
   8   0   0   22.52    2.13
   8  -1   0   18.61    2.18
  -8   1   0   18.05    1.89
   7  -1   0   17.28    1.70
   7  -1   0   13.24    1.41
  -7   1   0   14.07    1.52
   6  -1   0    8.20    0.99
   6  -1   0    6.52    1.09
  -6   1   0    8.96    1.03
   5  -1   0   57.41    2.29
  -5   1   0   57.11    2.15
  -5   1   0   57.69    2.45
  -5   1   0   58.80    2.27
   4  -1   0  273.44    8.64
  -4   1   0  267.09    8.57
  -4   1   0  271.75    8.41
  -4   1   0  268.38    8.75
   3  -1   0   13.95    0.73
   3  -1   0   11.50    0.64
  -3   1   0   15.02    0.72
  -3   1   0   14.86    0.80
  -3   1   0   14.02    0.64
   2  -1   0  236.60    7.33
   2  -1   0  217.12    7.27
  -2   1   0  238.48    7.38
  -2   1   0  235.25    7.12
  -2   1   0  236.71    7.28
   1  -1   0   95.18    3.10
   1  -1   0   97.96    3.08
  -1   1   0  100.56    3.10
  -1   1   0   99.65    2.99
  -1   1   0   87.54    3.07
   0  -1   0    1.41    0.16
   0  -1   0    1.02    0.18
   0  -1   0    1.46    0.14
   0  -1   0    1.03    0.17
   0   1   0    1.51    0.16
   0   1   0    0.88    0.17
   0   1   0    1.42    0.14
  -1  -1   0  131.21    4.09
  -1  -1   0  136.44    4.05
  -1  -1   0  133.92    4.16
   1   1   0  124.24    4.15
   1   1   0  131.21    3.97
   1   1   0  131.12    4.05
   1   1   0  123.16    4.08
  -2  -1   0  592.96   18.59
  -2  -1   0  590.23   18.62
  -2  -1   0  586.45   18.79
  -2  -1   0  584.71   18.05
   2   1   0  653.85   18.62
  -3  -1   0    3.61    0.36
  -3  -1   0    3.58    0.40
  -3  -1   0    3.71    0.37
  -3  -1   0    3.48    0.38
  -4  -1   0  431.39   13.61
  -4  -1   0  443.01   13.80
  -4  -1   0  430.50   13.23
  -4  -1   0  432.27   13.68
  -5  -1   0   65.20    2.49
  -5  -1   0   63.33    2.37
  -5  -1   0   62.64    2.47
  -6  -1   0    5.17    0.82
  -6  -1   0    6.51    0.98
   6   1   0    4.58    0.81
   6   1   0    5.17    0.95
  -7  -1   0   18.18    1.51
  -7  -1   0   17.27    1.44
   7   1   0   14.93    1.44
   7   1   0   15.44    1.53
  -8  -1   0   27.68    1.98
   8   1   0   25.84    2.27
   7  -2   0   40.96    2.56
   7  -2   0   40.28    2.58
  -7   2   0   42.73    2.43
   6  -2   0   89.79    3.68
   6  -2   0   90.03    3.46
  -6   2   0   85.37    3.38
   5  -2   0    7.67    0.87
  -5   2   0    7.32    0.87
  -5   2   0    7.61    0.94
   4  -2   0   35.94    1.58
  -4   2   0   38.86    1.72
  -4   2   0   37.95    1.61
   3  -2   0  164.53    5.32
  -3   2   0  160.51    5.16
  -3   2   0  163.12    5.39
   2  -2   0  235.60    7.62
  -2   2   0  241.98    7.41
  -2   2   0  244.17    7.67
   1  -2   0   78.96    2.63
  -1   2   0   79.43    2.55
  -1   2   0   78.31    2.61
   0  -2   0  973.51   29.56
   0  -2   0 1000.00   29.29
   0  -2   0  921.88   29.32
   0   2   0  942.51   29.52
   0   2   0  910.70   29.31
   0   2   0  953.43   28.46
  -1  -2   0   13.68    0.62
  -1  -2   0   14.04    0.61
   1   2   0   13.69    0.57
  -2  -2   0   81.91    2.75
  -2  -2   0   80.88    2.69
  -2  -2   0   82.32    2.59
   2   2   0   81.29    2.60
   2   2   0   77.98    2.58
  -3  -2   0   94.72    3.08
  -3  -2   0   92.80    3.24
  -3  -2   0   94.62    3.15
   3   2   0   92.45    3.04
  -4  -2   0   48.50    1.83
  -4  -2   0   45.48    1.77
  -4  -2   0   51.62    1.88
  -4  -2   0   49.01    1.95
  -5  -2   0    1.51    0.57
  -5  -2   0    0.11    0.46
  -5  -2   0    0.64    0.55
   5   2   0    1.65    0.58
  -6  -2   0  120.30    4.45
  -6  -2   0  121.85    4.28
  -6  -2   0  118.30    4.17
   6   2   0  123.12    4.39
  -7  -2   0   22.03    1.79
   7   2   0   21.61    1.73
   7   2   0   23.42    1.61
   8   2   0   22.83    2.07
   8   2   0   23.09    1.92
   7  -3   0   17.72    1.77
   7  -3   0   19.24    2.03
  -7   3   0   18.09    1.77
   6  -3   0    7.56    1.29
   6  -3   0    8.87    1.15
  -6   3   0    7.45    1.16
   5  -3   0   84.65    3.42
   5  -3   0   85.84    3.26
  -5   3   0   81.04    3.19
   4  -3   0  192.15    6.28
  -4   3   0  189.19    6.37
  -4   3   0  184.32    6.10
   3  -3   0   18.10    1.03
  -3   3   0   18.00    1.01
  -3   3   0   17.84    1.10
   2  -3   0  263.44    8.35
  -2   3   0  257.12    8.35
  -2   3   0  263.79    8.12
   1  -3   0  151.75    5.02
  -1   3   0  154.18    4.96
  -1   3   0  154.77    4.88
  -1   3   0  155.92    4.89
   0  -3   0    1.48    0.32
   0  -3   0    1.59    0.22
   0  -3   0    1.89    0.26
   0  -3   0    1.86    0.24
   0   3   0    1.46    0.29
  -1  -3   0  201.21    6.47
  -1  -3   0  203.66    6.45
   1   3   0  199.51    6.23
  -2  -3   0  492.28   15.36
  -2  -3   0  493.80   15.54
   2   3   0  491.10   14.89
  -3  -3   0    0.65    0.33
  -3  -3   0    1.45    0.39
   3   3   0    1.46    0.27
   3   3   0    1.33    0.30
   3   3   0    0.26    0.35
  -4  -3   0  275.45    8.81
  -4  -3   0  263.98    8.96
   4   3   0  277.18    8.54
   4   3   0  282.48    8.71
  -5  -3   0   40.32    1.95
  -5  -3   0   41.38    1.82
   5   3   0   40.20    1.75
   5   3   0   41.58    1.78
  -6  -3   0    0.56    0.82
  -6  -3   0    1.20    0.76
   6   3   0    0.40    0.73
   6   3   0    0.15    0.78
  -7  -3   0    8.44    1.25
  -7  -3   0   10.46    1.45
   7   3   0    8.03    1.15
   7   3   0    7.33    1.28
   8   3   0   26.23    2.03
   7  -4   0   26.26    2.42
   6  -4   0   59.93    3.09
   6  -4   0   52.21    2.82
  -6   4   0   55.08    2.84
   5  -4   0   11.95    1.27
   5  -4   0    9.16    1.14
  -5   4   0   10.45    1.19
   4  -4   0   10.88    1.04
   4  -4   0   10.41    1.05
  -4   4   0   11.99    1.09
   3  -4   0  115.54    4.02
  -3   4   0  111.53    3.92
  -3   4   0  114.63    4.01
   2  -4   0  177.10    5.78
  -2   4   0  167.94    5.71
  -2   4   0  176.91    5.65
   1  -4   0   69.29    2.54
  -1   4   0   70.57    2.43
  -1   4   0   70.32    2.48
  -1   4   0   69.22    2.35
   0  -4   0  451.04   14.43
   0  -4   0  454.95   14.26
   0  -4   0  468.34   14.44
   0   4   0  460.77   14.01
  -1  -4   0   14.08    0.84
  -1  -4   0   14.92    0.78
   1   4   0   14.21    0.76
  -2  -4   0   81.71    2.83
  -2  -4   0   78.83    2.83
   2   4   0   77.73    2.68
  -3  -4   0  100.03    3.61
  -3  -4   0  101.95    3.55
   3   4   0  104.28    3.41
  -4  -4   0   36.43    1.69
  -4  -4   0   35.76    1.63
   4   4   0   36.67    1.57
   4   4   0   35.49    1.36
  -5  -4   0    5.96    0.91
  -5  -4   0    6.24    0.79
   5   4   0    7.39    0.76
   5   4   0    5.97    0.67
  -6  -4   0  119.68    4.59
  -6  -4   0  117.14    4.33
   6   4   0  121.40    4.21
  -7  -4   0   13.02    1.45
  -7  -4   0   11.41    1.68
   7   4   0   14.24    1.40
  -8  -4   0   13.17    2.12
   8   4   0   15.93    1.73
   6  -5   0    1.02    1.42
   6  -5   0    3.47    1.46
  -6   5   0    2.11    1.54
   5  -5   0   79.21    3.42
   5  -5   0   83.05    3.51
  -5   5   0   75.39    3.43
   4  -5   0  109.64    4.23
   4  -5   0  113.05    4.18
  -4   5   0  108.70    4.14
   3  -5   0    6.28    0.89
   3  -5   0    7.31    0.88
  -3   5   0    6.72    0.90
   2  -5   0  145.15    4.79
   2  -5   0  139.69    4.86
  -2   5   0  137.55    4.78
   1  -5   0   97.19    3.53
   1  -5   0   99.79    3.37
  -1   5   0  101.55    3.30
  -1   5   0   95.34    3.45
   0  -5   0    3.35    0.40
   0  -5   0    3.12    0.55
   0   5   0    2.95    0.57
  -1  -5   0  112.73    4.04
  -1  -5   0  114.49    3.96
   1   5   0  120.00    3.91
  -2  -5   0  286.68    9.37
  -2  -5   0  290.74    9.34
   2   5   0  287.92    9.01
  -3  -5   0   -0.28    0.46
  -3  -5   0    1.15    0.53
   3   5   0    1.39    0.51
  -4  -5   0  135.09    4.68
  -4  -5   0  131.11    4.77
   4   5   0  135.34    4.50
  -5  -5   0   27.05    1.69
  -5  -5   0   28.93    1.85
   5   5   0   26.28    1.54
  -6  -5   0    1.67    0.91
  -6  -5   0   -1.45    1.02
   6   5   0   -0.76    0.84
  -7  -5   0    3.44    1.42
  -7  -5   0    2.74    1.26
   7   5   0    3.66    1.23
   5  -6   0    6.69    1.38
   5  -6   0    3.85    1.31
  -5   6   0    5.86    1.52
   4  -6   0    7.53    1.19
   4  -6   0    6.17    1.18
  -4   6   0    6.62    1.36
   3  -6   0   94.77    3.66
   3  -6   0   91.98    3.57
  -3   6   0   89.25    3.61
   2  -6   0   82.91    3.24
   2  -6   0   83.94    3.12
  -2   6   0   80.16    3.21
   1  -6   0   62.55    2.63
   1  -6   0   64.98    2.44
  -1   6   0   64.21    2.34
  -1   6   0   65.99    2.64
   0  -6   0  238.74    7.50
   0  -6   0  235.61    7.83
   0   6   0  233.75    7.57
  -1  -6   0   11.13    0.97
  -1  -6   0   13.55    0.98
   1   6   0   13.47    1.03
  -2  -6   0   51.82    2.29
  -2  -6   0   52.89    2.21
   2   6   0   52.35    2.17
  -3  -6   0   78.49    3.11
  -3  -6   0   75.24    3.03
   3   6   0   79.11    2.91
  -4  -6   0   41.70    2.08
  -4  -6   0   38.86    2.07
   4   6   0   43.81    1.97
  -5  -6   0    7.14    1.07
  -5  -6   0    4.98    1.05
   5   6   0    6.46    1.04
  -6  -6   0   92.84    3.98
  -6  -6   0   92.54    3.83
   6   6   0   89.58    3.62
  -7  -6   0    8.05    1.63
  -7  -6   0    7.06    1.60
   7   6   0    8.94    1.47
   4  -7   0   69.10    3.47
   4  -7   0   75.30    3.48
  -4   7   0   62.15    3.45
   3  -7   0    4.41    1.14
   3  -7   0    5.63    1.23
  -3   7   0    5.13    1.32
   2  -7   0   73.97    3.17
   2  -7   0   72.40    2.94
  -2   7   0   71.71    3.15
   1  -7   0   50.71    2.11
   1  -7   0   51.22    2.37
  -1   7   0   46.09    2.37
   0  -7   0    6.52    0.95
   0   7   0    6.88    0.96
  -1  -7   0   70.70    2.99
   1   7   0   71.69    2.88
  -2  -7   0  157.42    5.42
  -2  -7   0  149.62    5.45
   2   7   0  152.87    5.24
  -3  -7   0    0.23    0.88
  -3  -7   0    1.09    0.80
   3   7   0    0.53    0.77
  -4  -7   0   76.03    3.32
  -4  -7   0   80.19    3.44
   4   7   0   78.24    3.16
  -5  -7   0   27.42    1.99
  -5  -7   0   22.92    1.87
   5   7   0   25.77    1.78
  -6  -7   0    0.10    1.34
  -6  -7   0    1.88    1.40
   6   7   0    3.52    1.24
   3  -8   0   83.45    3.85
   3  -8   0   80.12    3.71
  -3   8   0   78.82    3.85
   2  -8   0   50.60    2.77
  -2   8   0   47.65    2.75
   1  -8   0   49.80    2.72
  -1   8   0   49.72    2.61
   0  -8   0  120.63    4.76
   0   8   0  126.04    4.49
   0   8   0  125.69    4.62
  -1  -8   0    5.09    1.02
   1   8   0    5.08    1.09
  -2  -8   0   18.31    1.64
   2   8   0   19.32    1.59
  -3  -8   0   32.84    2.25
   3   8   0   35.85    2.16
  -4  -8   0   32.85    2.37
  -4  -8   0   31.11    2.12
   4   8   0   32.88    2.10
  -5  -8   0    7.00    1.58
  -5  -8   0    2.67    1.37
   5   8   0    2.91    1.34
   2  -9   0   38.39    2.64
  -2   9   0   37.11    2.67
   1  -9   0   44.13    2.76
  -1   9   0   43.61    2.68
   0  -9   0    5.08    1.35
   0   9   0    7.34    1.39
  -1  -9   0   68.77    3.38
   1   9   0   69.37    3.26
   1   9   0   68.30    3.13
  -2  -9   0   94.89    4.17
   2   9   0   91.30    3.88
  -3  -9   0   -1.70    1.41
   3   9   0    1.23    1.36
  -4  -9   0   43.42    3.00
   4   9   0   47.14    2.91
   4   9  -1    9.90    1.76
  -4  -9   1   10.51    1.96
   3   9  -1    2.27    1.42
  -3  -9   1    0.40    1.53
   2   9  -1   51.36    2.83
   2   9  -1   48.55    2.81
  -2  -9   1   54.41    2.95
   1   9  -1    9.49    1.45
   1   9  -1    8.96    1.46
  -1  -9   1   11.24    1.60
   0   9  -1   13.46    1.69
   0  -9   1   10.87    1.58
  -1   9  -1    8.21    1.57
   1  -9   1    7.46    1.56
   5   8  -1    5.86    1.47
  -5  -8   1    5.82    1.56
   4   8  -1   68.06    3.25
  -4  -8   1   71.32    3.57
   3   8  -1   20.76    1.64
  -3  -8   1   16.72    1.76
   2   8  -1   -0.18    0.95
  -2  -8   1    1.54    1.01
   1   8  -1   17.64    1.44
   1   8  -1   17.10    1.49
  -1  -8   1   17.59    1.60
   0   8  -1   28.18    1.79
   0   8  -1   29.29    1.98
   0  -8   1   26.14    1.94
  -1   8  -1    4.93    1.29
   1  -8   1    6.11    1.31
  -2   8  -1   14.55    1.67
   2  -8   1   10.92    1.50
  -3   8  -1   10.24    1.68
   3  -8   1   12.98    1.70
   6   7  -1   15.42    1.68
  -6  -7   1   16.41    1.86
   5   7  -1   42.21    2.32
  -5  -7   1   35.63    2.43
   4   7  -1   11.80    1.26
  -4  -7   1   10.87    1.37
   3   7  -1    9.60    1.13
  -3  -7   1    8.19    1.16
   2   7  -1   82.46    3.19
  -2  -7   1   79.05    3.36
   1   7  -1    4.19    0.85
  -1  -7   1    3.39    0.86
   0   7  -1   19.47    1.47
   0   7  -1   21.47    1.32
   0  -7   1   19.73    1.53
  -1   7  -1   10.39    1.27
   1  -7   1   11.62    1.19
   1  -7   1   10.22    0.99
  -2   7  -1    7.65    1.21
   2  -7   1    8.67    1.11
   2  -7   1    9.24    1.20
  -3   7  -1    0.30    1.11
   3  -7   1    0.80    1.08
   3  -7   1    0.21    1.10
  -4   7  -1    2.72    1.56
   4  -7   1    4.74    1.46
   4  -7   1    4.98    1.46
   7   6  -1   46.71    2.86
  -7  -6   1   52.43    3.13
   6   6  -1   72.26    3.15
  -6  -6   1   75.08    3.38
   5   6  -1    8.76    1.08
  -5  -6   1    8.11    1.17
  -5  -6   1    7.64    1.17
   4   6  -1   72.94    2.87
  -4  -6   1   72.99    3.08
  -4  -6   1   75.15    3.11
   3   6  -1   25.27    1.45
  -3  -6   1   23.68    1.57
  -3  -6   1   23.83    1.55
   2   6  -1    0.21    0.67
  -2  -6   1    0.32    0.64
   1   6  -1   12.59    1.02
  -1  -6   1   15.54    1.22
   0   6  -1   32.54    1.68
   0   6  -1   31.97    1.51
   0  -6   1   32.24    1.40
   0  -6   1   31.99    1.70
  -1   6  -1   13.09    1.15
  -1   6  -1   13.03    0.91
   1  -6   1   11.51    1.03
   1  -6   1   12.52    0.92
  -2   6  -1   11.32    1.20
   2  -6   1   11.78    1.05
   2  -6   1   11.47    1.12
  -3   6  -1    6.27    1.10
   3  -6   1    6.43    1.02
   3  -6   1    6.11    1.05
  -4   6  -1    4.72    1.24
   4  -6   1    6.33    1.19
   4  -6   1    4.58    1.15
  -5   6  -1    1.54    1.48
   5  -6   1    1.91    1.40
   5  -6   1    2.88    1.35
   7   5  -1    3.80    1.20
  -7  -5   1    4.05    1.35
   6   5  -1   23.23    1.56
  -6  -5   1   22.89    1.62
  -6  -5   1   23.72    1.89
   5   5  -1   62.56    2.54
  -5  -5   1   63.68    2.81
  -5  -5   1   65.51    2.80
   4   5  -1   12.16    1.01
  -4  -5   1   13.61    1.15
  -4  -5   1   13.27    1.12
   3   5  -1   37.85    1.66
  -3  -5   1   38.73    1.77
  -3  -5   1   38.05    1.78
   2   5  -1  133.83    4.42
  -2  -5   1  132.93    4.62
  -2  -5   1  133.32    4.61
   1   5  -1    0.91    0.50
  -1  -5   1    0.65    0.45
   0   5  -1   11.09    0.88
   0  -5   1   10.72    0.86
   0  -5   1   11.67    0.72
  -1   5  -1   12.56    0.77
  -1   5  -1   11.73    0.97
   1  -5   1   12.31    0.98
   1  -5   1   12.66    0.86
  -2   5  -1   16.29    1.23
  -2   5  -1   14.50    0.89
   2  -5   1   15.38    1.10
   2  -5   1   15.61    1.08
  -3   5  -1    9.85    1.02
   3  -5   1    8.76    0.98
   3  -5   1    7.74    0.92
  -4   5  -1    3.16    0.92
   4  -5   1    2.01    0.89
   4  -5   1    3.45    0.95
  -5   5  -1   26.20    1.98
   5  -5   1   22.73    1.79
   5  -5   1   23.63    1.92
  -6   5  -1    7.52    1.80
   6  -5   1    7.15    1.69
   6  -5   1    5.91    1.50
   7   4  -1   59.75    2.72
  -7  -4   1   58.27    2.93
   6   4  -1   69.80    2.77
  -6  -4   1   69.41    3.08
  -6  -4   1   69.31    2.93
   5   4  -1    6.00    0.75
   5   4  -1    5.36    0.71
  -5  -4   1    6.47    0.83
  -5  -4   1    7.41    0.98
   4   4  -1   53.97    2.08
   4   4  -1   56.81    1.95
  -4  -4   1   55.04    2.32
  -4  -4   1   53.21    2.20
   3   4  -1   51.63    1.88
  -3  -4   1   48.69    2.06
  -3  -4   1   50.78    2.04
   2   4  -1    0.33    0.30
  -2  -4   1    0.14    0.35
  -2  -4   1   -0.56    0.31
   1   4  -1   37.55    1.47
  -1  -4   1   37.45    1.58
   0   4  -1   38.24    1.50
   0  -4   1   38.78    1.40
   0  -4   1   38.25    1.60
  -1   4  -1   -0.13    0.32
  -1   4  -1    0.24    0.27
   1  -4   1    0.48    0.33
   1  -4   1    0.40    0.34
  -2   4  -1   19.10    1.13
  -2   4  -1   20.37    0.86
   2  -4   1   16.12    1.08
   2  -4   1   18.96    1.07
  -3   4  -1    2.29    0.61
   3  -4   1    1.04    0.53
   3  -4   1    1.99    0.61
  -4   4  -1    9.28    1.01
   4  -4   1    9.28    1.01
   4  -4   1   11.39    1.11
  -5   4  -1    3.05    0.93
   5  -4   1    4.05    1.00
   5  -4   1    2.90    0.98
  -6   4  -1    4.51    1.33
   6  -4   1    4.42    1.36
   6  -4   1    5.30    1.28
   8   3  -1   37.97    2.41
   7   3  -1    1.94    1.06
   7   3  -1    2.73    1.15
  -7  -3   1    7.49    1.22
   6   3  -1   27.94    1.68
   6   3  -1   31.82    1.75
  -6  -3   1   29.36    1.77
  -6  -3   1   29.69    1.88
   5   3  -1   79.23    2.87
  -5  -3   1   79.95    3.15
  -5  -3   1   80.25    2.89
  -5  -3   1   81.81    3.05
   4   3  -1   23.88    1.11
  -4  -3   1   24.89    1.11
  -4  -3   1   26.78    1.28
  -4  -3   1   23.80    1.32
   3   3  -1   33.52    1.27
  -3  -3   1   32.03    1.43
  -3  -3   1   30.47    1.36
  -3  -3   1   32.58    1.18
   2   3  -1  128.01    4.07
  -2  -3   1  128.09    4.32
  -2  -3   1  130.41    4.27
   1   3  -1   23.11    0.96
  -1  -3   1   23.42    1.02
  -1  -3   1   24.02    1.02
   0   3  -1    2.58    0.34
   0  -3   1    3.78    0.43
   0  -3   1    2.77    0.28
  -1   3  -1   45.22    1.55
  -1   3  -1   42.26    1.60
  -1   3  -1   45.41    1.63
   1  -3   1   44.66    1.69
   1  -3   1   45.41    1.64
  -2   3  -1   34.31    1.37
  -2   3  -1   31.32    1.18
   2  -3   1   33.49    1.41
   2  -3   1   35.62    1.42
  -3   3  -1   11.98    0.91
   3  -3   1   13.30    0.97
   3  -3   1   12.22    0.88
  -4   3  -1    2.11    0.58
   4  -3   1    2.18    0.61
   4  -3   1    1.59    0.60
  -5   3  -1   16.66    1.31
   5  -3   1   16.60    1.36
   5  -3   1   18.75    1.31
  -6   3  -1   11.21    1.31
   6  -3   1   10.05    1.41
   6  -3   1   11.30    1.33
  -7   3  -1    0.66    1.31
   7  -3   1   -1.12    1.43
   8   2  -1    0.18    1.25
   8   2  -1   -0.57    1.61
   7   2  -1   66.14    3.21
   7   2  -1   70.85    2.96
   7   2  -1   73.51    3.19
   6   2  -1   47.74    2.06
  -6  -2   1   45.95    2.29
  -6  -2   1   46.70    2.19
  -6  -2   1   48.80    2.21
   5   2  -1   15.63    0.98
  -5  -2   1   14.42    1.02
  -5  -2   1   17.24    1.23
  -5  -2   1   12.43    1.00
   4   2  -1   58.48    2.13
  -4  -2   1   61.91    2.35
  -4  -2   1   61.98    2.29
  -4  -2   1   61.80    2.21
   3   2  -1   38.00    1.40
  -3  -2   1   38.97    1.52
  -3  -2   1   39.36    1.41
  -3  -2   1   38.50    1.55
   2   2  -1   14.37    0.61
   2   2  -1   13.80    0.59
  -2  -2   1   14.77    0.73
  -2  -2   1   13.46    0.57
  -2  -2   1   12.81    0.66
   1   2  -1   28.52    0.97
   1   2  -1   30.12    1.04
  -1  -2   1   29.40    0.98
  -1  -2   1   30.54    1.13
  -1  -2   1   28.05    1.10
   0   2  -1   29.28    1.06
   0   2  -1   29.09    1.04
   0  -2   1   29.46    1.12
   0  -2   1   30.84    1.04
  -1   2  -1    4.22    0.35
  -1   2  -1    4.10    0.27
   1  -2   1    3.76    0.34
   1  -2   1    4.42    0.36
  -2   2  -1    0.80    0.25
  -2   2  -1    0.79    0.17
   2  -2   1    0.64    0.30
   2  -2   1    0.70    0.18
   2  -2   1    1.01    0.27
  -3   2  -1   15.86    0.85
   3  -2   1   15.54    0.85
   3  -2   1   15.62    0.65
   3  -2   1   16.22    0.94
  -4   2  -1   42.16    1.83
   4  -2   1   47.52    1.83
   4  -2   1   42.76    1.92
  -5   2  -1    3.63    0.71
   5  -2   1    4.03    0.73
   5  -2   1    4.24    0.84
  -6   2  -1    9.02    1.16
   6  -2   1    7.71    1.18
   6  -2   1    8.04    1.03
  -7   2  -1   32.80    2.17
   7  -2   1   40.15    2.61
   8   1  -1   42.42    2.73
  -8  -1   1   45.46    2.74
   7   1  -1   10.84    1.32
   7   1  -1    9.96    1.41
  -7  -1   1    9.87    1.19
   6   1  -1   26.91    1.65
  -6  -1   1   26.47    1.61
  -6  -1   1   27.58    1.57
  -6  -1   1   26.01    1.69
  -5  -1   1   96.04    3.48
  -5  -1   1   93.54    3.43
  -5  -1   1   97.67    3.50
  -5  -1   1   99.59    3.32
  -4  -1   1   36.52    1.53
  -4  -1   1   35.98    1.51
  -4  -1   1   35.38    1.40
  -4  -1   1   36.91    1.51
  -3  -1   1   54.65    1.92
  -3  -1   1   55.46    1.98
  -3  -1   1   53.43    1.82
  -3  -1   1   53.75    1.94
  -2  -1   1   94.19    3.08
  -2  -1   1   97.83    3.17
  -2  -1   1   94.56    3.13
   1   1  -1    8.97    0.45
   1   1  -1    8.59    0.37
   1   1  -1   10.35    0.49
   1   1  -1    8.95    0.37
  -1  -1   1    8.94    0.45
  -1  -1   1    8.59    0.37
  -1  -1   1    9.03    0.38
  -1  -1   1    8.67    0.42
   0   1  -1    0.43    0.13
   0   1  -1    0.67    0.12
   0   1  -1    0.72    0.12
   0   1  -1    0.67    0.12
   0  -1   1    0.59    0.13
   0  -1   1    0.57    0.13
   0  -1   1    0.91    0.13
  -1   1  -1   17.75    0.70
  -1   1  -1   18.25    0.65
   1  -1   1   18.20    0.64
   1  -1   1   18.50    0.70
   1  -1   1   18.50    0.73
  -2   1  -1    1.72    0.23
  -2   1  -1    1.68    0.20
   2  -1   1    1.98    0.25
   2  -1   1    1.51    0.20
   2  -1   1    1.51    0.27
  -3   1  -1   21.73    0.95
   3  -1   1   19.90    1.01
   3  -1   1   20.79    0.92
  -4   1  -1    0.27    0.36
  -4   1  -1   -0.04    0.38
   4  -1   1    0.29    0.36
   4  -1   1    0.27    0.47
  -5   1  -1   20.82    1.29
  -5   1  -1   21.14    1.16
   5  -1   1   19.94    1.19
   5  -1   1   18.41    1.33
  -6   1  -1   31.13    1.76
   6  -1   1   28.63    1.94
   6  -1   1   31.05    1.69
  -7   1  -1    2.08    1.13
   7  -1   1    1.97    1.28
   8  -1   1   20.00    2.25
   8   0  -1    2.25    1.66
  -8   0   1    1.62    1.34
   7   0  -1   62.74    2.93
   7   0  -1   62.44    3.10
  -7   0   1   60.70    2.79
   6   0  -1   41.88    2.07
  -6   0   1   41.55    2.16
  -6   0   1   42.06    2.00
   5   0  -1    3.63    0.62
  -5   0   1    3.66    0.72
  -5   0   1    4.78    0.62
  -5   0   1    3.32    0.63
   4   0  -1   62.99    2.36
  -4   0   1   65.81    2.34
  -4   0   1   64.59    2.41
  -4   0   1   65.69    2.26
  -3   0   1   74.07    2.44
  -3   0   1   75.79    2.55
  -3   0   1   75.56    2.59
  -3   0   1   73.98    2.56
  -2   0   1   -0.04    0.16
  -2   0   1   -0.20    0.11
  -2   0   1    0.16    0.16
  -2   0   1    0.26    0.16
   1   0  -1   54.91    1.77
   1   0  -1   51.50    1.76
   1   0  -1   53.87    1.76
   1   0  -1   54.94    1.66
  -1   0   1   53.65    1.76
  -1   0   1   54.67    1.77
  -1   0   1   52.97    1.66
   0   0  -1  124.09    4.02
   0   0  -1  135.81    3.86
   0   0  -1  132.62    4.00
   0   0   1  130.63    3.99
   0   0   1  119.37    4.02
   0   0   1  131.42    3.86
   0   0   1  127.42    4.04
  -1   0  -1   10.88    0.43
  -1   0  -1   10.49    0.47
  -1   0  -1   11.12    0.39
  -1   0  -1   10.94    0.43
   1   0   1   10.46    0.43
   1   0   1   11.12    0.47
   1   0   1   11.14    0.39
  -2   0  -1    0.15    0.16
  -2   0  -1    0.15    0.14
   2   0   1    0.06    0.13
   2   0   1   -0.18    0.15
   2   0   1   -0.04    0.18
   2   0   1    0.00    0.18
  -3   0  -1   28.36    1.12
  -3   0  -1   27.69    1.10
   3   0   1   27.18    1.07
   3   0   1   28.55    1.18
  -4   0  -1   41.50    1.63
  -4   0  -1   42.81    1.63
   4   0   1   42.52    1.75
   4   0   1   40.76    1.59
  -5   0  -1   10.30    0.85
  -5   0  -1   10.07    0.89
   5   0   1   10.51    0.83
   5   0   1    8.14    0.86
  -6   0  -1    4.94    0.83
  -6   0  -1    2.80    0.79
   6   0   1    4.13    0.91
   6   0   1    2.06    0.76
  -7   0  -1   43.42    2.36
   7   0   1   43.65    2.65
  -8   0  -1   15.43    1.70
   8   0   1   14.63    1.96
   8  -1  -1   30.56    2.55
  -8   1   1   33.96    2.27
   7  -1  -1    3.36    1.23
   7  -1  -1    4.19    1.19
  -7   1   1    3.32    1.09
   6  -1  -1   14.97    1.21
  -6   1   1   13.42    1.29
  -6   1   1   14.22    1.21
   5  -1  -1   58.50    2.35
  -5   1   1   59.35    2.26
  -5   1   1   59.56    2.49
   4  -1  -1   20.46    1.06
  -4   1   1   19.75    1.18
  -4   1   1   21.56    1.03
   3  -1  -1   32.88    1.30
  -3   1   1   32.45    1.22
  -3   1   1   30.73    1.32
   2  -1  -1   40.47    1.37
   2  -1  -1   41.68    1.48
  -2   1   1   41.31    1.39
  -2   1   1   41.08    1.49
   1  -1  -1   14.44    0.48
   1  -1  -1   13.84    0.52
   1  -1  -1   14.21    0.58
   1  -1  -1   13.94    0.59
  -1   1   1   14.69    0.53
  -1   1   1   12.46    0.58
  -1   1   1   14.85    0.59
   0  -1  -1   -0.02    0.08
   0  -1  -1   -0.05    0.08
   0  -1  -1   -0.04    0.07
   0  -1  -1   -0.03    0.08
   0   1   1   -0.15    0.07
   0   1   1   -0.12    0.07
   0   1   1   -0.19    0.07
   0   1   1   -0.20    0.07
  -1  -1  -1   12.69    0.48
  -1  -1  -1   13.26    0.49
  -1  -1  -1   12.22    0.45
  -1  -1  -1   13.32    0.53
   1   1   1   12.11    0.49
   1   1   1   13.10    0.46
   1   1   1   12.36    0.52
   1   1   1   12.89    0.48
  -2  -1  -1   23.82    0.88
  -2  -1  -1   23.83    0.85
  -2  -1  -1   23.84    0.93
   2   1   1   24.08    0.91
   2   1   1   22.72    0.85
  -3  -1  -1   30.27    1.13
  -3  -1  -1   30.21    1.17
  -3  -1  -1   29.96    1.22
   3   1   1   29.48    1.21
  -4  -1  -1    0.51    0.31
  -4  -1  -1    0.21    0.34
  -4  -1  -1    0.27    0.38
   4   1   1    1.05    0.41
  -5  -1  -1   34.07    1.55
  -5  -1  -1   33.49    1.60
   5   1   1   32.42    1.63
   5   1   1   32.87    1.47
  -6  -1  -1   41.54    1.96
  -6  -1  -1   43.53    2.08
   6   1   1   41.67    2.12
   6   1   1   40.30    1.92
  -7  -1  -1   -0.90    1.07
  -7  -1  -1    0.51    0.94
   7   1   1    0.38    1.07
  -8  -1  -1   24.27    1.96
   8   1   1   24.70    2.25
   7  -2  -1   65.11    3.04
   7  -2  -1   58.38    3.20
  -7   2   1   60.31    2.90
   6  -2  -1   33.63    1.99
  -6   2   1   35.08    2.14
  -6   2   1   32.51    1.85
   5  -2  -1    5.43    0.79
  -5   2   1    4.88    0.82
  -5   2   1    5.76    0.74
   4  -2  -1   34.30    1.67
  -4   2   1   40.90    1.77
  -4   2   1   43.30    1.65
   3  -2  -1   33.55    1.38
  -3   2   1   32.31    1.41
  -3   2   1   32.05    1.28
   2  -2  -1    3.21    0.36
  -2   2   1    3.21    0.32
  -2   2   1    3.86    0.40
   1  -2  -1   22.66    0.89
  -1   2   1   22.68    0.86
  -1   2   1   21.88    0.87
   0  -2  -1   54.13    1.77
   0  -2  -1   53.69    1.81
   0  -2  -1   53.58    1.74
   0   2   1   51.61    1.76
   0   2   1   53.75    1.74
  -1  -2  -1   12.49    0.56
  -1  -2  -1   11.75    0.52
  -1  -2  -1   11.83    0.43
   1   2   1   11.84    0.42
   1   2   1   12.00    0.52
   1   2   1   10.85    0.53
  -2  -2  -1    2.52    0.26
  -2  -2  -1    3.13    0.35
   2   2   1    3.11    0.26
   2   2   1    3.19    0.28
   2   2   1    3.22    0.32
  -3  -2  -1   16.50    0.76
  -3  -2  -1   15.58    0.76
  -3  -2  -1   15.58    0.84
   3   2   1   16.41    0.78
  -4  -2  -1   44.70    1.65
  -4  -2  -1   42.58    1.77
  -4  -2  -1   41.46    1.63
   4   2   1   44.05    1.70
  -5  -2  -1   17.43    1.18
  -5  -2  -1   15.64    1.01
  -5  -2  -1   15.90    1.06
   5   2   1   16.60    1.13
  -6  -2  -1    5.19    0.99
  -6  -2  -1    4.68    0.80
   6   2   1    4.33    0.90
   6   2   1    5.52    0.80
  -7  -2  -1   41.33    2.26
  -7  -2  -1   42.54    2.54
   7   2   1   48.11    2.56
  -8  -2  -1   18.29    2.03
   8   2   1   18.33    1.88
   7  -3  -1    6.28    1.50
   7  -3  -1    4.93    1.59
  -7   3   1    6.71    1.38
   6  -3  -1    8.51    1.21
  -6   3   1    5.70    1.13
  -6   3   1   10.47    1.30
   5  -3  -1   70.67    2.85
  -5   3   1   70.63    2.93
  -5   3   1   64.24    2.70
   4  -3  -1   17.50    1.18
  -4   3   1   18.53    1.15
  -4   3   1   16.95    1.19
   3  -3  -1   26.50    1.26
  -3   3   1   24.75    1.15
  -3   3   1   25.68    1.30
   2  -3  -1   34.30    1.41
  -2   3   1   33.19    1.40
  -2   3   1   37.75    1.41
   1  -3  -1   10.74    0.63
   1  -3  -1   10.61    0.45
  -1   3   1    9.87    0.46
  -1   3   1   10.08    0.57
  -1   3   1   10.94    0.62
   0  -3  -1    7.68    0.44
   0  -3  -1    7.51    0.44
   0  -3  -1    8.06    0.52
   0   3   1    7.07    0.51
   0   3   1    7.26    0.40
  -1  -3  -1    5.21    0.42
  -1  -3  -1    4.61    0.43
   1   3   1    4.10    0.37
  -2  -3  -1   55.60    2.02
  -2  -3  -1   54.86    1.96
   2   3   1   56.55    1.92
  -3  -3  -1   35.99    1.47
  -3  -3  -1   34.13    1.36
   3   3   1   35.72    1.36
   3   3   1   33.40    1.25
  -4  -3  -1    0.15    0.41
  -4  -3  -1   -0.25    0.37
   4   3   1    0.03    0.37
   4   3   1    0.10    0.38
  -5  -3  -1   40.74    1.72
  -5  -3  -1   38.80    1.91
   5   3   1   40.04    1.76
   5   3   1   39.74    1.73
  -6  -3  -1   45.36    2.00
  -6  -3  -1   45.77    2.28
   6   3   1   43.45    2.04
   6   3   1   42.00    2.06
  -7  -3  -1   -0.20    1.22
   7   3   1   -0.40    0.97
   7   3   1    1.18    1.04
  -8  -3  -1   23.11    2.21
   8   3   1   21.55    1.97
   7  -4  -1   35.57    2.51
   7  -4  -1   37.40    2.74
  -7   4   1   37.53    2.53
   6  -4  -1   20.26    1.81
   6  -4  -1   20.27    1.73
  -6   4   1   18.49    1.71
   5  -4  -1    1.58    0.86
  -5   4   1    1.43    0.97
  -5   4   1    0.58    0.83
   4  -4  -1   20.10    1.37
  -4   4   1   20.58    1.34
  -4   4   1   19.59    1.39
   3  -4  -1   30.95    1.52
  -3   4   1   30.37    1.51
  -3   4   1   31.11    1.53
   2  -4  -1    4.45    0.57
  -2   4   1    3.62    0.47
  -2   4   1    3.82    0.58
   1  -4  -1   22.26    1.09
   1  -4  -1   21.79    0.86
  -1   4   1   20.04    0.89
  -1   4   1   24.63    1.09
  -1   4   1   22.19    0.98
   0  -4  -1   23.92    1.11
   0  -4  -1   23.79    0.99
   0   4   1   23.32    1.06
   0   4   1   23.60    0.92
  -1  -4  -1    9.78    0.64
  -1  -4  -1    9.53    0.70
   1   4   1   10.19    0.62
  -2  -4  -1    8.63    0.65
  -2  -4  -1    8.09    0.66
   2   4   1    8.28    0.61
  -3  -4  -1    8.97    0.78
  -3  -4  -1    7.75    0.69
   3   4   1    9.08    0.67
  -4  -4  -1   65.50    2.65
  -4  -4  -1   70.56    2.56
   4   4   1   67.74    2.48
   4   4   1   69.07    2.33
  -5  -4  -1   25.45    1.56
  -5  -4  -1   21.62    1.34
   5   4   1   24.13    1.29
   5   4   1   25.39    1.37
  -6  -4  -1    8.33    0.98
  -6  -4  -1    8.34    1.16
   6   4   1    8.33    1.05
   6   4   1    8.54    0.97
  -7  -4  -1   50.62    2.95
  -7  -4  -1   57.15    2.58
   7   4   1   52.40    2.70
  -8  -4  -1   22.35    2.27
   8   4   1   19.01    1.93
   6  -5  -1    5.96    1.52
   6  -5  -1    7.91    1.67
  -6   5   1    5.10    1.52
   5  -5  -1   39.61    2.53
   5  -5  -1   38.53    2.43
  -5   5   1   44.01    2.41
   4  -5  -1   12.77    1.21
  -4   5   1   10.83    1.15
  -4   5   1   11.64    1.24
   3  -5  -1    6.38    0.82
  -3   5   1    6.86    0.86
  -3   5   1    6.64    0.90
   2  -5  -1   15.34    1.13
  -2   5   1   16.44    1.15
  -2   5   1   14.78    1.04
   1  -5  -1   10.91    0.86
  -1   5   1   10.05    0.88
  -1   5   1   10.26    0.72
   0  -5  -1    6.52    0.55
   0  -5  -1    5.68    0.66
   0   5   1    5.31    0.45
   0   5   1    5.76    0.67
  -1  -5  -1    9.83    0.71
  -1  -5  -1    7.42    0.74
   1   5   1    6.02    0.66
  -2  -5  -1   22.36    1.17
  -2  -5  -1   22.70    1.26
   2   5   1   23.17    1.18
  -3  -5  -1   18.09    1.16
  -3  -5  -1   15.69    1.14
   3   5   1   15.52    1.02
  -4  -5  -1    1.36    0.59
  -4  -5  -1    1.63    0.55
   4   5   1    0.61    0.55
  -5  -5  -1   26.50    1.61
  -5  -5  -1   26.93    1.70
   5   5   1   25.91    1.57
  -6  -5  -1   42.62    2.20
  -6  -5  -1   41.59    2.42
   6   5   1   40.74    2.15
  -7  -5  -1   -0.44    1.36
  -7  -5  -1    0.19    1.20
   7   5   1    1.98    1.19
   5  -6  -1   -0.59    1.24
   5  -6  -1    0.46    1.33
  -5   6   1   -0.40    1.30
   4  -6  -1   13.55    1.45
   4  -6  -1   11.10    1.38
  -4   6   1   10.78    1.36
   3  -6  -1   28.41    1.82
   3  -6  -1   28.85    1.83
  -3   6   1   34.17    1.94
  -3   6   1   29.57    1.81
   2  -6  -1    6.88    0.89
  -2   6   1    6.47    0.78
  -2   6   1    5.13    0.87
   1  -6  -1    2.96    0.69
   1  -6  -1    3.49    0.59
  -1   6   1    3.16    0.74
   0  -6  -1   22.76    1.37
   0  -6  -1   22.21    1.07
   0  -6  -1   24.82    1.19
   0   6   1   21.92    1.33
  -1  -6  -1   32.99    1.50
  -1  -6  -1   32.53    1.64
   1   6   1   30.36    1.57
  -2  -6  -1    5.23    0.80
  -2  -6  -1    6.29    0.72
   2   6   1    6.56    0.76
  -3  -6  -1   14.35    1.12
  -3  -6  -1   15.76    1.19
   3   6   1   14.98    1.11
  -4  -6  -1   55.22    2.47
  -4  -6  -1   53.81    2.43
   4   6   1   53.87    2.31
  -5  -6  -1   12.24    1.31
  -5  -6  -1   11.21    1.22
   5   6   1   11.03    1.11
  -6  -6  -1    4.21    1.10
  -6  -6  -1    2.20    1.16
   6   6   1    3.54    1.01
  -7  -6  -1   36.12    2.62
   7   6   1   38.51    2.35
   5  -7  -1   17.75    1.99
   5  -7  -1   16.86    1.97
  -5   7   1   15.54    2.15
   4  -7  -1    6.43    1.38
   4  -7  -1    5.46    1.42
  -4   7   1    5.06    1.43
   3  -7  -1    2.82    1.08
   3  -7  -1    2.82    1.08
  -3   7   1    3.92    1.12
   2  -7  -1    8.35    1.12
   2  -7  -1    6.64    0.97
  -2   7   1    7.75    1.15
   1  -7  -1    6.97    0.96
   1  -7  -1    8.79    0.90
  -1   7   1   10.78    1.15
   0  -7  -1    4.06    0.62
   0  -7  -1    4.69    0.82
   0   7   1    5.39    0.85
  -1  -7  -1    3.63    0.73
  -1  -7  -1    2.88    0.79
   1   7   1    2.55    0.80
  -2  -7  -1   21.49    1.57
  -2  -7  -1   22.33    1.42
   2   7   1   21.49    1.43
  -3  -7  -1   33.29    1.92
  -3  -7  -1   33.92    1.92
   3   7   1   36.05    1.90
  -4  -7  -1   -0.02    0.92
  -4  -7  -1    0.03    0.86
   4   7   1    0.02    0.82
  -5  -7  -1   37.25    2.46
  -5  -7  -1   44.25    2.50
   5   7   1   46.41    2.34
  -6  -7  -1   42.08    2.53
  -6  -7  -1   36.96    2.53
   6   7   1   41.52    2.49
   4  -8  -1   10.46    1.94
   4  -8  -1    9.18    1.82
  -4   8   1    9.77    1.94
   3  -8  -1   16.45    1.74
   3  -8  -1   17.53    1.71
  -3   8   1   16.84    1.86
   2  -8  -1    2.94    1.14
   2  -8  -1    2.70    1.15
  -2   8   1    4.46    1.17
   1  -8  -1    0.54    0.91
  -1   8   1   -2.22    0.96
   0  -8  -1   10.82    1.21
   0   8   1   10.34    1.28
  -1  -8  -1   16.42    1.51
   1   8   1   16.11    1.44
  -2  -8  -1    6.91    1.15
  -2  -8  -1    6.62    1.07
   2   8   1    7.70    1.15
  -3  -8  -1    7.37    1.20
  -3  -8  -1    4.55    1.10
   3   8   1    4.73    1.11
  -4  -8  -1   23.01    1.88
  -4  -8  -1   28.14    2.07
   4   8   1   28.80    1.95
  -5  -8  -1   14.72    1.84
  -5  -8  -1   15.71    1.72
   5   8   1   15.52    1.68
  -6  -8  -1    0.69    1.80
  -6  -8  -1    2.43    1.56
   6   8   1    2.49    1.54
   2  -9  -1   14.14    1.78
   1  -9  -1   14.87    1.74
  -1   9   1   17.47    1.75
   0  -9  -1    2.64    1.20
   0   9   1    3.66    1.26
  -1  -9  -1    0.42    1.22
   1   9   1    3.52    1.15
  -2  -9  -1   22.25    1.85
   2   9   1   21.84    1.87
  -3  -9  -1   34.35    2.41
   3   9   1   32.07    2.22
  -4  -9  -1   -2.15    1.56
  -4  -9  -1   -1.45    1.27
   4   9   1    1.43    1.27
  -1 -10  -1   10.76    1.83
   1  10   1   11.76    1.82
  -2 -10  -1    3.07    1.59
   2  10   1    3.59    1.57
   3   9  -2    5.91    1.47
   3   9  -2    5.27    1.50
  -3  -9   2    4.50    1.66
   2   9  -2    2.09    1.35
   2   9  -2    0.49    1.42
  -2  -9   2   -0.27    1.53
   1   9  -2   60.64    3.29
  -1  -9   2   63.33    3.41
   0   9  -2   26.74    2.06
   0  -9   2   28.20    2.22
  -1   9  -2   17.46    1.94
   1  -9   2   15.07    1.87
   5   8  -2   16.79    1.94
  -5  -8   2   15.45    2.11
   4   8  -2    1.44    1.34
  -4  -8   2    2.27    1.39
   3   8  -2   55.19    2.88
  -3  -8   2   56.21    3.08
   2   8  -2   35.82    2.24
   2   8  -2   37.18    2.23
  -2  -8   2   37.29    2.43
   1   8  -2    8.28    1.24
   1   8  -2    7.98    1.22
  -1  -8   2    5.75    1.23
   0   8  -2   30.28    2.04
   0  -8   2   29.18    2.12
  -1   8  -2   46.69    2.77
   1  -8   2   48.13    2.76
  -2   8  -2    6.26    1.50
   2  -8   2    4.21    1.42
  -3   8  -2   53.70    3.17
   3  -8   2   50.30    3.22
   6   7  -2    2.01    1.37
  -6  -7   2    3.96    1.53
   5   7  -2   17.93    1.57
  -5  -7   2   17.68    1.81
   4   7  -2   20.40    1.61
  -4  -7   2   24.01    1.91
   3   7  -2   24.48    1.66
  -3  -7   2   22.28    1.79
   2   7  -2    5.93    1.00
  -2  -7   2    4.68    0.94
   1   7  -2  116.50    4.33
   1   7  -2  122.64    4.43
  -1  -7   2  122.30    4.55
   0   7  -2   32.48    1.77
   0   7  -2   29.76    1.88
   0  -7   2   29.99    1.90
  -1   7  -2   50.58    2.46
   1  -7   2   49.76    2.30
   1  -7   2   52.21    2.51
  -2   7  -2   80.68    3.43
   2  -7   2   82.23    3.47
   2  -7   2   81.25    3.30
  -3   7  -2    5.01    1.30
   3  -7   2    1.63    1.17
   3  -7   2    2.15    1.27
  -4   7  -2    6.93    1.69
   4  -7   2    0.88    1.54
   4  -7   2    5.32    1.40
   6   6  -2   14.93    1.42
  -6  -6   2   12.59    1.57
   5   6  -2   40.71    2.17
  -5  -6   2   42.51    2.43
   4   6  -2   -0.04    0.82
  -4  -6   2    0.62    0.84
   3   6  -2   91.02    3.31
  -3  -6   2   89.39    3.55
   2   6  -2   67.25    2.63
  -2  -6   2   65.91    2.78
   1   6  -2   -0.05    0.56
   1   6  -2    0.88    0.61
  -1  -6   2   -0.57    0.60
   0   6  -2   50.98    2.18
   0   6  -2   48.90    2.08
   0  -6   2   47.67    1.90
   0  -6   2   47.49    2.22
  -1   6  -2  132.49    4.75
  -1   6  -2  142.74    4.69
   1  -6   2  140.78    4.67
   1  -6   2  132.01    4.88
  -2   6  -2    8.37    1.10
   2  -6   2    7.32    1.03
   2  -6   2    7.74    0.97
  -3   6  -2  103.06    4.06
   3  -6   2  109.37    4.10
   3  -6   2  104.65    4.03
  -4   6  -2   76.17    3.51
   4  -6   2   79.50    3.53
   4  -6   2   78.42    3.48
  -5   6  -2    1.75    1.49
   5  -6   2    2.26    1.47
   5  -6   2    4.19    1.48
  -7  -5   2   25.77    2.05
   6   5  -2    0.09    0.90
  -6  -5   2    1.28    1.02
   5   5  -2   16.67    1.23
  -5  -5   2   16.94    1.42
   4   5  -2   27.62    1.50
  -4  -5   2   26.77    1.65
   3   5  -2   35.55    1.62
  -3  -5   2   35.34    1.78
   2   5  -2   15.04    1.04
  -2  -5   2   14.19    1.12
   1   5  -2  191.99    5.77
  -1  -5   2  191.18    6.03
  -1  -5   2  152.65    5.63
   0   5  -2   52.87    2.09
   0   5  -2   52.67    2.06
   0  -5   2   51.87    1.94
   0  -5   2   52.35    2.19
  -1   5  -2   66.33    2.44
  -1   5  -2   63.58    2.53
   1  -5   2   67.60    2.65
   1  -5   2   67.87    2.48
  -2   5  -2  110.78    3.91
  -2   5  -2  102.85    3.74
   2  -5   2  111.18    3.88
   2  -5   2  115.03    3.98
  -3   5  -2   27.16    1.69
   3  -5   2   27.34    1.67
   3  -5   2   27.26    1.65
  -4   5  -2    5.42    1.03
   4  -5   2    6.28    1.03
   4  -5   2    6.05    1.11
  -5   5  -2   93.70    4.00
   5  -5   2  101.44    4.11
   5  -5   2   95.20    3.94
  -6   5  -2   28.31    2.40
   6  -5   2   31.27    2.48
   7   4  -2    0.17    1.11
  -7  -4   2    0.39    1.15
   6   4  -2   31.55    1.77
  -6  -4   2   28.72    1.87
   5   4  -2   68.80    2.61
  -5  -4   2   69.78    2.83
  -5  -4   2   70.13    2.53
   4   4  -2    1.03    0.49
  -4  -4   2    1.20    0.42
  -4  -4   2    1.22    0.57
   3   4  -2  145.85    4.56
  -3  -4   2  135.91    4.80
   2   4  -2   74.44    2.56
  -2  -4   2   73.15    2.73
   1   4  -2    0.36    0.34
  -1  -4   2   -0.33    0.30
  -1  -4   2   -0.46    0.31
  -1  -4   2    0.31    0.36
   0   4  -2   84.98    2.92
   0   4  -2   83.00    2.86
   0  -4   2   83.91    2.99
   0  -4   2   81.40    2.81
  -1   4  -2  210.84    6.80
  -1   4  -2  209.69    6.70
   1  -4   2  211.58    6.89
   1  -4   2  211.95    6.81
  -2   4  -2    3.92    0.61
  -2   4  -2    3.73    0.52
   2  -4   2    3.34    0.55
   2  -4   2    2.66    0.56
  -3   4  -2  143.64    4.99
   3  -4   2  153.76    5.13
   3  -4   2  147.81    5.07
  -4   4  -2   86.12    3.32
   4  -4   2   86.96    3.29
   4  -4   2   87.09    3.39
  -5   4  -2    4.24    1.11
   5  -4   2    1.17    0.90
   5  -4   2    5.26    1.08
  -6   4  -2   28.09    2.15
   6  -4   2   33.48    2.29
   8   3  -2   11.12    1.86
   7   3  -2   32.55    2.01
  -7  -3   2   29.89    1.99
   6   3  -2    1.53    0.74
  -6  -3   2    1.73    0.80
  -6  -3   2    1.64    0.80
   5   3  -2   11.28    0.87
  -5  -3   2   11.02    0.86
  -5  -3   2    9.89    1.00
   4   3  -2   73.84    2.49
  -4  -3   2   72.20    2.51
  -4  -3   2   69.54    2.77
  -4  -3   2   70.92    2.69
   3   3  -2  100.46    3.27
  -3  -3   2  100.62    3.51
  -3  -3   2  100.37    3.27
   2   3  -2   32.46    1.21
   2   3  -2   35.34    1.28
  -2  -3   2   33.18    1.19
  -2  -3   2   35.45    1.43
   1   3  -2  448.01   13.01
   1   3  -2  408.50   13.28
  -1  -3   2  437.68   13.32
  -1  -3   2  419.95   13.45
   0   3  -2   75.49    2.53
   0   3  -2   73.74    2.46
   0  -3   2   70.86    2.45
   0  -3   2   72.90    2.57
  -1   3  -2  121.24    3.91
  -1   3  -2  123.27    3.96
   1  -3   2  117.52    4.02
   1  -3   2  120.48    3.99
  -2   3  -2  170.29    5.60
  -2   3  -2  180.99    5.57
   2  -3   2  172.51    5.71
   2  -3   2  172.48    5.69
  -3   3  -2   44.34    1.60
  -3   3  -2   45.79    1.85
   3  -3   2   43.90    1.91
   3  -3   2   46.11    1.85
  -4   3  -2   11.55    1.01
   4  -3   2   12.22    1.10
   4  -3   2   13.31    1.00
  -5   3  -2  126.05    4.58
   5  -3   2  125.56    4.52
   5  -3   2  132.37    4.75
  -6   3  -2   31.01    2.08
   6  -3   2   32.82    2.07
   6  -3   2   35.30    2.32
  -7   3  -2   22.32    1.95
   7  -3   2   23.52    2.20
   8   2  -2    1.82    1.57
   8   2  -2    0.25    1.61
   7   2  -2   -0.68    0.93
  -7  -2   2    0.91    1.03
  -7  -2   2    0.83    1.06
   6   2  -2   26.35    1.57
  -6  -2   2   30.84    1.75
  -6  -2   2   27.85    1.78
   5   2  -2   87.04    2.99
  -5  -2   2   87.36    3.17
  -5  -2   2   84.75    3.21
   4   2  -2    1.97    0.37
  -4  -2   2    1.21    0.42
  -4  -2   2    1.85    0.51
   3   2  -2  148.77    4.66
  -3  -2   2  151.18    4.82
  -3  -2   2  148.72    4.94
   2   2  -2  136.47    4.10
  -2  -2   2  129.80    4.20
  -2  -2   2  129.17    4.32
   1   2  -2    8.50    0.47
   1   2  -2    9.50    0.48
  -1  -2   2    9.05    0.47
  -1  -2   2   10.12    0.56
   0   2  -2  171.56    5.28
   0   2  -2  172.10    5.49
   0  -2   2  177.51    5.48
   0  -2   2  163.36    5.41
  -1   2  -2  451.89   13.54
  -1   2  -2  422.23   13.07
   1  -2   2  421.94   13.46
   1  -2   2  431.86   13.50
  -2   2  -2    5.53    0.43
  -2   2  -2    5.43    0.47
   2  -2   2    5.41    0.51
   2  -2   2    5.37    0.47
  -3   2  -2  275.84    8.27
  -3   2  -2  254.86    8.36
   3  -2   2  263.96    8.41
  -4   2  -2  110.35    3.92
   4  -2   2  113.84    4.12
   4  -2   2  120.71    3.94
  -5   2  -2    1.91    0.67
   5  -2   2    2.56    0.78
   5  -2   2    2.43    0.73
  -6   2  -2   33.98    2.02
   6  -2   2   35.52    2.00
   6  -2   2   36.58    2.25
  -7   2  -2   40.63    2.40
   7  -2   2   35.30    2.41
   8   1  -2   18.38    1.99
   8   1  -2   19.81    2.14
   7   1  -2   40.62    2.41
  -7  -1   2   33.23    2.07
  -7  -1   2   34.62    2.16
   6   1  -2    0.89    0.78
  -6  -1   2    1.05    0.67
  -6  -1   2   -0.18    0.81
  -5  -1   2   14.55    1.07
  -5  -1   2   13.53    0.87
  -5  -1   2   13.78    1.05
  -4  -1   2   65.97    2.48
  -4  -1   2   67.42    2.30
  -4  -1   2   71.98    2.55
  -3  -1   2  114.73    3.78
  -3  -1   2  110.05    3.71
  -3  -1   2  112.50    3.52
   2   1  -2   42.20    1.46
   2   1  -2   46.48    1.46
  -2  -1   2   46.28    1.63
  -2  -1   2   45.01    1.57
   1   1  -2  559.50   18.13
   1   1  -2  627.74   18.34
  -1  -1   2  597.60   17.53
  -1  -1   2  568.07   18.15
  -1  -1   2  579.36   18.14
   0   1  -2   64.30    2.06
   0   1  -2   64.95    1.94
   0   1  -2   55.82    2.01
   0  -1   2   62.96    2.03
   0  -1   2   59.17    1.93
   0  -1   2   61.21    2.02
  -1   1  -2  156.65    4.68
  -1   1  -2  124.43    4.62
  -1   1  -2  150.06    4.52
   1  -1   2  148.09    4.66
   1  -1   2  148.38    4.62
   1  -1   2  149.58    4.70
  -2   1  -2  245.68    7.49
  -2   1  -2  239.46    7.70
   2  -1   2  244.09    7.64
   2  -1   2  244.61    7.76
  -3   1  -2   70.90    2.44
  -3   1  -2   71.83    2.40
   3  -1   2   69.22    2.38
   3  -1   2   69.53    2.56
  -4   1  -2   18.33    1.09
   4  -1   2   17.81    1.13
   4  -1   2   19.67    0.98
  -5   1  -2  178.45    6.07
  -5   1  -2  187.93    6.10
   5  -1   2  189.33    6.09
   5  -1   2  186.93    6.37
  -6   1  -2   34.12    1.91
   6  -1   2   37.23    2.13
   6  -1   2   32.92    1.81
  -7   1  -2   34.11    2.09
   7  -1   2   29.01    2.12
   8   0  -2    3.58    1.59
   8   0  -2    5.28    1.66
  -8   0   2    4.29    1.51
   7   0  -2    1.70    1.13
  -7   0   2    1.65    1.13
  -7   0   2    0.99    1.04
   6   0  -2   52.59    2.42
  -6   0   2   48.12    2.38
  -6   0   2   48.92    2.14
   5   0  -2  134.46    4.53
  -5   0   2  135.72    4.58
  -5   0   2  119.03    4.24
  -4   0   2    4.72    0.55
  -4   0   2    5.68    0.62
  -4   0   2    5.24    0.50
  -3   0   2  184.10    6.02
  -3   0   2  190.32    5.75
  -3   0   2  186.29    6.03
  -2   0   2  155.58    4.97
  -2   0   2  152.54    4.72
  -2   0   2  157.19    4.98
   1   0  -2   17.68    0.69
   1   0  -2   17.07    0.71
  -1   0   2   17.82    0.70
   0   0  -2  149.24    4.22
   0   0  -2  147.79    4.38
   0   0  -2  145.49    4.45
   0   0  -2  136.20    4.42
   0   0   2  145.27    4.22
   0   0   2  134.12    4.44
   0   0   2  119.57    4.37
   0   0   2  143.30    4.42
  -1   0  -2  676.58   19.40
  -1   0  -2  642.31   20.17
   1   0   2  608.30   20.15
   1   0   2  662.85   20.05
  -2   0  -2    6.38    0.41
  -2   0  -2    5.52    0.42
   2   0   2    5.19    0.31
   2   0   2    5.60    0.44
  -3   0  -2  343.62   10.97
  -3   0  -2  347.31   10.62
   3   0   2  353.19   11.00
   3   0   2  344.04   10.79
  -4   0  -2  112.56    3.82
  -4   0  -2  116.75    3.89
   4   0   2  114.88    3.77
   4   0   2  115.04    4.00
  -5   0  -2    3.06    0.65
  -5   0  -2    2.89    0.67
   5   0   2    4.71    0.60
   5   0   2    2.07    0.67
  -6   0  -2   43.24    2.13
  -6   0  -2   46.77    2.13
   6   0   2   42.66    2.29
   6   0   2   45.62    1.98
  -7   0  -2   43.00    2.43
   7   0   2   46.99    2.67
  -8   0  -2    2.98    1.43
   8   0   2    5.64    1.68
   8  -1  -2   17.41    2.15
   8  -1  -2   19.90    2.11
  -8   1   2   21.93    1.99
   7  -1  -2   24.30    1.85
  -7   1   2   21.21    1.90
  -7   1   2   25.76    1.80
   6  -1  -2    0.56    0.79
  -6   1   2   -0.25    0.81
  -6   1   2    0.49    0.74
   5  -1  -2    7.62    0.90
  -5   1   2    6.57    0.90
  -5   1   2    7.52    0.75
   4  -1  -2   74.57    2.71
  -4   1   2   71.83    2.72
  -4   1   2   73.83    2.52
   3  -1  -2  180.62    5.59
   3  -1  -2  170.46    5.68
  -3   1   2  176.94    5.72
  -3   1   2  170.86    5.42
   2  -1  -2  110.91    3.74
   2  -1  -2  118.62    3.72
   2  -1  -2  115.76    3.81
  -2   1   2  117.60    3.60
  -2   1   2  118.88    3.82
   1  -1  -2  753.25   24.39
   1  -1  -2  796.67   23.61
   1  -1  -2  811.48   24.55
  -1   1   2  775.59   24.44
  -1   1   2  810.06   23.60
  -1   1   2  794.96   24.55
   0  -1  -2   31.88    1.09
   0  -1  -2   32.75    1.07
   0  -1  -2   32.76    1.09
   0  -1  -2   31.71    1.02
   0   1   2   31.44    1.06
   0   1   2   32.46    1.09
   0   1   2   30.60    1.08
   0   1   2   28.38    1.01
  -1  -1  -2  160.45    4.99
  -1  -1  -2  148.79    4.93
  -1  -1  -2  159.26    4.78
   1   1   2  156.81    4.93
  -2  -1  -2  235.05    7.68
  -2  -1  -2  242.16    7.39
   2   1   2  246.81    7.63
  -3  -1  -2  127.81    4.09
  -3  -1  -2  127.51    3.95
   3   1   2  112.84    3.89
   3   1   2  122.69    4.05
  -4  -1  -2    6.29    0.60
  -4  -1  -2    6.06    0.63
   4   1   2    5.42    0.63
   4   1   2    6.06    0.49
  -5  -1  -2  248.97    8.15
  -5  -1  -2  245.90    7.88
   5   1   2  244.45    8.14
   5   1   2  253.12    7.92
  -6  -1  -2   41.91    2.00
  -6  -1  -2   45.79    2.13
   6   1   2   39.82    1.85
   6   1   2   41.06    2.16
  -7  -1  -2   30.75    1.95
  -7  -1  -2   34.91    2.23
   7   1   2   31.12    2.05
  -8  -1  -2   27.16    2.16
   8   1   2   27.49    2.30
   7  -2  -2    6.81    1.33
  -7   2   2    5.28    1.49
  -7   2   2    4.81    1.23
   6  -2  -2   62.41    2.75
  -6   2   2   57.89    2.51
  -6   2   2   61.14    2.86
   5  -2  -2  110.72    3.93
  -5   2   2  102.84    3.98
  -5   2   2  108.33    3.72
   4  -2  -2    6.19    0.40
   4  -2  -2    4.84    0.64
  -4   2   2    5.64    0.68
  -4   2   2    5.59    0.58
   3  -2  -2  118.17    3.77
   3  -2  -2  120.59    4.02
   3  -2  -2  114.74    3.79
  -3   2   2  120.15    4.04
  -3   2   2  120.63    3.81
   2  -2  -2   92.59    3.12
   2  -2  -2   90.24    2.94
  -2   2   2   91.84    3.12
  -2   2   2   94.51    2.96
   1  -2  -2   22.04    0.78
   1  -2  -2   20.83    0.89
  -1   2   2   21.40    0.87
  -1   2   2   21.85    0.84
  -1   2   2   21.82    0.78
   0  -2  -2  161.33    5.01
   0  -2  -2  151.37    4.98
   0  -2  -2  168.40    5.03
   0   2   2  156.43    4.98
   0   2   2  159.07    4.86
   0   2   2  152.66    5.02
  -1  -2  -2  734.77   22.19
  -1  -2  -2  721.74   21.94
  -1  -2  -2  717.28   21.96
   1   2   2  669.33   21.92
   1   2   2  714.33   21.33
   1   2   2  709.76   21.95
  -2  -2  -2   20.43    0.89
  -2  -2  -2   20.66    0.77
   2   2   2   20.43    0.80
   2   2   2   19.97    0.83
   2   2   2   18.24    0.77
  -3  -2  -2  383.44   12.05
  -3  -2  -2  399.91   12.30
  -3  -2  -2  397.19   12.57
   3   2   2  402.27   12.40
  -4  -2  -2   65.21    2.21
  -4  -2  -2   63.16    2.41
  -4  -2  -2   63.24    2.29
   4   2   2   62.96    2.32
  -5  -2  -2    3.57    0.55
  -5  -2  -2    3.07    0.68
  -5  -2  -2    3.42    0.61
   5   2   2    3.48    0.62
  -6  -2  -2   34.12    1.89
  -6  -2  -2   30.40    1.72
   6   2   2   31.06    1.60
   6   2   2   31.29    1.80
  -7  -2  -2   61.04    2.73
  -7  -2  -2   57.22    2.89
   7   2   2   56.50    2.84
  -8  -2  -2    6.44    1.46
   8   2   2   11.54    1.78
   7  -3  -2   17.99    1.86
  -7   3   2   22.38    1.83
  -7   3   2   22.66    2.10
   6  -3  -2    1.54    0.99
  -6   3   2   -0.13    0.96
  -6   3   2    2.57    1.06
   5  -3  -2    4.79    0.81
  -5   3   2    4.54    0.89
  -5   3   2    4.06    0.78
   4  -3  -2  102.97    3.63
  -4   3   2   99.53    3.66
  -4   3   2   96.82    3.43
   3  -3  -2  151.97    5.87
  -3   3   2  190.56    5.96
  -3   3   2  194.70    5.70
   2  -3  -2  117.21    3.94
  -2   3   2  114.95    3.91
  -2   3   2  118.48    3.79
   1  -3  -2  560.45   17.09
   1  -3  -2  555.73   17.12
  -1   3   2  558.95   17.10
  -1   3   2  544.36   16.61
  -1   3   2  526.31   17.08
   0  -3  -2   62.98    2.10
   0  -3  -2   61.80    2.15
   0   3   2   62.39    2.10
   0   3   2   61.12    2.06
  -1  -3  -2   67.66    2.24
  -1  -3  -2   68.48    2.35
  -1  -3  -2   71.06    2.37
   1   3   2   68.01    2.22
   1   3   2   67.37    2.27
  -2  -3  -2  215.46    6.68
  -2  -3  -2  204.05    6.60
  -2  -3  -2  212.14    6.82
   2   3   2  205.16    6.53
   2   3   2  214.84    6.59
  -3  -3  -2  168.58    5.47
  -3  -3  -2  168.08    5.66
   3   3   2  173.76    5.42
   3   3   2  172.52    5.44
  -4  -3  -2   16.50    0.86
  -4  -3  -2   15.44    1.05
   4   3   2   16.22    0.91
   4   3   2   15.21    0.95
  -5  -3  -2  265.01    8.94
  -5  -3  -2  275.05    8.64
   5   3   2  265.40    8.55
   5   3   2  274.84    8.71
  -6  -3  -2   11.29    1.20
  -6  -3  -2    9.68    0.92
   6   3   2   11.78    1.10
   6   3   2   11.53    1.11
  -7  -3  -2   35.84    2.27
   7   3   2   34.78    2.12
   7   3   2   31.71    2.04
  -8  -3  -2    9.60    1.87
   8   3   2   17.03    1.80
   7  -4  -2    2.51    1.53
   7  -4  -2    2.97    1.63
  -7   4   2    0.80    1.62
   6  -4  -2   53.72    2.88
  -6   4   2   52.17    2.79
  -6   4   2   58.07    3.03
   5  -4  -2   50.33    2.46
  -5   4   2   51.10    2.56
  -5   4   2   52.50    2.39
   4  -4  -2    8.07    0.93
  -4   4   2    8.57    0.95
  -4   4   2    7.08    0.88
   3  -4  -2   70.75    2.75
  -3   4   2   74.09    2.70
  -3   4   2   72.24    2.75
   2  -4  -2   45.88    1.96
  -2   4   2   50.75    1.92
  -2   4   2   51.77    1.91
   1  -4  -2   25.12    1.14
   1  -4  -2   23.36    0.90
  -1   4   2   22.05    1.07
  -1   4   2   23.95    1.03
  -1   4   2   21.42    0.93
   0  -4  -2  163.52    5.36
   0  -4  -2  167.44    5.44
   0   4   2  165.11    5.28
   0   4   2  168.69    5.28
  -1  -4  -2  549.13   17.02
  -1  -4  -2  529.60   16.84
  -1  -4  -2  559.36   17.12
   1   4   2  536.61   16.49
   1   4   2  546.37   16.82
  -2  -4  -2   14.35    0.85
  -2  -4  -2   13.50    0.79
   2   4   2   13.59    0.75
  -3  -4  -2  271.32    8.57
  -3  -4  -2  264.01    8.75
   3   4   2  271.43    8.40
  -4  -4  -2   83.73    3.26
  -4  -4  -2   92.31    3.13
   4   4   2   90.25    2.98
   4   4   2   86.96    3.09
  -5  -4  -2   -0.71    0.55
  -5  -4  -2    1.06    0.69
   5   4   2    0.88    0.59
   5   4   2    0.69    0.54
  -6  -4  -2   28.84    1.66
  -6  -4  -2   28.58    1.93
   6   4   2   29.33    1.78
   6   4   2   28.73    1.70
  -7  -4  -2   87.14    3.85
   7   4   2   89.38    3.62
  -8  -4  -2    3.26    1.78
   8   4   2    3.88    1.56
   6  -5  -2    0.51    1.30
  -6   5   2    3.12    1.41
  -6   5   2    7.00    1.52
   5  -5  -2    2.59    1.07
  -5   5   2    3.72    1.10
  -5   5   2    3.42    1.17
   4  -5  -2  113.34    4.27
  -4   5   2  115.55    4.18
  -4   5   2  112.57    4.27
   3  -5  -2  100.08    3.70
  -3   5   2   99.78    3.64
  -3   5   2   98.34    3.62
   2  -5  -2   89.99    3.32
  -2   5   2   91.66    3.23
  -2   5   2   86.70    3.23
   1  -5  -2  220.75    7.39
   1  -5  -2  229.65    7.16
  -1   5   2  225.09    7.22
  -1   5   2  224.26    7.18
   0  -5  -2   14.02    0.80
   0  -5  -2   14.70    0.99
   0   5   2   14.94    0.73
   0   5   2   10.42    0.85
  -1  -5  -2   34.40    1.43
  -1  -5  -2   34.25    1.34
  -1  -5  -2   25.81    1.12
   1   5   2   25.63    1.29
  -2  -5  -2   85.54    3.03
  -2  -5  -2   84.43    3.06
   2   5   2   81.83    2.92
  -3  -5  -2  109.06    3.85
  -3  -5  -2  106.60    3.73
   3   5   2  105.18    3.65
  -4  -5  -2   23.16    1.28
  -4  -5  -2   21.43    1.37
   4   5   2   21.52    1.31
  -5  -5  -2  183.63    6.58
  -5  -5  -2  192.37    6.33
   5   5   2  189.08    6.23
  -6  -5  -2    5.10    1.01
  -6  -5  -2    7.18    1.19
   6   5   2    6.37    0.99
  -7  -5  -2   18.18    1.88
   7   5   2   22.20    1.77
   5  -6  -2   46.57    2.74
  -5   6   2   42.91    2.69
  -5   6   2   41.76    2.69
   4  -6  -2    2.75    1.06
  -4   6   2    4.17    1.06
  -4   6   2    4.06    1.14
   3  -6  -2   71.66    3.10
  -3   6   2   76.28    3.02
  -3   6   2   70.05    3.05
   2  -6  -2   78.60    3.10
  -2   6   2   78.01    2.96
  -2   6   2   74.94    3.02
   1  -6  -2   17.03    0.91
   1  -6  -2   15.11    1.15
  -1   6   2   18.48    1.28
  -1   6   2   16.73    1.08
   0  -6  -2  190.21    6.69
   0  -6  -2  203.86    6.55
   0   6   2  203.89    6.54
   0   6   2  203.84    6.43
  -1  -6  -2  313.04   10.28
  -1  -6  -2  333.87   10.27
   1   6   2  305.66    9.95
  -2  -6  -2    9.88    0.89
  -2  -6  -2    9.84    0.95
   2   6   2    9.94    0.89
  -3  -6  -2  151.39    5.17
  -3  -6  -2  147.26    5.20
   3   6   2  146.80    4.97
  -4  -6  -2   50.02    2.40
  -4  -6  -2   53.03    2.32
   4   6   2   54.03    2.26
  -5  -6  -2    1.68    0.90
  -5  -6  -2    2.11    0.91
   5   6   2    1.60    0.77
  -6  -6  -2   15.16    1.56
  -6  -6  -2   12.92    1.34
   6   6   2   13.88    1.42
  -7  -6  -2   62.23    3.49
   7   6   2   68.19    3.24
   5  -7  -2    2.44    1.59
   5  -7  -2   -3.39    1.34
  -5   7   2    0.61    1.78
   4  -7  -2   67.69    3.33
   4  -7  -2   65.99    3.26
  -4   7   2   61.21    3.31
   3  -7  -2   45.01    2.56
  -3   7   2   45.19    2.56
  -3   7   2   49.46    2.46
   2  -7  -2   39.19    2.14
  -2   7   2   39.85    2.02
  -2   7   2   39.18    2.16
  -1   7   2  129.82    4.60
  -1   7   2  127.40    4.41
   0  -7  -2   15.66    1.05
   0  -7  -2   15.81    0.93
   0  -7  -2   16.17    1.26
   0   7   2   14.03    1.17
  -1  -7  -2   26.00    1.54
  -1  -7  -2   22.59    1.41
   1   7   2   22.23    1.43
  -2  -7  -2   96.14    3.71
  -2  -7  -2   92.20    3.53
   2   7   2   96.44    3.52
  -3  -7  -2   88.16    3.45
  -3  -7  -2   84.79    3.52
   3   7   2   89.86    3.35
  -4  -7  -2   37.65    2.08
  -4  -7  -2   35.03    2.18
   4   7   2   37.92    1.97
  -5  -7  -2  148.21    5.31
  -5  -7  -2  133.07    5.34
   5   7   2  145.86    5.11
  -6  -7  -2    6.22    1.39
  -6  -7  -2    4.94    1.42
   6   7   2    4.94    1.25
   4  -8  -2    2.71    1.60
   4  -8  -2    1.49    1.55
  -4   8   2    3.79    1.68
   3  -8  -2   39.07    2.54
   3  -8  -2   42.25    2.62
  -3   8   2   38.40    2.55
   2  -8  -2   50.89    2.52
   2  -8  -2   49.14    2.71
  -2   8   2   46.40    2.71
   1  -8  -2   12.68    1.33
  -1   8   2   16.14    1.48
   0  -8  -2   98.39    3.89
   0   8   2  101.41    3.84
  -1  -8  -2  137.49    4.95
  -1  -8  -2  134.93    5.11
   1   8   2  144.27    5.00
  -2  -8  -2    0.29    0.83
  -2  -8  -2    1.98    0.89
   2   8   2    1.97    0.95
  -3  -8  -2   67.07    3.25
  -3  -8  -2   72.93    3.20
   3   8   2   73.97    3.10
  -4  -8  -2   29.66    2.15
  -4  -8  -2   27.88    1.96
   4   8   2   28.43    1.90
  -5  -8  -2    0.96    1.23
  -5  -8  -2    4.75    1.58
   5   8   2    3.70    1.24
  -6  -8  -2   10.95    1.77
  -6  -8  -2   12.97    2.01
   6   8   2   13.73    1.68
   2  -9  -2   37.54    2.51
  -2   9   2   43.06    2.68
   1  -9  -2   92.24    3.91
  -1   9   2   81.57    3.82
   0  -9  -2    8.39    1.30
   0   9   2    6.24    1.27
  -1  -9  -2   11.49    1.42
   1   9   2   11.75    1.38
  -2  -9  -2   65.08    3.06
  -2  -9  -2   67.29    3.35
   2   9   2   71.11    3.22
  -3  -9  -2   69.75    3.36
  -3  -9  -2   63.12    3.20
   3   9   2   63.38    3.21
  -4  -9  -2   22.04    1.96
  -4  -9  -2   18.24    2.06
   4   9   2   20.57    1.91
  -5  -9  -2   75.36    3.96
  -5  -9  -2   79.86    4.26
   5   9   2   80.43    3.84
   0 -10  -2   63.36    3.64
   0  10   2   65.60    3.49
  -1 -10  -2   69.25    3.68
   1  10   2   68.97    3.53
  -2 -10  -2    6.18    1.63
   2  10   2    2.02    1.62
  -3 -10  -2   52.70    3.23
   3  10   2   42.14    2.84
   1   9  -3   44.41    2.70
  -1  -9   3   43.07    2.88
   4   8  -3   21.38    1.94
   4   8  -3   24.25    2.02
  -4  -8   3   23.79    2.15
   3   8  -3   92.44    3.77
   3   8  -3   90.57    3.94
  -3  -8   3   89.66    4.18
   2   8  -3    2.62    1.26
   2   8  -3    2.18    1.23
  -2  -8   3   -0.61    1.25
   1   8  -3   24.50    1.93
   1   8  -3   27.97    1.92
  -1  -8   3   28.65    2.05
   0   8  -3   14.18    1.61
   0  -8   3   15.31    1.65
  -1   8  -3   12.00    1.59
   1  -8   3    6.43    1.47
  -2   8  -3    0.03    1.46
   2  -8   3   -1.80    1.33
   5   7  -3   67.93    3.24
  -5  -7   3   73.49    3.59
   4   7  -3   26.33    1.79
  -4  -7   3   24.94    2.01
   3   7  -3    0.62    0.87
   3   7  -3   -0.07    0.99
  -3  -7   3   -0.03    1.05
   2   7  -3   42.19    2.25
   2   7  -3   41.28    2.20
  -2  -7   3   40.84    2.45
   1   7  -3   74.55    3.09
   1   7  -3   74.03    3.04
  -1  -7   3   73.47    3.20
   0   7  -3    0.05    0.81
   0   7  -3   -0.98    0.87
   0  -7   3    1.01    0.92
  -1   7  -3   60.53    2.78
   1  -7   3   55.96    2.79
  -2   7  -3    6.91    1.30
   2  -7   3    9.54    1.26
   2  -7   3    8.00    1.33
  -3   7  -3   -0.03    1.32
   3  -7   3   -0.16    1.21
   3  -7   3    1.60    1.33
  -6  -6   3   41.97    2.66
   5   6  -3   34.59    1.98
  -5  -6   3   36.24    2.35
   4   6  -3   27.91    1.75
  -4  -6   3   30.58    1.97
   3   6  -3  139.12    4.70
  -3  -6   3  133.77    5.00
   2   6  -3    1.29    0.68
   2   6  -3    2.34    0.74
  -2  -6   3    0.97    0.76
   1   6  -3   34.17    1.82
   1   6  -3   34.17    1.80
  -1  -6   3   34.65    1.87
   0   6  -3   26.93    1.61
   0   6  -3   24.13    1.50
   0  -6   3   26.17    1.72
   0  -6   3   28.96    1.44
  -1   6  -3   15.31    1.13
  -1   6  -3   14.54    1.32
   1  -6   3   12.14    1.22
   1  -6   3   13.25    1.10
  -2   6  -3   -0.65    0.84
   2  -6   3    1.09    0.85
   2  -6   3    0.49    0.85
  -3   6  -3   35.91    2.21
   3  -6   3   35.87    2.22
   3  -6   3   36.89    2.24
  -4   6  -3    8.66    1.56
   4  -6   3    8.53    1.51
   4  -6   3    9.37    1.28
  -5   6  -3    1.23    1.52
   5  -6   3   -0.39    1.57
  -7  -5   3   63.55    3.34
  -6  -5   3   17.94    1.65
   5   5  -3   80.53    3.08
  -5  -5   3   82.80    3.40
   4   5  -3   24.83    1.47
  -4  -5   3   23.82    1.60
   3   5  -3    0.54    0.59
  -3  -5   3    0.87    0.60
   2   5  -3   42.50    1.79
   2   5  -3   40.63    1.89
  -2  -5   3   37.60    1.91
   1   5  -3  116.25    3.92
   1   5  -3  116.08    4.08
  -1  -5   3  120.88    4.14
  -1  -5   3  108.48    3.84
   0   5  -3   -0.99    0.50
   0   5  -3    0.27    0.49
   0  -5   3    0.40    0.50
   0  -5   3   -0.85    0.49
  -1   5  -3   63.21    2.58
  -1   5  -3   67.27    2.51
   1  -5   3   68.28    2.53
   1  -5   3   65.43    2.64
  -2   5  -3    5.42    0.86
  -2   5  -3    6.39    0.91
   2  -5   3    6.18    0.83
   2  -5   3    6.19    0.83
  -3   5  -3    0.76    0.80
   3  -5   3    1.75    0.70
   3  -5   3   -0.48    0.78
  -4   5  -3   -0.18    0.98
   4  -5   3   -1.21    1.04
   4  -5   3   -0.13    0.89
  -5   5  -3   10.55    1.54
   5  -5   3    6.95    1.35
   5  -5   3    9.66    1.61
  -7  -4   3    9.90    1.45
   6   4  -3   65.56    2.70
  -6  -4   3   66.53    3.01
   5   4  -3   42.36    1.85
  -5  -4   3   39.55    2.07
   4   4  -3   82.41    2.87
  -4  -4   3   83.68    2.83
  -4  -4   3   82.41    3.19
   3   4  -3  182.91    5.63
  -3  -4   3  174.93    5.61
  -3  -4   3  171.90    5.95
   2   4  -3    0.13    0.39
  -2  -4   3    1.40    0.45
  -2  -4   3    0.71    0.34
   1   4  -3   49.94    1.83
   1   4  -3   48.83    1.95
  -1  -4   3   45.15    1.80
  -1  -4   3   50.07    1.95
   0   4  -3   34.16    1.48
   0   4  -3   36.67    1.47
   0  -4   3   34.05    1.58
   0  -4   3   34.76    1.43
  -1   4  -3   25.16    1.31
  -1   4  -3   27.27    1.23
   1  -4   3   25.97    1.27
   1  -4   3   26.54    1.36
  -2   4  -3   -0.55    0.50
  -2   4  -3    0.11    0.51
   2  -4   3    0.16    0.48
   2  -4   3   -0.10    0.51
  -3   4  -3   57.16    2.18
  -3   4  -3   57.16    2.38
   3  -4   3   57.30    2.36
   3  -4   3   59.73    2.48
  -4   4  -3    8.51    1.15
   4  -4   3    9.97    1.04
   4  -4   3    8.59    1.10
  -5   4  -3   -0.30    1.02
   5  -4   3    0.63    0.99
   5  -4   3   -0.86    1.03
  -6   4  -3    0.53    1.30
   6  -4   3    4.34    1.47
  -7  -3   3   59.81    3.01
   6   3  -3    9.21    1.01
  -6  -3   3   10.07    1.14
  -6  -3   3    8.43    1.05
   5   3  -3   63.37    2.53
  -5  -3   3   75.93    2.68
  -5  -3   3   72.62    2.89
   4   3  -3   48.25    1.78
  -4  -3   3   49.53    1.86
  -4  -3   3   45.50    2.02
   3   3  -3    1.80    0.39
  -3  -3   3    2.44    0.50
  -3  -3   3    2.29    0.38
   2   3  -3   61.82    2.07
  -2  -3   3   59.79    2.08
  -2  -3   3   59.89    2.26
   1   3  -3  171.53    5.69
   1   3  -3  170.86    5.38
  -1  -3   3  173.36    5.53
  -1  -3   3  173.99    5.66
   0   3  -3   15.13    0.80
   0   3  -3   14.41    0.76
   0  -3   3   13.93    0.84
   0  -3   3   15.38    0.78
  -1   3  -3   63.76    2.27
  -1   3  -3   65.18    2.31
   1  -3   3   64.92    2.34
   1  -3   3   65.95    2.37
  -2   3  -3    1.15    0.43
  -2   3  -3    1.68    0.46
   2  -3   3    2.81    0.50
   2  -3   3    2.13    0.48
  -3   3  -3    1.73    0.53
  -3   3  -3    1.77    0.48
   3  -3   3    1.86    0.52
   3  -3   3    2.02    0.57
  -4   3  -3    1.75    0.67
   4  -3   3    0.36    0.65
   4  -3   3    0.57    0.61
  -5   3  -3   16.61    1.43
   5  -3   3   16.16    1.44
   5  -3   3   15.26    1.22
  -6   3  -3   17.58    1.64
   6  -3   3   19.38    1.83
   7  -3   3    3.91    1.61
   8   2  -3    4.14    1.62
  -7  -2   3   16.07    1.67
  -7  -2   3   19.11    1.65
   6   2  -3   94.53    3.37
  -6  -2   3   94.37    3.65
  -6  -2   3   94.35    3.66
   5   2  -3   41.73    1.67
  -5  -2   3   40.20    1.85
  -5  -2   3   39.77    1.90
   4   2  -3  128.89    4.08
  -4  -2   3  127.38    4.29
  -4  -2   3  128.35    4.44
   3   2  -3  180.77    5.46
  -3  -2   3  176.36    5.82
  -3  -2   3  172.80    5.69
   2   2  -3    2.96    0.29
  -2  -2   3    2.96    0.36
  -2  -2   3    2.27    0.37
   1   2  -3   42.79    1.58
   1   2  -3   41.18    1.41
  -1  -2   3   40.72    1.49
  -1  -2   3   40.87    1.56
   0   2  -3   57.42    1.90
   0   2  -3   58.99    2.03
   0  -2   3   53.95    2.00
   0  -2   3   58.00    1.98
  -1   2  -3   63.00    2.15
  -1   2  -3   61.51    2.08
   1  -2   3   60.38    2.17
   1  -2   3   60.41    2.14
  -2   2  -3    0.30    0.32
  -2   2  -3    0.29    0.29
   2  -2   3   -0.08    0.32
   2  -2   3    0.11    0.28
  -3   2  -3   51.47    1.90
  -3   2  -3   49.60    1.97
   3  -2   3   51.08    2.07
   3  -2   3   53.12    1.93
  -4   2  -3    3.70    0.72
  -4   2  -3    2.32    0.52
   4  -2   3    3.52    0.65
   4  -2   3    3.95    0.59
  -5   2  -3    2.39    0.79
   5  -2   3    3.56    0.83
   5  -2   3    4.14    0.75
  -6   2  -3    2.78    0.99
   6  -2   3    2.20    1.03
  -7   2  -3   13.58    1.63
   7  -2   3   10.39    1.63
   8   1  -3   71.14    3.83
  -8  -1   3   75.43    3.90
   7   1  -3   36.11    2.20
   7   1  -3   43.05    2.17
   7   1  -3   42.97    2.55
  -7  -1   3   40.32    2.50
  -6  -1   3    5.87    1.02
  -6  -1   3    5.98    1.01
  -5  -1   3   65.45    2.63
  -5  -1   3   68.62    2.68
  -4  -1   3   42.20    1.73
  -4  -1   3   42.97    1.82
   3   1  -3    0.85    0.23
  -3  -1   3    0.89    0.31
  -3  -1   3    0.53    0.33
   2   1  -3  124.61    4.07
  -2  -1   3  121.69    4.03
  -2  -1   3  119.86    3.98
   1   1  -3  178.65    5.73
  -1  -1   3  177.30    5.65
  -1  -1   3  176.93    5.67
   0   1  -3   60.35    2.02
   0   1  -3   60.91    1.87
   0  -1   3   58.99    1.99
   0  -1   3   59.10    1.97
   0  -1   3   53.08    1.86
  -1   1  -3   79.71    2.58
  -1   1  -3   82.17    2.70
   1  -1   3   77.05    2.70
   1  -1   3   81.89    2.63
  -2   1  -3   16.46    0.80
  -2   1  -3   16.07    0.79
   2  -1   3   17.58    0.88
   2  -1   3   16.67    0.73
  -3   1  -3    2.33    0.40
  -3   1  -3    1.87    0.39
   3  -1   3    1.53    0.38
   3  -1   3    1.71    0.33
  -4   1  -3   -0.59    0.44
  -4   1  -3   -0.24    0.45
   4  -1   3   -0.58    0.40
   4  -1   3    0.63    0.48
  -5   1  -3   24.51    1.42
  -5   1  -3   26.04    1.48
   5  -1   3   25.40    1.57
   5  -1   3   24.81    1.34
  -6   1  -3   19.52    1.45
   6  -1   3   20.09    1.64
  -7   1  -3    0.15    1.13
   7  -1   3   -1.01    1.24
   8   0  -3    3.65    1.69
  -8   0   3    3.29    1.73
   7   0  -3   14.85    1.63
  -7   0   3   16.39    1.42
  -7   0   3   15.48    1.57
   6   0  -3  117.28    4.37
   6   0  -3  115.07    4.14
  -6   0   3  118.53    4.02
  -6   0   3  113.63    4.38
   5   0  -3   34.76    1.72
   5   0  -3   33.24    1.54
  -5   0   3   32.34    1.72
  -5   0   3   34.30    1.45
   4   0  -3   93.72    3.09
  -4   0   3   92.04    2.89
  -4   0   3   87.15    3.16
  -4   0   3   78.28    3.12
   3   0  -3  111.63    3.66
  -3   0   3  108.83    3.40
  -3   0   3  106.83    3.67
  -3   0   3  108.17    3.69
   2   0  -3   30.78    1.15
  -2   0   3   29.23    1.17
  -2   0   3   28.44    1.16
   1   0  -3   11.20    0.55
  -1   0   3   10.81    0.55
  -1   0   3   11.49    0.57
   0   0  -3   27.08    0.95
   0   0  -3   26.60    0.99
   0   0  -3   23.89    0.86
   0   0   3   26.87    0.94
   0   0   3   26.65    0.86
   0   0   3   27.07    0.99
  -1   0  -3  100.15    3.03
  -1   0  -3   90.96    3.03
  -1   0  -3   97.98    3.18
   1   0   3   94.57    3.16
   1   0   3   97.77    3.03
  -2   0  -3    0.67    0.21
  -2   0  -3    0.43    0.22
   2   0   3    0.70    0.27
  -3   0  -3   35.63    1.41
  -3   0  -3   35.79    1.41
   3   0   3   36.38    1.25
   3   0   3   35.00    1.25
   3   0   3   37.11    1.49
  -4   0  -3    3.77    0.53
  -4   0  -3    3.83    0.53
   4   0   3    3.80    0.39
   4   0   3    3.99    0.59
  -5   0  -3    5.56    0.80
  -5   0  -3    5.89    0.82
   5   0   3    6.66    0.86
   5   0   3    5.17    0.62
  -6   0  -3   -0.78    0.86
  -6   0  -3    0.04    0.79
   6   0   3    0.00    0.80
  -7   0  -3   12.48    1.39
   7   0   3   11.94    1.53
   7  -1  -3   34.28    2.22
  -7   1   3   31.22    2.19
  -7   1   3   31.33    1.92
   6  -1  -3    7.30    1.06
  -6   1   3    5.30    0.89
  -6   1   3    7.00    1.15
   5  -1  -3   84.48    2.92
   5  -1  -3   85.47    3.19
  -5   1   3   76.43    2.88
  -5   1   3   84.47    3.22
   4  -1  -3   38.95    1.52
   4  -1  -3   41.58    1.76
  -4   1   3   38.12    1.74
  -4   1   3   39.42    1.50
   3  -1  -3    1.21    0.26
   3  -1  -3    1.31    0.35
  -3   1   3    1.19    0.27
  -3   1   3    1.08    0.34
   2  -1  -3  169.90    5.48
   2  -1  -3  178.82    5.81
   2  -1  -3  186.76    5.76
  -2   1   3  182.60    5.48
  -2   1   3  184.23    5.82
   1  -1  -3   92.72    3.02
   1  -1  -3   92.62    3.04
  -1   1   3   92.48    3.05
   0  -1  -3   22.31    0.82
   0  -1  -3   23.08    0.82
   0  -1  -3   23.74    0.87
   0   1   3   22.31    0.76
   0   1   3   21.70    0.86
   0   1   3   21.33    0.76
  -1  -1  -3   22.33    0.90
  -1  -1  -3   23.16    0.83
   1   1   3   22.29    0.89
  -2  -1  -3   37.87    1.34
  -2  -1  -3   35.72    1.39
   2   1   3   36.92    1.39
  -3  -1  -3   19.15    0.91
  -3  -1  -3   19.45    0.94
   3   1   3   20.17    0.97
  -4  -1  -3    8.03    0.71
  -4  -1  -3    7.69    0.73
   4   1   3    7.37    0.74
   4   1   3    7.55    0.48
  -5  -1  -3   30.31    1.56
  -5  -1  -3   30.63    1.60
   5   1   3   30.74    1.63
   5   1   3   29.59    1.27
  -6  -1  -3   31.79    1.92
  -6  -1  -3   31.29    1.81
   6   1   3   32.42    1.88
  -7  -1  -3    5.37    1.32
  -7  -1  -3    4.47    1.14
   7   1   3    4.96    1.22
  -8  -1  -3    5.18    1.45
   8   1   3    1.44    1.68
   7  -2  -3    5.51    1.42
  -7   2   3    6.94    1.53
  -7   2   3    7.05    1.35
   6  -2  -3  112.22    4.21
  -6   2   3  107.80    3.87
  -6   2   3  106.40    4.27
   5  -2  -3   26.77    1.24
   5  -2  -3   27.53    1.61
  -5   2   3   27.62    1.64
  -5   2   3   26.40    1.42
   4  -2  -3   56.79    2.29
   4  -2  -3   56.55    1.98
  -4   2   3   58.41    2.07
  -4   2   3   56.32    2.33
   3  -2  -3  100.48    3.23
   3  -2  -3  100.94    3.46
  -3   2   3   99.47    3.46
  -3   2   3   97.01    3.20
   2  -2  -3   11.65    0.54
   2  -2  -3   11.56    0.71
  -2   2   3   13.47    0.72
  -2   2   3   12.88    0.59
   1  -2  -3   50.17    1.82
   1  -2  -3   53.06    1.75
  -1   2   3   52.14    1.82
  -1   2   3   51.12    1.71
   0  -2  -3   25.00    0.94
   0  -2  -3   25.30    0.95
   0   2   3   24.31    0.94
   0   2   3   24.12    0.89
  -1  -2  -3   24.13    0.96
  -1  -2  -3   24.20    0.87
   1   2   3   22.73    0.85
   1   2   3   23.51    0.90
   1   2   3   22.42    0.89
  -2  -2  -3   14.24    0.71
  -2  -2  -3   13.46    0.63
  -2  -2  -3   12.27    0.52
   2   2   3   12.98    0.55
   2   2   3   12.75    0.62
  -3  -2  -3   13.18    0.76
  -3  -2  -3   12.13    0.68
   3   2   3   10.79    0.56
   3   2   3   12.77    0.73
  -4  -2  -3    4.20    0.40
  -4  -2  -3    4.28    0.56
  -4  -2  -3    4.13    0.61
   4   2   3    4.74    0.58
  -5  -2  -3    9.13    0.93
  -5  -2  -3    9.28    0.84
   5   2   3    8.15    0.91
   5   2   3    9.25    0.66
  -6  -2  -3   -1.15    0.81
  -6  -2  -3    0.07    0.70
   6   2   3    0.05    0.86
  -7  -2  -3   16.10    1.48
  -7  -2  -3   18.02    1.68
   7   2   3   16.28    1.59
  -8  -2  -3   28.52    2.14
   8   2   3   23.79    2.24
   7  -3  -3   24.30    2.06
  -7   3   3   25.70    1.89
  -7   3   3   24.50    2.17
   6  -3  -3    4.25    1.08
  -6   3   3    4.02    1.05
  -6   3   3    4.57    1.18
   5  -3  -3   47.75    2.23
  -5   3   3   45.70    2.33
  -5   3   3   45.21    2.05
   4  -3  -3   51.76    2.15
  -4   3   3   48.32    1.96
  -4   3   3   49.60    2.17
   3  -3  -3    9.33    0.81
  -3   3   3    7.75    0.62
  -3   3   3    8.04    0.74
   2  -3  -3  117.40    3.78
   2  -3  -3  118.66    4.00
  -2   3   3  116.47    3.98
  -2   3   3  123.89    3.83
  -2   3   3  115.66    3.79
   1  -3  -3  114.19    3.78
   1  -3  -3  118.10    3.67
  -1   3   3  114.08    3.75
  -1   3   3  107.28    3.64
   0  -3  -3    4.43    0.36
   0  -3  -3    3.64    0.36
   0   3   3    3.62    0.34
   0   3   3    4.17    0.37
  -1  -3  -3   25.35    1.00
  -1  -3  -3   25.13    1.03
   1   3   3   23.20    0.93
   1   3   3   24.50    0.97
  -2  -3  -3   38.95    1.38
  -2  -3  -3   37.51    1.49
   2   3   3   36.58    1.40
   2   3   3   36.92    1.35
  -3  -3  -3   18.05    0.80
  -3  -3  -3   17.44    0.96
   3   3   3   17.93    0.91
   3   3   3   18.16    0.85
  -4  -3  -3    5.36    0.49
  -4  -3  -3    4.81    0.65
   4   3   3    5.88    0.59
   4   3   3    5.44    0.58
  -5  -3  -3   19.54    1.40
  -5  -3  -3   19.91    1.06
   5   3   3   18.24    1.23
   5   3   3   20.30    1.29
  -6  -3  -3   16.52    1.44
   6   3   3   18.28    1.38
   6   3   3   17.65    1.38
  -7  -3  -3    7.87    1.44
   7   3   3    5.37    1.09
   7   3   3    6.42    1.29
  -8  -3  -3    6.68    1.75
   8   3   3    1.98    1.60
   8   3   3    3.53    1.40
   7  -4  -3    6.18    1.72
  -7   4   3    5.63    1.71
  -7   4   3    6.60    1.80
   6  -4  -3   76.00    3.60
  -6   4   3   81.46    3.45
  -6   4   3   84.90    3.73
   5  -4  -3    4.96    1.01
  -5   4   3    4.12    1.01
  -5   4   3    5.29    0.98
   4  -4  -3   45.08    2.11
  -4   4   3   45.45    2.13
  -4   4   3   46.29    2.01
   3  -4  -3   44.42    1.95
  -3   4   3   42.88    1.94
  -3   4   3   48.41    1.91
   2  -4  -3    1.57    0.44
  -2   4   3    1.84    0.43
  -2   4   3    0.13    0.38
   1  -4  -3    3.22    0.44
   1  -4  -3    4.30    0.36
  -1   4   3    3.65    0.45
  -1   4   3    3.20    0.47
   0  -4  -3   21.69    0.94
   0  -4  -3   21.26    1.00
   0   4   3   21.84    0.99
   0   4   3   20.16    0.90
  -1  -4  -3   64.25    2.28
  -1  -4  -3   64.69    2.30
   1   4   3   61.80    2.12
   1   4   3   62.77    2.20
  -2  -4  -3    0.52    0.33
  -2  -4  -3    0.66    0.34
   2   4   3    1.34    0.34
   2   4   3    0.65    0.26
  -3  -4  -3   11.56    0.88
  -3  -4  -3   14.89    0.83
   3   4   3   12.09    0.84
   3   4   3   12.74    0.68
  -4  -4  -3   26.90    1.20
  -4  -4  -3   24.10    1.38
   4   4   3   24.51    1.13
   4   4   3   23.59    1.28
  -5  -4  -3   15.61    0.97
  -5  -4  -3   14.96    1.23
   5   4   3   14.80    1.15
   5   4   3   16.48    1.03
  -6  -4  -3   -0.08    0.89
   6   4   3    1.15    0.84
   6   4   3   -0.65    0.72
  -7  -4  -3   19.63    1.91
   7   4   3   23.26    1.78
  -8  -4  -3   35.00    2.64
   8   4   3   31.96    2.41
   6  -5  -3    1.91    1.32
  -6   5   3    3.83    1.46
  -6   5   3    0.02    1.40
   5  -5  -3   29.26    1.97
  -5   5   3   29.49    1.90
  -5   5   3   23.63    1.85
   4  -5  -3   52.49    2.51
  -4   5   3   52.51    2.54
  -4   5   3   56.37    2.47
   3  -5  -3    2.34    0.70
  -3   5   3    3.28    0.78
  -3   5   3    3.07    0.71
   2  -5  -3   84.12    3.09
  -2   5   3   84.94    3.02
  -2   5   3   76.87    3.01
   1  -5  -3   27.01    1.40
   1  -5  -3   28.55    1.13
  -1   5   3   26.91    1.23
  -1   5   3   27.45    1.38
   0  -5  -3    0.37    0.38
   0  -5  -3    0.34    0.31
   0   5   3    0.42    0.44
   0   5   3    0.41    0.33
  -1  -5  -3    2.95    0.50
  -1  -5  -3    2.93    0.43
   1   5   3    2.97    0.51
   1   5   3    3.07    0.35
  -2  -5  -3    3.43    0.52
  -2  -5  -3    4.82    0.63
   2   5   3    4.05    0.56
  -3  -5  -3   25.61    1.37
  -3  -5  -3   26.73    1.34
   3   5   3   26.51    1.31
   3   5   3   25.13    1.01
  -4  -5  -3    5.00    0.66
  -4  -5  -3    4.36    0.72
   4   5   3    4.21    0.68
   4   5   3    4.72    0.54
  -5  -5  -3   17.20    1.14
  -5  -5  -3   15.84    1.38
   5   5   3   14.96    1.22
  -6  -5  -3   17.30    1.54
   6   5   3   20.00    1.53
  -7  -5  -3    6.83    1.56
   7   5   3    8.36    1.34
   5  -6  -3    4.99    1.42
  -5   6   3    4.36    1.48
  -5   6   3    7.14    1.45
   4  -6  -3   21.98    1.78
  -4   6   3   21.23    1.70
  -4   6   3   18.03    1.48
   3  -6  -3   35.87    1.97
  -3   6   3   31.59    1.86
  -3   6   3   34.67    2.05
   2  -6  -3   10.88    1.06
  -2   6   3    8.88    1.09
  -2   6   3    9.75    0.92
   1  -6  -3   -0.28    0.51
   1  -6  -3   -0.53    0.41
  -1   6   3   -0.41    0.59
  -1   6   3    0.54    0.50
   0  -6  -3   44.07    1.74
   0  -6  -3   42.28    1.91
   0   6   3   41.87    1.65
   0   6   3   42.87    1.88
  -1  -6  -3   37.89    1.65
  -1  -6  -3   38.48    1.74
   1   6   3   37.68    1.67
   1   6   3   36.88    1.40
  -2  -6  -3   -0.56    0.58
  -2  -6  -3    0.04    0.48
   2   6   3    0.49    0.55
  -3  -6  -3    3.13    0.72
  -3  -6  -3    2.77    0.65
   3   6   3    3.34    0.64
  -4  -6  -3   18.16    1.27
  -4  -6  -3   16.74    1.39
   4   6   3   17.16    1.26
  -5  -6  -3   19.19    1.55
  -5  -6  -3   20.85    1.46
   5   6   3   20.43    1.48
  -6  -6  -3   -0.82    1.10
   6   6   3    0.75    0.92
  -7  -6  -3   25.96    2.26
   7   6   3   26.23    2.01
   5  -7  -3   11.96    1.80
  -5   7   3   14.53    1.82
  -5   7   3   16.45    2.15
   4  -7  -3   36.33    2.40
  -4   7   3   33.85    2.42
  -4   7   3   42.68    2.55
   3  -7  -3   -0.27    0.97
  -3   7   3    1.75    1.00
  -3   7   3    1.34    1.18
   2  -7  -3   38.15    2.16
  -2   7   3   40.71    2.03
  -2   7   3   37.33    2.17
   1  -7  -3   14.65    1.28
  -1   7   3   17.23    1.35
  -1   7   3   15.43    1.11
   0  -7  -3    0.08    0.57
   0  -7  -3    1.22    0.64
   0   7   3    1.71    0.58
   0   7   3    0.44    0.63
  -1  -7  -3    0.26    0.61
  -1  -7  -3   -0.01    0.61
   1   7   3    0.34    0.67
  -2  -7  -3   10.56    1.01
  -2  -7  -3   11.38    1.13
   2   7   3   11.11    1.05
  -3  -7  -3   31.84    1.78
  -3  -7  -3   32.67    1.90
   3   7   3   33.05    1.82
  -4  -7  -3   -0.17    0.92
  -4  -7  -3    2.16    0.87
   4   7   3    0.22    0.79
  -5  -7  -3   14.09    1.40
  -5  -7  -3   10.71    1.47
   5   7   3   11.39    1.28
  -6  -7  -3   21.15    1.90
   6   7   3   21.59    1.81
   4  -8  -3    8.84    1.71
   4  -8  -3    7.96    1.67
  -4   8   3    7.26    1.88
   3  -8  -3   17.93    1.76
  -3   8   3   17.31    1.85
  -3   8   3   14.15    1.56
   2  -8  -3   10.21    1.37
  -2   8   3   11.41    1.26
  -2   8   3   10.13    1.37
   1  -8  -3   -0.01    0.88
  -1   8   3    0.33    0.95
   0  -8  -3   25.47    1.76
   0  -8  -3   24.92    1.59
   0   8   3   26.28    1.73
  -1  -8  -3   15.34    1.41
  -1  -8  -3   17.01    1.30
   1   8   3   16.50    1.37
  -2  -8  -3    0.15    0.84
  -2  -8  -3    0.40    0.90
   2   8   3    1.32    0.84
  -3  -8  -3   -0.99    1.01
  -3  -8  -3    2.36    1.04
   3   8   3    1.19    0.93
  -4  -8  -3   10.11    1.58
  -4  -8  -3   12.82    1.44
   4   8   3   11.26    1.32
  -5  -8  -3   20.17    1.83
  -5  -8  -3   23.03    1.99
   5   8   3   19.41    1.71
  -6  -8  -3    1.22    1.38
   6   8   3   -0.88    1.33
   2  -9  -3   12.11    1.70
  -2   9   3   15.31    1.89
   1  -9  -3   12.33    1.56
  -1   9   3   13.18    1.68
   0  -9  -3    4.65    1.20
   0   9   3    3.35    1.21
  -1  -9  -3    1.21    1.04
  -1  -9  -3    1.39    1.17
   1   9   3    0.01    1.10
  -2  -9  -3   12.75    1.63
  -2  -9  -3   12.73    1.42
   2   9   3   16.73    1.59
  -3  -9  -3   24.79    2.09
  -3  -9  -3   23.54    1.91
   3   9   3   26.45    2.00
  -4  -9  -3   -1.47    1.60
  -4  -9  -3    0.24    1.28
   4   9   3    1.12    1.37
  -5  -9  -3    5.10    1.64
  -5  -9  -3    6.40    1.93
   5   9   3    7.62    1.61
   0 -10  -3    9.93    1.71
   0  10   3   10.91    1.83
  -1 -10  -3   11.07    1.68
   1  10   3   11.47    1.60
  -2 -10  -3    1.93    1.43
  -2 -10  -3    1.68    1.50
   2  10   3    2.20    1.51
  -3 -10  -3    3.51    1.71
  -3 -10  -3   -0.24    1.53
   3  10   3    2.25    1.55
   3   8  -4    4.47    1.33
   3   8  -4    4.76    1.48
  -3  -8   4    6.05    1.55
   2   8  -4   30.37    2.13
   2   8  -4   29.46    2.11
  -2  -8   4   28.27    2.25
   1   8  -4   13.79    1.58
   1   8  -4   11.92    1.55
  -1  -8   4   12.60    1.71
   0   8  -4   10.39    1.71
   0  -8   4   13.78    1.61
  -1   8  -4   41.42    2.59
   1  -8   4   41.29    2.64
   5   7  -4    1.37    1.27
  -5  -7   4    0.21    1.49
   4   7  -4   28.22    1.97
   4   7  -4   23.29    1.91
  -4  -7   4   26.02    2.08
   3   7  -4    7.77    1.26
   3   7  -4   10.65    1.27
  -3  -7   4   11.61    1.42
   2   7  -4    3.86    1.08
   2   7  -4    3.65    1.03
  -2  -7   4    1.09    1.10
   1   7  -4   23.08    1.65
   1   7  -4   22.89    1.68
  -1  -7   4   23.66    1.85
   0   7  -4   48.17    2.48
   0   7  -4   45.29    2.44
   0  -7   4   48.22    2.59
  -1   7  -4    2.87    1.08
   1  -7   4    2.13    1.01
  -2   7  -4   50.73    2.80
   2  -7   4   49.80    2.82
  -3   7  -4   60.81    3.28
   3  -7   4   59.58    3.27
   3  -7   4   54.02    3.22
   6   6  -4    7.40    1.48
  -6  -6   4    9.75    1.64
   5   6  -4    7.76    1.25
  -5  -6   4   10.19    1.46
   4   6  -4    5.93    1.09
   4   6  -4    7.52    1.08
  -4  -6   4   10.03    1.37
   3   6  -4    4.27    0.90
   3   6  -4    4.70    0.95
  -3  -6   4    6.00    0.95
   2   6  -4   52.49    2.39
   2   6  -4   56.02    2.51
  -2  -6   4   55.78    2.59
   1   6  -4   27.37    1.67
   1   6  -4   28.16    1.72
  -1  -6   4   28.17    1.84
   0   6  -4   28.41    1.70
   0   6  -4   29.68    1.75
   0  -6   4   30.47    1.61
   0  -6   4   29.85    1.86
  -1   6  -4   50.56    2.28
  -1   6  -4   51.76    2.33
   1  -6   4   48.93    2.26
   1  -6   4   48.12    2.40
  -2   6  -4   15.24    1.40
   2  -6   4   14.15    1.46
   2  -6   4   16.19    1.37
  -3   6  -4    5.34    1.30
   3  -6   4    7.62    1.29
   3  -6   4    6.40    1.33
  -4   6  -4   59.98    3.34
   4  -6   4   68.58    3.39
   4  -6   4   75.19    3.52
   6   5  -4    2.42    1.08
  -6  -5   4    6.23    1.26
   5   5  -4    1.97    0.90
  -5  -5   4    2.53    0.98
   4   5  -4   49.34    2.16
   4   5  -4   47.46    2.30
  -4  -5   4   50.26    2.37
   3   5  -4   19.20    1.24
   3   5  -4   15.43    1.28
  -3  -5   4   17.77    1.37
   2   5  -4    0.78    0.60
   2   5  -4    0.17    0.59
  -2  -5   4    0.86    0.52
  -2  -5   4    0.10    0.58
   1   5  -4   45.33    1.91
   1   5  -4   43.87    1.94
  -1  -5   4   43.07    1.83
  -1  -5   4   42.56    2.03
   0   5  -4  112.57    4.03
   0   5  -4  112.40    3.92
   0  -5   4  111.79    4.09
   0  -5   4  114.36    3.89
  -1   5  -4    6.60    0.84
  -1   5  -4    6.29    0.84
   1  -5   4    5.80    0.89
   1  -5   4    5.54    0.76
  -2   5  -4   80.74    3.27
  -2   5  -4   84.91    3.29
   2  -5   4   91.35    3.36
   2  -5   4   89.63    3.37
  -3   5  -4   82.99    3.43
   3  -5   4   86.43    3.45
   3  -5   4   86.87    3.41
  -4   5  -4    0.09    1.04
   4  -5   4    1.36    1.00
   4  -5   4    0.90    1.12
  -5   5  -4   18.70    1.96
   5  -5   4   21.68    1.98
   7   4  -4    1.15    1.25
  -7  -4   4    0.26    1.34
   6   4  -4    3.90    1.13
  -6  -4   4    1.28    1.00
   5   4  -4   16.01    1.15
  -5  -4   4   16.28    1.39
   4   4  -4   12.23    1.13
   4   4  -4   12.57    0.90
  -4  -4   4   11.23    0.82
  -4  -4   4   13.19    1.16
   3   4  -4    8.68    0.75
   3   4  -4    7.84    0.84
  -3  -4   4    9.10    0.69
  -3  -4   4    8.74    0.92
   2   4  -4  103.08    3.77
   2   4  -4  107.66    3.47
  -2  -4   4  104.12    3.77
  -2  -4   4  102.04    3.52
   1   4  -4   27.44    1.24
   1   4  -4   28.74    1.35
  -1  -4   4   27.43    1.43
  -1  -4   4   24.11    1.28
   0   4  -4   64.25    2.43
   0   4  -4   64.32    2.55
   0  -4   4   71.00    2.64
   0  -4   4   70.71    2.49
  -1   4  -4   83.57    3.09
  -1   4  -4   88.01    3.17
   1  -4   4   90.19    3.24
   1  -4   4   90.55    3.18
  -2   4  -4   36.22    1.75
  -2   4  -4   36.52    1.74
   2  -4   4   39.13    1.76
   2  -4   4   37.35    1.80
  -3   4  -4   16.88    1.28
  -3   4  -4   14.22    1.10
   3  -4   4   15.61    1.30
   3  -4   4   15.75    1.15
  -4   4  -4  119.51    4.50
   4  -4   4  124.10    4.41
   4  -4   4  127.52    4.67
  -5   4  -4   31.27    2.18
   5  -4   4   30.78    2.19
  -6   4  -4   18.33    2.02
   6  -4   4   21.95    2.12
   7   3  -4   12.47    1.48
  -7  -3   4   13.74    1.56
   6   3  -4   11.02    1.28
  -6  -3   4   10.74    1.18
  -6  -3   4   11.97    1.32
   5   3  -4    1.35    0.73
   5   3  -4    2.38    0.59
  -5  -3   4    2.19    0.75
  -5  -3   4    0.82    0.72
   4   3  -4   44.42    1.69
   4   3  -4   41.88    2.01
  -4  -3   4   47.67    1.83
  -4  -3   4   42.03    2.00
   3   3  -4   29.25    1.49
   3   3  -4   32.31    1.29
  -3  -3   4   33.76    1.38
  -3  -3   4   31.81    1.53
   2   3  -4   14.20    0.79
   2   3  -4   14.03    1.00
  -2  -3   4   15.79    1.02
  -2  -3   4   14.36    0.89
   1   3  -4   66.34    2.19
   1   3  -4   64.62    2.38
  -1  -3   4   60.53    2.30
  -1  -3   4   64.37    2.40
   0   3  -4  204.42    6.67
   0   3  -4  209.23    6.37
   0  -3   4  198.98    6.60
   0  -3   4  202.17    6.57
  -1   3  -4   16.30    0.91
  -1   3  -4   17.40    0.93
   1  -3   4   14.53    0.96
   1  -3   4   17.89    1.01
  -2   3  -4  155.48    5.23
  -2   3  -4  165.06    5.39
   2  -3   4  161.44    5.42
   2  -3   4  161.23    5.33
  -3   3  -4  103.87    3.82
  -3   3  -4  113.10    3.84
   3  -3   4  109.39    4.00
   3  -3   4  114.12    3.83
  -4   3  -4    0.48    0.74
   4  -3   4    1.62    0.67
   4  -3   4    1.81    0.83
  -5   3  -4   37.69    2.12
   5  -3   4   31.78    2.06
  -6   3  -4   59.15    2.90
   6  -3   4   49.49    3.04
   7   2  -4    1.29    1.13
  -7  -2   4    1.28    1.25
  -7  -2   4    1.97    1.27
   6   2  -4    7.02    1.03
  -6  -2   4    5.82    1.03
  -6  -2   4    6.98    1.06
   5   2  -4   29.61    1.63
   5   2  -4   32.06    1.38
  -5  -2   4   29.54    1.64
  -5  -2   4   30.60    1.72
   4   2  -4    9.72    0.90
   4   2  -4   10.08    0.63
  -4  -2   4    7.75    0.82
  -4  -2   4    8.53    0.80
   3   2  -4   24.42    0.97
   3   2  -4   23.93    1.22
  -3  -2   4   24.32    1.26
  -3  -2   4   23.68    1.14
   2   2  -4  159.82    5.48
   2   2  -4  169.13    5.08
  -2  -2   4  167.17    5.36
  -2  -2   4  163.27    5.43
   1   2  -4   26.27    0.97
   1   2  -4   24.34    1.11
  -1  -2   4   24.82    1.12
  -1  -2   4   25.81    1.11
   0   2  -4   59.15    2.07
   0   2  -4   53.82    1.89
   0  -2   4   56.02    2.02
   0  -2   4   56.14    2.03
  -1   2  -4  136.75    4.49
  -1   2  -4  133.95    4.30
   1  -2   4  133.35    4.48
   1  -2   4  135.90    4.42
  -2   2  -4  119.39    3.98
  -2   2  -4  115.33    3.83
   2  -2   4  116.80    4.02
   2  -2   4  116.17    3.88
  -3   2  -4   15.88    0.97
  -3   2  -4   14.33    0.99
   3  -2   4   13.30    0.85
   3  -2   4   13.95    1.09
  -4   2  -4  175.54    5.87
   4  -2   4  179.11    5.80
   4  -2   4  177.98    6.11
  -5   2  -4   56.23    2.50
   5  -2   4   57.12    2.65
  -6   2  -4   26.01    1.82
   6  -2   4   23.10    1.85
  -7   2  -4   47.37    2.88
   7  -2   4   47.41    3.03
   7   1  -4   14.51    1.66
   7   1  -4   12.86    1.41
  -7  -1   4   12.61    1.56
   6   1  -4   23.77    1.47
   6   1  -4   21.40    1.52
  -6  -1   4   23.52    1.66
  -6  -1   4   22.91    1.65
   5   1  -4    1.24    0.58
   5   1  -4    1.12    0.49
  -5  -1   4    1.03    0.59
  -5  -1   4    0.32    0.67
   4   1  -4   50.42    2.02
   4   1  -4   52.23    1.72
  -4  -1   4   42.40    1.99
  -4  -1   4   49.82    2.06
   3   1  -4   67.22    2.35
  -3  -1   4   53.32    2.30
  -3  -1   4   66.85    2.30
   2   1  -4    7.05    0.57
  -2  -1   4    6.41    0.54
  -2  -1   4    7.02    0.57
   1   1  -4  163.02    5.24
  -1  -1   4  156.79    5.17
  -1  -1   4  160.04    5.17
   0   1  -4  196.16    6.41
   0   1  -4  203.37    6.06
   0  -1   4  196.98    6.31
   0  -1   4  198.53    6.37
  -1   1  -4    0.12    0.23
  -1   1  -4    0.80    0.24
   1  -1   4    0.59    0.27
   1  -1   4    0.77    0.24
  -2   1  -4  240.82    7.38
  -2   1  -4  225.09    7.65
   2  -1   4  250.29    7.47
   2  -1   4  234.16    7.66
  -3   1  -4  102.85    3.34
  -3   1  -4   94.07    3.26
   3  -1   4   93.00    3.14
   3  -1   4   92.46    3.41
  -4   1  -4    1.04    0.52
  -4   1  -4    0.91    0.54
   4  -1   4    1.20    0.57
   4  -1   4    0.54    0.43
  -5   1  -4   48.21    2.16
   5  -1   4   45.69    2.29
  -6   1  -4   81.18    3.29
   6  -1   4   78.80    3.51
  -7   1  -4    3.22    1.40
   7  -1   4    0.34    1.38
   7   0  -4    0.18    1.28
  -7   0   4    0.28    1.31
   6   0  -4    4.41    1.04
   6   0  -4    5.00    0.85
  -6   0   4    5.97    0.81
  -6   0   4    4.87    1.04
   5   0  -4   38.24    1.74
  -5   0   4   37.04    1.88
  -5   0   4   38.79    1.96
  -5   0   4   38.24    1.56
   4   0  -4   31.91    1.39
  -4   0   4   29.13    1.18
  -4   0   4   30.23    1.49
  -4   0   4   31.30    1.49
   3   0  -4   13.81    0.78
  -3   0   4   15.34    0.90
  -3   0   4   13.69    0.87
   2   0  -4  289.77    9.27
  -2   0   4  292.11    9.23
  -2   0   4  290.24    9.23
   1   0  -4   90.01    3.09
  -1   0   4   92.29    3.08
  -1   0   4   93.65    3.06
   0   0  -4   45.94    1.44
   0   0  -4   45.50    1.62
   0   0   4   46.30    1.55
   0   0   4   43.50    1.44
   0   0   4   42.75    1.61
  -1   0  -4  300.83    9.87
  -1   0  -4  326.32    9.66
  -1   0  -4  322.18   10.11
   1   0   4  319.31   10.04
   1   0   4  322.99    9.87
  -2   0  -4  147.62    4.83
  -2   0  -4  149.43    4.63
   2   0   4  142.32    4.81
  -3   0  -4   38.22    1.49
  -3   0  -4   37.91    1.53
   3   0   4   36.12    1.57
  -4   0  -4  218.42    7.19
  -4   0  -4  237.87    7.44
   4   0   4  222.98    7.48
  -5   0  -4   41.30    1.95
  -5   0  -4   42.54    1.98
   5   0   4   39.64    2.02
  -6   0  -4   41.15    2.18
  -6   0  -4   39.44    2.14
   6   0   4   40.77    2.34
  -7   0  -4   44.49    2.59
   7   0   4   43.09    2.66
   7  -1  -4   18.44    1.86
  -7   1   4   18.08    1.82
   6  -1  -4   18.19    1.49
  -6   1   4   16.26    1.21
  -6   1   4   15.49    1.41
   5  -1  -4    5.72    0.63
   5  -1  -4    6.12    0.90
  -5   1   4    7.33    0.95
  -5   1   4    5.92    0.69
   4  -1  -4   37.48    1.54
   4  -1  -4   37.85    1.74
  -4   1   4   38.04    1.43
   3  -1  -4   53.07    2.08
   3  -1  -4   56.25    1.98
  -3   1   4   53.59    1.79
  -3   1   4   54.57    2.08
   2  -1  -4    8.12    0.52
  -2   1   4    7.80    0.60
  -2   1   4    8.91    0.64
   1  -1  -4  117.99    3.92
  -1   1   4  120.37    3.92
  -1   1   4  121.71    3.95
   0  -1  -4  324.73   10.05
   0   1   4  323.45    9.89
   0   1   4  307.38    9.54
   0   1   4  315.02    9.97
   0   1   4  316.24    9.54
  -1  -1  -4   13.54    0.67
  -1  -1  -4   12.00    0.57
  -1  -1  -4   12.12    0.50
   1   1   4   12.15    0.63
  -2  -1  -4  294.71    8.98
  -2  -1  -4  298.00    9.37
   2   1   4  287.41    9.29
  -3  -1  -4  168.68    5.61
  -3  -1  -4  174.26    5.41
   3   1   4  166.75    5.59
  -4  -1  -4    0.26    0.47
  -4  -1  -4    1.33    0.48
   4   1   4    1.79    0.56
  -5  -1  -4   75.82    2.88
  -5  -1  -4   75.20    2.95
   5   1   4   75.55    3.01
  -6  -1  -4  107.64    4.04
  -6  -1  -4  104.20    3.88
   6   1   4  102.23    4.07
  -7  -1  -4    3.44    1.34
  -7  -1  -4    3.11    1.06
   7   1   4    2.39    1.27
   7  -2  -4    1.25    1.36
  -7   2   4    0.27    1.38
   6  -2  -4    7.61    1.22
  -6   2   4    3.87    1.14
  -6   2   4    7.12    1.03
   5  -2  -4   44.08    1.77
   5  -2  -4   48.25    2.23
  -5   2   4   47.19    2.21
  -5   2   4   44.14    1.92
   4  -2  -4   33.44    1.64
   4  -2  -4   32.31    1.34
  -4   2   4   35.33    1.39
  -4   2   4   34.04    1.64
   3  -2  -4   42.05    1.75
   3  -2  -4   40.92    1.52
  -3   2   4   42.36    1.48
  -3   2   4   40.17    1.74
   2  -2  -4  240.78    7.60
   2  -2  -4  233.40    7.50
  -2   2   4  237.61    7.19
  -2   2   4  233.07    7.59
   1  -2  -4   24.70    0.97
   1  -2  -4   23.96    1.01
  -1   2   4   22.49    0.90
  -1   2   4   24.70    1.03
   0  -2  -4   46.67    1.63
   0  -2  -4   44.06    1.57
   0   2   4   43.44    1.60
   0   2   4   44.68    1.49
  -1  -2  -4  232.23    7.10
  -1  -2  -4  233.26    7.31
   1   2   4  212.62    7.09
   1   2   4  235.49    6.98
   1   2   4  224.27    7.20
  -2  -2  -4  122.45    3.91
  -2  -2  -4  123.83    4.11
   2   2   4  122.26    4.03
  -3  -2  -4   25.82    1.13
  -3  -2  -4   25.56    1.19
   3   2   4   26.44    1.18
  -4  -2  -4  251.00    7.83
  -4  -2  -4  245.66    7.51
   4   2   4  215.44    7.68
  -5  -2  -4   44.74    2.03
  -5  -2  -4   42.64    1.93
   5   2   4   42.12    1.97
  -6  -2  -4   38.59    2.22
  -6  -2  -4   37.14    2.02
   6   2   4   40.16    2.15
  -7  -2  -4   45.16    2.81
  -7  -2  -4   53.01    2.58
   7   2   4   46.61    2.74
  -8  -2  -4   14.43    1.70
   8   2   4   12.86    1.81
   7  -3  -4   20.22    1.96
  -7   3   4   21.59    2.17
   6  -3  -4   21.66    1.78
  -6   3   4   20.60    1.48
  -6   3   4   19.20    1.80
   5  -3  -4    3.39    0.85
  -5   3   4    1.86    0.77
  -5   3   4    2.93    0.85
   4  -3  -4   33.99    1.36
   4  -3  -4   38.67    1.82
  -4   3   4   37.85    1.54
  -4   3   4   34.80    1.79
   3  -3  -4   74.51    2.77
   3  -3  -4   69.85    2.45
  -3   3   4   74.36    2.76
  -3   3   4   75.22    2.51
   2  -3  -4   15.26    0.73
   2  -3  -4   15.81    0.93
  -2   3   4   15.84    0.91
  -2   3   4   16.00    0.79
   1  -3  -4  155.14    5.02
   1  -3  -4  163.03    4.96
  -1   3   4  142.20    4.82
  -1   3   4  152.52    5.00
   0  -3  -4  377.45   11.74
   0  -3  -4  388.35   11.84
   0   3   4  364.53   11.37
   0   3   4  368.28   11.74
  -1  -3  -4    0.27    0.23
  -1  -3  -4    0.36    0.23
   1   3   4    0.03    0.24
   1   3   4    0.60    0.25
  -2  -3  -4  281.53    8.88
  -2  -3  -4  275.46    8.62
   2   3   4  272.40    8.69
   2   3   4  272.79    8.50
  -3  -3  -4  109.05    3.57
  -3  -3  -4  118.34    3.90
   3   3   4  114.80    3.74
   3   3   4  101.83    3.58
   3   3   4  116.38    3.72
  -4  -3  -4    1.51    0.54
   4   3   4    1.49    0.46
   4   3   4    1.21    0.47
  -5  -3  -4   62.85    2.52
  -5  -3  -4   65.48    2.70
   5   3   4   62.50    2.52
  -6  -3  -4  107.12    3.97
  -6  -3  -4  108.17    4.23
   6   3   4  108.07    4.05
  -7  -3  -4   -0.52    1.21
   7   3   4    3.38    1.26
   7   3   4    2.40    1.06
  -8  -3  -4   47.23    3.20
   8   3   4   52.60    3.09
   8   3   4   57.06    3.47
   6  -4  -4    2.96    1.15
  -6   4   4    1.41    1.22
  -6   4   4    1.93    1.16
   5  -4  -4   46.30    2.34
  -5   4   4   43.21    2.13
  -5   4   4   44.57    2.40
   4  -4  -4   38.66    1.94
  -4   4   4   36.42    1.96
  -4   4   4   36.20    1.75
   3  -4  -4   47.74    2.00
  -3   4   4   41.11    1.82
  -3   4   4   44.71    1.94
   2  -4  -4  174.70    5.34
   2  -4  -4  170.95    5.61
  -2   4   4  145.30    5.52
  -2   4   4  177.41    5.42
   1  -4  -4   28.00    1.24
   1  -4  -4   26.76    1.08
  -1   4   4   26.34    1.21
  -1   4   4   24.87    1.17
   0  -4  -4   19.41    0.92
   0  -4  -4   20.65    0.98
   0   4   4   19.31    0.92
   0   4   4   20.01    0.95
  -1  -4  -4  206.84    6.77
  -1  -4  -4  211.03    6.70
   1   4   4  211.71    6.62
   1   4   4  202.26    6.50
  -2  -4  -4  169.23    5.59
  -2  -4  -4  163.68    5.44
   2   4   4  169.60    5.35
   2   4   4  168.17    5.37
  -3  -4  -4   33.11    1.33
  -3  -4  -4   32.62    1.56
   3   4   4   35.77    1.36
   3   4   4   32.56    1.47
  -4  -4  -4  256.73    8.57
  -4  -4  -4  256.58    8.18
   4   4   4  267.08    8.28
   4   4   4  254.81    8.20
  -5  -4  -4   26.70    1.67
  -5  -4  -4   27.16    1.28
   5   4   4   25.00    1.53
   5   4   4   27.81    1.48
  -6  -4  -4   27.43    1.93
   6   4   4   28.27    1.68
   6   4   4   28.99    1.84
  -7  -4  -4   39.33    2.60
   7   4   4   38.62    2.48
   7   4   4   40.89    2.44
   6  -5  -4   13.88    1.77
  -6   5   4   12.67    1.79
  -6   5   4   10.54    1.69
   5  -5  -4    2.08    1.08
  -5   5   4    4.14    1.19
  -5   5   4    3.02    1.15
   4  -5  -4   18.92    1.47
  -4   5   4   22.19    1.48
  -4   5   4   19.18    1.45
   3  -5  -4   53.16    2.33
  -3   5   4   52.09    2.26
  -3   5   4   48.49    2.26
   2  -5  -4   14.69    1.10
   2  -5  -4   15.48    0.77
  -2   5   4   15.66    1.06
  -2   5   4   12.61    1.05
   1  -5  -4  142.99    4.99
   1  -5  -4  149.20    4.81
  -1   5   4  150.07    4.87
  -1   5   4  146.00    4.89
   0  -5  -4  253.90    8.04
   0  -5  -4  249.54    8.09
   0   5   4  241.45    7.93
   0   5   4  252.62    7.84
  -1  -5  -4    7.51    0.71
  -1  -5  -4    8.35    0.71
   1   5   4    8.81    0.58
   1   5   4    7.81    0.67
  -2  -5  -4  186.58    6.22
  -2  -5  -4  179.99    6.11
   2   5   4  192.74    5.92
   2   5   4  183.43    5.97
  -3  -5  -4   88.22    3.07
  -3  -5  -4   85.36    3.20
   3   5   4   85.49    2.89
   3   5   4   83.29    3.05
  -4  -5  -4    2.67    0.60
  -4  -5  -4    3.14    0.68
   4   5   4    3.25    0.63
   4   5   4    2.79    0.55
  -5  -5  -4   55.52    2.64
  -5  -5  -4   56.09    2.26
   5   5   4   60.74    2.26
   5   5   4   58.67    2.46
  -6  -5  -4  115.11    4.60
   6   5   4  119.31    4.35
  -7  -5  -4    1.53    1.34
   7   5   4    2.65    1.18
   5  -6  -4   56.44    3.09
  -5   6   4   57.45    3.20
  -5   6   4   58.29    3.20
   4  -6  -4   23.49    1.76
  -4   6   4   24.81    1.81
  -4   6   4   21.77    1.71
   3  -6  -4   37.06    2.02
  -3   6   4   35.05    2.12
  -3   6   4   37.03    1.99
   2  -6  -4   98.90    3.75
  -2   6   4   95.37    3.69
  -2   6   4  100.89    3.61
   1  -6  -4   23.87    1.13
   1  -6  -4   22.31    1.40
  -1   6   4   23.57    1.43
  -1   6   4   22.28    1.30
   0  -6  -4    3.61    0.65
   0  -6  -4    4.00    0.57
   0   6   4    4.33    0.54
   0   6   4    4.49    0.69
  -1  -6  -4  150.14    5.09
  -1  -6  -4  151.96    5.13
   1   6   4  146.86    4.83
   1   6   4  149.23    4.98
  -2  -6  -4  141.57    4.86
  -2  -6  -4  142.76    4.83
   2   6   4  140.08    4.67
   2   6   4  133.21    4.46
  -3  -6  -4   43.90    2.04
  -3  -6  -4   46.50    2.09
   3   6   4   45.53    1.99
  -4  -6  -4  206.51    6.69
  -4  -6  -4  193.33    6.89
   4   6   4  200.16    6.60
  -5  -6  -4   10.42    1.22
  -5  -6  -4   11.35    1.07
   5   6   4   12.28    1.22
  -6  -6  -4   18.38    1.79
   6   6   4   21.62    1.72
  -7  -6  -4   25.54    2.29
   7   6   4   29.09    2.15
   5  -7  -4    4.39    1.63
  -5   7   4    4.68    1.73
  -5   7   4    5.19    1.87
   4  -7  -4   16.62    1.67
  -4   7   4   15.30    1.81
  -4   7   4   14.13    1.62
   3  -7  -4   47.08    2.46
  -3   7   4   36.15    2.38
  -3   7   4   41.06    2.32
   2  -7  -4    6.61    1.00
  -2   7   4    5.09    0.95
  -2   7   4    5.21    1.14
   1  -7  -4  126.42    4.67
  -1   7   4  131.63    4.57
  -1   7   4  124.67    4.42
   0  -7  -4  139.06    4.68
   0  -7  -4  133.35    4.87
   0   7   4  135.41    4.55
   0   7   4  135.96    4.75
  -1  -7  -4    4.39    0.70
  -1  -7  -4    4.08    0.77
   1   7   4    4.21    0.55
   1   7   4    3.80    0.75
  -2  -7  -4   89.33    3.47
  -2  -7  -4   95.41    3.59
   2   7   4   90.63    3.41
  -3  -7  -4   71.81    2.95
  -3  -7  -4   64.51    2.91
   3   7   4   72.90    2.85
  -4  -7  -4   14.40    1.39
  -4  -7  -4   14.49    1.42
   4   7   4   14.11    1.30
  -5  -7  -4   39.69    2.49
  -5  -7  -4   48.89    2.44
   5   7   4   43.16    2.37
  -6  -7  -4  115.55    4.84
   6   7   4  113.31    4.43
   4  -8  -4   11.68    1.90
  -4   8   4   11.98    1.94
  -4   8   4   14.76    1.89
   3  -8  -4   22.96    2.03
  -3   8   4   24.72    2.13
  -3   8   4   24.88    1.91
   2  -8  -4   62.58    3.08
  -2   8   4   62.19    2.89
  -2   8   4   65.86    3.09
   1  -8  -4   10.89    1.31
  -1   8   4   10.82    1.36
  -1   8   4    9.83    1.10
   0  -8  -4    5.52    1.02
   0  -8  -4    5.87    0.85
   0   8   4    4.94    0.99
  -1  -8  -4  108.60    4.14
  -1  -8  -4  105.21    4.03
   1   8   4  110.92    4.06
  -2  -8  -4   57.82    2.64
  -2  -8  -4   62.70    2.86
   2   8   4   60.17    2.72
  -3  -8  -4   50.57    2.48
  -3  -8  -4   44.99    2.60
   3   8   4   51.98    2.51
  -4  -8  -4   93.03    4.27
  -4  -8  -4  108.81    4.27
   4   8   4  109.18    4.06
  -5  -8  -4    3.36    1.33
  -5  -8  -4    9.81    1.56
   5   8   4    7.04    1.26
  -6  -8  -4    9.08    1.68
   6   8   4    8.34    1.59
   2  -9  -4    8.09    1.57
  -2   9   4    4.33    1.42
   1  -9  -4   90.74    4.04
  -1   9   4   95.30    3.97
   0  -9  -4   97.21    4.08
   0   9   4   99.97    4.03
  -1  -9  -4    2.58    1.03
  -1  -9  -4    0.15    1.01
   1   9   4    0.78    1.07
  -2  -9  -4   62.34    2.87
  -2  -9  -4   62.65    3.14
   2   9   4   55.36    2.92
  -3  -9  -4   52.26    2.82
  -3  -9  -4   51.84    2.97
   3   9   4   51.15    2.80
  -4  -9  -4    3.77    1.72
  -4  -9  -4    8.98    1.54
   4   9   4   10.99    1.57
  -5  -9  -4   40.79    2.72
   5   9   4   39.92    2.64
   0 -10  -4    0.47    1.40
   0  10   4    0.69    1.49
  -1 -10  -4   83.57    4.05
   1  10   4   85.75    3.89
  -2 -10  -4   49.21    3.08
  -2 -10  -4   38.39    2.56
   2  10   4   44.99    2.78
  -3 -10  -4   26.76    2.36
  -3 -10  -4   25.57    2.23
   3  10   4   26.84    2.30
   2   8  -5   65.47    3.30
   2   8  -5   60.34    3.19
  -2  -8   5   61.35    3.61
   1   8  -5   -0.52    1.41
   1   8  -5   -0.29    1.47
  -1  -8   5   -0.24    1.46
   0   8  -5   63.84    3.26
   0  -8   5   58.38    3.47
   4   7  -5   80.40    3.78
  -4  -7   5   86.91    4.01
   3   7  -5    1.21    1.11
  -3  -7   5    0.13    1.17
   2   7  -5   26.40    1.86
   2   7  -5   30.43    2.00
  -2  -7   5   24.02    1.99
   1   7  -5   36.14    2.19
   1   7  -5   37.45    2.27
  -1  -7   5   34.64    2.29
   0   7  -5   25.99    1.84
   0   7  -5   26.02    1.86
   0  -7   5   26.02    1.94
  -1   7  -5   15.49    1.65
   1  -7   5   16.26    1.61
  -2   7  -5   63.34    3.32
   2  -7   5   60.65    3.20
   5   6  -5   22.21    1.91
  -5  -6   5   26.69    2.08
   4   6  -5    1.73    1.02
  -4  -6   5    4.13    1.08
   3   6  -5   59.39    2.67
   3   6  -5   60.34    2.83
  -3  -6   5   62.82    2.96
   2   6  -5   81.48    3.38
   2   6  -5   82.81    3.22
  -2  -6   5   83.81    3.54
   1   6  -5    2.82    0.90
   1   6  -5    2.58    0.88
  -1  -6   5    2.43    0.93
   0   6  -5   79.30    3.12
   0   6  -5   76.96    3.17
   0  -6   5   77.52    3.30
  -1   6  -5   11.20    1.32
  -1   6  -5   11.25    1.32
   1  -6   5    8.90    1.17
   1  -6   5   12.21    1.36
  -2   6  -5    0.10    1.06
   2  -6   5    0.32    1.04
   2  -6   5    0.48    1.04
  -3   6  -5    2.72    1.29
   3  -6   5    6.95    1.41
   3  -6   5    3.18    1.33
  -4   6  -5   26.04    2.29
   4  -6   5   27.33    2.21
   6   5  -5   25.49    1.99
  -6  -5   5   25.89    2.13
   5   5  -5   50.82    2.64
  -5  -5   5   52.42    2.77
   4   5  -5  135.28    5.02
  -4  -5   5  132.83    5.00
   3   5  -5    1.61    0.71
   3   5  -5    0.49    0.72
  -3  -5   5   -0.28    0.73
   2   5  -5   36.77    1.71
   2   5  -5   34.70    1.81
  -2  -5   5   35.04    1.88
   1   5  -5   53.87    2.24
   1   5  -5   56.79    2.42
  -1  -5   5   56.01    2.47
  -1  -5   5   56.25    2.32
   0   5  -5   33.58    1.73
   0   5  -5   33.95    1.73
   0  -5   5   32.45    1.84
   0  -5   5   31.60    1.69
  -1   5  -5   17.76    1.37
  -1   5  -5   20.17    1.38
   1  -5   5   20.87    1.49
   1  -5   5   19.95    1.32
  -2   5  -5   68.58    2.90
  -2   5  -5   64.14    2.97
   2  -5   5   69.74    2.93
   2  -5   5   74.74    2.95
  -3   5  -5    2.23    1.03
   3  -5   5    0.95    0.95
   3  -5   5    4.14    1.11
  -4   5  -5    6.87    1.33
   4  -5   5    8.28    1.47
  -5   5  -5   -0.59    1.49
   5  -5   5    0.01    1.65
   7   4  -5    9.16    1.55
  -7  -4   5    8.04    1.65
   6   4  -5   42.34    2.51
  -6  -4   5   42.79    2.57
   5   4  -5   37.49    2.16
  -5  -4   5   39.45    2.21
   4   4  -5    3.19    0.75
  -4  -4   5    5.82    0.88
  -4  -4   5    4.95    0.78
   3   4  -5  102.53    3.92
   3   4  -5  104.61    3.50
  -3  -4   5  102.52    3.89
  -3  -4   5  110.86    3.65
   2   4  -5  149.69    5.32
   2   4  -5  158.67    4.94
  -2  -4   5  149.38    5.14
  -2  -4   5  156.64    5.33
   1   4  -5   15.57    1.13
   1   4  -5   16.69    1.01
  -1  -4   5   13.77    1.07
  -1  -4   5   17.16    1.21
   0   4  -5  144.82    5.08
   0   4  -5  147.87    4.85
   0  -4   5  153.26    5.02
   0  -4   5  147.29    5.10
  -1   4  -5   14.08    1.05
  -1   4  -5   14.45    1.04
   1  -4   5   13.10    1.04
   1  -4   5   13.15    1.07
  -2   4  -5   -0.40    0.79
  -2   4  -5    0.04    0.64
   2  -4   5   -0.11    0.66
   2  -4   5   -0.07    0.64
  -3   4  -5    9.08    1.18
  -3   4  -5   11.24    1.12
   3  -4   5   10.26    1.07
   3  -4   5   11.64    1.23
  -4   4  -5   31.23    2.01
   4  -4   5   32.52    1.83
   4  -4   5   30.27    2.00
  -5   4  -5    0.79    1.23
   5  -4   5    1.03    1.25
   7   3  -5   72.12    3.50
  -7  -3   5   74.73    3.54
   6   3  -5   31.89    2.06
  -6  -3   5   33.06    2.17
   5   3  -5   71.59    3.04
  -5  -3   5   69.73    3.06
  -5  -3   5   77.06    2.90
   4   3  -5  127.96    4.68
  -4  -3   5  129.72    4.64
  -4  -3   5  132.19    4.45
   3   3  -5    0.13    0.53
   3   3  -5    0.57    0.41
  -3  -3   5    0.47    0.53
  -3  -3   5   -0.92    0.48
   2   3  -5   18.29    1.07
   2   3  -5   16.06    0.89
  -2  -3   5   17.24    1.11
  -2  -3   5   17.66    1.13
   1   3  -5   69.43    2.34
   1   3  -5   67.53    2.62
  -1  -3   5   67.48    2.56
  -1  -3   5   71.38    2.61
   0   3  -5   80.48    2.95
   0   3  -5   81.37    2.74
   0  -3   5   82.87    2.91
   0  -3   5   77.89    2.92
  -1   3  -5   25.94    1.31
  -1   3  -5   22.75    1.21
   1  -3   5   23.99    1.31
   1  -3   5   24.65    1.25
  -2   3  -5  134.25    4.61
  -2   3  -5  129.86    4.44
   2  -3   5  134.77    4.51
   2  -3   5  131.23    4.61
  -3   3  -5    2.06    0.71
  -3   3  -5    2.29    0.77
   3  -3   5    3.49    0.68
   3  -3   5    3.15    0.76
  -4   3  -5    9.30    1.18
   4  -3   5    9.00    1.06
   4  -3   5    9.81    0.97
  -5   3  -5    1.89    1.00
   5  -3   5    2.36    1.13
  -6   3  -5   12.04    1.70
   6  -3   5   10.11    1.65
   7   2  -5   10.45    1.45
  -7  -2   5   11.08    1.58
  -7  -2   5   10.56    1.67
   6   2  -5   50.95    2.48
  -6  -2   5   47.40    2.51
  -6  -2   5   48.71    2.53
   5   2  -5   48.27    2.33
  -5  -2   5   53.04    2.41
  -5  -2   5   53.21    2.30
   4   2  -5    3.84    0.66
  -4  -2   5    4.44    0.70
  -4  -2   5    3.08    0.63
   3   2  -5  159.48    5.48
  -3  -2   5  160.99    5.36
  -3  -2   5  161.62    5.44
   2   2  -5  166.02    5.76
  -2  -2   5  176.54    5.68
  -2  -2   5  173.04    5.72
   1   2  -5   41.87    1.46
   1   2  -5   42.85    1.74
  -1  -2   5   42.16    1.70
  -1  -2   5   43.17    1.71
   0   2  -5  112.83    3.89
   0   2  -5  111.58    3.62
   0  -2   5  116.43    3.84
   0  -2   5  114.13    3.87
  -1   2  -5    4.43    0.49
  -1   2  -5    4.85    0.54
   1  -2   5    4.69    0.56
   1  -2   5    4.44    0.52
  -2   2  -5    5.43    0.67
  -2   2  -5    5.20    0.65
   2  -2   5    4.70    0.53
   2  -2   5    3.80    0.59
  -3   2  -5    6.04    0.72
  -3   2  -5    4.29    0.70
   3  -2   5    5.04    0.77
   3  -2   5    5.97    0.62
  -4   2  -5   50.63    2.25
  -4   2  -5   52.71    2.29
   4  -2   5   56.23    2.40
   4  -2   5   51.76    2.07
  -5   2  -5    4.08    0.95
   5  -2   5    4.05    1.02
  -6   2  -5    9.84    1.37
   6  -2   5    9.14    1.47
   7   1  -5  102.84    4.29
   7   1  -5   92.16    3.90
  -7  -1   5   96.15    4.22
   6   1  -5   29.76    1.84
  -6  -1   5   32.86    2.10
  -6  -1   5   30.83    1.99
   5   1  -5  104.23    3.88
  -5  -1   5  106.90    3.95
  -5  -1   5  105.04    3.88
   4   1  -5  147.68    5.08
  -4  -1   5  149.83    5.13
  -4  -1   5  146.07    5.05
   3   1  -5    0.76    0.42
  -3  -1   5    0.63    0.47
  -3  -1   5    0.34    0.36
   2   1  -5   30.64    1.32
  -2  -1   5   28.28    1.29
  -2  -1   5   30.41    1.32
   1   1  -5  132.51    4.38
  -1  -1   5  129.10    4.33
  -1  -1   5  128.71    4.31
   0   1  -5  104.12    3.61
   0   1  -5  108.86    3.34
   0  -1   5  106.13    3.53
   0  -1   5  105.77    3.59
  -1   1  -5   73.58    2.40
  -1   1  -5   74.15    2.59
   1  -1   5   67.27    2.53
   1  -1   5   70.55    2.42
  -2   1  -5  147.96    4.56
  -2   1  -5  142.87    4.75
   2  -1   5  128.45    4.74
   2  -1   5  144.59    4.52
  -3   1  -5    1.13    0.48
  -3   1  -5    0.30    0.48
   3  -1   5    0.09    0.45
   3  -1   5    0.73    0.34
  -4   1  -5    2.91    0.70
  -4   1  -5    1.78    0.64
   4  -1   5    2.09    0.66
   4  -1   5    2.01    0.47
  -5   1  -5    1.90    0.86
  -5   1  -5    1.07    0.78
   5  -1   5    0.92    0.85
  -6   1  -5   20.23    1.63
   6  -1   5   20.16    1.67
  -7   1  -5    6.85    1.53
   7  -1   5    9.52    1.67
   7   0  -5    4.43    1.50
  -7   0   5    5.76    1.51
   6   0  -5   31.47    1.78
   6   0  -5   36.03    2.18
  -6   0   5   32.67    2.07
   5   0  -5   68.61    2.68
  -5   0   5   67.22    2.80
  -5   0   5   69.58    2.85
   4   0  -5   10.92    0.84
  -4   0   5   10.20    0.93
  -4   0   5    9.87    0.91
   3   0  -5  210.21    6.79
  -3   0   5  208.38    6.79
  -3   0   5  202.55    6.80
   2   0  -5  171.54    5.62
  -2   0   5  170.40    5.61
  -2   0   5  170.83    5.61
   1   0  -5   56.96    2.10
  -1   0   5   59.50    2.13
  -1   0   5   58.50    2.08
   0   0  -5  106.55    3.62
   0   0  -5  111.14    3.33
   0   0   5  110.34    3.62
   0   0   5  109.08    3.52
   0   0   5  101.18    3.32
  -1   0  -5    8.57    0.53
  -1   0  -5   10.49    0.71
   1   0   5   10.53    0.71
   1   0   5    9.74    0.51
  -2   0  -5    8.79    0.64
  -2   0  -5    8.79    0.69
   2   0   5    9.59    0.73
  -3   0  -5   15.58    0.97
  -3   0  -5   16.61    1.00
   3   0   5   15.87    1.07
  -4   0  -5   76.76    2.82
  -4   0  -5   78.04    2.90
   4   0   5   74.79    2.96
  -5   0  -5    0.07    0.74
  -5   0  -5    1.41    0.71
   5   0   5    1.21    0.75
  -6   0  -5    8.86    1.33
  -6   0  -5    6.83    1.12
   6   0   5    6.47    1.18
  -7   0  -5    1.72    1.23
   7   0   5    1.99    1.31
   7  -1  -5  112.87    4.63
  -7   1   5  105.89    4.64
   6  -1  -5   14.44    1.49
  -6   1   5   15.32    1.53
   5  -1  -5   93.60    3.39
   5  -1  -5   95.14    3.67
  -5   1   5   92.02    3.64
  -5   1   5   95.62    3.14
   4  -1  -5  113.77    3.84
   4  -1  -5  110.37    4.02
  -4   1   5  109.39    4.00
   3  -1  -5    5.14    0.52
  -3   1   5    4.69    0.59
  -3   1   5    5.25    0.64
   2  -1  -5    9.16    0.63
  -2   1   5    8.19    0.63
  -2   1   5    8.35    0.67
   1  -1  -5  143.00    4.82
  -1   1   5  152.94    4.86
  -1   1   5  145.92    4.78
   0  -1  -5  147.45    4.73
   0   1   5  143.83    4.38
   0   1   5  146.74    4.59
   0   1   5  142.42    4.69
   0   1   5  134.99    4.38
  -1  -1  -5   72.12    2.38
  -1  -1  -5   74.14    2.38
  -1  -1  -5   73.20    2.58
   1   1   5   73.11    2.55
  -2  -1  -5   90.92    3.15
  -2  -1  -5   89.94    2.97
   2   1   5   89.38    3.11
  -3  -1  -5    0.20    0.36
  -3  -1  -5    0.57    0.38
   3   1   5   -0.04    0.42
  -4  -1  -5   -0.55    0.44
  -4  -1  -5   -0.30    0.51
   4   1   5    0.19    0.51
  -5  -1  -5    0.67    0.70
  -5  -1  -5   -0.16    0.65
   5   1   5    0.50    0.70
  -6  -1  -5   24.46    1.73
  -6  -1  -5   23.21    1.62
   6   1   5   25.95    1.78
  -7  -1  -5    7.96    1.63
  -7  -1  -5    6.46    1.30
   7   1   5    7.54    1.44
   7  -2  -5    1.10    1.39
  -7   2   5    0.54    1.57
   6  -2  -5   37.61    2.27
  -6   2   5   33.55    2.21
   5  -2  -5   66.47    2.51
   5  -2  -5   70.08    2.92
  -5   2   5   69.53    2.96
  -5   2   5   69.21    2.49
   4  -2  -5   -0.09    0.50
   4  -2  -5    0.21    0.39
  -4   2   5    0.41    0.58
  -4   2   5    1.22    0.46
   3  -2  -5  218.65    6.97
   3  -2  -5  216.46    7.13
  -3   2   5  216.23    6.62
  -3   2   5  214.37    7.13
   2  -2  -5   95.79    3.23
   2  -2  -5   97.04    3.34
  -2   2   5   94.77    3.33
   1  -2  -5   41.04    1.48
   1  -2  -5   41.09    1.50
  -1   2   5   38.08    1.49
  -1   2   5   32.86    1.30
   0  -2  -5  106.44    3.45
   0  -2  -5  106.87    3.54
   0   2   5  104.05    3.52
   0   2   5  103.68    3.30
  -1  -2  -5   31.49    1.10
  -1  -2  -5   32.19    1.28
  -1  -2  -5   29.04    1.11
   1   2   5   30.44    1.14
   1   2   5   30.64    1.24
  -2  -2  -5   19.84    0.97
  -2  -2  -5   19.54    0.87
   2   2   5   19.31    0.95
  -3  -2  -5   20.16    1.14
  -3  -2  -5   21.12    1.09
   3   2   5   26.49    1.16
  -4  -2  -5   82.74    2.98
  -4  -2  -5   84.20    3.10
   4   2   5   83.45    3.08
  -5  -2  -5    0.78    0.64
  -5  -2  -5    0.09    0.67
   5   2   5    0.43    0.69
  -6  -2  -5    2.72    0.90
  -6  -2  -5    1.20    0.95
   6   2   5    2.22    0.99
  -7  -2  -5    2.36    1.40
  -7  -2  -5    0.76    1.13
   7   2   5    1.81    1.28
   7  -3  -5   98.18    4.37
  -7   3   5   88.31    4.37
   6  -3  -5   14.79    1.57
  -6   3   5   14.23    1.59
   5  -3  -5   53.02    2.50
  -5   3   5   50.01    2.13
  -5   3   5   50.93    2.52
   4  -3  -5   84.34    3.23
   4  -3  -5   79.22    2.86
  -4   3   5   86.37    2.85
  -4   3   5   83.34    3.22
   3  -3  -5    7.06    0.57
   3  -3  -5    7.08    0.76
  -3   3   5    8.29    0.82
  -3   3   5    7.79    0.61
   2  -3  -5    4.22    0.52
   2  -3  -5    4.09    0.44
  -2   3   5    3.02    0.49
  -2   3   5    3.82    0.42
   1  -3  -5  112.97    3.61
   1  -3  -5  108.40    3.66
  -1   3   5  100.04    3.46
  -1   3   5  108.04    3.65
   0  -3  -5   63.18    2.22
   0  -3  -5   62.21    2.17
   0   3   5   61.21    2.20
   0   3   5   59.84    2.07
  -1  -3  -5   53.18    1.94
  -1  -3  -5   51.92    1.81
   1   3   5   50.88    1.88
   1   3   5   51.10    1.81
  -2  -3  -5   40.28    1.43
  -2  -3  -5   42.77    1.66
   2   3   5   41.21    1.54
   2   3   5   37.82    1.40
   2   3   5   40.13    1.55
  -3  -3  -5    0.85    0.42
   3   3   5    0.83    0.38
   3   3   5    1.56    0.41
  -4  -3  -5    0.42    0.50
   4   3   5    0.66    0.49
  -5  -3  -5    0.80    0.74
  -5  -3  -5    1.10    0.60
   5   3   5    1.24    0.67
  -6  -3  -5   34.14    1.95
  -6  -3  -5   34.06    2.19
   6   3   5   34.97    2.01
  -7  -3  -5    4.06    1.48
   7   3   5    4.77    1.34
   6  -4  -5   35.08    2.34
  -6   4   5   31.31    2.07
  -6   4   5   31.03    2.25
   5  -4  -5   72.36    3.18
  -5   4   5   70.10    3.16
  -5   4   5   72.62    2.86
   4  -4  -5    0.58    0.67
  -4   4   5   -0.62    0.66
  -4   4   5    0.45    0.62
   3  -4  -5  171.40    5.84
   3  -4  -5  166.13    5.49
  -3   4   5  166.35    5.81
  -3   4   5  179.94    5.52
   2  -4  -5   83.78    2.77
   2  -4  -5   76.68    2.99
  -2   4   5   83.74    2.85
  -2   4   5   79.94    2.96
   1  -4  -5   13.09    0.88
   1  -4  -5   11.80    0.73
  -1   4   5   10.99    0.80
  -1   4   5   11.08    0.78
   0  -4  -5   66.70    2.32
   0  -4  -5   62.75    2.30
   0   4   5   63.99    2.23
   0   4   5   61.26    2.28
  -1  -4  -5   22.54    1.04
  -1  -4  -5   19.73    1.04
   1   4   5   21.12    0.99
   1   4   5   22.36    1.00
  -2  -4  -5   32.23    1.42
  -2  -4  -5   29.30    1.28
   2   4   5   29.28    1.27
   2   4   5   31.08    1.30
  -3  -4  -5    7.52    0.73
  -3  -4  -5    8.17    0.56
   3   4   5    7.62    0.64
   3   4   5    8.15    0.73
  -4  -4  -5   38.12    1.87
   4   4   5   41.53    1.70
   4   4   5   37.76    1.73
  -5  -4  -5    4.13    0.82
   5   4   5    4.04    0.81
   5   4   5    2.31    0.70
  -6  -4  -5    2.05    1.08
   6   4   5    1.05    0.89
   6   4   5    1.25    0.85
  -7  -4  -5    1.37    1.38
   7   4   5    4.26    1.31
   7   4   5   -1.13    1.14
   6  -5  -5    9.20    1.57
  -6   5   5    6.19    1.63
  -6   5   5    3.31    1.60
   5  -5  -5   31.23    2.12
  -5   5   5   29.97    2.08
  -5   5   5   31.14    1.92
   4  -5  -5   52.36    2.54
  -4   5   5   55.55    2.42
  -4   5   5   50.87    2.57
   3  -5  -5    6.93    0.94
  -3   5   5    6.55    0.87
  -3   5   5    7.42    0.92
   2  -5  -5    4.44    0.71
   2  -5  -5    4.99    0.48
  -2   5   5    3.92    0.76
  -2   5   5    5.12    0.73
   1  -5  -5  122.43    3.84
   1  -5  -5  115.50    4.00
  -1   5   5  113.36    3.90
  -1   5   5  102.06    3.85
   0  -5  -5   30.59    1.28
   0  -5  -5   26.14    1.35
   0   5   5   26.62    1.32
   0   5   5   27.14    1.25
  -1  -5  -5   53.63    2.07
  -1  -5  -5   52.89    2.06
   1   5   5   51.46    2.00
   1   5   5   52.62    1.94
  -2  -5  -5   51.81    2.03
  -2  -5  -5   48.64    2.05
   2   5   5   51.35    1.86
   2   5   5   47.58    1.95
  -3  -5  -5    1.73    0.57
  -3  -5  -5    1.62    0.59
   3   5   5    2.02    0.49
   3   5   5    1.98    0.55
  -4  -5  -5    0.68    0.57
  -4  -5  -5    0.13    0.51
   4   5   5    0.42    0.53
   4   5   5   -0.30    0.54
  -5  -5  -5    0.85    0.81
   5   5   5    0.66    0.67
   5   5   5    1.22    0.71
  -6  -5  -5   38.13    2.31
   6   5   5   27.97    1.92
  -7  -5  -5    4.45    1.60
   7   5   5    7.42    1.39
   5  -6  -5   70.10    3.44
  -5   6   5   68.06    3.48
  -5   6   5   68.48    3.44
   4  -6  -5    1.72    0.95
  -4   6   5    0.79    1.07
  -4   6   5   -0.07    0.98
   3  -6  -5   78.23    3.22
  -3   6   5   69.22    3.18
  -3   6   5   80.77    3.17
   2  -6  -5   47.99    2.23
  -2   6   5   48.92    2.11
  -2   6   5   45.17    2.29
   1  -6  -5    0.57    0.49
   1  -6  -5    0.54    0.60
  -1   6   5    1.33    0.63
  -1   6   5    1.22    0.58
   0  -6  -5   12.42    1.01
   0  -6  -5   14.36    0.97
   0   6   5   13.29    0.89
   0   6   5   13.64    1.08
  -1  -6  -5   22.25    1.28
  -1  -6  -5   23.21    1.35
   1   6   5   22.96    1.14
   1   6   5   21.00    1.26
  -2  -6  -5   35.38    1.72
  -2  -6  -5   34.33    1.70
   2   6   5   33.66    1.65
   2   6   5   34.71    1.43
  -3  -6  -5   11.90    1.06
  -3  -6  -5   12.71    1.12
   3   6   5   11.74    1.02
   3   6   5   12.10    0.79
  -4  -6  -5   29.48    1.81
  -4  -6  -5   28.79    1.68
   4   6   5   28.42    1.67
  -5  -6  -5    0.59    0.94
   5   6   5    2.30    0.89
  -6  -6  -5    0.06    1.16
   6   6   5   -0.56    0.98
  -7  -6  -5    2.70    1.56
   7   6   5    2.68    1.38
   5  -7  -5   25.68    2.38
  -5   7   5   27.57    2.47
  -5   7   5   25.22    2.22
   4  -7  -5   23.89    2.12
  -4   7   5   26.10    2.10
  -4   7   5   28.64    2.09
   3  -7  -5    8.27    1.31
  -3   7   5    3.99    1.31
  -3   7   5    8.49    1.19
   2  -7  -5    4.42    0.95
  -2   7   5    1.86    0.90
  -2   7   5    1.46    1.03
   1  -7  -5   88.80    3.10
   1  -7  -5   82.89    3.42
  -1   7   5   82.91    3.20
  -1   7   5   86.68    3.33
   0  -7  -5   16.76    1.15
   0  -7  -5   15.79    1.28
   0   7   5   16.48    1.03
   0   7   5   16.43    1.28
  -1  -7  -5   13.23    1.04
  -1  -7  -5   11.21    1.07
   1   7   5   10.43    0.79
   1   7   5   12.07    1.08
  -2  -7  -5   22.61    1.49
  -2  -7  -5   20.74    1.42
   2   7   5   19.76    1.36
  -3  -7  -5    8.09    1.06
  -3  -7  -5    6.55    1.05
   3   7   5    6.70    1.01
  -4  -7  -5   11.66    1.25
  -4  -7  -5    8.75    1.24
   4   7   5   11.98    1.20
  -5  -7  -5    0.93    1.00
   5   7   5    1.12    0.93
  -6  -7  -5   35.42    2.50
   6   7   5   41.69    2.51
   4  -8  -5    0.05    1.52
  -4   8   5    1.96    1.73
  -4   8   5   -1.15    1.60
   3  -8  -5   54.62    3.14
  -3   8   5   54.59    2.93
  -3   8   5   53.47    3.26
   2  -8  -5   23.24    1.85
  -2   8   5   23.00    1.68
  -2   8   5   25.07    1.91
   1  -8  -5    1.15    1.04
  -1   8   5    1.16    1.02
  -1   8   5    2.64    0.90
   0  -8  -5    5.29    0.93
   0  -8  -5    6.59    0.98
   0   8   5    4.81    1.04
  -1  -8  -5   18.02    1.36
  -1  -8  -5   16.53    1.41
   1   8   5   17.03    1.45
  -2  -8  -5   12.00    1.18
  -2  -8  -5   12.38    1.30
   2   8   5   12.02    1.31
  -3  -8  -5    8.48    1.28
  -3  -8  -5    9.67    1.21
   3   8   5   11.39    1.27
  -4  -8  -5   10.02    1.35
  -4  -8  -5   10.10    1.53
   4   8   5   13.01    1.34
  -5  -8  -5    4.70    1.33
   5   8   5    3.88    1.30
  -6  -8  -5    1.74    1.55
   6   8   5    1.02    1.36
   2  -9  -5    0.64    1.35
  -2   9   5    1.92    1.43
   1  -9  -5   64.76    3.31
  -1   9   5   68.16    3.28
   0  -9  -5   12.00    1.43
   0   9   5   12.52    1.49
  -1  -9  -5    1.95    1.15
  -1  -9  -5    1.60    1.11
   1   9   5    6.24    1.26
  -2  -9  -5   10.30    1.34
  -2  -9  -5   11.31    1.53
   2   9   5    8.26    1.31
  -3  -9  -5    4.84    1.49
  -3  -9  -5    5.66    1.28
   3   9   5    5.07    1.31
  -4  -9  -5   12.13    1.74
  -4  -9  -5   10.29    1.87
   4   9   5   14.02    1.63
  -5  -9  -5   -0.22    1.52
   5   9   5    2.07    1.48
   0 -10  -5    2.07    1.41
   0  10   5   -0.41    1.43
  -1 -10  -5   24.71    2.10
   1  10   5   27.16    2.18
  -2 -10  -5   12.52    1.66
  -2 -10  -5    9.86    1.79
   2  10   5   12.59    1.76
  -3 -10  -5    6.94    1.84
  -3 -10  -5    6.35    1.61
   3  10   5    6.69    1.67
   3   7  -6    9.75    1.57
  -3  -7   6    7.47    1.62
   2   7  -6    1.54    1.33
  -2  -7   6    1.36    1.21
   1   7  -6    7.09    1.35
   1   7  -6    9.38    1.39
  -1  -7   6    6.23    1.47
   0   7  -6   30.44    2.15
   0   7  -6   34.57    2.26
   0  -7   6   29.46    2.24
  -1   7  -6    9.69    1.55
   1  -7   6    6.43    1.57
   5   6  -6    6.18    1.34
  -5  -6   6    5.10    1.50
   4   6  -6    0.65    1.10
  -4  -6   6    1.17    1.27
   3   6  -6    2.00    0.99
  -3  -6   6   -0.16    1.13
   2   6  -6   16.65    1.40
   2   6  -6   15.60    1.57
  -2  -6   6   20.70    1.77
   1   6  -6   19.23    1.60
   1   6  -6   19.19    1.49
  -1  -6   6   20.41    1.75
   0   6  -6    1.69    0.99
   0   6  -6    0.27    1.02
   0  -6   6   -0.94    1.03
  -1   6  -6   35.35    2.11
  -1   6  -6   30.93    2.03
   1  -6   6   31.53    1.92
   1  -6   6   31.29    2.08
  -2   6  -6   42.22    2.58
   2  -6   6   42.39    2.48
   2  -6   6   41.51    2.55
  -3   6  -6   -1.21    1.38
   3  -6   6    0.99    1.42
   3  -6   6    1.26    1.41
   6   5  -6    4.06    1.33
  -6  -5   6    3.44    1.38
   5   5  -6    1.82    1.05
  -5  -5   6    1.96    1.09
   4   5  -6    6.76    1.10
  -4  -5   6    8.73    1.25
   3   5  -6   14.23    1.39
  -3  -5   6   13.93    1.36
   2   5  -6    3.08    0.86
   2   5  -6    3.03    0.79
  -2  -5   6    5.80    0.95
   1   5  -6    7.83    0.94
   1   5  -6    6.56    0.98
  -1  -5   6    7.63    0.99
  -1  -5   6    7.46    1.11
   0   5  -6   30.16    1.80
   0   5  -6   33.22    1.87
   0  -5   6   33.66    1.83
   0  -5   6   34.77    1.98
  -1   5  -6   20.36    1.44
  -1   5  -6   21.07    1.52
   1  -5   6   21.80    1.53
   1  -5   6   21.69    1.50
  -2   5  -6    5.53    1.29
  -2   5  -6    6.93    1.15
   2  -5   6    8.21    1.12
   2  -5   6    6.80    1.18
  -3   5  -6   48.56    2.63
   3  -5   6   46.94    2.55
   3  -5   6   54.40    2.72
  -4   5  -6   16.31    1.83
   4  -5   6   19.30    1.94
   6   4  -6    7.71    1.38
  -6  -4   6    9.12    1.44
   5   4  -6   12.81    1.39
  -5  -4   6   11.99    1.35
   4   4  -6    4.42    0.90
  -4  -4   6    3.35    0.88
   3   4  -6    3.24    0.78
  -3  -4   6    2.81    0.81
  -3  -4   6    2.78    0.80
   2   4  -6   32.82    1.43
   2   4  -6   31.26    1.72
  -2  -4   6   32.33    1.79
  -2  -4   6   30.18    1.74
   1   4  -6   36.13    1.80
   1   4  -6   32.86    1.51
  -1  -4   6   35.04    1.77
  -1  -4   6   33.09    1.78
   0   4  -6    1.25    0.59
   0   4  -6    0.84    0.60
   0  -4   6    0.88    0.61
   0  -4   6    0.51    0.67
  -1   4  -6   60.08    2.45
  -1   4  -6   61.25    2.57
   1  -4   6   60.22    2.56
   1  -4   6   61.28    2.55
  -2   4  -6   55.62    2.67
  -2   4  -6   59.20    2.53
   2  -4   6   60.39    2.49
   2  -4   6   59.57    2.59
  -3   4  -6    1.34    1.19
  -3   4  -6    0.13    0.90
   3  -4   6    1.05    0.91
   3  -4   6    0.04    0.77
  -4   4  -6   27.95    2.04
   4  -4   6   37.26    2.26
  -5   4  -6   47.35    2.89
   5  -4   6   46.68    2.96
   6   3  -6    2.69    1.05
  -6  -3   6    1.08    1.13
   5   3  -6    0.70    0.89
  -5  -3   6   -0.76    0.87
  -5  -3   6    0.22    0.74
   4   3  -6    4.25    0.80
  -4  -3   6    4.33    0.84
  -4  -3   6    3.92    0.81
   3   3  -6   32.11    1.69
  -3  -3   6   27.59    1.63
  -3  -3   6   33.51    1.68
   2   3  -6    6.63    0.54
   2   3  -6    4.60    0.70
  -2  -3   6    5.66    0.76
  -2  -3   6    6.76    0.79
   1   3  -6   13.83    0.82
   1   3  -6   15.12    1.15
  -1  -3   6   13.58    1.03
  -1  -3   6   14.85    1.10
   0   3  -6   56.32    2.33
   0   3  -6   59.51    2.10
   0  -3   6   56.82    2.31
   0  -3   6   57.99    2.31
  -1   3  -6   30.13    1.53
  -1   3  -6   28.34    1.39
   1  -3   6   24.82    1.49
   1  -3   6   29.35    1.46
  -2   3  -6   14.79    1.21
  -2   3  -6   14.68    1.12
   2  -3   6   16.39    1.07
   2  -3   6   16.97    1.28
  -3   3  -6   93.05    3.56
  -3   3  -6   97.83    3.77
   3  -3   6   96.32    3.48
   3  -3   6   99.05    3.76
  -4   3  -6   29.49    1.90
   4  -3   6   32.70    2.06
  -5   3  -6   22.58    1.84
   5  -3   6   21.05    1.89
  -6   3  -6   49.41    3.09
   6  -3   6   49.02    2.99
   7   2  -6   -0.92    1.25
  -7  -2   6   -1.50    1.30
   6   2  -6   11.77    1.32
  -6  -2   6   11.58    1.45
  -6  -2   6   10.60    1.28
   5   2  -6   12.79    1.16
  -5  -2   6   11.47    1.23
  -5  -2   6   12.87    1.24
   4   2  -6    9.11    0.97
  -4  -2   6    8.27    0.94
  -4  -2   6    9.60    0.96
   3   2  -6    0.30    0.47
  -3  -2   6    0.65    0.55
  -3  -2   6    1.44    0.54
   2   2  -6   30.97    1.54
  -2  -2   6   30.55    1.50
  -2  -2   6   34.66    1.57
   1   2  -6   81.46    3.06
   1   2  -6   83.49    2.69
  -1  -2   6   84.57    3.03
  -1  -2   6   84.36    3.01
   0   2  -6    7.82    0.58
   0   2  -6    8.77    0.78
   0  -2   6    8.72    0.78
   0  -2   6    7.72    0.68
  -1   2  -6  101.64    3.55
  -1   2  -6  100.41    3.29
   1  -2   6   96.39    3.39
   1  -2   6   95.29    3.50
  -2   2  -6   76.54    2.84
  -2   2  -6   71.42    2.66
   2  -2   6   68.06    2.77
   2  -2   6   74.31    2.62
  -3   2  -6    4.26    0.83
  -3   2  -6    1.60    0.66
   3  -2   6    1.38    0.70
   3  -2   6    2.41    0.57
  -4   2  -6   35.81    1.95
  -4   2  -6   37.47    2.08
   4  -2   6   38.39    2.17
  -5   2  -6   68.68    2.94
   5  -2   6   59.95    3.06
  -6   2  -6    3.26    1.25
   6  -2   6    3.86    1.38
   7   1  -6   12.43    1.50
   7   1  -6   11.28    1.77
  -7  -1   6   11.29    1.71
   6   1  -6    3.81    0.92
  -6  -1   6    1.21    1.06
  -6  -1   6    2.87    1.20
   5   1  -6   -0.03    0.66
  -5  -1   6    0.45    0.69
  -5  -1   6   -0.49    0.82
   4   1  -6   10.42    0.93
  -4  -1   6    9.81    0.97
  -4  -1   6   11.94    1.03
   3   1  -6   41.01    1.87
  -3  -1   6   42.34    1.88
  -3  -1   6   45.51    1.91
   2   1  -6    2.28    0.48
  -2  -1   6    2.22    0.46
  -2  -1   6    2.64    0.56
   1   1  -6   15.27    0.93
  -1  -1   6   16.19    0.94
  -1  -1   6   15.42    0.89
   0   1  -6  121.04    3.74
   0   1  -6  121.07    4.09
   0  -1   6  114.11    4.03
   0  -1   6  118.91    3.96
  -1   1  -6   59.02    2.06
  -1   1  -6   63.17    2.30
   1  -1   6   56.55    2.10
   1  -1   6   57.77    2.24
  -2   1  -6   19.98    1.21
  -2   1  -6   21.99    1.10
   2  -1   6   20.04    1.21
   2  -1   6   20.81    0.95
  -3   1  -6  184.53    6.02
  -3   1  -6  180.93    6.27
   3  -1   6  187.62    6.30
   3  -1   6  189.50    5.90
  -4   1  -6   46.75    2.18
  -4   1  -6   46.25    2.06
   4  -1   6   44.43    2.19
  -5   1  -6   24.09    1.71
  -5   1  -6   30.39    1.84
   5  -1   6   27.97    1.90
  -6   1  -6   52.41    2.82
   6  -1   6   54.98    3.02
   7   0  -6    0.81    1.36
  -7   0   6    1.24    1.43
   6   0  -6    4.76    1.17
   6   0  -6    3.27    0.94
  -6   0   6    4.92    1.21
   5   0  -6    9.53    0.99
  -5   0   6   12.08    1.21
  -5   0   6   11.31    1.16
   4   0  -6   24.17    1.38
  -4   0   6   25.88    1.49
  -4   0   6   26.65    1.54
   3   0  -6    0.29    0.41
  -3   0   6    0.67    0.47
  -3   0   6   -0.02    0.43
   2   0  -6   27.99    1.29
  -2   0   6   30.09    1.34
  -2   0   6   27.78    1.32
   1   0  -6   99.41    3.53
  -1   0   6  102.86    3.48
  -1   0   6  105.11    3.55
   0   0  -6    4.59    0.50
   0   0  -6    4.46    0.35
   0   0   6    4.47    0.46
   0   0   6    5.00    0.53
  -1   0  -6   99.18    3.24
  -1   0  -6  102.60    3.53
   1   0   6   99.75    3.48
   1   0   6  101.66    3.29
  -2   0  -6   79.56    2.88
  -2   0  -6   78.80    2.66
   2   0   6   74.93    2.85
  -3   0  -6    5.92    0.64
  -3   0  -6    6.11    0.73
   3   0   6    5.04    0.68
  -4   0  -6   69.42    2.73
  -4   0  -6   73.19    2.83
   4   0   6   69.68    2.86
  -5   0  -6   96.72    3.66
  -5   0  -6   95.21    3.73
   5   0   6   97.08    3.81
  -6   0  -6    0.88    1.31
  -6   0  -6    2.75    1.02
   6   0   6    1.88    1.11
  -7   0  -6   59.78    3.22
   7   0   6   70.35    3.56
   7  -1  -6   11.67    1.76
  -7   1   6   15.15    1.84
   6  -1  -6    5.79    1.23
  -6   1   6    6.28    1.32
   5  -1  -6    1.98    0.79
   5  -1  -6    0.44    0.62
  -5   1   6    1.52    0.81
   4  -1  -6   19.24    1.33
   4  -1  -6   20.72    1.17
  -4   1   6   18.03    1.29
   3  -1  -6   63.09    2.33
  -3   1   6   60.65    2.43
  -3   1   6   63.16    2.45
   2  -1  -6   14.42    0.83
  -2   1   6   13.94    0.91
  -2   1   6   14.82    0.89
   1  -1  -6   15.81    0.84
  -1   1   6   16.84    0.91
  -1   1   6   15.91    0.86
   0  -1  -6  185.84    6.10
   0   1   6  184.43    5.66
   0   1   6  185.26    6.06
   0   1   6  186.33    5.93
  -1  -1  -6   69.17    2.27
  -1  -1  -6   68.06    2.49
   1   1   6   70.23    2.27
   1   1   6   65.67    2.45
  -2  -1  -6    9.99    0.68
  -2  -1  -6   11.50    0.84
  -3  -1  -6  191.72    6.47
  -3  -1  -6  193.33    6.19
   3   1   6  195.75    6.43
  -4  -1  -6   49.80    2.13
  -4  -1  -6   45.74    2.03
   4   1   6   48.56    2.14
  -5  -1  -6   17.08    1.29
  -5  -1  -6   16.18    1.31
   5   1   6   16.61    1.37
  -6  -1  -6   51.37    2.58
  -6  -1  -6   52.85    2.88
   6   1   6   55.61    2.74
  -7  -1  -6   28.41    2.37
  -7  -1  -6   26.51    2.04
   7   1   6   28.35    2.23
   7  -2  -6    0.15    1.47
  -7   2   6   -3.13    1.49
   6  -2  -6    1.71    1.08
  -6   2   6    1.28    1.17
   5  -2  -6   11.75    1.22
   5  -2  -6   14.06    1.01
  -5   2   6   13.00    1.28
   4  -2  -6   24.63    1.24
   4  -2  -6   21.93    1.49
  -4   2   6   25.82    1.53
   3  -2  -6    0.81    0.38
   3  -2  -6    0.61    0.49
  -3   2   6    0.52    0.44
   2  -2  -6   42.29    1.77
   2  -2  -6   42.35    1.68
  -2   2   6   44.09    1.79
   1  -2  -6  124.45    4.17
   1  -2  -6  121.92    4.14
  -1   2   6  124.41    4.20
   0  -2  -6    0.85    0.29
   0  -2  -6    1.25    0.29
   0   2   6    1.42    0.37
   0   2   6    1.11    0.23
  -1  -2  -6  143.06    4.71
  -1  -2  -6  151.36    4.97
   1   2   6  150.80    4.91
   1   2   6  147.73    4.65
  -2  -2  -6   89.91    3.60
  -2  -2  -6  109.57    3.41
   2   2   6  112.32    3.59
  -3  -2  -6    1.12    0.44
  -3  -2  -6    1.04    0.48
   3   2   6    1.41    0.46
  -4  -2  -6  101.48    3.56
  -4  -2  -6  103.61    3.76
   4   2   6   99.35    3.66
  -5  -2  -6  103.88    3.76
  -5  -2  -6  101.92    3.95
   5   2   6  103.80    3.89
  -6  -2  -6    2.51    0.95
  -6  -2  -6    1.67    1.15
   6   2   6    0.94    1.02
  -7  -2  -6   60.03    3.42
  -7  -2  -6   65.45    3.11
   7   2   6   62.74    3.35
   6  -3  -6    6.58    1.30
  -6   3   6    6.08    1.40
   5  -3  -6    3.61    0.97
  -5   3   6    4.89    1.03
   4  -3  -6   11.71    0.85
   4  -3  -6   11.94    1.13
  -4   3   6   12.81    0.82
  -4   3   6   13.58    1.21
   3  -3  -6   55.30    2.04
   3  -3  -6   52.43    2.25
  -3   3   6   53.84    1.88
  -3   3   6   53.06    2.26
   2  -3  -6   41.03    1.62
   2  -3  -6   41.11    1.78
  -2   3   6   42.48    1.50
  -2   3   6   39.56    1.75
   1  -3  -6    9.78    0.74
   1  -3  -6   11.02    0.73
  -1   3   6    9.24    0.73
  -1   3   6    8.55    0.62
   0  -3  -6  173.85    5.56
   0  -3  -6  175.49    5.67
   0   3   6  167.56    5.34
   0   3   6  169.31    5.62
  -1  -3  -6   86.82    3.03
  -1  -3  -6   84.74    2.84
   1   3   6   84.80    2.82
   1   3   6   84.50    2.96
  -2  -3  -6    9.85    0.79
   2   3   6   11.28    0.78
   2   3   6   12.04    0.74
  -3  -3  -6  220.09    7.42
   3   3   6  220.76    7.09
   3   3   6  230.52    7.28
  -4  -3  -6   37.10    1.74
  -4  -3  -6   32.67    1.63
   4   3   6   34.25    1.67
  -5  -3  -6   26.36    1.57
  -5  -3  -6   26.49    1.73
   5   3   6   24.78    1.57
  -6  -3  -6   73.24    3.32
  -6  -3  -6   72.97    3.09
   6   3   6   75.87    3.20
  -7  -3  -6   21.62    2.12
   7   3   6   22.85    1.92
   6  -4  -6    2.62    1.25
  -6   4   6    5.17    1.41
   5  -4  -6   17.89    1.60
  -5   4   6   17.32    1.35
  -5   4   6   18.78    1.63
   4  -4  -6   11.88    1.19
  -4   4   6   13.61    1.22
  -4   4   6   13.84    1.05
   3  -4  -6   -0.21    0.45
   3  -4  -6    1.08    0.59
  -3   4   6    0.37    0.50
  -3   4   6    0.54    0.59
   2  -4  -6   44.72    1.71
   2  -4  -6   41.88    1.89
  -2   4   6   40.61    1.86
  -2   4   6   45.29    1.77
   1  -4  -6  114.27    3.84
   1  -4  -6  112.84    3.92
  -1   4   6  113.37    3.75
  -1   4   6  110.95    3.89
   0  -4  -6   -0.06    0.33
   0  -4  -6   -0.24    0.31
   0   4   6    0.13    0.31
   0   4   6    0.20    0.36
  -1  -4  -6   96.42    3.43
  -1  -4  -6   97.66    3.31
   1   4   6   97.46    3.25
   1   4   6   97.61    3.35
  -2  -4  -6  143.80    4.80
  -2  -4  -6  147.83    5.03
   2   4   6  148.69    4.87
   2   4   6  147.76    4.79
  -3  -4  -6    6.05    0.76
   3   4   6    5.66    0.69
   3   4   6    6.67    0.68
  -4  -4  -6   77.94    3.06
   4   4   6   76.78    2.84
   4   4   6   74.23    2.85
  -5  -4  -6  128.02    4.77
   5   4   6  125.61    4.50
   5   4   6  129.01    4.52
  -6  -4  -6    4.86    1.18
   6   4   6    3.57    1.03
   6   4   6    3.68    1.10
  -7  -4  -6   62.28    3.48
   7   4   6   62.55    3.14
   7   4   6   58.26    3.14
   6  -5  -6    9.94    1.67
  -6   5   6   11.13    1.77
   5  -5  -6    2.31    1.14
  -5   5   6    3.61    1.16
  -5   5   6    4.78    1.21
   4  -5  -6   17.70    1.52
  -4   5   6   19.63    1.59
  -4   5   6   19.34    1.41
   3  -5  -6   46.64    2.22
  -3   5   6   47.64    2.12
  -3   5   6   44.11    2.17
   2  -5  -6   17.10    0.96
   2  -5  -6   16.41    1.19
  -2   5   6   13.21    1.11
  -2   5   6   16.77    1.19
   1  -5  -6   24.46    1.16
   1  -5  -6   21.54    1.30
  -1   5   6   22.07    1.24
  -1   5   6   22.82    1.33
   0  -5  -6  105.74    3.51
   0  -5  -6   98.31    3.50
   0   5   6   91.85    3.38
   0   5   6  101.20    3.47
  -1  -5  -6   50.80    2.13
  -1  -5  -6   54.59    2.10
   1   5   6   52.08    2.03
   1   5   6   52.88    2.03
  -2  -5  -6   26.41    1.33
  -2  -5  -6   23.31    1.32
   2   5   6   21.92    1.23
   2   5   6   25.58    1.21
  -3  -5  -6  168.88    5.99
  -3  -5  -6  179.70    5.69
   3   5   6  177.14    5.73
   3   5   6  170.58    5.71
  -4  -5  -6   23.99    1.56
   4   5   6   24.96    1.46
   4   5   6   25.36    1.40
  -5  -5  -6   13.95    1.38
   5   5   6   18.07    1.40
   5   5   6   16.39    1.24
  -6  -5  -6   69.83    3.38
   6   5   6   69.21    3.04
  -7  -5  -6   23.04    2.20
   7   5   6   23.31    2.03
   5  -6  -6   13.57    1.71
  -5   6   6   12.28    1.67
  -5   6   6    9.62    1.56
   4  -6  -6   22.23    1.77
  -4   6   6   22.74    1.71
  -4   6   6   20.68    1.76
   3  -6  -6    0.73    0.85
  -3   6   6    2.07    0.85
  -3   6   6    1.06    0.98
   2  -6  -6   58.34    2.55
  -2   6   6   54.22    2.53
  -2   6   6   59.35    2.51
   1  -6  -6  109.11    3.75
   1  -6  -6  106.46    3.95
  -1   6   6  105.29    3.84
  -1   6   6  110.68    3.85
   0  -6  -6    0.34    0.56
   0  -6  -6    0.05    0.51
   0   6   6    0.11    0.49
   0   6   6    0.34    0.55
  -1  -6  -6   84.19    3.18
  -1  -6  -6   86.01    3.18
   1   6   6   86.30    3.02
   1   6   6   83.56    3.08
  -2  -6  -6  108.22    3.98
  -2  -6  -6  104.27    3.89
   2   6   6  110.02    3.82
   2   6   6  109.71    3.70
  -3  -6  -6    2.55    0.79
  -3  -6  -6    1.56    0.69
   3   6   6    2.86    0.69
   3   6   6    3.45    0.60
  -4  -6  -6   64.35    2.85
   4   6   6   63.31    2.67
   4   6   6   65.71    2.48
  -5  -6  -6  105.24    4.20
   5   6   6  104.58    3.96
  -6  -6  -6    0.72    1.24
   6   6   6    0.07    0.99
  -7  -6  -6   43.26    2.99
   7   6   6   53.52    2.96
   4  -7  -6   12.93    1.70
  -4   7   6   15.38    1.72
  -4   7   6   16.28    1.80
   3  -7  -6   27.06    1.89
  -3   7   6   19.15    1.89
  -3   7   6   23.36    1.71
   2  -7  -6   13.76    1.38
  -2   7   6   15.11    1.52
  -2   7   6   13.18    1.28
   1  -7  -6    7.80    0.83
   1  -7  -6    6.01    1.00
  -1   7   6    5.21    0.87
  -1   7   6    7.91    1.03
   0  -7  -6   88.75    3.42
   0  -7  -6   90.70    3.56
   0   7   6   90.68    3.33
   0   7   6  100.63    3.52
  -1  -7  -6   68.28    2.81
  -1  -7  -6   70.00    2.80
   1   7   6   68.77    2.57
   1   7   6   66.15    2.75
  -2  -7  -6   28.56    1.72
  -2  -7  -6   31.52    1.78
   2   7   6   29.18    1.47
   2   7   6   27.37    1.66
  -3  -7  -6  117.32    4.77
  -3  -7  -6  139.93    4.93
   3   7   6  141.10    4.74
  -4  -7  -6   21.94    1.67
   4   7   6   20.67    1.56
  -5  -7  -6    9.74    1.43
   5   7   6   11.85    1.34
  -6  -7  -6   54.78    3.22
   6   7   6   59.14    3.01
   3  -8  -6    0.46    1.29
  -3   8   6    0.94    1.60
  -3   8   6    0.31    1.37
   2  -8  -6   56.20    2.98
  -2   8   6   54.31    2.99
  -2   8   6   54.81    2.75
   1  -8  -6   45.19    2.56
  -1   8   6   46.57    2.49
  -1   8   6   46.77    2.34
   0  -8  -6    0.51    0.88
   0  -8  -6    2.04    0.80
   0   8   6   -0.76    0.91
   0   8   6    2.01    0.89
  -1  -8  -6   45.33    2.23
  -1  -8  -6   41.65    2.32
   1   8   6   46.46    2.34
  -2  -8  -6   77.46    3.21
  -2  -8  -6   71.96    3.16
   2   8   6   72.27    3.15
  -3  -8  -6    1.84    1.18
  -3  -8  -6    4.98    1.14
   3   8   6    6.55    1.16
  -4  -8  -6   55.37    2.94
   4   8   6   59.21    2.82
  -5  -8  -6   91.16    4.10
   5   8   6   92.49    3.91
   2  -9  -6   13.04    1.83
  -2   9   6   15.62    1.83
   1  -9  -6    4.93    1.36
  -1   9   6    4.16    1.42
   0  -9  -6   73.46    3.47
   0   9   6   79.36    3.42
  -1  -9  -6   39.83    2.48
  -1  -9  -6   38.13    2.31
   1   9   6   40.16    2.49
  -2  -9  -6   25.31    1.91
  -2  -9  -6   29.19    2.10
   2   9   6   28.36    2.01
  -3  -9  -6   72.56    3.69
  -3  -9  -6   71.60    3.52
   3   9   6   77.79    3.48
  -4  -9  -6   13.55    1.75
   4   9   6   14.75    1.72
   0 -10  -6   -1.26    1.33
   0  10   6   -0.08    1.42
  -1 -10  -6   32.90    2.36
   1  10   6   30.10    2.32
  -2 -10  -6   57.16    3.42
  -2 -10  -6   50.06    3.22
   2  10   6   63.53    3.26
   1   7  -7   82.01    3.85
  -1  -7   7   79.00    3.88
   4   6  -7    3.18    1.32
  -4  -6   7    1.23    1.32
   3   6  -7    9.50    1.55
  -3  -6   7   12.29    1.55
   2   6  -7   55.66    2.92
  -2  -6   7   55.30    3.05
   1   6  -7   29.35    2.05
  -1  -6   7   32.39    2.18
   0   6  -7   29.58    2.11
   0   6  -7   27.73    1.92
   0  -6   7   29.44    2.16
  -1   6  -7  106.45    4.26
  -1   6  -7   94.04    4.01
   1  -6   7   96.89    4.21
  -2   6  -7    4.66    1.32
   2  -6   7   -0.28    1.41
   2  -6   7    4.38    1.41
   5   5  -7    1.25    1.10
  -5  -5   7    0.84    1.22
   4   5  -7   72.85    3.37
  -4  -5   7   73.96    3.40
   3   5  -7   79.48    3.52
  -3  -5   7   83.96    3.62
   2   5  -7    8.10    1.15
  -2  -5   7    5.33    1.19
   1   5  -7   72.19    2.95
   1   5  -7   76.47    3.24
  -1  -5   7   74.89    3.26
  -1  -5   7   80.26    3.17
   0   5  -7   21.13    1.67
   0   5  -7   22.93    1.53
   0  -5   7   20.73    1.57
   0  -5   7   19.91    1.65
  -1   5  -7    0.46    1.01
  -1   5  -7    2.00    1.04
   1  -5   7   -1.36    0.98
   1  -5   7    0.10    0.95
  -2   5  -7   27.18    1.91
  -2   5  -7   29.53    2.11
   2  -5   7   28.00    1.94
   2  -5   7   29.53    2.06
  -3   5  -7   39.42    2.39
   3  -5   7   40.85    2.50
   6   4  -7   40.41    2.59
  -6  -4   7   35.92    2.56
   5   4  -7   73.40    3.28
  -5  -4   7   72.20    3.38
   4   4  -7    2.91    0.94
  -4  -4   7    3.22    0.98
   3   4  -7   18.69    1.56
  -3  -4   7   20.70    1.60
  -3  -4   7   20.71    1.46
   2   4  -7  112.53    4.18
  -2  -4   7  109.54    4.11
  -2  -4   7  104.71    4.07
   1   4  -7   40.54    2.05
   1   4  -7   40.33    1.80
  -1  -4   7   38.92    2.04
  -1  -4   7   41.01    2.04
   0   4  -7   41.44    1.96
   0   4  -7   43.58    2.19
   0  -4   7   42.44    2.10
   0  -4   7   43.82    2.13
  -1   4  -7  139.41    4.80
  -1   4  -7  140.95    5.07
   1  -4   7  139.08    4.99
   1  -4   7  140.17    4.97
  -2   4  -7    3.13    0.97
  -2   4  -7    5.19    1.18
   2  -4   7    1.87    0.88
   2  -4   7    3.06    1.00
  -3   4  -7   14.90    1.45
   3  -4   7   13.57    1.49
  -4   4  -7   11.76    1.60
   4  -4   7   12.72    1.61
   6   3  -7   44.55    2.67
  -6  -3   7   42.86    2.76
   5   3  -7    2.10    0.97
  -5  -3   7    1.92    1.17
  -5  -3   7    2.10    0.89
   4   3  -7   87.94    3.65
  -4  -3   7   91.45    3.54
  -4  -3   7   93.23    3.67
   3   3  -7  105.48    4.00
  -3  -3   7  107.90    3.96
  -3  -3   7  101.25    3.87
   2   3  -7   15.64    1.23
  -2  -3   7   14.71    1.25
  -2  -3   7   17.89    1.29
   1   3  -7   92.14    2.96
   1   3  -7   89.14    3.37
  -1  -3   7   87.69    3.30
  -1  -3   7   80.99    3.28
   0   3  -7   29.75    1.38
   0   3  -7   26.10    1.56
   0  -3   7   28.15    1.54
   0  -3   7   29.47    1.60
  -1   3  -7   -0.49    0.57
  -1   3  -7    1.35    0.72
   1  -3   7   -0.90    0.55
   1  -3   7    1.01    0.66
  -2   3  -7   50.53    2.24
  -2   3  -7   53.54    2.46
   2  -3   7   49.36    2.20
   2  -3   7   51.84    2.35
  -3   3  -7   50.35    2.42
  -3   3  -7   48.19    2.69
   3  -3   7   57.98    2.58
  -4   3  -7   -1.60    0.99
   4  -3   7    0.87    1.10
  -5   3  -7   28.40    2.20
   5  -3   7   33.26    2.37
   6   2  -7   58.87    2.96
  -6  -2   7   60.51    3.00
  -6  -2   7   61.67    3.26
   5   2  -7   81.45    3.37
  -5  -2   7   80.05    3.39
  -5  -2   7   76.80    3.35
   4   2  -7    6.97    0.94
  -4  -2   7    8.16    1.03
  -4  -2   7    8.08    1.07
   3   2  -7   15.37    1.21
  -3  -2   7   18.23    1.34
  -3  -2   7   15.39    1.21
   2   2  -7  147.24    5.12
  -2  -2   7  146.88    5.03
  -2  -2   7  143.80    5.08
   1   2  -7   59.43    2.40
  -1  -2   7   58.89    2.35
  -1  -2   7   59.50    2.41
   0   2  -7   63.70    2.15
   0   2  -7   59.41    2.42
   0  -2   7   60.22    2.34
   0  -2   7   58.18    2.41
  -1   2  -7  174.72    5.33
  -1   2  -7  169.64    5.70
   1  -2   7  161.39    5.45
   1  -2   7  154.46    5.59
  -2   2  -7    0.30    0.64
  -2   2  -7   -0.44    0.61
   2  -2   7   -0.28    0.64
   2  -2   7   -0.18    0.49
  -3   2  -7   12.28    1.22
  -3   2  -7    9.78    1.08
   3  -2   7   12.90    1.22
  -4   2  -7    9.93    1.36
  -4   2  -7    8.95    1.18
   4  -2   7   10.82    1.30
  -5   2  -7   17.24    1.57
   5  -2   7   16.97    1.73
  -6   2  -7    1.49    1.40
   6  -2   7   -1.01    1.42
   7   1  -7   19.42    1.87
   7   1  -7   21.40    2.22
  -7  -1   7   21.50    2.23
   6   1  -7   50.62    2.68
  -6  -1   7   53.67    2.89
  -6  -1   7   56.06    3.08
   5   1  -7    1.37    0.89
  -5  -1   7    3.49    1.05
  -5  -1   7    4.15    0.90
   4   1  -7  138.56    5.00
  -4  -1   7  138.27    4.99
  -4  -1   7  143.89    5.03
   3   1  -7  133.28    4.82
  -3  -1   7  136.17    4.80
  -3  -1   7  142.39    4.85
   2   1  -7   32.36    1.59
  -2  -1   7   35.36    1.68
  -2  -1   7   33.67    1.59
   1   1  -7   99.19    3.63
  -1  -1   7  102.25    3.63
  -1  -1   7  103.31    3.56
   0   1  -7   61.64    2.08
   0   1  -7   60.85    2.38
   0  -1   7   63.19    2.28
   0  -1   7   59.29    2.39
  -1   1  -7    3.22    0.48
  -1   1  -7    3.23    0.60
   1  -1   7    2.17    0.57
   1  -1   7    2.66    0.46
  -2   1  -7   83.54    2.90
  -2   1  -7   78.62    3.11
   2  -1   7   83.16    2.80
   2  -1   7   81.17    3.11
  -3   1  -7   99.29    3.43
  -3   1  -7   91.54    3.63
   3  -1   7   94.50    3.59
  -4   1  -7    0.71    0.77
  -4   1  -7    0.97    0.91
   4  -1   7    1.63    0.81
  -5   1  -7   34.76    2.14
  -5   1  -7   31.43    2.07
   5  -1   7   34.41    2.24
  -6   1  -7    2.78    1.34
   6  -1   7    0.56    1.32
   7   0  -7   13.68    1.92
  -7   0   7   13.13    1.97
   6   0  -7   63.21    3.16
   6   0  -7   60.84    2.83
  -6   0   7   64.95    3.36
   5   0  -7   55.16    2.54
  -5   0   7   58.53    2.67
  -5   0   7   59.70    2.86
   4   0  -7    8.98    0.94
  -4   0   7   10.84    1.05
  -4   0   7   11.35    1.17
   3   0  -7    9.34    0.87
  -3   0   7    8.76    0.90
  -3   0   7    9.46    0.96
   2   0  -7  148.44    5.08
  -2   0   7  150.66    5.11
  -2   0   7  147.46    5.04
   1   0  -7   81.39    3.10
  -1   0   7   87.26    3.05
  -1   0   7   90.53    3.16
   0   0  -7   86.38    3.19
   0   0   7   91.99    3.04
   0   0   7   86.00    3.16
  -1   0  -7  159.51    5.52
  -1   0  -7  168.42    5.14
   1   0   7  156.18    5.47
   1   0   7  168.38    5.26
  -2   0  -7   -0.37    0.49
  -2   0  -7   -0.12    0.39
   2   0   7    0.00    0.46
  -3   0  -7    3.86    0.68
  -3   0  -7    4.17    0.75
   3   0   7    2.85    0.67
  -4   0  -7   20.77    1.38
  -4   0  -7   21.54    1.55
   4   0   7   19.02    1.41
  -5   0  -7   27.71    1.87
  -5   0  -7   28.63    1.86
   5   0   7   30.38    1.98
  -6   0  -7    0.93    1.12
  -6   0  -7    0.51    1.41
   6   0   7    0.05    1.21
   7  -1  -7   22.40    2.27
  -7   1   7   22.91    2.29
   6  -1  -7   79.69    3.62
  -6   1   7   70.62    3.56
   5  -1  -7    2.52    0.94
   5  -1  -7    1.82    0.71
  -5   1   7    2.60    1.00
   4  -1  -7  204.93    7.01
   4  -1  -7  207.20    6.89
  -4   1   7  205.58    7.02
   3  -1  -7  106.96    3.81
  -3   1   7  112.15    3.94
  -3   1   7  103.83    3.85
   2  -1  -7   51.96    2.07
  -2   1   7   51.85    2.13
  -2   1   7   51.55    2.08
   1  -1  -7   66.94    2.48
  -1   1   7   63.57    2.39
  -1   1   7   66.42    2.49
   0  -1  -7   49.73    2.00
   0   1   7   50.94    1.86
   0   1   7   50.81    2.01
  -1  -1  -7   10.09    0.64
  -1  -1  -7    8.80    0.78
   1   1   7    9.44    0.60
   1   1   7   10.27    0.80
  -2  -1  -7   63.56    2.50
  -2  -1  -7   66.10    2.27
   2   1   7   62.83    2.46
  -3  -1  -7   97.57    3.63
  -3  -1  -7   98.99    3.41
   3   1   7   98.21    3.58
  -4  -1  -7    2.45    0.68
  -4  -1  -7    2.35    0.78
   4   1   7    3.66    0.78
  -5  -1  -7   18.58    1.41
  -5  -1  -7   15.10    1.44
   5   1   7   16.95    1.43
  -6  -1  -7    1.88    1.01
  -6  -1  -7    2.35    1.41
   6   1   7    2.78    1.21
  -7  -1  -7    9.76    1.62
   7   1   7    8.43    1.75
   6  -2  -7   51.07    2.81
  -6   2   7   47.61    3.02
   5  -2  -7   48.60    2.19
   5  -2  -7   51.41    2.58
  -5   2   7   50.51    2.58
   4  -2  -7   21.89    1.52
   4  -2  -7   22.11    1.30
  -4   2   7   22.27    1.52
   3  -2  -7   10.74    0.86
   3  -2  -7   10.19    0.98
  -3   2   7   10.29    0.97
   2  -2  -7  197.07    7.25
   2  -2  -7  236.27    7.32
  -2   2   7  234.35    7.38
   1  -2  -7   90.44    3.09
   1  -2  -7   85.84    3.12
  -1   2   7   85.38    3.15
   0  -2  -7  183.85    6.03
   0  -2  -7  181.51    5.86
   0   2   7  184.13    5.58
   0   2   7  174.73    5.97
  -1  -2  -7  131.90    4.29
  -1  -2  -7  134.80    4.59
   1   2   7  134.12    4.23
   1   2   7  132.34    4.51
  -2  -2  -7    1.70    0.49
  -2  -2  -7    1.65    0.40
   2   2   7    2.02    0.48
  -3  -2  -7    1.23    0.46
  -3  -2  -7    0.43    0.45
   3   2   7    0.28    0.51
  -4  -2  -7   18.07    1.25
  -4  -2  -7   18.69    1.35
   4   2   7   18.78    1.33
  -5  -2  -7   34.60    1.92
  -5  -2  -7   36.21    2.07
   5   2   7   32.83    1.95
  -6  -2  -7   -0.08    1.27
  -6  -2  -7   -0.31    1.07
   6   2   7   -0.10    1.09
  -7  -2  -7   22.24    1.92
  -7  -2  -7   16.68    2.10
   7   2   7   19.82    1.99
   6  -3  -7   64.68    3.40
  -6   3   7   70.59    3.55
   5  -3  -7    2.17    0.97
  -5   3   7    0.14    0.94
   4  -3  -7  149.32    5.15
   4  -3  -7  153.12    5.42
  -4   3   7  153.18    5.43
   3  -3  -7   60.97    2.58
   3  -3  -7   64.84    2.42
  -3   3   7   63.04    2.62
   2  -3  -7   16.17    1.12
   2  -3  -7   16.93    1.02
  -2   3   7   17.00    1.18
   1  -3  -7   41.30    1.65
   1  -3  -7   38.98    1.63
  -1   3   7   40.13    1.67
  -1   3   7   32.98    1.42
   0  -3  -7   87.98    3.22
   0  -3  -7   93.37    3.13
   0   3   7   89.94    2.95
   0   3   7   90.46    3.21
  -1  -3  -7   17.39    1.07
  -1  -3  -7   18.63    0.86
   1   3   7   17.59    0.89
   1   3   7   18.47    1.03
  -2  -3  -7  105.89    3.78
   2   3   7  102.60    3.53
   2   3   7  109.44    3.71
  -3  -3  -7   95.08    3.63
   3   3   7  103.39    3.45
   3   3   7   98.56    3.53
  -4  -3  -7    9.89    1.00
   4   3   7    8.53    0.96
  -5  -3  -7   12.00    1.13
  -5  -3  -7    8.83    1.16
   5   3   7   11.19    1.18
  -6  -3  -7    0.46    1.13
  -6  -3  -7    1.26    0.97
   6   3   7   -0.12    1.10
  -7  -3  -7   16.65    2.05
   7   3   7   16.49    1.85
   6  -4  -7   36.00    2.52
  -6   4   7   35.33    2.51
   5  -4  -7   46.26    2.65
  -5   4   7   43.97    2.61
   4  -4  -7   20.27    1.57
  -4   4   7   18.86    1.52
   3  -4  -7    9.67    0.85
   3  -4  -7    8.90    1.04
  -3   4   7   10.94    0.79
  -3   4   7   10.98    1.04
   2  -4  -7  185.58    6.05
   2  -4  -7  180.24    6.18
  -2   4   7  174.29    6.14
  -2   4   7  189.12    5.81
   1  -4  -7   41.47    1.84
   1  -4  -7   43.95    1.77
  -1   4   7   41.04    1.85
  -1   4   7   43.50    1.71
   0  -4  -7   98.90    3.43
   0  -4  -7  100.34    3.52
   0   4   7   97.82    3.51
   0   4   7   99.86    3.30
  -1  -4  -7   51.32    2.12
  -1  -4  -7   54.26    1.98
   1   4   7   51.23    2.07
   1   4   7   54.14    1.95
  -2  -4  -7    0.34    0.44
  -2  -4  -7    0.90    0.47
   2   4   7    1.43    0.45
   2   4   7    1.84    0.52
  -3  -4  -7    0.48    0.52
   3   4   7    1.20    0.49
   3   4   7    0.06    0.52
  -4  -4  -7   22.74    1.52
   4   4   7   21.86    1.40
   4   4   7   22.54    1.39
  -5  -4  -7   41.33    2.24
   5   4   7   40.68    2.07
   5   4   7   38.44    2.10
  -6  -4  -7    0.49    1.17
   6   4   7    1.30    1.06
   6   4   7    2.06    1.09
  -7  -4  -7   13.09    2.03
   7   4   7   15.88    1.74
   7   4   7   14.26    1.78
   5  -5  -7    0.34    1.13
  -5   5   7    1.92    1.24
   4  -5  -7  138.55    5.08
  -4   5   7  138.01    4.69
  -4   5   7  130.19    5.03
   3  -5  -7   50.14    2.40
  -3   5   7   55.64    2.26
  -3   5   7   48.38    2.38
   2  -5  -7   12.24    0.89
   2  -5  -7   10.56    1.01
  -2   5   7   10.19    1.00
  -2   5   7   12.74    1.05
   1  -5  -7   45.85    1.88
   1  -5  -7   44.35    1.98
  -1   5   7   44.22    1.97
  -1   5   7   46.95    1.95
   0  -5  -7   81.37    2.94
   0  -5  -7   77.92    2.92
   0   5   7   80.32    2.94
   0   5   7   77.60    2.85
  -1  -5  -7   12.61    0.99
  -1  -5  -7   10.72    0.85
   1   5   7   11.93    0.88
   1   5   7   10.99    0.86
  -2  -5  -7   88.13    3.35
  -2  -5  -7   91.33    3.17
   2   5   7   87.92    3.13
   2   5   7   86.20    3.16
  -3  -5  -7   54.91    2.45
  -3  -5  -7   60.69    2.18
   3   5   7   56.89    2.35
   3   5   7   58.89    2.31
  -4  -5  -7    1.62    0.74
   4   5   7    2.96    0.76
   4   5   7    4.39    0.72
  -5  -5  -7    1.84    1.00
   5   5   7    2.11    0.89
   5   5   7    1.74    0.87
  -6  -5  -7    2.45    1.26
   6   5   7    1.40    1.10
   6   5   7    3.52    1.15
  -7  -5  -7   16.63    2.23
   7   5   7   16.19    1.96
   5  -6  -7   27.08    2.26
  -5   6   7   25.40    2.16
   4  -6  -7   20.50    1.80
  -4   6   7   21.86    1.85
  -4   6   7   24.91    1.77
   3  -6  -7    5.31    1.09
  -3   6   7    5.61    1.12
  -3   6   7    7.58    1.09
   2  -6  -7  131.91    4.67
  -2   6   7  114.34    4.48
  -2   6   7  131.96    4.60
   1  -6  -7   23.29    1.35
   1  -6  -7   22.75    1.47
  -1   6   7   21.45    1.42
  -1   6   7   20.67    1.37
   0  -6  -7   61.24    2.54
   0  -6  -7   58.25    2.46
   0   6   7   65.03    2.48
   0   6   7   64.55    2.47
  -1  -6  -7   41.84    1.92
  -1  -6  -7   42.97    1.93
   1   6   7   40.82    1.82
   1   6   7   40.83    1.87
  -2  -6  -7    3.16    0.72
  -2  -6  -7    4.13    0.82
   2   6   7    3.48    0.66
   2   6   7    1.88    0.66
  -3  -6  -7    0.80    0.72
  -3  -6  -7    1.86    0.80
   3   6   7   -0.43    0.62
   3   6   7   -0.29    0.65
  -4  -6  -7   24.40    1.74
   4   6   7   25.42    1.55
   4   6   7   25.59    1.64
  -5  -6  -7   38.84    2.39
   5   6   7   37.06    2.20
  -6  -6  -7    2.60    1.38
   6   6   7    2.95    1.14
   4  -7  -7   83.86    3.91
  -4   7   7   82.62    3.90
  -4   7   7   86.45    3.87
   3  -7  -7   36.77    2.27
  -3   7   7   31.55    2.10
  -3   7   7   26.44    2.12
   2  -7  -7    0.95    0.92
  -2   7   7    0.79    1.13
  -2   7   7    2.48    0.91
   1  -7  -7   19.30    1.51
   1  -7  -7   19.29    1.28
  -1   7   7   19.87    1.50
  -1   7   7   20.82    1.40
   0  -7  -7   61.99    2.69
   0  -7  -7   61.13    2.57
   0   7   7   60.84    2.49
   0   7   7   62.57    2.61
  -1  -7  -7    9.99    1.07
  -1  -7  -7    9.29    1.07
   1   7   7    8.71    1.05
   1   7   7   11.26    0.97
  -2  -7  -7   48.74    2.37
  -2  -7  -7   54.35    2.38
   2   7   7   45.55    2.26
   2   7   7   50.27    2.10
  -3  -7  -7   20.75    1.63
  -3  -7  -7   28.57    1.82
   3   7   7   29.01    1.77
  -4  -7  -7   -0.23    0.90
   4   7   7   -0.74    0.86
  -5  -7  -7    0.77    1.18
   5   7   7    1.34    1.09
  -6  -7  -7    4.26    1.54
   6   7   7    1.69    1.33
   3  -8  -7    8.60    1.69
  -3   8   7    4.99    1.69
  -3   8   7    9.45    1.52
   2  -8  -7   96.64    4.16
  -2   8   7   95.29    4.10
  -2   8   7   99.07    4.01
   1  -8  -7   10.93    1.36
  -1   8   7   13.40    1.26
  -1   8   7   12.38    1.40
   0  -8  -7   36.35    2.02
   0  -8  -7   35.81    2.13
   0   8   7   37.94    2.06
   0   8   7   38.77    2.22
  -1  -8  -7   29.37    1.93
  -1  -8  -7   34.54    2.06
   1   8   7   33.88    2.03
  -2  -8  -7    5.76    1.16
  -2  -8  -7    6.78    1.13
   2   8   7    6.02    1.14
  -3  -8  -7    0.24    0.99
  -3  -8  -7   -1.37    1.21
   3   8   7    1.34    1.03
  -4  -8  -7   23.31    1.96
   4   8   7   23.29    1.87
  -5  -8  -7   30.62    2.33
   5   8   7   30.91    2.17
   2  -9  -7    0.33    1.46
  -2   9   7    3.74    1.64
   1  -9  -7    7.07    1.36
  -1   9   7    6.50    1.55
   0  -9  -7   46.70    2.72
   0   9   7   45.65    2.75
  -1  -9  -7    5.36    1.26
  -1  -9  -7    7.39    1.24
   1   9   7    6.60    1.34
  -2  -9  -7   29.41    2.02
  -2  -9  -7   31.30    2.15
   2   9   7   30.56    2.17
  -3  -9  -7   19.80    2.04
  -3  -9  -7   21.22    1.91
   3   9   7   21.39    1.90
  -4  -9  -7    0.04    1.30
   4   9   7   -0.33    1.35
  -1 -10  -7    8.24    1.66
   1  10   7   11.05    1.76
  -2 -10  -7   11.59    1.76
  -2 -10  -7    9.88    1.85
   2  10   7    8.36    1.73
   2   6  -8    1.66    1.31
  -2  -6   8    1.34    1.37
   1   6  -8   14.40    1.72
  -1  -6   8   16.05    1.79
   0   6  -8    1.68    1.41
   0  -6   8    1.91    1.28
  -1   6  -8   12.33    1.98
  -1   6  -8   10.10    1.63
   1  -6   8   10.92    1.60
   4   5  -8    8.45    1.48
  -4  -5   8   10.46    1.48
   3   5  -8   16.99    1.74
  -3  -5   8   15.96    1.66
   2   5  -8    0.12    1.00
  -2  -5   8    1.03    1.02
   1   5  -8    3.43    1.08
  -1  -5   8    2.55    1.16
   0   5  -8    4.68    1.22
   0  -5   8    4.25    1.25
   0  -5   8    3.12    1.14
  -1   5  -8   19.76    1.72
  -1   5  -8   26.14    2.01
   1  -5   8   24.09    1.85
   1  -5   8   23.83    1.77
  -2   5  -8    2.24    1.34
   2  -5   8    1.69    1.30
  -3   5  -8   22.81    2.10
   3  -5   8   17.84    2.02
   5   4  -8    3.72    1.30
  -5  -4   8    4.08    1.29
   4   4  -8    0.10    0.99
  -4  -4   8    0.81    1.04
   3   4  -8   -0.65    0.89
  -3  -4   8    0.64    0.91
   2   4  -8    7.04    1.06
  -2  -4   8    6.86    1.14
  -2  -4   8    6.04    1.22
   1   4  -8   30.04    1.91
  -1  -4   8   30.84    1.93
  -1  -4   8   29.68    1.90
   0   4  -8    2.85    0.86
   0   4  -8    3.76    0.97
   0  -4   8    2.04    0.98
   0  -4   8    3.81    0.94
  -1   4  -8   18.25    1.62
  -1   4  -8   16.84    1.40
   1  -4   8   17.78    1.40
   1  -4   8   17.11    1.50
  -2   4  -8   21.82    1.66
  -2   4  -8   20.61    1.82
   2  -4   8   26.15    1.87
   2  -4   8   24.61    1.70
  -3   4  -8    7.59    1.38
   3  -4   8    8.30    1.50
  -4   4  -8    0.01    1.51
   4  -4   8    2.51    1.51
   5   3  -8   -0.27    1.03
  -5  -3   8   -0.36    0.98
   4   3  -8    9.64    1.25
  -4  -3   8   10.36    1.21
  -4  -3   8   13.26    1.42
   3   3  -8   12.01    1.26
  -3  -3   8    8.30    1.32
  -3  -3   8   13.34    1.29
   2   3  -8    1.47    0.70
  -2  -3   8   -1.26    0.90
  -2  -3   8    0.95    0.68
   1   3  -8    0.21    0.66
  -1  -3   8   -0.23    0.61
  -1  -3   8    1.24    0.77
   0   3  -8   10.22    0.94
   0   3  -8    9.30    1.08
   0  -3   8    9.24    0.99
   0  -3   8   10.60    1.17
  -1   3  -8   49.22    2.36
  -1   3  -8   42.39    2.09
   1  -3   8   49.19    2.30
   1  -3   8   45.93    2.14
  -2   3  -8    0.46    1.01
  -2   3  -8   -0.30    0.82
   2  -3   8    2.57    0.78
   2  -3   8    2.33    0.93
  -3   3  -8   36.23    2.21
  -3   3  -8   36.32    2.42
   3  -3   8   41.00    2.39
  -4   3  -8   41.01    2.53
   4  -3   8   39.83    2.53
   6   2  -8   11.64    1.52
  -6  -2   8   12.23    1.58
  -6  -2   8   14.50    1.76
   5   2  -8    6.96    1.13
  -5  -2   8    8.12    1.26
  -5  -2   8    9.53    1.44
   4   2  -8    2.99    0.85
  -4  -2   8    2.07    0.79
  -4  -2   8    2.79    1.01
   3   2  -8    0.06    0.68
  -3  -2   8    0.38    0.68
  -3  -2   8   -0.73    0.84
   2   2  -8    9.56    1.02
  -2  -2   8   13.26    1.11
  -2  -2   8   10.36    1.14
   1   2  -8   23.86    1.46
  -1  -2   8   23.67    1.39
  -1  -2   8   26.65    1.61
   0   2  -8    3.13    0.59
   0   2  -8    3.14    0.70
   0  -2   8    3.26    0.80
   0  -2   8    2.77    0.65
  -1   2  -8   10.09    0.88
  -1   2  -8   11.35    1.10
   1  -2   8    8.98    1.00
   1  -2   8    9.29    0.87
  -2   2  -8   30.42    1.69
  -2   2  -8   29.28    1.89
   2  -2   8   29.73    1.53
   2  -2   8   30.23    1.78
  -3   2  -8   26.42    1.87
  -3   2  -8   23.40    1.53
   3  -2   8   22.20    1.63
  -4   2  -8    1.52    1.34
  -4   2  -8    4.89    1.03
   4  -2   8    4.01    1.18
  -5   2  -8   52.85    2.90
   5  -2   8   54.64    3.10
   6   1  -8    7.75    1.32
  -6  -1   8    7.23    1.43
  -6  -1   8   10.30    1.71
   5   1  -8    0.43    0.86
  -5  -1   8    0.19    1.11
  -5  -1   8    1.57    0.89
   4   1  -8   10.58    1.11
  -4  -1   8   10.63    1.23
  -4  -1   8    9.75    1.06
   3   1  -8   20.10    1.42
  -3  -1   8   23.01    1.56
  -3  -1   8   20.77    1.45
   2   1  -8    8.97    0.90
  -2  -1   8    9.16    0.99
  -2  -1   8    9.60    0.92
   1   1  -8    0.16    0.48
  -1  -1   8    0.55    0.62
  -1  -1   8    0.29    0.45
   0   1  -8   32.13    1.31
   0   1  -8   37.30    1.70
   0  -1   8   30.39    1.50
   0  -1   8   34.56    1.71
  -1   1  -8   52.00    1.95
  -1   1  -8   50.82    2.27
   1  -1   8   52.72    2.23
   1  -1   8   52.35    2.01
  -2   1  -8    0.79    0.57
  -2   1  -8    0.64    0.67
   2  -1   8    0.43    0.45
   2  -1   8   -0.11    0.62
  -3   1  -8   45.09    2.05
  -3   1  -8   41.83    2.27
   3  -1   8   43.94    2.21
  -4   1  -8   44.39    2.25
  -4   1  -8   44.13    2.49
   4  -1   8   43.43    2.39
  -5   1  -8    3.36    1.40
  -5   1  -8    0.80    1.12
   5  -1   8    1.86    1.19
  -6   1  -8   19.02    1.96
   6  -1   8   21.14    1.96
   6   0  -8    8.24    1.23
   6   0  -8    5.93    1.49
  -6   0   8    8.78    1.55
   5   0  -8    5.53    0.97
  -5   0   8    2.91    0.98
  -5   0   8    6.08    1.24
   4   0  -8    3.77    0.78
  -4   0   8    1.85    0.87
  -4   0   8    2.14    0.68
   3   0  -8    1.31    0.62
  -3   0   8    1.64    0.61
  -3   0   8    1.62    0.73
   2   0  -8    9.36    0.91
  -2   0   8    7.35    0.93
  -2   0   8    9.16    0.87
   1   0  -8   40.26    1.84
  -1   0   8   41.30    1.76
  -1   0   8   42.90    1.90
   0   0  -8   15.32    1.15
   0   0   8   16.25    1.00
   0   0   8   16.14    1.18
  -1   0  -8   16.64    0.93
  -1   0  -8   17.54    1.24
   1   0   8   18.30    1.22
   1   0   8   16.38    0.92
  -2   0  -8   85.05    2.98
  -2   0  -8   81.69    3.26
   2   0   8   87.09    2.82
   2   0   8   82.08    3.20
  -3   0  -8   29.75    1.62
  -3   0  -8   31.17    1.79
   3   0   8   27.92    1.69
  -4   0  -8   12.88    1.21
  -4   0  -8   14.27    1.42
   4   0   8   12.43    1.28
  -5   0  -8   71.48    3.30
  -5   0  -8   69.95    3.08
   5   0   8   64.26    3.16
  -6   0  -8   19.23    2.07
  -6   0  -8   21.00    1.87
   6   0   8   22.77    1.93
   6  -1  -8   12.79    1.73
  -6   1   8   13.58    1.69
   5  -1  -8    1.06    0.93
   5  -1  -8    1.02    0.83
  -5   1   8    0.87    1.07
   4  -1  -8    8.69    1.15
   4  -1  -8    8.09    0.91
  -4   1   8    8.33    1.11
   3  -1  -8   14.45    1.10
  -3   1   8   13.88    1.21
  -3   1   8   13.33    1.11
   2  -1  -8   11.08    0.93
  -2   1   8   12.26    0.98
  -2   1   8   13.19    1.06
   1  -1  -8    0.33    0.45
  -1   1   8    0.01    0.44
  -1   1   8    0.22    0.52
   0  -1  -8   20.87    1.22
   0   1   8   23.57    1.25
   0   1   8   22.75    1.09
  -1  -1  -8   55.30    2.30
  -1  -1  -8   58.45    2.01
   1   1   8   56.46    2.28
  -2  -1  -8    4.82    0.73
  -2  -1  -8    4.39    0.60
   2   1   8    5.93    0.79
  -3  -1  -8   49.18    2.25
  -3  -1  -8   49.81    2.05
   3   1   8   47.44    2.22
  -4  -1  -8   66.12    2.73
  -4  -1  -8   68.03    2.96
   4   1   8   71.37    2.94
  -5  -1  -8    1.67    0.93
  -5  -1  -8    1.71    1.15
   5   1   8   -0.93    0.98
  -6  -1  -8   41.28    2.52
  -6  -1  -8   33.45    2.55
   6   1   8   43.59    2.64
   6  -2  -8    6.84    1.41
  -6   2   8    4.20    1.58
   5  -2  -8    8.68    1.30
   5  -2  -8   10.89    1.08
  -5   2   8   12.69    1.52
   4  -2  -8    9.27    1.15
   4  -2  -8    8.69    0.92
  -4   2   8   10.01    1.12
   3  -2  -8    1.19    0.58
   3  -2  -8    0.54    0.62
  -3   2   8    2.33    0.65
   2  -2  -8   24.42    1.33
   2  -2  -8   24.22    1.39
  -2   2   8   22.90    1.38
   1  -2  -8   56.75    2.28
   1  -2  -8   59.53    2.34
  -1   2   8   60.09    2.37
   0  -2  -8   16.67    0.98
   0  -2  -8   18.73    1.22
   0   2   8   17.01    0.81
   0   2   8   17.38    1.12
  -1  -2  -8   15.92    1.13
  -1  -2  -8   15.26    0.84
   1   2   8   17.49    1.14
   1   2   8   16.62    0.88
  -2  -2  -8   99.04    3.62
  -2  -2  -8  101.65    3.34
   2   2   8   93.58    3.52
  -3  -2  -8   33.19    1.73
  -3  -2  -8   34.09    1.60
   3   2   8   33.12    1.67
  -4  -2  -8    6.34    0.87
  -4  -2  -8    5.66    0.94
   4   2   8    6.66    0.96
  -5  -2  -8   69.99    3.29
  -5  -2  -8   74.06    3.07
   5   2   8   73.82    3.19
  -6  -2  -8   30.04    2.31
  -6  -2  -8   28.51    1.99
   6   2   8   31.34    2.20
   6  -3  -8    9.77    1.68
  -6   3   8    8.96    1.78
   5  -3  -8   -0.24    0.93
  -5   3   8    0.27    1.05
   4  -3  -8    3.37    0.85
   4  -3  -8    3.48    0.94
  -4   3   8    4.46    1.04
   3  -3  -8   13.28    1.17
   3  -3  -8   13.67    1.08
  -3   3   8   13.75    1.17
   2  -3  -8   17.45    1.13
   2  -3  -8   16.29    1.19
  -2   3   8   15.62    1.19
   1  -3  -8    0.65    0.45
   1  -3  -8   -0.29    0.44
  -1   3   8   -0.08    0.46
   0  -3  -8   34.08    1.48
   0  -3  -8   32.88    1.63
   0   3   8   35.30    1.34
   0   3   8   33.68    1.57
  -1  -3  -8   70.05    2.42
  -1  -3  -8   68.75    2.68
   1   3   8   70.68    2.41
   1   3   8   67.69    2.62
  -2  -3  -8   -0.27    0.45
   2   3   8    0.26    0.49
   2   3   8    0.56    0.45
  -3  -3  -8   62.86    2.62
   3   3   8   64.97    2.45
   3   3   8   63.66    2.56
  -4  -3  -8   83.58    3.37
   4   3   8   82.67    3.12
   4   3   8   83.06    3.24
  -5  -3  -8    2.15    0.95
  -5  -3  -8    0.12    0.87
   5   3   8   -1.01    0.91
  -6  -3  -8   55.79    3.11
   6   3   8   54.06    2.90
   6  -4  -8    2.39    1.54
  -6   4   8   -0.14    1.67
   5  -4  -8    6.94    1.33
  -5   4   8    8.23    1.38
   4  -4  -8   15.19    1.49
  -4   4   8   15.26    1.42
   3  -4  -8    5.73    0.85
   3  -4  -8    5.92    0.94
  -3   4   8    6.71    0.92
   2  -4  -8   19.96    1.30
   2  -4  -8   20.11    1.38
  -2   4   8   21.71    1.38
  -2   4   8   22.75    1.17
   1  -4  -8   50.47    2.12
   1  -4  -8   51.91    2.12
  -1   4   8   51.07    2.16
  -1   4   8   48.43    1.93
   0  -4  -8   26.56    1.29
   0  -4  -8   26.29    1.39
   0   4   8   26.29    1.21
   0   4   8   24.77    1.38
  -1  -4  -8   10.99    0.80
  -1  -4  -8   10.86    0.96
   1   4   8   10.43    0.91
   1   4   8   11.00    0.80
  -2  -4  -8   78.74    3.13
  -2  -4  -8   87.87    2.85
   2   4   8   78.52    3.04
   2   4   8   80.75    2.89
  -3  -4  -8   33.44    1.78
   3   4   8   33.83    1.69
   3   4   8   32.93    1.64
  -4  -4  -8    6.49    0.99
   4   4   8    5.65    0.84
   4   4   8    5.90    0.91
  -5  -4  -8   68.57    3.13
   5   4   8   67.53    2.90
   5   4   8   68.92    2.94
  -6  -4  -8   26.72    2.21
   6   4   8   25.75    1.90
   6   4   8   23.62    1.93
   5  -5  -8    0.94    1.27
  -5   5   8   -1.19    1.29
   4  -5  -8    4.02    1.10
  -4   5   8    3.19    1.16
   3  -5  -8   16.00    1.42
  -3   5   8   17.05    1.46
   2  -5  -8   16.44    1.26
   2  -5  -8   18.80    1.18
  -2   5   8   16.52    1.28
  -2   5   8   16.29    1.19
   1  -5  -8    0.73    0.57
   1  -5  -8    0.62    0.54
  -1   5   8   -0.65    0.57
  -1   5   8    0.00    0.64
   0  -5  -8   58.65    2.37
   0  -5  -8   55.78    2.28
   0   5   8   56.34    2.33
   0   5   8   60.33    2.27
  -1  -5  -8   83.86    3.07
  -1  -5  -8   85.92    3.23
   1   5   8   86.30    3.17
   1   5   8   83.55    3.01
  -2  -5  -8    0.48    0.55
  -2  -5  -8   -0.61    0.62
   2   5   8    0.06    0.53
   2   5   8    0.90    0.56
  -3  -5  -8   63.81    2.79
   3   5   8   65.66    2.61
   3   5   8   68.34    2.65
  -4  -5  -8   88.99    3.60
   4   5   8   89.41    3.39
   4   5   8   89.12    3.41
  -5  -5  -8    0.47    1.03
   5   5   8    2.01    0.95
   5   5   8   -0.22    0.88
  -6  -5  -8   38.44    2.61
   6   5   8   40.13    2.53
   6   5   8   40.53    2.46
   5  -6  -8    5.65    1.59
  -5   6   8    2.92    1.64
   4  -6  -8   18.20    1.72
  -4   6   8   16.76    1.71
   3  -6  -8    3.26    1.05
  -3   6   8    4.48    1.11
  -3   6   8    6.03    1.15
   2  -6  -8   13.44    1.29
   2  -6  -8   12.57    1.04
  -2   6   8   13.79    1.26
  -2   6   8    9.45    1.24
   1  -6  -8   28.73    1.60
   1  -6  -8   30.46    1.75
  -1   6   8   28.25    1.74
  -1   6   8   29.28    1.70
   0  -6  -8   23.30    1.49
   0  -6  -8   23.33    1.47
   0   6   8   25.24    1.50
   0   6   8   23.03    1.44
  -1  -6  -8    8.62    0.97
  -1  -6  -8    7.09    0.88
   1   6   8    7.87    0.89
   1   6   8    8.88    0.88
  -2  -6  -8   76.38    3.13
  -2  -6  -8   88.07    3.10
   2   6   8   72.25    2.98
   2   6   8   76.90    2.99
  -3  -6  -8   32.53    1.91
   3   6   8   33.69    1.79
   3   6   8   31.69    1.72
  -4  -6  -8   12.97    1.41
   4   6   8   15.76    1.34
   4   6   8   15.00    1.22
  -5  -6  -8   78.76    3.55
   5   6   8   76.99    3.31
  -6  -6  -8   19.12    2.04
   6   6   8   19.81    1.83
   4  -7  -8    2.70    1.41
  -4   7   8    5.11    1.63
   3  -7  -8   23.13    1.93
  -3   7   8   23.17    1.81
  -3   7   8   17.55    1.77
   2  -7  -8   17.14    1.58
  -2   7   8   17.39    1.54
  -2   7   8   18.67    1.66
   1  -7  -8    0.49    0.77
   1  -7  -8   -1.01    0.84
  -1   7   8    1.57    0.86
  -1   7   8    0.10    0.88
   0  -7  -8   49.57    2.27
   0  -7  -8   47.60    2.34
   0   7   8   50.53    2.30
   0   7   8   47.36    2.22
  -1  -7  -8   54.58    2.42
  -1  -7  -8   52.71    2.43
   1   7   8   51.95    2.32
   1   7   8   50.76    2.37
  -2  -7  -8    2.17    0.85
  -2  -7  -8    0.87    0.88
   2   7   8    2.75    0.81
   2   7   8    1.48    0.75
  -3  -7  -8   33.62    2.13
   3   7   8   36.33    2.06
  -4  -7  -8   76.84    3.50
   4   7   8   79.27    3.32
  -5  -7  -8    1.01    1.21
   5   7   8    1.91    1.17
   3  -8  -8    0.10    1.44
  -3   8   8    3.83    1.51
  -3   8   8    0.95    1.72
   2  -8  -8   14.07    1.64
  -2   8   8   13.16    1.49
  -2   8   8    9.35    1.64
   1  -8  -8   31.55    2.15
  -1   8   8   33.13    2.03
  -1   8   8   35.22    2.12
   0  -8  -8   14.09    1.37
   0  -8  -8   12.79    1.41
   0   8   8   12.93    1.28
   0   8   8   12.38    1.42
  -1  -8  -8   21.73    1.65
  -1  -8  -8   20.42    1.60
   1   8   8   19.65    1.59
  -2  -8  -8   70.16    3.13
  -2  -8  -8   65.54    3.09
   2   8   8   67.87    3.04
  -3  -8  -8   21.10    1.79
   3   8   8   18.75    1.56
  -4  -8  -8   17.58    1.73
   4   8   8   16.37    1.72
  -5  -8  -8   52.23    3.19
   5   8   8   51.94    2.96
   1  -9  -8    0.11    1.30
  -1   9   8   -1.37    1.40
   0  -9  -8   34.01    2.26
   0   9   8   35.62    2.27
  -1  -9  -8   41.02    2.50
  -1  -9  -8   43.98    2.60
   1   9   8   44.17    2.65
  -2  -9  -8    1.99    1.36
  -2  -9  -8    2.82    1.33
   2   9   8    2.28    1.31
  -3  -9  -8   43.08    2.72
   3   9   8   44.98    2.79
  -4  -9  -8   60.05    3.43
   4   9   8   60.30    3.32
   3   5  -9   53.67    2.99
  -3  -5   9   53.95    3.11
   2   5  -9   28.40    2.16
  -2  -5   9   27.56    2.16
   1   5  -9   31.99    2.26
  -1  -5   9   31.49    2.20
   0   5  -9   97.82    4.13
   0  -5   9   89.05    4.07
  -1   5  -9    3.42    1.53
   1  -5   9    2.84    1.32
   1  -5   9   -0.34    1.45
   4   4  -9   60.51    3.09
  -4  -4   9   59.71    3.18
   3   4  -9    2.73    1.13
  -3  -4   9    2.41    1.03
   2   4  -9   58.25    2.91
  -2  -4   9   57.06    2.85
  -2  -4   9   60.78    3.12
   1   4  -9   48.31    2.58
  -1  -4   9   45.35    2.56
  -1  -4   9   44.98    2.60
   0   4  -9    1.81    1.11
   0  -4   9    1.16    0.91
   0  -4   9    3.70    1.23
  -1   4  -9   57.47    2.99
   1  -4   9   47.83    2.69
   1  -4   9   57.71    2.82
  -2   4  -9   69.02    3.53
  -2   4  -9   65.35    3.22
   2  -4   9   73.05    3.49
  -3   4  -9   -0.43    1.45
   3  -4   9    0.61    1.39
   5   3  -9    5.95    1.46
  -5  -3   9    4.57    1.37
   4   3  -9    9.05    1.33
  -4  -3   9   11.64    1.42
  -4  -3   9   11.16    1.59
   3   3  -9   77.79    3.22
  -3  -3   9   67.72    3.34
  -3  -3   9   67.55    3.21
   2   3  -9   35.82    2.12
  -2  -3   9   32.88    2.18
  -2  -3   9   37.96    2.08
   1   3  -9   48.00    2.38
  -1  -3   9   46.08    2.45
  -1  -3   9   45.62    2.27
   0   3  -9  128.33    4.77
   0  -3   9  128.93    4.73
   0  -3   9  120.50    4.56
  -1   3  -9    7.64    1.21
  -1   3  -9    6.74    1.03
   1  -3   9    8.86    1.15
   1  -3   9    5.42    0.93
  -2   3  -9   15.21    1.65
  -2   3  -9   13.50    1.40
   2  -3   9   12.22    1.49
  -3   3  -9   35.01    2.58
  -3   3  -9   39.14    2.42
   3  -3   9   42.14    2.63
  -4   3  -9   24.17    1.93
   4  -3   9   20.79    2.04
   5   2  -9   69.77    3.26
  -5  -2   9   73.66    3.57
  -5  -2   9   65.33    3.33
   4   2  -9   58.22    2.80
  -4  -2   9   57.58    2.81
  -4  -2   9   54.46    3.02
   3   2  -9    5.96    0.99
  -3  -2   9    6.29    1.05
   2   2  -9   52.99    2.44
  -2  -2   9   47.21    2.54
  -2  -2   9   53.27    2.42
   1   2  -9   48.11    2.36
  -1  -2   9   51.02    2.46
  -1  -2   9   54.17    2.28
   0   2  -9    0.83    0.69
   0  -2   9    0.64    0.83
   0  -2   9    0.46    0.60
  -1   2  -9   69.98    2.71
  -1   2  -9   71.87    3.07
   1  -2   9   69.95    2.96
   1  -2   9   66.99    2.72
  -2   2  -9   74.32    2.96
  -2   2  -9   79.28    3.35
   2  -2   9   72.12    3.22
  -3   2  -9    6.13    1.10
  -3   2  -9    6.86    1.39
   3  -2   9    3.34    1.15
  -4   2  -9   40.69    2.76
  -4   2  -9   47.45    2.57
   4  -2   9   47.42    2.79
   6   1  -9   40.81    2.62
  -6  -1   9   38.31    2.64
  -6  -1   9   40.17    2.84
   5   1  -9   16.22    1.53
  -5  -1   9   14.49    1.80
  -5  -1   9   17.68    1.67
   4   1  -9   20.13    1.53
  -4  -1   9   17.13    1.65
  -4  -1   9   16.54    1.52
   3   1  -9  126.58    4.66
  -3  -1   9  122.54    4.74
  -3  -1   9  126.18    4.60
   2   1  -9   50.83    2.34
  -2  -1   9   51.81    2.30
  -2  -1   9   52.61    2.51
   1   1  -9   68.59    2.79
  -1  -1   9   68.22    2.81
  -1  -1   9   65.10    2.66
   0   1  -9  143.67    5.07
   0  -1   9  139.43    4.82
   0  -1   9  140.13    5.03
  -1   1  -9    7.76    1.00
  -1   1  -9    8.72    0.80
   1  -1   9    7.21    0.76
   1  -1   9    8.57    0.99
  -2   1  -9   11.47    1.02
  -2   1  -9   12.35    1.27
   2  -1   9   13.49    1.33
  -3   1  -9   45.07    2.47
  -3   1  -9   45.86    2.26
   3  -1   9   47.40    2.42
  -4   1  -9   22.91    2.06
  -4   1  -9   23.77    1.77
   4  -1   9   26.52    2.05
  -5   1  -9    3.80    1.40
  -5   1  -9    1.16    1.70
   5  -1   9    4.44    1.44
   6   0  -9   -1.17    1.36
   6   0  -9    1.83    1.24
  -6   0   9    2.57    1.72
   5   0  -9   78.53    3.35
  -5   0   9   72.69    3.71
  -5   0   9   79.47    3.50
   4   0  -9   51.20    2.48
  -4   0   9   52.74    2.73
  -4   0   9   54.23    2.56
   3   0  -9    5.16    0.84
  -3   0   9    6.00    0.86
  -3   0   9    5.89    1.04
   2   0  -9   66.07    2.77
  -2   0   9   66.92    2.73
  -2   0   9   70.11    2.90
   1   0  -9   79.23    3.13
  -1   0   9   81.00    3.17
  -1   0   9   80.44    3.01
   0   0  -9    0.49    0.59
   0   0   9    0.13    0.51
   0   0   9    0.19    0.59
  -1   0  -9  110.39    3.65
  -1   0  -9  113.48    4.13
   1   0   9  112.68    3.79
   1   0   9  107.23    4.05
  -2   0  -9  108.51    4.18
  -2   0  -9  112.07    3.80
   2   0   9  110.69    4.11
  -3   0  -9    7.60    1.12
  -3   0  -9    8.55    0.99
   3   0   9    8.62    1.07
  -4   0  -9   44.01    2.58
  -4   0  -9   44.58    2.29
   4   0   9   37.83    2.35
  -5   0  -9   13.67    1.77
  -5   0  -9   14.10    1.53
   5   0   9   12.44    1.60
   6  -1  -9   39.21    2.82
  -6   1   9   42.25    2.90
   5  -1  -9   18.92    1.75
   5  -1  -9   17.56    1.47
  -5   1   9   19.24    1.82
   4  -1  -9   11.02    1.18
   4  -1  -9   11.34    1.33
  -4   1   9   12.23    1.36
   3  -1  -9  128.72    4.84
  -3   1   9  142.09    5.00
  -3   1   9  137.51    4.90
   2  -1  -9   57.50    2.43
  -2   1   9   57.16    2.41
  -2   1   9   58.52    2.51
   1  -1  -9   80.61    3.11
  -1   1   9   80.28    3.08
  -1   1   9   78.26    2.96
   0  -1  -9  108.44    3.98
   0   1   9  113.24    3.77
   0   1   9  104.91    3.92
  -1  -1  -9    7.15    0.85
  -1  -1  -9    6.12    0.58
  -1  -1  -9    7.14    0.59
   1   1   9    6.44    0.84
  -2  -1  -9   13.39    0.96
  -2  -1  -9   11.96    1.13
   2   1   9   12.09    1.11
  -3  -1  -9   48.89    2.14
  -3  -1  -9   49.93    2.38
   3   1   9   51.18    2.37
  -4  -1  -9   20.85    1.49
  -4  -1  -9   20.00    1.68
   4   1   9   21.63    1.65
  -5  -1  -9    8.00    1.45
  -5  -1  -9    9.59    1.31
   5   1   9   10.30    1.41
  -6  -1  -9   31.69    2.64
  -6  -1  -9   40.86    2.44
   6   1   9   34.07    2.51
   6  -2  -9    0.30    1.38
  -6   2   9    0.87    1.53
   5  -2  -9  102.47    4.15
   5  -2  -9  109.36    4.48
  -5   2   9  119.56    4.61
   4  -2  -9   47.61    2.55
   4  -2  -9   47.53    2.31
  -4   2   9   50.32    2.65
   3  -2  -9    4.73    0.81
   3  -2  -9    4.65    0.89
  -3   2   9    4.96    0.90
   2  -2  -9   70.67    2.88
   2  -2  -9   73.60    2.91
  -2   2   9   74.84    2.96
   1  -2  -9  103.62    3.68
   1  -2  -9  102.48    3.78
  -1   2   9  102.94    3.80
   0  -2  -9    5.31    0.72
   0  -2  -9    5.42    0.63
   0   2   9    5.19    0.71
  -1  -2  -9  129.26    4.30
  -1  -2  -9  136.98    4.72
   1   2   9  127.27    4.60
   1   2   9  130.58    4.22
  -2  -2  -9  123.06    4.47
   2   2   9  121.27    4.07
   2   2   9  123.92    4.39
  -3  -2  -9    8.18    0.85
  -3  -2  -9    7.43    1.01
   3   2   9    7.79    0.97
  -4  -2  -9   31.29    1.98
  -4  -2  -9   30.43    1.81
   4   2   9   32.87    1.98
  -5  -2  -9   13.21    1.58
  -5  -2  -9   15.29    1.46
   5   2   9   12.96    1.59
  -6  -2  -9    5.61    1.35
  -6  -2  -9    0.58    1.56
   6   2   9    2.80    1.43
   5  -3  -9   16.90    1.72
  -5   3   9   20.53    1.88
   4  -3  -9    9.26    1.21
   4  -3  -9    6.33    0.99
  -4   3   9    8.21    1.19
   3  -3  -9  149.53    5.24
   3  -3  -9  146.69    5.33
  -3   3   9  153.09    5.41
   2  -3  -9   33.98    1.76
   2  -3  -9   34.11    1.75
  -2   3   9   34.73    1.83
   1  -3  -9   99.79    3.63
   1  -3  -9  100.69    3.57
  -1   3   9   93.97    3.64
   0  -3  -9   70.38    2.80
   0  -3  -9   70.54    2.59
   0   3   9   67.54    2.74
   0   3   9   71.05    2.40
  -1  -3  -9    8.14    0.65
  -1  -3  -9    6.85    0.85
   1   3   9    8.14    0.68
   1   3   9    6.88    0.81
  -2  -3  -9    6.02    0.82
   2   3   9    6.29    0.83
   2   3   9    6.98    0.74
  -3  -3  -9   60.15    2.62
   3   3   9   57.77    2.49
   3   3   9   58.92    2.37
  -4  -3  -9   43.78    2.21
   4   3   9   37.34    2.12
   4   3   9   39.55    1.99
  -5  -3  -9   10.26    1.41
   5   3   9   12.57    1.38
   5   3   9   12.23    1.28
  -6  -3  -9   46.37    2.96
   6   3   9   41.11    2.65
   6   3   9   44.63    2.64
   5  -4  -9   99.98    4.39
  -5   4   9  103.22    4.45
   4  -4  -9   33.98    2.22
  -4   4   9   36.73    2.32
   3  -4  -9    0.65    0.75
   3  -4  -9    1.46    0.85
  -3   4   9    1.30    0.89
   2  -4  -9   54.09    2.37
   2  -4  -9   55.49    2.42
  -2   4   9   50.41    2.39
   1  -4  -9  100.43    3.65
   1  -4  -9  100.07    3.67
  -1   4   9  101.17    3.71
  -1   4   9   95.44    3.35
   0  -4  -9    6.22    0.73
   0  -4  -9    7.17    0.87
   0   4   9    6.03    0.82
   0   4   9    6.81    0.65
  -1  -4  -9  138.83    4.88
  -1  -4  -9  137.01    4.56
   1   4   9  135.77    4.78
   1   4   9  135.21    4.48
  -2  -4  -9   65.31    2.72
   2   4   9   63.85    2.62
   2   4   9   67.99    2.51
  -3  -4  -9   10.53    1.06
   3   4   9   12.74    1.07
   3   4   9   12.10    1.12
  -4  -4  -9    7.70    1.15
   4   4   9   10.67    1.09
   4   4   9   10.73    1.16
  -5  -4  -9   10.43    1.45
   5   4   9    9.66    1.28
   5   4   9   10.87    1.32
  -6  -4  -9    8.72    1.73
   6   4   9   12.22    1.57
   6   4   9    8.31    1.45
   5  -5  -9   19.51    2.01
  -5   5   9   22.40    2.05
   4  -5  -9    7.49    1.36
  -4   5   9    8.60    1.44
   3  -5  -9  165.66    5.98
  -3   5   9  166.57    5.99
   2  -5  -9   22.01    1.40
   2  -5  -9   19.39    1.48
  -2   5   9   21.78    1.51
   1  -5  -9   79.45    3.12
   1  -5  -9   76.10    3.11
  -1   5   9   79.96    3.15
  -1   5   9   85.31    2.98
   0  -5  -9   65.72    2.64
   0  -5  -9   60.91    2.52
   0   5   9   64.72    2.44
   0   5   9   60.65    2.56
  -1  -5  -9   18.04    1.34
  -1  -5  -9   19.51    1.21
   1   5   9   17.98    1.33
   1   5   9   17.34    1.16
  -2  -5  -9    4.23    0.82
   2   5   9    3.72    0.77
   2   5   9    5.89    0.78
  -3  -5  -9   75.32    3.17
   3   5   9   76.53    3.00
   3   5   9   73.33    2.92
  -4  -5  -9   36.77    2.05
   4   5   9   36.04    2.02
   4   5   9   35.81    2.08
  -5  -5  -9   19.59    1.81
   5   5   9   19.83    1.63
   5   5   9   21.99    1.62
  -6  -5  -9   15.65    1.97
   6   5   9   19.62    1.82
   6   5   9   17.49    1.76
   4  -6  -9   16.89    1.79
  -4   6   9   19.72    1.84
   3  -6  -9   -0.74    1.01
  -3   6   9    1.06    1.06
   2  -6  -9   31.02    2.00
   2  -6  -9   29.79    1.76
  -2   6   9   26.92    1.81
  -2   6   9   32.44    2.00
   1  -6  -9   87.88    3.42
   1  -6  -9   87.94    3.53
  -1   6   9   93.67    3.43
  -1   6   9   92.68    3.56
   0  -6  -9    7.06    0.95
   0  -6  -9    5.27    0.87
   0   6   9    7.07    0.93
   0   6   9    7.46    0.99
  -1  -6  -9  119.57    4.24
  -1  -6  -9  118.83    4.38
   1   6   9  115.81    4.13
   1   6   9  118.33    4.24
  -2  -6  -9   43.52    2.23
   2   6   9   42.88    2.06
   2   6   9   45.74    2.18
  -3  -6  -9    4.11    0.90
   3   6   9    2.59    0.86
   3   6   9    2.46    0.85
  -4  -6  -9    5.55    1.16
   4   6   9    7.05    1.07
   4   6   9    8.97    1.12
  -5  -6  -9   18.80    1.81
   5   6   9   19.16    1.78
   3  -7  -9  124.97    4.98
  -3   7   9  119.58    4.90
   2  -7  -9    6.47    1.26
  -2   7   9    8.49    1.30
   1  -7  -9   37.43    2.09
   1  -7  -9   37.61    2.24
  -1   7   9   40.17    2.28
  -1   7   9   41.75    2.27
   0  -7  -9   30.60    1.89
   0  -7  -9   30.72    1.93
   0   7   9   33.52    1.95
   0   7   9   32.53    1.94
  -1  -7  -9   16.03    1.37
  -1  -7  -9   16.97    1.38
   1   7   9   17.26    1.32
   1   7   9   16.12    1.37
  -2  -7  -9    0.21    0.83
   2   7   9    0.53    0.78
   2   7   9    0.62    0.78
  -3  -7  -9   55.37    2.73
   3   7   9   54.87    2.50
   3   7   9   54.28    2.60
  -4  -7  -9   29.19    2.14
   4   7   9   32.18    2.07
  -5  -7  -9   10.59    1.68
   5   7   9   14.72    1.60
   2  -8  -9   34.63    2.42
  -2   8   9   32.14    2.23
  -2   8   9   33.36    2.33
   1  -8  -9   82.00    3.73
  -1   8   9   83.43    3.60
  -1   8   9   81.18    3.60
   0  -8  -9    0.59    1.04
   0  -8  -9    0.05    1.03
   0   8   9   -0.30    1.12
   0   8   9    1.64    1.02
  -1  -8  -9   94.84    3.77
  -1  -8  -9   86.64    3.75
   1   8   9   88.26    3.61
  -2  -8  -9   22.98    1.80
   2   8   9   21.45    1.69
  -3  -8  -9    0.97    1.21
   3   8   9    2.33    1.10
  -4  -8  -9    2.92    1.32
   4   8   9    2.03    1.36
   1  -9  -9   15.40    1.89
  -1   9   9   19.51    2.05
   0  -9  -9   26.19    2.11
   0   9   9   27.41    2.15
  -1  -9  -9   14.85    1.70
  -1  -9  -9   18.04    1.81
   1   9   9   16.64    1.67
  -2  -9  -9   -1.11    1.28
   2   9   9    3.18    1.36
  -3  -9  -9   60.11    3.31
   3   9   9   60.80    3.23
   3   4 -10   10.96    1.62
  -3  -4  10   10.69    1.58
   2   4 -10    1.07    1.20
  -2  -4  10    6.93    1.35
   1   4 -10    3.84    1.30
  -1  -4  10    1.47    1.43
  -1  -4  10    4.12    1.14
   0   4 -10    9.69    1.66
   0  -4  10   13.26    1.63
   0  -4  10   13.21    1.47
  -1   4 -10   -0.64    1.41
   1  -4  10   -1.38    1.46
   4   3 -10    1.60    1.27
  -4  -3  10    3.12    1.22
   3   3 -10   11.22    1.40
  -3  -3  10    6.93    1.68
  -3  -3  10    9.13    1.39
   2   3 -10    9.98    1.40
  -2  -3  10    8.81    1.25
  -2  -3  10    8.40    1.52
   1   3 -10    8.43    1.26
  -1  -3  10    5.40    1.38
  -1  -3  10    8.13    1.14
   0   3 -10   15.96    1.65
   0  -3  10   14.70    1.36
   0  -3  10   14.99    1.62
  -1   3 -10   -0.80    1.13
   1  -3  10   -0.52    1.24
  -2   3 -10    7.89    1.57
   2  -3  10    7.74    1.40
  -3   3 -10    5.24    1.81
  -3   3 -10    2.74    1.38
   3  -3  10   -3.19    1.43
   4   2 -10    3.87    1.18
  -4  -2  10    3.92    1.17
  -4  -2  10    5.75    1.55
   3   2 -10    9.63    1.29
  -3  -2  10    9.15    1.23
  -3  -2  10    4.85    1.46
   2   2 -10   -0.09    0.82
  -2  -2  10    1.49    1.15
  -2  -2  10   -0.49    0.77
   1   2 -10    5.61    1.04
  -1  -2  10    4.62    0.97
  -1  -2  10    5.21    1.20
   0   2 -10   17.59    1.54
   0  -2  10   18.56    1.60
   0  -2  10   16.82    1.33
  -1   2 -10    0.98    1.03
   1  -2  10    1.05    0.99
  -2   2 -10   29.73    2.16
  -2   2 -10   30.48    1.79
   2  -2  10   30.16    2.08
  -3   2 -10    4.67    1.61
  -3   2 -10    7.47    1.28
   3  -2  10    2.12    1.30
  -4   2 -10   -4.61    1.81
  -4   2 -10    0.17    1.36
   4  -2  10    2.63    1.40
   5   1 -10   -1.10    1.13
  -5  -1  10   -0.24    1.10
  -5  -1  10    3.20    1.72
   4   1 -10    2.00    1.07
  -4  -1  10    3.71    1.02
  -4  -1  10    3.36    1.41
   3   1 -10   20.94    1.64
  -3  -1  10   16.12    1.71
  -3  -1  10   22.42    1.66
   2   1 -10   13.93    1.31
  -2  -1  10   12.38    1.38
  -2  -1  10   11.66    1.20
   1   1 -10    6.97    0.99
  -1  -1  10    8.61    0.96
  -1  -1  10    6.63    1.13
   0   1 -10    6.82    1.05
   0  -1  10    7.79    0.88
   0  -1  10    8.52    1.16
  -1   1 -10    3.63    0.96
   1  -1  10    4.32    1.07
  -2   1 -10   23.75    1.52
  -2   1 -10   22.15    1.88
   2  -1  10   23.99    1.81
  -3   1 -10    4.84    1.10
  -3   1 -10    2.55    1.37
   3  -1  10    3.33    1.24
  -4   1 -10   50.08    2.78
  -4   1 -10   49.26    3.14
   4  -1  10   54.10    2.96
   5   0 -10   35.31    2.50
   5   0 -10   32.41    2.21
  -5   0  10   36.18    2.55
   4   0 -10    2.52    0.96
  -4   0  10    2.21    1.24
  -4   0  10    1.56    0.94
   3   0 -10    3.65    0.95
  -3   0  10    6.70    1.01
  -3   0  10    5.51    1.16
   2   0 -10    1.27    0.72
  -2   0  10   -1.77    0.80
  -2   0  10    1.16    0.64
   1   0 -10   11.21    1.11
  -1   0  10   12.91    1.23
  -1   0  10   11.54    1.05
   0   0 -10   18.04    1.42
   0   0  10   17.71    1.19
   0   0  10   16.87    1.38
  -1   0 -10    1.03    0.75
  -1   0 -10    1.64    0.60
   1   0  10    2.19    0.82
  -2   0 -10   32.57    2.06
  -2   0 -10   34.84    1.78
   2   0  10   33.99    2.00
  -3   0 -10    9.46    1.10
  -3   0 -10    8.98    1.27
   3   0  10    8.50    1.29
  -4   0 -10    2.10    1.35
  -4   0 -10   -0.55    1.00
   4   0  10    2.00    1.12
  -5   0 -10   11.55    1.57
  -5   0 -10    8.60    1.96
   5   0  10   10.79    1.76
   5  -1 -10    1.82    1.24
   5  -1 -10    2.72    1.08
  -5   1  10    3.27    1.59
   4  -1 -10    1.93    0.94
   4  -1 -10    0.45    1.00
  -4   1  10    3.22    1.14
   3  -1 -10   21.88    1.56
   3  -1 -10   21.97    1.61
  -3   1  10   20.29    1.60
   2  -1 -10   12.60    1.21
  -2   1  10   12.20    1.21
  -2   1  10   10.85    1.07
   1  -1 -10    5.95    0.90
  -1   1  10    7.47    0.90
  -1   1  10    6.66    1.00
   0  -1 -10    4.02    0.79
   0   1  10    3.60    0.68
   0   1  10    4.48    0.86
  -1  -1 -10   11.07    0.81
  -1  -1 -10   12.95    1.21
   1   1  10   11.51    0.79
   1   1  10   11.59    1.15
  -2  -1 -10   20.47    1.26
  -2  -1 -10   20.54    1.58
   2   1  10   21.07    1.51
  -3  -1 -10    7.14    0.94
  -3  -1 -10    5.77    1.12
   3   1  10    6.99    1.08
  -4  -1 -10   50.11    2.84
  -4  -1 -10   51.09    2.49
   4   1  10   48.27    2.66
  -5  -1 -10   11.56    1.46
  -5  -1 -10   11.14    1.79
   5   1  10   11.41    1.61
   5  -2 -10   24.57    2.07
   5  -2 -10   22.80    1.80
  -5   2  10   23.94    2.11
   4  -2 -10    3.63    1.13
   4  -2 -10    3.47    1.00
  -4   2  10    1.54    1.11
   3  -2 -10   -0.49    0.80
   3  -2 -10   -0.03    0.75
  -3   2  10   -0.94    0.83
   2  -2 -10    0.23    0.71
   2  -2 -10    0.25    0.71
  -2   2  10    1.15    0.73
   1  -2 -10   24.49    1.48
   1  -2 -10   21.81    1.52
  -1   2  10   25.51    1.66
   0  -2 -10   24.58    1.40
   0  -2 -10   27.35    1.58
   0   2  10   23.87    1.55
  -1  -2 -10    2.27    0.81
  -1  -2 -10    2.70    0.56
   1   2  10    3.27    0.52
   1   2  10    1.29    0.65
  -2  -2 -10   37.05    2.00
   2   2  10   38.54    1.72
   2   2  10   39.03    2.02
  -3  -2 -10   11.38    1.27
  -3  -2 -10   13.88    1.14
   3   2  10   15.86    1.36
  -4  -2 -10    2.08    1.06
  -4  -2 -10    1.30    0.91
   4   2  10    0.20    1.05
  -5  -2 -10   19.19    1.95
  -5  -2 -10   21.04    1.71
   5   2  10   19.84    1.83
   5  -3 -10    0.98    1.28
  -5   3  10   -0.07    1.47
   4  -3 -10    2.78    1.04
   4  -3 -10    1.67    1.05
  -4   3  10    2.74    1.15
   3  -3 -10   17.22    1.47
   3  -3 -10   17.44    1.41
  -3   3  10   17.52    1.53
   2  -3 -10    9.66    1.06
   2  -3 -10   10.48    1.08
  -2   3  10   11.98    1.20
   1  -3 -10    0.94    0.65
   1  -3 -10    1.36    0.64
  -1   3  10   -0.72    0.64
   0  -3 -10    2.60    0.63
   0  -3 -10    2.33    0.74
   0   3  10    4.01    0.78
  -1  -3 -10   28.45    1.73
  -1  -3 -10   30.71    1.42
   1   3  10   32.30    1.42
   1   3  10   30.99    1.69
  -2  -3 -10   24.40    1.65
   2   3  10   26.37    1.63
   2   3  10   24.59    1.39
  -3  -3 -10    7.59    1.10
   3   3  10    8.85    1.07
   3   3  10    9.69    0.98
  -4  -3 -10   60.66    3.03
   4   3  10   68.05    2.97
   4   3  10   65.17    2.79
  -5  -3 -10   12.27    1.68
   5   3  10   13.14    1.45
   5   3  10   10.33    1.48
   5  -4 -10   23.63    2.17
  -5   4  10   18.44    2.05
   4  -4 -10    3.50    1.19
  -4   4  10    5.19    1.27
   3  -4 -10   -0.19    0.92
   3  -4 -10    1.28    0.96
  -3   4  10    0.11    0.94
   2  -4 -10    0.00    0.80
   2  -4 -10   -1.20    0.83
  -2   4  10    0.30    0.84
   1  -4 -10   17.33    1.30
   1  -4 -10   12.84    1.17
  -1   4  10   14.85    1.25
   0  -4 -10   21.05    1.28
   0  -4 -10   19.93    1.41
   0   4  10   18.90    1.08
   0   4  10   20.98    1.45
  -1  -4 -10    0.68    0.67
  -1  -4 -10    1.21    0.57
   1   4  10    0.15    0.66
   1   4  10    1.37    0.58
  -2  -4 -10   26.08    1.76
   2   4  10   25.51    1.50
   2   4  10   28.56    1.66
  -3  -4 -10   22.71    1.63
   3   4  10   24.89    1.66
   3   4  10   21.96    1.44
  -4  -4 -10    1.36    0.98
   4   4  10    2.41    1.04
   4   4  10    2.47    0.93
  -5  -4 -10   26.51    2.06
   5   4  10   26.36    1.90
   5   4  10   26.30    1.91
   4  -5 -10   -0.17    1.20
  -4   5  10    1.00    1.30
   3  -5 -10   25.57    1.92
  -3   5  10   25.55    1.83
   2  -5 -10   16.20    1.35
   2  -5 -10   16.15    1.47
  -2   5  10   16.84    1.46
   1  -5 -10    1.24    0.73
   1  -5 -10    0.79    0.74
  -1   5  10    0.88    0.74
   0  -5 -10    6.35    0.89
   0  -5 -10    7.66    1.04
   0   5  10    7.27    0.88
   0   5  10    7.13    0.99
  -1  -5 -10   31.17    1.65
  -1  -5 -10   31.73    1.79
   1   5  10   31.75    1.61
   1   5  10   28.82    1.85
  -2  -5 -10   18.87    1.48
   2   5  10   20.27    1.47
   2   5  10   19.54    1.31
  -3  -5 -10    7.22    1.07
   3   5  10    8.88    1.10
   3   5  10    5.81    0.97
  -4  -5 -10   56.18    2.88
   4   5  10   57.04    2.73
   4   5  10   55.89    2.62
  -5  -5 -10   10.19    1.58
   5   5  10   10.21    1.48
   5   5  10   12.07    1.43
   4  -6 -10    1.01    1.47
  -4   6  10   -1.61    1.42
   3  -6 -10    1.21    1.17
  -3   6  10    1.00    1.21
   2  -6 -10   -1.22    0.92
   2  -6 -10    0.10    0.89
  -2   6  10    0.08    1.04
   1  -6 -10   26.46    1.74
   1  -6 -10   27.14    1.79
  -1   6  10   30.91    1.94
   0  -6 -10   26.58    1.69
   0  -6 -10   27.19    1.77
   0   6  10   26.86    1.77
   0   6  10   27.56    1.62
  -1  -6 -10    1.93    0.87
  -1  -6 -10    2.94    0.90
   1   6  10    2.74    0.84
   1   6  10    2.29    0.89
  -2  -6 -10   36.73    2.08
   2   6  10   35.61    1.96
   2   6  10   33.30    1.99
  -3  -6 -10   29.86    2.00
   3   6  10   30.57    1.87
   3   6  10   29.93    1.85
  -4  -6 -10    1.95    1.11
   4   6  10    0.56    1.00
   4   6  10    3.29    1.12
  -5  -6 -10   23.96    2.15
   5   6  10   27.03    2.04
   3  -7 -10   13.14    1.77
  -3   7  10   18.00    1.89
   2  -7 -10    9.23    1.46
  -2   7  10    6.64    1.34
   1  -7 -10    0.34    0.99
   1  -7 -10    0.34    0.98
  -1   7  10   -0.08    0.99
   0  -7 -10    1.41    0.99
   0  -7 -10    1.75    0.91
   0   7  10    3.29    1.06
   0   7  10    2.98    0.95
  -1  -7 -10   29.93    2.00
  -1  -7 -10   32.37    1.92
   1   7  10   29.95    1.87
   1   7  10   28.42    1.89
  -2  -7 -10   20.70    1.64
   2   7  10   20.00    1.51
   2   7  10   19.80    1.50
  -3  -7 -10   10.41    1.45
   3   7  10    9.74    1.26
   3   7  10    8.36    1.25
  -4  -7 -10   44.55    2.76
   4   7  10   49.36    2.66
   2  -8 -10    1.33    1.46
  -2   8  10    3.58    1.56
   1  -8 -10   36.08    2.35
  -1   8  10   35.36    2.34
   0  -8 -10   15.19    1.59
   0  -8 -10   17.28    1.65
   0   8  10   16.45    1.60
   0   8  10   15.83    1.67
  -1  -8 -10    2.45    1.18
  -1  -8 -10    1.84    1.22
   1   8  10    4.81    1.13
   1   8  10    2.01    1.13
  -2  -8 -10   27.94    2.08
   2   8  10   29.68    2.01
  -3  -8 -10   29.56    2.23
   3   8  10   33.91    2.14
   4   8  10    0.94    1.42
  -1  -9 -10   29.58    2.24
   1   9  10   32.15    2.22
   2   3 -11   32.87    2.37
  -2  -3  11   39.45    2.45
  -2  -3  11   31.95    2.50
   1   3 -11    1.88    1.19
  -1  -3  11    3.60    1.21
  -1  -3  11    0.13    1.40
   0   3 -11   54.80    3.13
   0  -3  11   59.66    3.27
  -1   3 -11   60.64    3.41
   1  -3  11   59.07    3.51
   3   2 -11   20.07    1.80
  -3  -2  11   14.83    2.02
  -3  -2  11   20.54    1.82
   2   2 -11   33.70    2.26
  -2  -2  11   28.28    2.30
  -2  -2  11   31.01    2.06
   1   2 -11   84.12    3.68
  -1  -2  11   80.20    3.41
  -1  -2  11   82.07    3.73
   0   2 -11    8.64    1.42
   0  -2  11    6.44    1.13
   0  -2  11   10.66    1.49
  -1   2 -11   11.86    1.58
   1  -2  11   13.62    1.67
  -2   2 -11   48.01    3.05
   2  -2  11   58.54    3.05
  -3   2 -11   21.66    2.36
   3  -2  11   25.42    2.15
   4   1 -11   -0.09    1.16
  -4  -1  11    1.25    1.14
  -4  -1  11    2.72    1.55
   3   1 -11   36.50    2.28
  -3  -1  11   29.42    2.00
  -3  -1  11   28.42    2.29
   2   1 -11   59.72    2.86
  -2  -1  11   62.48    3.12
  -2  -1  11   59.23    2.84
   1   1 -11    4.96    1.05
  -1  -1  11    2.77    0.96
  -1  -1  11    4.56    1.19
   0   1 -11   76.81    3.49
   0  -1  11   82.86    3.47
   0  -1  11   79.30    3.18
  -1   1 -11   80.82    3.65
   1  -1  11   83.06    3.67
  -2   1 -11    1.82    1.23
   2  -1  11    3.64    1.23
  -3   1 -11   48.13    3.06
  -3   1 -11   50.30    2.78
   3  -1  11   52.15    3.03
   4   0 -11   68.29    3.22
  -4   0  11   67.25    3.28
  -4   0  11   66.37    3.59
   3   0 -11   20.04    1.67
  -3   0  11   18.37    1.68
  -3   0  11   15.01    1.53
   2   0 -11   29.26    2.01
  -2   0  11   33.38    2.16
  -2   0  11   34.03    2.01
   1   0 -11   86.06    3.65
  -1   0  11   91.22    3.68
  -1   0  11   84.13    3.36
   0   0 -11   17.11    1.54
   0   0  11   17.23    1.24
   0   0  11   17.13    1.48
  -1   0 -11    8.09    1.19
   1   0  11    9.16    1.21
  -2   0 -11   72.00    3.40
   2   0  11   77.30    3.41
  -3   0 -11   36.38    2.04
  -3   0 -11   32.50    2.37
   3   0  11   37.41    2.41
  -4   0 -11   12.94    1.90
  -4   0 -11   13.75    1.58
   4   0  11   16.39    1.85
   4  -1 -11    0.74    1.04
   4  -1 -11    0.91    1.17
  -4   1  11    2.24    1.37
   3  -1 -11   46.83    2.57
   3  -1 -11   42.77    2.43
  -3   1  11   51.65    2.77
   2  -1 -11   60.52    2.86
   2  -1 -11   63.10    2.80
  -2   1  11   61.65    2.87
   1  -1 -11   -0.12    0.74
   1  -1 -11   -0.41    0.74
  -1   1  11    0.10    0.84
   0  -1 -11   96.61    3.85
   0  -1 -11   92.00    3.53
   0   1  11   99.10    3.84
  -1  -1 -11   70.51    3.05
   1   1  11   65.77    2.98
  -2  -1 -11    4.48    0.88
  -2  -1 -11    4.05    1.03
   2   1  11    3.96    1.07
  -3  -1 -11   44.73    2.65
  -3  -1 -11   44.11    2.33
   3   1  11   49.68    2.58
  -4  -1 -11   27.34    2.27
  -4  -1 -11   25.80    1.88
   4   1  11   27.54    2.12
   4  -2 -11   80.68    3.72
   4  -2 -11   78.64    3.60
  -4   2  11   85.14    3.84
   3  -2 -11   30.44    2.06
   3  -2 -11   28.79    2.05
  -3   2  11   29.47    2.12
   2  -2 -11   31.37    2.03
   2  -2 -11   34.10    2.03
  -2   2  11   35.44    2.10
   1  -2 -11  104.11    4.02
   1  -2 -11  102.21    3.87
  -1   2  11  101.69    4.00
   0  -2 -11   20.67    1.34
   0  -2 -11   23.57    1.60
   0   2  11   21.88    1.56
  -1  -2 -11   17.29    1.50
   1   2  11   15.91    1.41
  -2  -2 -11   80.96    3.39
   2   2  11   77.27    2.92
   2   2  11   77.16    3.29
  -3  -2 -11   25.26    1.98
   3   2  11   28.11    1.92
   3   2  11   25.21    1.60
  -4  -2 -11   22.11    1.68
  -4  -2 -11   22.22    2.02
   4   2  11   21.44    1.83
  -5  -2 -11   41.46    2.49
  -5  -2 -11   40.89    2.85
   5   2  11   42.31    2.73
   4  -3 -11    0.55    1.25
   4  -3 -11   -0.88    1.17
  -4   3  11    1.68    1.32
   3  -3 -11   39.80    2.34
   3  -3 -11   41.38    2.44
  -3   3  11   47.10    2.50
   2  -3 -11   73.26    3.08
   2  -3 -11   69.88    3.08
  -2   3  11   72.27    3.19
   1  -3 -11    2.55    0.77
   1  -3 -11    1.90    0.83
  -1   3  11    0.47    0.83
   0  -3 -11  110.98    4.24
   0  -3 -11  106.79    3.93
   0   3  11  111.70    4.17
  -1  -3 -11   83.66    3.49
   1   3  11   86.83    3.44
  -2  -3 -11    1.25    0.81
   2   3  11    1.20    0.70
   2   3  11    2.02    0.86
  -3  -3 -11   42.26    2.45
   3   3  11   43.55    2.15
   3   3  11   44.86    2.46
  -4  -3 -11   32.08    2.27
   4   3  11   40.98    2.44
   4   3  11   37.49    2.22
  -5  -3 -11    3.99    1.60
   5   3  11    3.08    1.33
   5   3  11    4.55    1.44
   4  -4 -11   77.45    3.83
  -4   4  11   86.01    3.95
   3  -4 -11   13.88    1.42
   3  -4 -11   14.34    1.53
  -3   4  11   13.97    1.52
   2  -4 -11   33.50    2.10
   2  -4 -11   32.16    2.00
  -2   4  11   31.25    2.04
   1  -4 -11   66.69    2.94
   1  -4 -11   65.15    2.83
  -1   4  11   66.02    2.93
   0  -4 -11   13.63    1.15
   0  -4 -11   15.86    1.43
   0   4  11   16.08    1.38
  -1  -4 -11   11.36    1.20
   1   4  11   11.00    1.16
   1   4  11   10.91    0.93
  -2  -4 -11   71.87    3.13
   2   4  11   72.32    2.81
   2   4  11   72.84    3.03
  -3  -4 -11   24.46    1.86
   3   4  11   30.85    1.94
   3   4  11   27.67    1.66
  -4  -4 -11   23.77    1.92
   4   4  11   23.41    1.75
   4   4  11   26.95    1.97
  -5  -4 -11   38.23    2.69
   5   4  11   39.67    2.45
   5   4  11   46.03    2.78
   4  -5 -11    0.68    1.40
  -4   5  11    1.93    1.42
   3  -5 -11   42.31    2.61
  -3   5  11   36.72    2.44
   2  -5 -11   84.69    3.58
   2  -5 -11   88.04    3.68
  -2   5  11   86.72    3.68
   1  -5 -11    3.16    0.96
   1  -5 -11    2.67    0.94
  -1   5  11    2.27    0.94
   0  -5 -11  108.24    4.22
   0  -5 -11  109.08    4.04
   0   5  11  109.49    4.15
  -1  -5 -11   57.82    2.72
   1   5  11   58.52    2.42
   1   5  11   60.91    2.75
  -2  -5 -11    0.59    0.84
   2   5  11    0.18    0.89
   2   5  11   -0.02    0.77
  -3  -5 -11   25.89    1.86
   3   5  11   25.61    1.70
   3   5  11   26.67    1.81
  -4  -5 -11   28.38    2.17
   4   5  11   31.34    2.07
   4   5  11   30.25    1.93
  -5  -5 -11    3.88    1.48
   5   5  11    5.89    1.53
   5   5  11    5.26    1.37
   3  -6 -11    6.55    1.51
  -3   6  11    6.40    1.50
   2  -6 -11   23.00    1.80
  -2   6  11   23.45    1.84
   1  -6 -11   55.33    2.65
   1  -6 -11   52.39    2.66
  -1   6  11   51.65    2.75
   0  -6 -11   18.99    1.59
   0  -6 -11   17.13    1.41
   0   6  11   20.08    1.67
  -1  -6 -11    8.18    1.25
   1   6  11    5.64    1.13
   1   6  11    7.17    1.03
  -2  -6 -11   92.85    3.86
   2   6  11   94.92    3.84
   2   6  11   92.16    3.59
  -3  -6 -11   23.61    1.89
   3   6  11   27.27    1.80
   3   6  11   27.68    1.88
  -4  -6 -11   22.73    1.91
   4   6  11   24.51    1.78
   4   6  11   22.38    1.78
   2  -7 -11   81.30    3.84
  -2   7  11   81.42    3.83
   1  -7 -11    1.89    1.13
   1  -7 -11   -1.28    1.18
  -1   7  11    2.09    1.15
   0  -7 -11   83.79    3.45
   0  -7 -11   81.29    3.44
   0   7  11   68.32    3.43
  -1  -7 -11   25.45    1.93
   1   7  11   31.74    1.91
   1   7  11   28.28    1.98
  -2  -7 -11    0.83    1.14
   2   7  11    1.64    1.09
   2   7  11   -1.22    1.07
  -3  -7 -11   14.99    1.68
   3   7  11   16.38    1.61
   3   7  11   15.82    1.60
  -4  -7 -11   23.50    2.11
   4   7  11   22.57    1.91
   1  -8 -11   51.22    3.09
  -1   8  11   50.08    3.04
   0  -8 -11   23.27    1.93
   0  -8 -11   25.37    1.95
   0   8  11   27.37    1.99
  -1  -8 -11    1.90    1.30
   1   8  11    5.32    1.34
   1   8  11    3.92    1.31
  -2  -8 -11   86.90    4.04
   2   8  11   93.61    3.89
   2   2 -12   32.35    2.40
  -2  -2  12   32.12    2.29
  -2  -2  12   32.16    2.56
   1   2 -12    5.53    1.44
  -1  -2  12    6.18    1.60
  -1  -2  12    5.17    1.26
   0   2 -12   -0.06    1.34
   0  -2  12    1.10    1.43
  -1   2 -12    1.01    1.42
   1  -2  12    0.85    1.50
   3   1 -12    0.50    1.18
  -3  -1  12    2.04    1.57
  -3  -1  12    2.26    1.21
   2   1 -12    9.54    1.47
  -2  -1  12    8.59    1.30
  -2  -1  12    5.80    1.54
   1   1 -12    3.16    1.21
  -1  -1  12    3.14    1.16
  -1  -1  12    3.81    1.38
   0   1 -12   14.97    1.66
   0  -1  12   17.15    1.85
  -1   1 -12   13.99    1.71
   1  -1  12   15.91    1.79
  -2   1 -12    0.90    1.49
   2  -1  12    1.59    1.46
   3   0 -12   -0.01    1.18
  -3   0  12    0.84    1.14
  -3   0  12    1.82    1.39
   2   0 -12   30.94    2.20
  -2   0  12   32.92    2.11
  -2   0  12   33.50    2.30
   1   0 -12    0.98    1.04
  -1   0  12    0.68    0.96
  -1   0  12    2.01    1.15
   0   0 -12    1.49    0.99
   0   0  12    0.64    1.04
  -1   0 -12    4.89    1.22
   1   0  12    6.13    1.31
  -2   0 -12   11.20    1.56
   2   0  12   11.36    1.61
  -3   0 -12   34.55    2.61
   3   0  12   35.02    2.50
   4  -1 -12    8.05    1.50
   4  -1 -12   10.16    1.67
  -4   1  12    8.15    1.83
   3  -1 -12    3.38    1.22
   3  -1 -12    3.82    1.23
  -3   1  12    4.42    1.34
   2  -1 -12    8.37    1.31
   2  -1 -12    8.18    1.30
  -2   1  12    9.08    1.40
   1  -1 -12    0.72    0.94
   1  -1 -12    2.16    0.96
  -1   1  12    1.13    0.94
   0  -1 -12   22.42    1.76
   0   1  12   21.40    1.80
  -1  -1 -12    7.24    1.27
   1   1  12   10.42    1.37
  -2  -1 -12    0.29    1.08
   2   1  12    0.00    1.08
  -3  -1 -12    2.04    1.37
   3   1  12    0.51    1.27
   4  -2 -12   42.30    2.75
   4  -2 -12   39.42    2.54
  -4   2  12   38.50    2.71
   3  -2 -12    1.44    1.18
   3  -2 -12    0.11    1.09
  -3   2  12   -1.38    1.20
   2  -2 -12   22.55    1.82
   2  -2 -12   19.59    1.70
  -2   2  12   23.11    1.91
   1  -2 -12    2.87    1.00
   1  -2 -12   -0.88    0.92
  -1   2  12    1.32    0.95
   0  -2 -12    5.37    1.08
   0   2  12    7.17    1.05
  -1  -2 -12   10.45    1.25
   1   2  12    8.11    1.20
  -2  -2 -12    9.20    1.35
   2   2  12   11.80    1.46
  -3  -2 -12   29.01    2.26
   3   2  12   34.57    2.27
   3   2  12   29.59    1.89
  -4  -2 -12    0.17    1.45
   4   2  12   -0.62    1.15
   4   2  12    1.73    1.39
   3  -3 -12    4.10    1.27
   3  -3 -12    4.67    1.31
  -3   3  12    7.36    1.35
   2  -3 -12   17.79    1.57
   2  -3 -12   17.06    1.56
  -2   3  12   13.50    1.59
   1  -3 -12    2.26    0.96
   1  -3 -12    3.35    1.04
  -1   3  12    1.75    0.96
   0  -3 -12   22.88    1.77
   0   3  12   25.39    1.82
  -1  -3 -12    6.16    1.13
   1   3  12    9.01    1.24
  -2  -3 -12    0.80    0.95
   2   3  12    1.80    1.01
  -3  -3 -12    1.16    1.14
   3   3  12    2.68    1.24
   3   3  12    1.85    1.01
  -4  -3 -12   12.57    1.75
   4   3  12   15.14    1.58
   4   3  12   15.89    1.84
   3  -4 -12   -1.55    1.21
   3  -4 -12   -1.01    1.21
  -3   4  12    0.30    1.20
   2  -4 -12    6.69    1.31
   2  -4 -12    9.90    1.37
  -2   4  12    7.72    1.24
   1  -4 -12    0.80    1.00
   1  -4 -12    1.61    1.03
  -1   4  12    2.91    1.00
   0  -4 -12    8.66    1.25
   0   4  12    8.04    1.20
  -1  -4 -12    4.37    1.05
   1   4  12    4.06    1.01
  -2  -4 -12   10.69    1.39
   2   4  12   16.68    1.59
  -3  -4 -12   22.79    1.91
   3   4  12   26.55    1.95
   3   4  12   27.08    1.72
  -4  -4 -12    1.37    1.27
   4   4  12   -0.64    1.32
   4   4  12    1.07    1.14
   3  -5 -12    4.27    1.42
  -3   5  12    3.08    1.52
   2  -5 -12   18.91    1.75
   2  -5 -12   19.36    1.76
  -2   5  12   21.06    1.78
   1  -5 -12    4.44    1.15
   1  -5 -12    5.87    1.15
  -1   5  12    4.15    1.15
   0  -5 -12   15.26    1.53
   0   5  12   16.33    1.52
  -1  -5 -12    5.89    1.27
   1   5  12    9.73    1.28
  -2  -5 -12    6.71    1.28
   2   5  12    7.68    1.29
  -3  -5 -12    1.73    1.15
   3   5  12    2.10    1.09
   3   5  12    0.00    1.05
  -4  -5 -12   17.11    1.89
   4   5  12   20.87    1.90
   4   5  12   17.43    1.70
   2  -6 -12    3.73    1.37
  -2   6  12    4.70    1.33
   1  -6 -12    0.39    1.11
   1  -6 -12    2.59    1.18
  -1   6  12    1.24    1.22
   0  -6 -12   10.23    1.41
   0   6  12    9.93    1.45
  -1  -6 -12    7.19    1.24
   1   6  12    6.17    1.21
  -2  -6 -12   13.60    1.52
   2   6  12   15.94    1.45
   2   6  12   13.44    1.55
  -3  -6 -12   27.84    2.22
   3   6  12   30.63    2.03
   3   6  12   30.38    2.12
   1  -7 -12   -0.05    1.39
   1  -7 -12   -0.57    1.30
  -1   7  12    0.03    1.32
   0  -7 -12   15.12    1.57
   0   7  12   15.39    1.72
  -1  -7 -12    4.92    1.30
   1   7  12    1.87    1.29
  -2  -7 -12    3.45    1.31
   2   7  12    4.95    1.33
   2   7  12    4.72    1.33
   2   0 -13   -0.94    1.33
  -2   0  13    0.92    1.38
  -2   0  13   -0.60    1.29
   1   0 -13   43.17    2.76
  -1   0  13   43.82    2.78
   0   0 -13   50.97    2.99
   0   0  13   48.28    2.99
  -1   0 -13    0.40    1.30
   1   0  13    0.86    1.35
   2  -1 -13   45.16    2.86
   2  -1 -13   46.54    2.85
  -2   1  13   46.05    2.88
   1  -1 -13   16.30    1.68
  -1   1  13   15.84    1.76
   0  -1 -13    9.08    1.47
   0   1  13   11.43    1.57
  -1  -1 -13   73.36    3.73
   1   1  13   80.98    3.66
  -2  -1 -13   18.22    2.01
   2   1  13   19.33    1.99
   2  -2 -13   -1.03    1.27
   2  -2 -13   -0.41    1.25
  -2   2  13   -1.65    1.24
   1  -2 -13   50.66    2.75
  -1   2  13   47.48    2.82
   0  -2 -13   56.58    3.07
   0   2  13   56.92    3.00
  -1  -2 -13    0.27    1.08
   1   2  13   -0.57    1.14
  -2  -2 -13   36.49    2.52
   2   2  13   37.71    2.49
  -3  -2 -13   41.47    2.87
   3   2  13   49.96    2.95
   2  -3 -13   46.75    2.86
   2  -3 -13   47.93    2.82
  -2   3  13   47.92    2.87
   1  -3 -13   20.76    1.96
  -1   3  13   22.39    1.85
   0  -3 -13   12.91    1.47
   0   3  13    8.25    1.38
  -1  -3 -13   72.69    3.41
   1   3  13   68.69    3.38
  -2  -3 -13   18.61    1.78
   2   3  13   22.44    1.85
  -3  -3 -13   15.57    1.84
   3   3  13   12.69    1.79
   2  -4 -13    2.22    1.32
   2  -4 -13    0.29    1.33
  -2   4  13   -0.45    1.15
   1  -4 -13   52.84    2.93
  -1   4  13   58.53    3.06
   0  -4 -13   52.09    2.87
   0   4  13   53.89    2.94
  -1  -4 -13    0.52    1.09
   1   4  13    1.21    1.07
  -2  -4 -13   37.16    2.49
   2   4  13   37.10    2.38
  -3  -4 -13   38.85    2.63
   3   4  13   42.25    2.57
   1  -5 -13   22.94    1.96
  -1   5  13   22.74    1.92
   0  -5 -13    9.20    1.50
   0   5  13   12.46    1.46
  -1  -5 -13   66.87    3.36
   1   5  13   68.05    3.30
  -2  -5 -13   19.52    1.87
   2   5  13   21.12    1.88
   0  -6 -13   53.42    2.93
   0   6  13   46.09    2.89
  -1  -6 -13   -2.08    1.14
   1   6  13    0.05    1.14
  -2  -6 -13   28.54    2.26
   2   6  13   29.28    2.15
   0   0   0    0.00    0.00
;
_shelx_hkl_checksum              30875
loop_
_space_group_symop_operation_xyz
'x, y, z'
'-x, -y, -z'
loop_
_atom_site_label
_atom_site_type_symbol
_atom_site_fract_x
_atom_site_fract_y
_atom_site_fract_z
_atom_site_U_iso_or_equiv
_atom_site_adp_type
_atom_site_occupancy
_atom_site_site_symmetry_order
_atom_site_calc_flag
Am1 Am 0.84448(3) 0.25330(2) 0.03092(2) 0.00694(5) Uani 1 1 d
Cs1 Cs 0.80844(5) 0.24308(4) 0.57417(3) 0.01398(7) Uani 1 1 d
Cr1 Cr 0.69819(13) 0.73152(11) 0.15838(8) 0.00694(14) Uani 1 1 d
Cr2 Cr 0.31158(14) 0.28020(11) 0.26826(8) 0.00938(15) Uani 1 1 d
O6 O 0.1092(6) 0.1706(5) 0.2218(4) 0.0145(7) Uani 1 1 d
O1 O 0.8878(6) 0.8943(5) 0.1171(4) 0.0092(6) Uani 1 1 d
O4 O 0.7919(6) 0.5761(5) 0.0643(4) 0.0114(7) Uani 1 1 d
O2 O 0.4343(6) 0.8410(5) 0.1093(4) 0.0103(7) Uani 1 1 d
O3 O 0.7075(6) 0.6231(5) 0.3261(4) 0.0124(7) Uani 1 1 d
O5 O 0.2369(6) 0.5182(5) 0.2050(4) 0.0143(7) Uani 1 1 d
O7 O 0.3254(7) 0.2194(6) 0.4384(4) 0.0168(8) Uani 1 1 d
O8 O 0.5636(6) 0.2131(5) 0.2053(4) 0.0155(7) Uani 1 1 d
loop_
_atom_site_aniso_label
_atom_site_aniso_U_11
_atom_site_aniso_U_22
_atom_site_aniso_U_33
_atom_site_aniso_U_23
_atom_site_aniso_U_13
_atom_site_aniso_U_12
Am1 0.00811(8) 0.00522(8) 0.00835(8) -0.00288(6) 0.00045(6) -0.00194(5)
Cs1 0.01532(15) 0.01250(15) 0.01269(15) -0.00134(11) 0.00048(11) -0.00239(12)
Cr1 0.0083(3) 0.0060(3) 0.0074(3) -0.0026(3) 0.0003(3) -0.0025(3)
Cr2 0.0098(4) 0.0091(4) 0.0099(4) -0.0033(3) 0.0006(3) -0.0025(3)
O6 0.0146(18) 0.0101(17) 0.0167(18) -0.0006(14) -0.0042(14) -0.0016(14)
O1 0.0107(16) 0.0059(15) 0.0133(16) -0.0057(13) 0.0030(13) -0.0028(12)
O4 0.0160(17) 0.0075(16) 0.0136(17) -0.0076(13) 0.0023(14) -0.0023(13)
O2 0.0118(16) 0.0077(16) 0.0124(17) -0.0030(13) 0.0003(13) -0.0043(13)
O3 0.0175(18) 0.0109(17) 0.0088(16) -0.0015(13) -0.0002(14) -0.0046(14)
O5 0.0183(18) 0.0095(17) 0.0136(17) 0.0002(13) -0.0029(14) -0.0041(14)
O7 0.0177(19) 0.0203(19) 0.0120(17) -0.0037(15) -0.0011(14) -0.0037(15)
O8 0.0138(17) 0.0150(18) 0.0178(19) -0.0063(15) 0.0059(15) -0.0013(14)
loop_
_atom_type_symbol
_atom_type_description
_atom_type_scat_dispersion_real
_atom_type_scat_dispersion_imag
_atom_type_scat_source
O O 0.0106 0.0060 'International Tables Vol C Tables 4.2.6.8 and 6.1.1.4'
Cr Cr 0.3209 0.6236 'International Tables Vol C Tables 4.2.6.8 and 6.1.1.4'
Cs Cs -0.3680 2.1192 'International Tables Vol C Tables 4.2.6.8 and 6.1.1.4'
Am Am -7.8986 4.5125 'International Tables Vol C Tables 4.2.6.8 and 6.1.1.4'
loop_
_geom_angle_atom_site_label_1
_geom_angle_atom_site_label_2
_geom_angle_atom_site_label_3
_geom_angle
_geom_angle_site_symmetry_1
_geom_angle_site_symmetry_3
O8 Am1 O6 85.28(13) . 1_655
O8 Am1 O5 121.56(13) . 2_665
O6 Am1 O5 141.13(12) 1_655 2_665
O8 Am1 O4 80.75(12) . .
O6 Am1 O4 84.53(12) 1_655 .
O5 Am1 O4 74.10(12) 2_665 .
O8 Am1 O1 147.83(12) . 2_765
O6 Am1 O1 93.70(12) 1_655 2_765
O5 Am1 O1 77.74(12) 2_665 2_765
O4 Am1 O1 131.25(11) . 2_765
O8 Am1 O2 84.61(13) . 2_665
O6 Am1 O2 149.84(12) 1_655 2_665
O5 Am1 O2 66.75(12) 2_665 2_665
O4 Am1 O2 121.58(11) . 2_665
O1 Am1 O2 80.29(11) 2_765 2_665
O8 Am1 O1 79.52(12) . 1_545
O6 Am1 O1 76.35(12) 1_655 1_545
O5 Am1 O1 131.83(11) 2_665 1_545
O4 Am1 O1 153.47(12) . 1_545
O1 Am1 O1 69.07(13) 2_765 1_545
O2 Am1 O1 73.90(11) 2_665 1_545
O8 Am1 O4 144.98(12) . 2_765
O6 Am1 O4 73.04(12) 1_655 2_765
O5 Am1 O4 69.33(11) 2_665 2_765
O4 Am1 O4 70.28(13) . 2_765
O1 Am1 O4 62.79(10) 2_765 2_765
O2 Am1 O4 127.17(11) 2_665 2_765
O1 Am1 O4 119.80(11) 1_545 2_765
O8 Am1 Cr1 168.82(9) . 2_765
O6 Am1 Cr1 83.79(10) 1_655 2_765
O5 Am1 Cr1 69.14(9) 2_665 2_765
O4 Am1 Cr1 100.51(8) . 2_765
O1 Am1 Cr1 31.43(8) 2_765 2_765
O2 Am1 Cr1 103.80(8) 2_665 2_765
O1 Am1 Cr1 95.57(8) 1_545 2_765
O4 Am1 Cr1 31.42(7) 2_765 2_765
O8 Am1 Cr1 74.64(10) . 2_665
O6 Am1 Cr1 157.58(9) 1_655 2_665
O5 Am1 Cr1 60.64(9) 2_665 2_665
O4 Am1 Cr1 101.62(8) . 2_665
O1 Am1 Cr1 98.01(8) 2_765 2_665
O2 Am1 Cr1 20.64(8) 2_665 2_665
O1 Am1 Cr1 90.06(8) 1_545 2_665
O4 Am1 Cr1 129.36(8) 2_765 2_665
Cr1 Am1 Cr1 115.65(3) 2_765 2_665
O8 Am1 Cr2 95.44(10) . 1_655
O6 Am1 Cr2 18.84(9) 1_655 1_655
O5 Am1 Cr2 122.75(9) 2_665 1_655
O4 Am1 Cr2 70.63(8) . 1_655
O1 Am1 Cr2 93.44(8) 2_765 1_655
O2 Am1 Cr2 167.49(8) 2_665 1_655
O1 Am1 Cr2 93.78(8) 1_545 1_655
O4 Am1 Cr2 57.02(8) 2_765 1_655
Cr1 Am1 Cr2 74.74(3) 2_765 1_655
Cr1 Am1 Cr2 168.546(18) 2_665 1_655
O8 Am1 Cr2 112.06(9) . 2_665
O6 Am1 Cr2 131.29(9) 1_655 2_665
O5 Am1 Cr2 17.93(8) 2_665 2_665
O4 Am1 Cr2 56.27(8) . 2_665
O1 Am1 Cr2 92.68(8) 2_765 2_665
O2 Am1 Cr2 78.75(8) 2_665 2_665
O1 Am1 Cr2 149.15(8) 1_545 2_665
O4 Am1 Cr2 67.45(8) 2_765 2_665
Cr1 Am1 Cr2 77.23(2) 2_765 2_665
Cr1 Am1 Cr2 67.339(19) 2_665 2_665
Cr2 Am1 Cr2 112.560(19) 1_655 2_665
O6 Cs1 O3 169.27(9) 2_656 .
O6 Cs1 O5 99.84(10) 2_656 2_666
O3 Cs1 O5 90.55(9) . 2_666
O6 Cs1 O7 97.56(10) 2_656 .
O3 Cs1 O7 75.50(10) . .
O5 Cs1 O7 114.23(10) 2_666 .
O6 Cs1 O3 97.95(9) 2_656 2_666
O3 Cs1 O3 84.42(9) . 2_666
O5 Cs1 O3 62.41(9) 2_666 2_666
O7 Cs1 O3 52.56(9) . 2_666
O6 Cs1 O7 95.22(10) 2_656 1_655
O3 Cs1 O7 83.32(9) . 1_655
O5 Cs1 O7 111.63(9) 2_666 1_655
O7 Cs1 O7 129.12(12) . 1_655
O3 Cs1 O7 166.32(9) 2_666 1_655
O6 Cs1 O2 61.30(9) 2_656 2_666
O3 Cs1 O2 125.76(9) . 2_666
O5 Cs1 O2 49.21(9) 2_666 2_666
O7 Cs1 O2 88.94(9) . 2_666
O3 Cs1 O2 47.61(8) 2_666 2_666
O7 Cs1 O2 139.21(9) 1_655 2_666
O6 Cs1 O1 54.98(9) 2_656 2_766
O3 Cs1 O1 134.92(9) . 2_766
O5 Cs1 O1 56.16(8) 2_666 2_766
O7 Cs1 O1 142.44(9) . 2_766
O3 Cs1 O1 101.88(8) 2_666 2_766
O7 Cs1 O1 82.70(9) 1_655 2_766
O2 Cs1 O1 56.56(8) 2_666 2_766
O6 Cs1 O3 95.50(9) 2_656 2_766
O3 Cs1 O3 91.79(9) . 2_766
O5 Cs1 O3 61.63(9) 2_666 2_766
O7 Cs1 O3 166.84(9) . 2_766
O3 Cs1 O3 123.84(11) 2_666 2_766
O7 Cs1 O3 50.70(9) 1_655 2_766
O2 Cs1 O3 95.97(8) 2_666 2_766
O1 Cs1 O3 47.52(8) 2_766 2_766
O6 Cs1 O7 45.68(9) 2_656 2_656
O3 Cs1 O7 123.94(9) . 2_656
O5 Cs1 O7 136.59(9) 2_666 2_656
O7 Cs1 O7 59.87(11) . 2_656
O3 Cs1 O7 92.86(9) 2_666 2_656
O7 Cs1 O7 99.01(8) 1_655 2_656
O2 Cs1 O7 87.52(8) 2_666 2_656
O1 Cs1 O7 100.52(8) 2_766 2_656
O3 Cs1 O7 132.36(8) 2_766 2_656
O6 Cs1 Cr2 24.87(7) 2_656 2_656
O3 Cs1 Cr2 146.20(7) . 2_656
O5 Cs1 Cr2 113.44(7) 2_666 2_656
O7 Cs1 Cr2 73.05(7) . 2_656
O3 Cs1 Cr2 86.22(6) 2_666 2_656
O7 Cs1 Cr2 107.38(7) 1_655 2_656
O2 Cs1 Cr2 65.87(6) 2_666 2_656
O1 Cs1 Cr2 78.82(6) 2_766 2_656
O3 Cs1 Cr2 120.10(6) 2_766 2_656
O7 Cs1 Cr2 24.55(6) 2_656 2_656
O6 Cs1 Cr1 78.72(7) 2_656 2_666
O3 Cs1 Cr1 105.71(7) . 2_666
O5 Cs1 Cr1 53.84(7) 2_666 2_666
O7 Cs1 Cr1 68.78(7) . 2_666
O3 Cs1 Cr1 23.40(6) 2_666 2_666
O7 Cs1 Cr1 162.00(7) 1_655 2_666
O2 Cs1 Cr1 24.28(6) 2_666 2_666
O1 Cs1 Cr1 79.96(6) 2_766 2_666
O3 Cs1 Cr1 112.53(6) 2_766 2_666
O7 Cs1 Cr1 88.90(6) 2_656 2_666
Cr2 Cs1 Cr1 73.926(19) 2_656 2_666
O3 Cr1 O2 109.59(18) . .
O3 Cr1 O4 111.42(18) . .
O2 Cr1 O4 111.12(17) . .
O3 Cr1 O1 110.58(17) . .
O2 Cr1 O1 110.56(17) . .
O4 Cr1 O1 103.46(17) . .
O3 Cr1 Am1 122.09(13) . 2_765
O2 Cr1 Am1 128.13(13) . 2_765
O4 Cr1 Am1 55.07(12) . 2_765
O1 Cr1 Am1 48.53(11) . 2_765
O3 Cr1 Am1 115.87(13) . 2_665
O2 Cr1 Am1 31.91(12) . 2_665
O4 Cr1 Am1 80.29(12) . 2_665
O1 Cr1 Am1 128.10(12) . 2_665
Am1 Cr1 Am1 115.65(3) 2_765 2_665
O3 Cr1 Am1 118.34(13) . 1_565
O2 Cr1 Am1 83.50(12) . 1_565
O4 Cr1 Am1 118.99(13) . 1_565
O1 Cr1 Am1 27.39(11) . 1_565
Am1 Cr1 Am1 69.234(16) 2_765 1_565
Am1 Cr1 Am1 105.77(2) 2_665 1_565
O3 Cr1 Cs1 53.51(13) . 2_666
O2 Cr1 Cs1 56.32(12) . 2_666
O4 Cr1 Cs1 133.39(12) . 2_666
O1 Cr1 Cs1 123.13(11) . 2_666
Am1 Cr1 Cs1 170.51(2) 2_765 2_666
Am1 Cr1 Cs1 72.63(2) 2_665 2_666
Am1 Cr1 Cs1 104.71(2) 1_565 2_666
O3 Cr1 Am1 96.74(13) . .
O2 Cr1 Am1 110.72(12) . .
O4 Cr1 Am1 16.84(12) . .
O1 Cr1 Am1 117.74(11) . .
Am1 Cr1 Am1 69.387(17) 2_765 .
Am1 Cr1 Am1 78.832(17) 2_665 .
Am1 Cr1 Am1 135.71(2) 1_565 .
Cs1 Cr1 Am1 118.23(2) 2_666 .
O3 Cr1 Cs1 56.09(13) . 2_766
O2 Cr1 Cs1 137.12(12) . 2_766
O4 Cr1 Cs1 111.64(13) . 2_766
O1 Cr1 Cs1 55.71(12) . 2_766
Am1 Cr1 Cs1 76.46(2) 2_765 2_766
Am1 Cr1 Cs1 167.07(2) 2_665 2_766
Am1 Cr1 Cs1 73.402(16) 1_565 2_766
Cs1 Cr1 Cs1 94.94(3) 2_666 2_766
Am1 Cr1 Cs1 111.05(2) . 2_766
O7 Cr2 O8 110.09(19) . .
O7 Cr2 O5 109.50(19) . .
O8 Cr2 O5 109.75(19) . .
O7 Cr2 O6 107.77(19) . .
O8 Cr2 O6 110.44(19) . .
O5 Cr2 O6 109.25(18) . .
O7 Cr2 Am1 129.39(14) . 1_455
O8 Cr2 Am1 109.28(14) . 1_455
O5 Cr2 Am1 85.25(13) . 1_455
O6 Cr2 Am1 26.94(12) . 1_455
O7 Cr2 Am1 136.41(14) . 2_665
O8 Cr2 Am1 95.82(13) . 2_665
O5 Cr2 Am1 26.96(13) . 2_665
O6 Cr2 Am1 94.27(12) . 2_665
Am1 Cr2 Am1 67.440(19) 1_455 2_665
O7 Cr2 Cs1 69.70(14) . 2_656
O8 Cr2 Cs1 93.78(13) . 2_656
O5 Cr2 Cs1 154.37(13) . 2_656
O6 Cr2 Cs1 50.60(12) . 2_656
Am1 Cr2 Cs1 77.243(18) 1_455 2_656
Am1 Cr2 Cs1 144.62(2) 2_665 2_656
O7 Cr2 Am1 123.85(14) . .
O8 Cr2 Am1 16.45(13) . .
O5 Cr2 Am1 95.13(13) . .
O6 Cr2 Am1 110.21(13) . .
Am1 Cr2 Am1 101.41(3) 1_455 .
Am1 Cr2 Am1 79.42(2) 2_665 .
Cs1 Cr2 Am1 106.50(2) 2_656 .
O7 Cr2 Cs1 47.57(14) . 1_455
O8 Cr2 Cs1 154.39(14) . 1_455
O5 Cr2 Cs1 92.00(13) . 1_455
O6 Cr2 Cs1 72.87(13) . 1_455
Am1 Cr2 Cs1 85.17(3) 1_455 1_455
Am1 Cr2 Cs1 109.42(2) 2_665 1_455
Cs1 Cr2 Cs1 68.229(16) 2_656 1_455
Am1 Cr2 Cs1 170.66(2) . 1_455
O7 Cr2 Cs1 67.41(14) . 2_666
O8 Cr2 Cs1 122.02(13) . 2_666
O5 Cr2 Cs1 42.22(13) . 2_666
O6 Cr2 Cs1 125.81(13) . 2_666
Am1 Cr2 Cs1 114.31(2) 1_455 2_666
Am1 Cr2 Cs1 69.17(2) 2_665 2_666
Cs1 Cr2 Cs1 131.20(3) 2_656 2_666
Am1 Cr2 Cs1 116.13(2) . 2_666
Cs1 Cr2 Cs1 66.029(16) 1_455 2_666
O7 Cr2 Cs1 44.04(14) . .
O8 Cr2 Cs1 73.27(14) . .
O5 Cr2 Cs1 101.04(13) . .
O6 Cr2 Cs1 145.26(13) . .
Am1 Cr2 Cs1 172.11(2) 1_455 .
Am1 Cr2 Cs1 120.13(2) 2_665 .
Cs1 Cr2 Cs1 95.24(2) 2_656 .
Am1 Cr2 Cs1 82.90(2) . .
Cs1 Cr2 Cs1 89.82(3) 1_455 .
Cs1 Cr2 Cs1 68.807(17) 2_666 .
Cr2 O6 Am1 134.2(2) . 1_455
Cr2 O6 Cs1 104.53(15) . 2_656
Am1 O6 Cs1 120.57(13) 1_455 2_656
Cr1 O1 Am1 100.04(14) . 2_765
Cr1 O1 Am1 134.14(18) . 1_565
Am1 O1 Am1 110.93(13) 2_765 1_565
Cr1 O1 Cs1 99.52(14) . 2_766
Am1 O1 Cs1 100.91(11) 2_765 2_766
Am1 O1 Cs1 106.53(10) 1_565 2_766
Cr1 O4 Am1 151.6(2) . .
Cr1 O4 Am1 93.51(14) . 2_765
Am1 O4 Am1 109.72(13) . 2_765
Cr1 O4 Am1 73.77(12) . 2_665
Am1 O4 Am1 101.20(10) . 2_665
Am1 O4 Am1 130.16(12) 2_765 2_665
Cr1 O2 Am1 127.45(18) . 2_665
Cr1 O2 Cs1 99.40(15) . 2_666
Am1 O2 Cs1 101.96(11) 2_665 2_666
Cr1 O2 Am1 72.60(11) . 1_565
Am1 O2 Am1 135.42(12) 2_665 1_565
Cs1 O2 Am1 114.17(9) 2_666 1_565
Cr1 O2 Am1 161.41(16) . 1_465
Am1 O2 Am1 70.82(8) 2_665 1_465
Cs1 O2 Am1 77.51(7) 2_666 1_465
Am1 O2 Am1 91.76(7) 1_565 1_465
Cr1 O3 Cs1 149.41(18) . .
Cr1 O3 Cs1 103.09(16) . 2_666
Cs1 O3 Cs1 95.58(9) . 2_666
Cr1 O3 Cs1 100.80(15) . 2_766
Cs1 O3 Cs1 88.21(9) . 2_766
Cs1 O3 Cs1 123.84(10) 2_666 2_766
Cr2 O5 Am1 135.1(2) . 2_665
Cr2 O5 Cs1 117.03(17) . 2_666
Am1 O5 Cs1 107.85(12) 2_665 2_666
Cr2 O5 Am1 69.95(12) . 1_455
Am1 O5 Am1 77.77(9) 2_665 1_455
Cs1 O5 Am1 138.32(12) 2_666 1_455
Cr2 O7 Cs1 115.66(18) . .
Cr2 O7 Cs1 111.32(17) . 1_455
Cs1 O7 Cs1 129.13(12) . 1_455
Cr2 O7 Cs1 85.75(15) . 2_656
Cs1 O7 Cs1 120.13(11) . 2_656
Cs1 O7 Cs1 80.99(8) 1_455 2_656
Cr2 O8 Am1 152.0(2) . .
loop_
_geom_bond_atom_site_label_1
_geom_bond_atom_site_label_2
_geom_bond_distance
_geom_bond_site_symmetry_2
Am1 O8 2.324(4) .
Am1 O6 2.332(4) 1_655
Am1 O5 2.425(4) 2_665
Am1 O4 2.430(3) .
Am1 O1 2.441(3) 2_765
Am1 O2 2.449(3) 2_665
Am1 O1 2.466(3) 1_545
Am1 O4 2.635(4) 2_765
Am1 Cr1 3.2078(10) 2_765
Am1 Cr1 3.6784(10) 2_665
Am1 Cr2 3.6881(10) 1_655
Am1 Cr2 3.7744(10) 2_665
Cs1 O6 3.054(4) 2_656
Cs1 O3 3.082(3) .
Cs1 O5 3.123(4) 2_666
Cs1 O7 3.194(4) .
Cs1 O3 3.234(4) 2_666
Cs1 O7 3.266(4) 1_655
Cs1 O2 3.305(4) 2_666
Cs1 O1 3.350(3) 2_766
Cs1 O3 3.378(4) 2_766
Cs1 O7 3.598(4) 2_656
Cs1 Cr2 3.8253(12) 2_656
Cs1 Cr1 3.9179(11) 2_666
Cr1 O3 1.598(3) .
Cr1 O2 1.633(4) .
Cr1 O4 1.676(3) .
Cr1 O1 1.699(3) .
Cr1 Am1 3.2078(10) 2_765
Cr1 Am1 3.6784(10) 2_665
Cr1 Am1 3.8478(11) 1_565
Cr1 Cs1 3.9180(11) 2_666
Cr1 Cs1 3.9986(11) 2_766
Cr2 O7 1.594(4) .
Cr2 O8 1.640(4) .
Cr2 O5 1.647(4) .
Cr2 O6 1.662(4) .
Cr2 Am1 3.6881(10) 1_455
Cr2 Am1 3.7744(10) 2_665
Cr2 Cs1 3.8253(12) 2_656
Cr2 Cs1 4.1219(11) 1_455
Cr2 Cs1 4.1399(11) 2_666
O6 Am1 2.332(4) 1_455
O6 Cs1 3.054(4) 2_656
O1 Am1 2.441(3) 2_765
O1 Am1 2.466(3) 1_565
O1 Cs1 3.350(3) 2_766
O4 Am1 2.635(4) 2_765
O4 Am1 3.776(4) 2_665
O2 Am1 2.449(3) 2_665
O2 Cs1 3.305(4) 2_666
O2 Am1 4.006(3) 1_565
O2 Am1 4.120(3) 1_465
O3 Cs1 3.234(4) 2_666
O3 Cs1 3.378(4) 2_766
O5 Am1 2.425(4) 2_665
O5 Cs1 3.123(4) 2_666
O5 Am1 3.912(4) 1_455
O7 Cs1 3.266(4) 1_455
O7 Cs1 3.598(4) 2_656
