#------------------------------------------------------------------------------
#$Date: 2019-11-02 07:42:42 +0200 (Sat, 02 Nov 2019) $
#$Revision: 220988 $
#$URL: file:///home/coder/svn-repositories/cod/cif/4/12/78/4127816.cif $
#------------------------------------------------------------------------------
#
# This file is available in the Crystallography Open Database (COD),
# http://www.crystallography.net/
#
# All data on this site have been placed in the public domain by the
# contributors.
#
data_4127816
loop_
_publ_author_name
'Dai, Wen'
'Geib, Steven J.'
'Curran, Dennis P.'
_publ_section_title
;
 Ring-Opening Reactions of NHC-Boriranes with In Situ Generated HCl:
 Synthesis of a New Class of NHC-Boralactones.
;
_journal_issue                   8
_journal_name_full               'Journal of the American Chemical Society'
_journal_page_first              3623
_journal_page_last               3629
_journal_paper_doi               10.1021/jacs.8b13010
_journal_volume                  141
_journal_year                    2019
_chemical_formula_sum            'C14 H17 B N2 O4'
_chemical_formula_weight         288.10
_space_group_crystal_system      triclinic
_space_group_IT_number           2
_space_group_name_Hall           '-P 1'
_space_group_name_H-M_alt        'P -1'
_symmetry_space_group_name_Hall  '-P 1'
_symmetry_space_group_name_H-M   'P -1'
_atom_sites_solution_hydrogens   mixed
_audit_creation_method           SHELXL-2017/1
_cell_angle_alpha                74.160(4)
_cell_angle_beta                 81.438(4)
_cell_angle_gamma                70.283(3)
_cell_formula_units_Z            2
_cell_length_a                   8.3105(4)
_cell_length_b                   9.8008(5)
_cell_length_c                   9.9682(5)
_cell_measurement_reflns_used    2388
_cell_measurement_temperature    230(2)
_cell_measurement_theta_max      66.519
_cell_measurement_theta_min      4.62
_cell_volume                     733.83(7)
_computing_structure_refinement  'SHELXL-2017/1 (Sheldrick, 2017)'
_computing_structure_solution    'SHELXT 2014/4 (Sheldrick, 2014)'
_diffrn_ambient_temperature      230(2)
_diffrn_measured_fraction_theta_full 0.977
_diffrn_measured_fraction_theta_max 0.975
_diffrn_measurement_device_type  'Bruker Apex II CCD'
_diffrn_measurement_method       'omega and phi scans'
_diffrn_radiation_type           CuK\a
_diffrn_radiation_wavelength     1.54178
_diffrn_reflns_av_R_equivalents  0.0336
_diffrn_reflns_av_unetI/netI     0.0322
_diffrn_reflns_Laue_measured_fraction_full 0.977
_diffrn_reflns_Laue_measured_fraction_max 0.975
_diffrn_reflns_limit_h_max       10
_diffrn_reflns_limit_h_min       -10
_diffrn_reflns_limit_k_max       11
_diffrn_reflns_limit_k_min       -11
_diffrn_reflns_limit_l_max       12
_diffrn_reflns_limit_l_min       -11
_diffrn_reflns_number            9803
_diffrn_reflns_point_group_measured_fraction_full 0.977
_diffrn_reflns_point_group_measured_fraction_max 0.975
_diffrn_reflns_theta_full        67.679
_diffrn_reflns_theta_max         68.335
_diffrn_reflns_theta_min         4.620
_diffrn_source                   'Bruker X8 Prospector Ultra IMuS'
_exptl_absorpt_coefficient_mu    0.783
_exptl_absorpt_correction_T_max  0.97
_exptl_absorpt_correction_T_min  0.87
_exptl_absorpt_correction_type   multi-scan
_exptl_absorpt_process_details   'Bruker Sadabs'
_exptl_crystal_colour            colorless
_exptl_crystal_density_diffrn    1.304
_exptl_crystal_description       'rectangular prism'
_exptl_crystal_F_000             304
_exptl_crystal_size_max          0.180
_exptl_crystal_size_mid          0.140
_exptl_crystal_size_min          0.040
_refine_diff_density_max         0.389
_refine_diff_density_min         -0.203
_refine_diff_density_rms         0.048
_refine_ls_extinction_method     none
_refine_ls_goodness_of_fit_ref   1.678
_refine_ls_hydrogen_treatment    mixed
_refine_ls_matrix_type           full
_refine_ls_number_parameters     194
_refine_ls_number_reflns         2617
_refine_ls_number_restraints     0
_refine_ls_restrained_S_all      1.678
_refine_ls_R_factor_all          0.0669
_refine_ls_R_factor_gt           0.0564
_refine_ls_shift/su_max          0.000
_refine_ls_shift/su_mean         0.000
_refine_ls_structure_factor_coef Fsqd
_refine_ls_weighting_details
'w=1/[\s^2^(Fo^2^)+(0.0680P)^2^] where P=(Fo^2^+2Fc^2^)/3'
_refine_ls_weighting_scheme      calc
_refine_ls_wR_factor_gt          0.1624
_refine_ls_wR_factor_ref         0.1716
_reflns_Friedel_coverage         0.000
_reflns_number_gt                2126
_reflns_number_total             2617
_reflns_threshold_expression     'I > 2\s(I)'
_cod_data_source_file            ja8b13010_si_003.cif
_cod_data_source_block           WenDaiDB109_1_a
_cod_database_code               4127816
_shelx_shelxl_version_number     2017/1
_shelx_space_group_comment
;
The symmetry employed for this shelxl refinement is uniquely defined
by the following loop, which should always be used as a source of
symmetry information in preference to the above space-group names.
They are only intended as comments.
;
_shelx_estimated_absorpt_t_min   0.872
_shelx_estimated_absorpt_t_max   0.969
_shelx_res_file
;
TITL WenDaiDB109_1_a.res in P-1
    WenDaiDB109_1_a.res
    created by SHELXL-2017/1 at 14:28:22 on 07-Sep-2018
CELL  1.54178   8.3105   9.8008   9.9682   74.160   81.438   70.283
ZERR    2.000   0.0004   0.0005   0.0005    0.004    0.004    0.003
LATT 1
SFAC C  H  B  N  O
UNIT 28  34  2  4  8
REM Old TITL WenDaiDB109_1 in P-1
REM SHELXT solution in P-1
REM R1 0.182,  Rweak 0.010,  Alpha 0.045,  Orientation as input
REM Formula found by SHELXT:  C15 N5 O
L.S. 10
acta
BOND $H
FMAP 2
PLAN 20
SIZE 0.04 0.14 0.18
TEMP -43.150
WGHT    0.068000
FVAR       0.76639
B1    3    0.918065    0.248231    0.798737    11.00000    0.04361    0.04319 =
         0.05046   -0.01808    0.00107   -0.01818
H1    2    1.033759    0.160950    0.838614    11.00000    0.05009
C1    1    0.853002    0.197849    0.678883    11.00000    0.03773    0.03932 =
         0.04191   -0.01460    0.00542   -0.01431
C2    1    0.790022    0.046670    0.577215    11.00000    0.03909    0.04958 =
         0.04174   -0.01942    0.00594   -0.01638
C3    1    0.769417   -0.075199    0.543423    11.00000    0.05485    0.05442 =
         0.06035   -0.02590    0.00870   -0.02451
AFIX  43
H3A   2    0.798569   -0.171014    0.603728    11.00000   -1.20000
AFIX   0
C4    1    0.703973   -0.046379    0.416724    11.00000    0.07403    0.08391 =
         0.05802   -0.03723    0.00793   -0.04243
AFIX  43
H4A   2    0.688848   -0.125256    0.388874    11.00000   -1.20000
AFIX   0
C5    1    0.659403    0.094733    0.328405    11.00000    0.07539    0.10324 =
         0.04828   -0.03077   -0.00045   -0.04181
AFIX  43
H5A   2    0.613107    0.108748    0.243352    11.00000   -1.20000
AFIX   0
C6    1    0.680386    0.215519    0.360543    11.00000    0.06283    0.07578 =
         0.04137   -0.01152   -0.00060   -0.02412
AFIX  43
H6A   2    0.649946    0.311152    0.299972    11.00000   -1.20000
AFIX   0
C7    1    0.749600    0.187566    0.488507    11.00000    0.04285    0.05277 =
         0.03953   -0.01668    0.00524   -0.01904
C8    1    0.899921   -0.064137    0.815692    11.00000    0.07021    0.04065 =
         0.05444   -0.01026   -0.01049   -0.01660
AFIX  33
H8A   2    0.887082   -0.153059    0.799587    11.00000   -1.50000
H8B   2    1.018316   -0.082776    0.832549    11.00000   -1.50000
H8C   2    0.826827   -0.038586    0.896408    11.00000   -1.50000
AFIX   0
C9    1    0.765005    0.437309    0.493032    11.00000    0.08050    0.04445 =
         0.05924   -0.00075   -0.00266   -0.02658
AFIX  33
H9A   2    0.717274    0.465626    0.402695    11.00000   -1.50000
H9B   2    0.687043    0.495684    0.554149    11.00000   -1.50000
H9C   2    0.874343    0.455871    0.481441    11.00000   -1.50000
AFIX   0
C10   1    0.897559    0.484803    0.819033    11.00000    0.07035    0.04476 =
         0.07412   -0.01872   -0.01237   -0.02598
C11   1    0.801266    0.424096    0.947432    11.00000    0.07217    0.08731 =
         0.07795   -0.05375    0.01359   -0.03948
AFIX  23
H11A  2    0.691982    0.499466    0.962515    11.00000   -1.20000
H11B  2    0.868016    0.396450    1.029337    11.00000   -1.20000
AFIX   0
C12   1    0.769995    0.287684    0.926081    11.00000    0.05165    0.05885 =
         0.04384   -0.01775    0.00153   -0.02619
AFIX  13
H12A  2    0.791831    0.205220    1.011315    11.00000   -1.20000
AFIX   0
C13   1    0.596422    0.321185    0.878979    11.00000    0.04553    0.05553 =
         0.04436   -0.02172    0.00885   -0.01955
C14   1    0.381714    0.221251    0.864453    11.00000    0.06770    0.13009 =
         0.10289   -0.04780   -0.00297   -0.05621
AFIX  33
H14A  2    0.350739    0.130190    0.897855    11.00000   -1.50000
H14B  2    0.292826    0.302253    0.895360    11.00000   -1.50000
H14C  2    0.394029    0.245372    0.763172    11.00000   -1.50000
AFIX   0
N1    4    0.851595    0.057954    0.694406    11.00000    0.04318    0.03879 =
         0.04287   -0.01389    0.00050   -0.01518
N2    4    0.789607    0.278996    0.554412    11.00000    0.04900    0.04095 =
         0.04574   -0.01096    0.00621   -0.01869
O1    5    0.960334    0.389412    0.739777    11.00000    0.07296    0.05807 =
         0.06300   -0.02496    0.01306   -0.04276
O2    5    0.924388    0.603393    0.791824    11.00000    0.13615    0.05440 =
         0.11416   -0.01975   -0.02590   -0.05060
O3    5    0.516522    0.435248    0.807087    11.00000    0.05950    0.06260 =
         0.07939   -0.00733   -0.00253   -0.00487
O4    5    0.542774    0.200193    0.919822    11.00000    0.05572    0.07149 =
         0.06873   -0.01899    0.00007   -0.03396

HKLF 4




REM  WenDaiDB109_1_a.res in P-1
REM R1 =  0.0564 for    2126 Fo > 4sig(Fo)  and  0.0669 for all    2617 data
REM    194 parameters refined using      0 restraints

END

WGHT      0.1006      0.2453

REM Highest difference peak  0.389,  deepest hole -0.203,  1-sigma level  0.048
Q1    1   0.4516  0.3818  0.7894  11.00000  0.05    0.39
Q2    1   0.9217 -0.0223  0.8812  11.00000  0.05    0.32
Q3    1   0.6617  0.4778  0.8103  11.00000  0.05    0.25
Q4    1   0.7404  0.5121  0.8671  11.00000  0.05    0.25
Q5    1   0.7972  0.4866  0.5640  11.00000  0.05    0.24
Q6    1   0.6527  0.4874  0.4441  11.00000  0.05    0.22
Q7    1   0.7010  0.1912  0.4337  11.00000  0.05    0.21
Q8    1   0.6049  0.2522  0.9810  11.00000  0.05    0.21
Q9    1   0.7881 -0.1145  0.8577  11.00000  0.05    0.21
Q10   1   0.8816  0.2190  0.7356  11.00000  0.05    0.20
Q11   1   0.9837  0.3170  0.8191  11.00000  0.05    0.18
Q12   1   1.0062  0.3670  1.0244  11.00000  0.05    0.18
Q13   1   0.7843  0.2390  0.5155  11.00000  0.05    0.17
Q14   1   0.7075  0.1821  0.3634  11.00000  0.05    0.17
Q15   1   1.0016 -0.1596  0.7822  11.00000  0.05    0.16
Q16   1   0.8033  0.2790  0.6260  11.00000  0.05    0.16
Q17   1   0.8421  0.4001  0.7102  11.00000  0.05    0.15
Q18   1   0.8242  0.0432  0.6180  11.00000  0.05    0.15
Q19   1   0.7361  0.3591  0.5220  11.00000  0.05    0.15
Q20   1   0.4217  0.1195  0.8560  11.00000  0.05    0.15
;
_shelx_res_checksum              71670
_shelx_hkl_file
;
  -1   0   0  258.47    8.90
   1   0   0  271.37    9.00
   1   0   0  264.67    9.00
  -2   0   0  662.93   22.40
   2   0   0  677.43   22.70
   2   0   0  675.83   22.70
  -3   0   0  271.17    9.40
   3   0   0  271.47    9.90
   3   0   0  272.07    9.90
  -4   0   0   33.10    1.60
   4   0   0   32.10    2.10
   4   0   0   32.70    1.60
   4   0   0   30.70    2.10
   5   0   0    1.80    0.90
   5   0   0    0.50    0.80
   5   0   0    1.90    0.60
  -6   0   0   11.60    1.60
   6   0   0   14.40    1.50
   6   0   0   13.00    1.40
   6   0   0    9.70    1.20
  -7   0   0   27.10    2.20
  -7   0   0   29.80    2.30
   7   0   0   26.90    1.90
   7   0   0   28.80    2.00
   7   0   0   31.40    2.00
  -8   0   0    1.80    1.00
  -8   0   0    0.20    0.80
   8   0   0    0.80    0.60
   8   0   0    1.40    0.70
   8   0   0    0.70    0.70
  -9   0   0    4.20    0.90
   9   0   0    2.90    0.70
   9  -1   0    0.50    0.50
   9  -1   0    0.10    0.40
  -9   1   0   -0.20    0.50
   8  -1   0    1.70    0.70
   8  -1   0    1.90    0.80
   8  -1   0    1.90    0.60
  -8   1   0    1.50    0.80
   7  -1   0    1.30    0.70
   7  -1   0    0.20    0.60
   7  -1   0    0.80    0.60
  -7   1   0    0.80    0.80
  -7   1   0   -0.60    0.80
   6  -1   0    0.90    0.60
   6  -1   0    1.50    1.10
   6  -1   0    1.20    0.70
   6  -1   0    2.00    0.80
  -6   1   0    1.80    1.00
   5  -1   0   22.80    2.20
   5  -1   0   21.00    1.50
   4  -1   0    9.70    1.00
   4  -1   0   11.20    1.50
   4  -1   0    9.00    1.30
   3  -1   0   25.30    1.80
   3  -1   0   26.30    1.60
  -3   1   0   24.60    1.30
   2  -1   0  890.71   29.70
   2  -1   0  870.41   29.50
  -2   1   0  882.21   29.40
   1  -1   0 2559.34   84.49
   1  -1   0 2656.83   84.29
  -1   1   0 2419.56   84.59
   0  -1   0    0.30    0.10
   0   1   0    0.40    0.20
   0   1   0    0.00    0.10
  -1  -1   0 1960.10   60.49
   1   1   0 1931.71   60.09
   1   1   0 1559.94   59.99
  -2  -1   0  421.46   14.20
   2   1   0  415.46   14.40
   2   1   0  429.96   14.50
  -3  -1   0    7.00    0.60
   3   1   0    6.30    0.90
   3   1   0    6.50    0.80
  -4  -1   0  437.56   15.00
   4   1   0  436.16   15.60
   4   1   0  458.15   15.90
   4   1   0  427.36   15.10
   5   1   0   60.79    3.50
   5   1   0   60.79    3.40
   5   1   0   59.39    2.70
   6   1   0    9.60    1.80
   6   1   0    8.10    1.10
   6   1   0    7.80    1.70
  -7  -1   0   33.10    2.40
  -7  -1   0   36.50    2.50
   7   1   0   40.10    2.30
   7   1   0   34.20    2.20
   7   1   0   41.30    2.40
  -8  -1   0    5.10    1.10
  -8  -1   0    4.60    1.20
   8   1   0    4.60    1.10
   8   1   0    4.60    0.90
   8   1   0    4.90    0.90
  -9  -1   0    4.30    1.00
  -9  -1   0    4.70    0.90
   9   1   0    2.20    0.70
   9   1   0    2.90    0.60
   8  -2   0    0.20    0.60
   8  -2   0   -0.10    0.50
  -8   2   0   -0.20    0.60
  -8   2   0    1.20    0.70
   7  -2   0    4.40    1.00
   7  -2   0    3.90    0.90
   7  -2   0    2.30    0.70
  -7   2   0    4.30    1.10
  -7   2   0    4.10    1.10
   6  -2   0   49.00    2.70
   6  -2   0   51.09    2.50
   6  -2   0   47.10    3.20
   6  -2   0   45.60    2.70
  -6   2   0   50.69    3.00
   5  -2   0   -0.40    0.90
   5  -2   0    1.30    0.60
   4  -2   0    0.10    0.40
   4  -2   0    0.00    0.70
   3  -2   0   60.99    2.50
   3  -2   0   58.49    3.00
  -3   2   0   56.09    2.50
   2  -2   0    0.10    0.30
   2  -2   0    0.30    0.50
  -2   2   0    0.10    0.30
   1  -2   0  720.93   24.10
  -1   2   0  710.03   24.00
   0  -2   0    7.00    0.50
   0   2   0    8.70    0.90
   0   2   0    7.10    0.40
  -1  -2   0   95.29    3.50
   1   2   0   96.69    3.50
   1   2   0   94.29    3.20
  -2  -2   0    5.60    0.60
   2   2   0    5.70    0.60
   2   2   0    6.80    0.80
  -3  -2   0    6.00    0.70
   3   2   0    5.50    0.90
   3   2   0    4.70    0.70
  -4  -2   0   10.80    0.90
   4   2   0    9.30    1.30
   4   2   0   10.90    1.20
   4   2   0   12.00    0.90
   5   2   0  314.57   11.20
   5   2   0  314.87   11.80
   5   2   0  313.37   12.20
   6   2   0   22.40    2.70
   6   2   0   23.80    2.60
   6   2   0   19.90    1.50
  -7  -2   0    1.50    0.90
  -7  -2   0    2.40    0.90
   7   2   0    4.30    1.00
   7   2   0    3.80    0.90
   7   2   0    3.00    0.90
  -8  -2   0    0.80    0.70
  -8  -2   0    0.20    0.80
   8   2   0    0.50    0.60
   8   2   0   -0.10    0.60
   8   2   0   -0.50    0.60
  -9  -2   0    3.10    0.80
  -9  -2   0    1.60    0.90
   9   2   0    3.10    0.80
   9   2   0    2.30    0.80
   8  -3   0    4.20    0.70
   8  -3   0    4.30    0.70
  -8   3   0    4.30    0.90
  -8   3   0    5.50    0.90
   7  -3   0    8.70    1.00
   7  -3   0    9.40    1.40
   7  -3   0   10.40    1.30
  -7   3   0    9.10    1.40
  -7   3   0   12.70    1.50
   6  -3   0    5.70    1.10
   6  -3   0    7.30    1.20
   6  -3   0    6.00    1.30
   6  -3   0    6.70    1.10
  -6   3   0    5.70    1.30
  -6   3   0    6.90    1.30
   5  -3   0   80.09    3.80
   5  -3   0   83.79    4.30
   5  -3   0   84.59    3.70
   5  -3   0   85.09    3.90
  -5   3   0   84.89    4.00
   4  -3   0    9.20    1.60
   4  -3   0   11.20    1.20
   3  -3   0    2.60    0.60
   3  -3   0    2.30    0.90
  -3   3   0    3.70    0.70
   2  -3   0    2.20    0.50
   2  -3   0    2.50    0.70
  -2   3   0    2.20    0.60
   1  -3   0  353.16   12.40
  -1   3   0  362.96   12.50
   0  -3   0   46.90    1.80
   1   3   0   19.80    1.10
   1   3   0   21.10    1.20
  -2  -3   0   79.69    3.30
   2   3   0   85.79    3.50
   2   3   0   82.09    3.30
   2   3   0   84.69    3.00
  -3  -3   0   46.60    2.10
   3   3   0   42.70    2.00
   3   3   0   42.90    2.40
  -4  -3   0   25.30    1.50
  -4  -3   0   19.00    1.30
   4   3   0   24.60    2.00
   4   3   0   26.50    1.60
   5   3   0    0.10    0.40
   5   3   0    0.20    0.70
   5   3   0   -0.10    0.50
  -6  -3   0   10.30    1.20
   6   3   0    9.80    1.20
   6   3   0   12.10    2.00
  -7  -3   0    3.70    1.10
  -7  -3   0    4.90    1.10
  -7  -3   0    5.90    1.10
  -7  -3   0    5.10    1.10
   7   3   0    3.50    0.90
   7   3   0    3.80    1.00
   7   3   0    3.40    0.90
  -8  -3   0    3.30    1.00
   8   3   0    0.90    0.70
   8   3   0    0.20    0.70
   8   3   0    1.50    0.70
  -9  -3   0    3.80    1.00
   9   3   0    3.60    0.80
   9   3   0    3.30    0.80
   7  -4   0    0.20    0.60
   7  -4   0    0.30    0.60
  -7   4   0    0.00    0.60
  -7   4   0    1.40    0.70
   6  -4   0   34.20    2.10
   6  -4   0   39.50    2.40
   6  -4   0   36.00    2.40
  -6   4   0   36.40    2.50
  -6   4   0   36.90    2.40
   5  -4   0    7.00    1.20
   5  -4   0    9.30    1.40
   5  -4   0    8.20    1.20
   5  -4   0   10.70    1.70
   5  -4   0    5.50    1.10
  -5   4   0    9.10    1.40
   4  -4   0    1.60    0.70
   4  -4   0    0.90    0.70
   4  -4   0    1.00    0.90
   4  -4   0    1.60    0.70
   4  -4   0    0.80    0.60
   4  -4   0    0.00    0.60
   3  -4   0   39.50    2.30
   3  -4   0   42.90    2.20
  -3   4   0   45.30    2.90
   2  -4   0   49.70    2.50
  -2   4   0   55.19    2.70
   1  -4   0    9.70    1.00
  -1   4   0    9.00    1.10
   0   4   0   42.30    2.50
   1   4   0  322.77   11.80
   1   4   0  328.97   11.30
   2   4   0  378.66   13.60
   2   4   0  395.86   13.60
  -3  -4   0   23.30    1.30
   3   4   0   22.10    1.70
   3   4   0   19.70    1.40
  -4  -4   0   31.10    1.70
  -4  -4   0   31.10    1.90
   4   4   0   32.00    2.30
   4   4   0   30.20    1.80
  -5  -4   0  165.28    6.50
  -5  -4   0  157.08    6.20
   5   4   0  154.18    6.20
   5   4   0  164.28    7.20
  -6  -4   0   74.29    3.60
   6   4   0   83.29    5.00
   6   4   0   74.79    3.60
  -7  -4   0   16.90    1.70
  -7  -4   0   13.30    1.60
  -7  -4   0   16.40    1.80
  -7  -4   0   15.10    1.70
   7   4   0   17.60    1.80
   7   4   0   14.60    1.70
  -8  -4   0    5.50    1.10
  -8  -4   0    6.90    1.20
  -8  -4   0    5.40    1.10
   8   4   0    7.80    1.20
   8   4   0    6.80    1.10
   8   4   0    3.70    1.00
  -9  -4   0    1.70    0.70
  -9  -4   0    0.60    0.60
   9   4   0    0.50    0.50
   9   4   0    0.40    0.60
   7  -5   0   -1.00    0.40
  -7   5   0    0.00    0.60
   6  -5   0    1.90    0.70
   6  -5   0    1.90    0.80
   6  -5   0    1.70    0.80
  -6   5   0    1.40    0.80
   5  -5   0    5.00    1.10
   5  -5   0    3.20    1.10
   5  -5   0    3.90    1.00
   5  -5   0    3.30    0.90
   5  -5   0    4.30    1.20
  -5   5   0    3.60    1.00
   4  -5   0   40.10    2.30
   4  -5   0   39.90    2.50
   4  -5   0   33.90    2.60
   4  -5   0   35.80    2.50
   4  -5   0   36.30    2.30
   4  -5   0   34.30    2.20
   3  -5   0    0.80    0.60
   3  -5   0    1.20    0.70
   3  -5   0    0.00    0.90
   3  -5   0    0.40    0.70
   3  -5   0    1.70    0.80
   3  -5   0    0.70    0.70
   2  -5   0    0.40    0.40
   2  -5   0    0.00    0.50
  -2   5   0   -0.10    0.50
   1  -5   0   57.09    2.60
  -1   5   0   50.89    2.90
   0  -5   0   94.69    3.90
   0   5   0   99.89    4.50
  -2  -5   0  690.13   24.70
   2   5   0  772.92   25.40
  -3  -5   0   28.10    1.60
   3   5   0   27.90    1.90
   3   5   0   27.60    1.90
  -4  -5   0    9.30    1.00
   4   5   0   11.40    1.40
   4   5   0   11.00    1.60
  -5  -5   0   20.80    1.70
  -5  -5   0   23.30    1.60
   5   5   0   21.70    1.80
   5   5   0   22.70    2.30
  -6  -5   0   17.50    1.70
  -6  -5   0   17.90    1.80
  -6  -5   0   16.80    1.80
  -6  -5   0   20.00    1.90
  -6  -5   0   20.20    1.80
   6   5   0   16.60    1.70
  -7  -5   0   26.90    2.10
  -7  -5   0   31.90    2.20
  -7  -5   0   31.90    2.20
  -7  -5   0   30.30    2.10
   7   5   0   30.50    2.20
   7   5   0   30.70    2.20
  -8  -5   0   41.50    2.40
  -8  -5   0   38.20    2.30
  -8  -5   0   39.70    2.40
  -8  -5   0   43.60    2.50
   8   5   0   37.40    2.30
   8   5   0   36.90    2.40
   8   5   0   37.80    2.30
  -9  -5   0   11.50    1.20
  -9  -5   0   12.80    1.30
  -9  -5   0   11.00    1.20
   9   5   0    9.90    1.10
   9   5   0   12.60    1.30
   6  -6   0    0.20    0.50
   6  -6   0    0.80    0.50
  -6   6   0    0.60    0.60
   5  -6   0    5.70    1.10
   5  -6   0    7.80    1.10
   5  -6   0    5.30    1.10
   5  -6   0    6.70    1.00
  -5   6   0    5.60    1.10
   4  -6   0    2.40    0.90
   4  -6   0    1.40    0.80
   4  -6   0    1.60    0.80
   4  -6   0    1.30    0.90
   4  -6   0    0.90    0.70
  -4   6   0    1.30    0.90
   3  -6   0    0.80    0.80
   3  -6   0    4.40    1.10
   3  -6   0    4.10    1.00
   3  -6   0    2.70    0.90
   3  -6   0    2.30    0.90
   3  -6   0    2.80    0.90
  -3   6   0    2.80    1.00
   2  -6   0   -0.40    0.60
   2  -6   0    0.70    0.70
   2  -6   0   -0.20    0.70
   2  -6   0    0.40    0.70
   2  -6   0    0.50    0.70
   1  -6   0    6.00    1.00
   1  -6   0    6.60    1.10
  -1   6   0    5.30    1.20
   0  -6   0  184.78    7.10
   0  -6   0  188.68    7.00
   0   6   0  182.48    7.70
  -1  -6   0  112.89    4.50
  -1  -6   0  115.09    4.70
   1   6   0  113.69    5.40
  -2  -6   0   11.90    1.20
   2   6   0    6.80    1.40
  -3  -6   0   33.30    2.00
   3   6   0   38.40    2.60
  -4  -6   0   23.80    1.70
   4   6   0   28.70    2.20
  -5  -6   0    2.60    0.90
  -5  -6   0    2.10    0.80
  -5  -6   0    2.80    0.80
  -5  -6   0    2.10    0.80
  -5  -6   0    2.10    0.70
   5   6   0    2.70    1.30
   5   6   0    2.40    1.00
  -6  -6   0   24.30    1.80
  -6  -6   0   22.30    1.80
  -6  -6   0   24.50    1.90
  -6  -6   0   24.90    1.80
  -6  -6   0   21.40    1.90
   6   6   0   26.10    1.90
  -7  -6   0  180.18    7.00
  -7  -6   0  172.08    7.00
  -7  -6   0  182.28    7.10
  -7  -6   0  175.48    7.20
  -7  -6   0  189.48    7.10
   7   6   0  182.28    7.20
   7   6   0  176.68    7.20
  -8  -6   0   26.00    1.80
  -8  -6   0   25.70    1.80
  -8  -6   0   27.10    2.00
  -8  -6   0   25.20    2.00
   8   6   0   26.60    1.80
   8   6   0   24.10    1.90
  -9  -6   0    4.60    0.70
  -9  -6   0    5.90    0.90
  -9  -6   0    4.90    0.80
   9   6   0    3.80    0.70
   9   6   0    4.60    0.70
   5  -7   0    3.40    0.70
   5  -7   0    2.70    0.70
   5  -7   0    4.50    0.70
  -5   7   0    3.40    0.80
  -5   7   0    3.80    0.70
   4  -7   0   49.80    2.70
   4  -7   0   51.59    2.70
   4  -7   0   50.79    2.60
   4  -7   0   52.09    2.80
   4  -7   0   47.30    2.70
  -4   7   0   56.19    2.80
   3  -7   0    1.00    0.80
   3  -7   0    0.60    0.70
   3  -7   0    0.10    0.70
   3  -7   0   -0.20    0.80
   3  -7   0    0.60    0.80
  -3   7   0    0.70    0.80
   2  -7   0   -0.20    0.60
   2  -7   0    1.60    0.80
   2  -7   0   -0.20    0.70
   2  -7   0    0.90    0.80
   2  -7   0    0.50    0.70
   1  -7   0   52.29    2.80
   1  -7   0   50.69    2.70
   1  -7   0   51.89    2.80
   1  -7   0   48.20    2.80
   1  -7   0   53.59    2.80
   0  -7   0   34.90    2.20
   0  -7   0   38.10    2.20
   0  -7   0   37.10    2.30
   0  -7   0   36.50    2.10
   0  -7   0   32.40    2.20
  -1  -7   0    8.90    1.10
  -1  -7   0    9.20    1.20
   1   7   0    6.30    1.40
  -2  -7   0    0.80    0.60
  -2  -7   0    1.00    0.60
   2   7   0    0.20    0.80
  -3  -7   0    0.70    0.50
   3   7   0    1.00    0.90
   3   7   0   -0.10    0.90
  -4  -7   0    0.60    0.60
  -4  -7   0    1.00    0.70
  -4  -7   0    0.20    0.60
  -4  -7   0    2.50    0.80
  -4  -7   0   -0.10    0.60
  -5  -7   0   35.60    2.10
  -5  -7   0   32.10    2.10
  -5  -7   0   31.30    2.10
  -5  -7   0   34.20    2.20
  -5  -7   0   33.40    2.10
  -5  -7   0   34.60    2.20
  -6  -7   0   10.00    1.30
  -6  -7   0   11.90    1.40
  -6  -7   0    8.90    1.20
  -6  -7   0    9.00    1.30
  -6  -7   0    9.70    1.30
  -6  -7   0   12.20    1.40
   6   7   0    9.70    1.40
  -7  -7   0   69.29    3.40
  -7  -7   0   67.89    3.30
  -7  -7   0   68.39    3.30
  -7  -7   0   65.69    3.20
  -7  -7   0   70.49    3.30
   7   7   0   66.59    3.30
   7   7   0   66.19    3.30
  -8  -7   0    0.10    0.60
  -8  -7   0    0.60    0.60
  -8  -7   0    0.60    0.60
  -8  -7   0    0.40    0.60
   8   7   0    1.70    0.70
  -9  -7   0    3.10    0.60
  -9  -7   0    4.10    0.80
   9   7   0    4.20    0.70
   9   7   0    4.00    0.80
   4  -8   0    2.20    0.70
   4  -8   0    2.40    0.60
   4  -8   0    2.20    0.70
  -4   8   0    1.30    0.60
   3  -8   0   56.59    2.80
   3  -8   0   56.49    2.80
   3  -8   0   55.09    2.80
   3  -8   0   57.39    2.80
   3  -8   0   54.59    2.90
   2  -8   0    3.10    1.00
   2  -8   0    5.80    1.00
   2  -8   0    4.10    1.00
   2  -8   0    4.10    1.00
   2  -8   0    1.80    0.80
   1  -8   0    4.40    1.00
   1  -8   0    4.10    1.00
   1  -8   0    4.30    1.00
   1  -8   0    2.70    1.00
   1  -8   0    4.00    1.00
   0  -8   0   90.19    4.10
   0  -8   0   90.69    4.10
   0  -8   0   92.59    4.10
   0  -8   0   89.29    4.10
   0  -8   0   89.19    4.30
  -1  -8   0   35.40    2.20
  -1  -8   0   32.00    2.20
  -1  -8   0   31.50    2.10
  -1  -8   0   33.80    2.30
   1   8   0   33.30    2.10
  -2  -8   0   73.99    3.60
  -2  -8   0   80.79    3.60
  -2  -8   0   77.59    3.60
  -2  -8   0   75.09    3.60
   2   8   0   73.89    3.90
  -3  -8   0    3.40    0.90
  -3  -8   0    2.20    0.90
  -3  -8   0    3.90    0.90
  -3  -8   0    2.20    0.80
   3   8   0    3.70    1.10
  -4  -8   0   93.69    4.30
  -4  -8   0   93.39    4.20
  -4  -8   0   92.59    4.10
  -4  -8   0   96.39    4.20
  -5  -8   0    0.40    0.60
  -5  -8   0    1.50    0.70
  -5  -8   0    0.80    0.70
  -5  -8   0    0.30    0.60
  -5  -8   0   -0.10    0.60
  -6  -8   0   53.19    2.80
  -6  -8   0   53.09    2.70
  -6  -8   0   50.59    2.70
  -6  -8   0   52.99    2.80
  -6  -8   0   51.39    2.80
  -6  -8   0   50.49    2.70
   6   8   0   54.39    2.90
  -7  -8   0    7.60    1.10
  -7  -8   0    8.50    1.20
  -7  -8   0    8.70    1.10
  -7  -8   0    9.10    1.10
  -7  -8   0    7.70    1.10
   7   8   0    9.30    1.20
   7   8   0    8.90    1.20
  -8  -8   0   11.80    1.10
  -8  -8   0   11.90    1.10
  -8  -8   0   10.60    1.10
  -8  -8   0   11.50    1.20
   8   8   0   11.30    1.20
   3  -9   0   -0.30    0.50
   3  -9   0    0.00    0.40
  -3   9   0    0.30    0.60
   2  -9   0    0.20    0.50
   2  -9   0   -0.10    0.60
   2  -9   0    0.10    0.60
   2  -9   0    0.50    0.60
  -2   9   0    0.90    0.70
  -2   9   0   -1.30    0.80
   1  -9   0   19.00    1.70
   1  -9   0   17.70    1.70
   1  -9   0   20.70    1.60
   1  -9   0   20.50    1.80
   1  -9   0   17.70    1.50
  -1   9   0   19.10    2.00
  -1   9   0   18.40    1.70
   0  -9   0   35.30    2.20
   0  -9   0   34.30    2.00
   0  -9   0   32.40    2.10
   0  -9   0   32.00    2.20
   0  -9   0   30.00    2.10
   0   9   0   32.10    2.50
   0   9   0   30.60    2.10
  -1  -9   0   91.69    4.10
  -1  -9   0   89.89    4.00
  -1  -9   0   90.09    4.00
  -1  -9   0   84.59    4.10
   1   9   0   90.89    4.50
  -2  -9   0   23.20    1.90
  -2  -9   0   27.00    1.90
  -2  -9   0   25.70    1.90
   2   9   0   22.40    2.30
  -3  -9   0   16.90    1.70
  -3  -9   0   17.60    1.70
  -3  -9   0   20.10    1.80
   3   9   0   17.20    1.90
  -4  -9   0   14.60    1.50
  -4  -9   0   13.40    1.40
  -4  -9   0   14.10    1.50
  -4  -9   0   11.60    1.40
  -5  -9   0    1.00    0.60
  -5  -9   0    0.30    0.60
  -5  -9   0   -0.70    0.50
  -5  -9   0   -0.70    0.60
  -6  -9   0   12.90    1.30
  -6  -9   0   13.50    1.30
  -6  -9   0   16.20    1.50
  -6  -9   0   13.70    1.30
  -6  -9   0   15.30    1.40
   6   9   0   13.80    1.40
  -7  -9   0    1.30    0.60
  -7  -9   0    1.50    0.70
  -7  -9   0    1.50    0.60
  -7  -9   0    2.00    0.60
  -7  -9   0    1.10    0.60
   7   9   0    0.90    0.60
  -8  -9   0    0.70    0.40
  -8  -9   0    0.90    0.50
  -8  -9   0    1.80    0.60
   8   9   0    1.60    0.60
   1 -10   0    0.30    0.50
   1 -10   0   -0.40    0.50
  -1  10   0    0.00    0.70
  -1  10   0   -1.20    0.60
   0 -10   0    2.00    0.60
   0 -10   0    1.50    0.60
   0  10   0    1.30    0.90
   0  10   0    0.50    0.70
  -1 -10   0   -0.20    0.50
  -1 -10   0    1.50    0.60
   1  10   0   -0.70    0.80
  -2 -10   0    0.60    0.60
  -2 -10   0    0.90    0.80
  -2 -10   0   -0.30    0.60
   2  10   0    0.30    0.80
  -3 -10   0    3.10    0.80
  -3 -10   0    6.00    1.00
  -3 -10   0    4.60    0.90
  -4 -10   0   -0.10    0.60
  -4 -10   0   -0.20    0.60
  -4 -10   0    0.40    0.60
  -4 -10   0   -0.10    0.70
  -5 -10   0    0.50    0.60
  -5 -10   0    0.10    0.50
  -5 -10   0    1.80    0.70
  -6 -10   0    0.70    0.60
  -6 -10   0    0.30    0.50
  -6 -10   0    0.60    0.50
  -7 -10   0    0.00    0.40
   7  10   0    0.20    0.40
  -1 -11   0    0.00    0.50
  -1 -11   0   -0.30    0.40
  -2 -11   0    2.20    0.60
  -2 -11   0    1.40    0.60
  -3 -11   0    0.30    0.60
  -3 -11   0    0.70    0.50
  -4 -11   0    8.90    0.90
  -4 -11   0    9.30    0.90
  -5 -11   0    3.80    0.70
  -5 -11   0    4.40    0.70
  -5 -11   0    2.60    0.50
  -3 -11   1    0.70    0.50
  -3 -11   1   -0.60    0.40
  -2 -11   1    1.10    0.50
  -2 -11   1    0.50    0.50
  -6 -10   1    0.50    0.50
  -6 -10   1   -0.30    0.40
  -6 -10   1    1.20    0.50
  -5 -10   1    7.20    0.90
  -5 -10   1    5.60    0.80
  -5 -10   1    6.50    0.80
  -4 -10   1    3.10    0.70
  -4 -10   1    3.60    0.80
  -4 -10   1    3.70    0.70
  -3 -10   1    1.10    0.70
  -3 -10   1    2.10    0.80
   2  10  -1    1.80    0.80
  -2 -10   1    1.80    0.70
  -2 -10   1    0.20    0.60
   1  10  -1   -0.50    0.80
  -1 -10   1    1.20    0.60
  -1 -10   1    1.20    0.50
   0  10  -1    0.20    0.80
   0 -10   1    2.00    0.60
   0 -10   1    1.90    0.70
   1 -10   1    0.70    0.50
   1 -10   1    0.90    0.50
   7   9  -1    0.00    0.50
  -7  -9   1    0.40    0.50
  -7  -9   1    0.60    0.50
  -7  -9   1    0.70    0.50
  -7  -9   1    0.60    0.50
  -7  -9   1    0.00    0.50
  -6  -9   1   -0.20    0.50
  -6  -9   1    0.40    0.60
  -6  -9   1    0.20    0.60
  -6  -9   1    0.10    0.60
  -5  -9   1    9.60    1.20
  -5  -9   1    9.50    1.10
  -5  -9   1    8.20    1.10
  -5  -9   1    9.40    1.20
  -4  -9   1    6.90    1.10
  -4  -9   1    5.00    1.00
  -4  -9   1    7.00    1.10
  -4  -9   1    8.10    1.20
  -3  -9   1   39.90    2.30
  -3  -9   1   38.50    2.40
  -3  -9   1   34.30    2.30
   2   9  -1   19.10    2.20
  -2  -9   1   21.30    1.70
  -2  -9   1   20.70    1.90
  -2  -9   1   21.80    1.70
   1   9  -1   55.59    3.30
  -1  -9   1   59.09    3.00
  -1  -9   1   57.89    2.90
  -1  -9   1   51.09    2.80
  -1  -9   1   55.79    2.90
   0   9  -1    0.70    0.70
   0  -9   1    0.30    0.60
   0  -9   1    0.60    0.70
   0  -9   1    0.80    0.70
   0  -9   1    0.20    0.80
   0  -9   1   -0.20    0.70
  -1   9  -1   -0.10    0.60
   1  -9   1    0.30    0.60
   1  -9   1   -0.90    0.60
   1  -9   1   -0.50    0.60
   1  -9   1   -0.20    0.60
   1  -9   1    0.60    0.60
  -2   9  -1    3.10    0.80
  -2   9  -1    3.90    1.00
   2  -9   1    3.70    0.80
   2  -9   1    2.30    0.70
   2  -9   1    2.40    0.70
   2  -9   1    2.60    0.70
   8   8  -1   11.50    1.10
  -8  -8   1   13.80    1.10
  -8  -8   1   12.80    1.10
  -8  -8   1   12.70    1.10
  -8  -8   1   13.90    1.20
   7   8  -1    0.20    0.60
  -7  -8   1   -0.10    0.60
  -7  -8   1    0.90    0.60
  -7  -8   1   -0.50    0.50
  -7  -8   1    0.70    0.50
  -7  -8   1    0.30    0.60
   6   8  -1    6.20    1.10
  -6  -8   1    7.50    1.10
  -6  -8   1    7.80    1.10
  -6  -8   1    5.20    1.00
  -6  -8   1    8.40    1.20
  -6  -8   1    5.40    1.00
  -6  -8   1    6.80    1.10
  -5  -8   1    1.50    0.70
  -5  -8   1    2.00    0.80
  -5  -8   1    2.20    0.80
  -5  -8   1    3.00    0.90
  -5  -8   1    1.90    0.80
  -4  -8   1   68.89    3.40
  -4  -8   1   68.29    3.30
  -4  -8   1   66.59    3.30
  -4  -8   1   65.69    3.40
  -3  -8   1    4.10    1.00
  -3  -8   1    5.00    1.10
  -3  -8   1    5.60    1.10
  -3  -8   1    5.10    0.90
   2   8  -1   22.60    2.20
  -2  -8   1   26.00    1.90
  -2  -8   1   24.70    1.80
  -2  -8   1   23.10    1.80
  -2  -8   1   25.70    1.80
  -1  -8   1    1.70    0.80
  -1  -8   1    2.10    0.90
  -1  -8   1    1.40    0.80
  -1  -8   1    1.40    0.80
   0  -8   1    3.10    0.90
   0  -8   1    2.90    0.90
   0  -8   1    5.10    1.00
   0  -8   1    3.10    0.90
   0  -8   1    5.10    1.00
   1  -8   1   32.40    2.10
   1  -8   1   31.20    2.10
   1  -8   1   34.60    2.10
   1  -8   1   28.90    2.10
   1  -8   1   29.90    2.10
   2  -8   1    0.50    0.80
   2  -8   1    0.80    0.80
   2  -8   1   -0.20    0.60
   2  -8   1    0.60    0.70
   2  -8   1   -0.40    0.70
   3  -8   1    0.50    0.70
   3  -8   1    0.00    0.70
   3  -8   1    0.50    0.60
   3  -8   1    0.30    0.60
  -4   8  -1   13.70    1.20
   4  -8   1   15.50    1.20
   4  -8   1   16.00    1.20
   4  -8   1   13.60    1.10
   9   7  -1    5.40    0.70
   9   7  -1    4.80    0.60
  -9  -7   1    8.50    1.10
  -9  -7   1    4.90    0.70
   8   7  -1    0.30    0.60
  -8  -7   1    1.10    0.60
  -8  -7   1    1.40    0.60
  -8  -7   1    0.90    0.60
  -8  -7   1    1.40    0.60
   7   7  -1   -0.60    0.60
   7   7  -1    2.10    0.80
  -7  -7   1    0.50    0.70
  -7  -7   1    0.40    0.60
  -7  -7   1   -0.50    0.60
  -7  -7   1   -0.20    0.60
  -7  -7   1    1.20    0.70
   6   7  -1    4.40    1.10
  -6  -7   1    6.30    1.10
  -6  -7   1    3.40    0.90
  -6  -7   1    5.20    1.10
  -6  -7   1    4.90    1.00
  -6  -7   1    5.00    1.00
  -6  -7   1    4.70    1.00
  -5  -7   1    7.30    1.10
  -5  -7   1    7.60    1.20
  -5  -7   1    8.10    1.20
  -5  -7   1    6.00    1.10
  -5  -7   1    9.20    1.30
  -5  -7   1    6.80    1.10
  -4  -7   1   52.29    2.70
  -4  -7   1   52.19    2.80
  -4  -7   1   45.50    2.70
  -4  -7   1   50.19    2.80
  -4  -7   1   49.90    2.70
  -3  -7   1   23.70    1.80
  -3  -7   1   24.40    1.80
  -3  -7   1   24.50    1.80
  -3  -7   1   23.40    1.80
  -2  -7   1  185.08    7.00
  -2  -7   1  171.08    6.90
  -2  -7   1  182.78    6.90
  -2  -7   1  179.98    7.00
  -1  -7   1    0.70    0.60
  -1  -7   1    2.80    0.80
  -1  -7   1    1.20    0.70
  -1  -7   1    1.90    0.80
   0  -7   1    8.30    1.20
   0  -7   1    7.10    1.10
   0  -7   1    7.50    1.20
   0  -7   1    7.40    1.10
   0  -7   1    8.60    1.20
   1  -7   1   25.50    2.00
   1  -7   1   23.60    1.80
   1  -7   1   24.90    2.10
   1  -7   1   21.60    1.80
   1  -7   1   23.00    2.00
   2  -7   1   40.90    2.40
   2  -7   1   38.80    2.40
   2  -7   1   41.50    2.50
   2  -7   1   40.40    2.50
   2  -7   1   39.50    2.50
   3  -7   1    5.80    1.10
   3  -7   1    5.90    1.00
   3  -7   1    6.30    1.10
   3  -7   1    6.90    1.10
   3  -7   1    3.10    0.90
  -4   7  -1    2.90    0.80
   4  -7   1    0.30    0.60
   4  -7   1    1.30    0.70
   4  -7   1    0.30    0.60
   4  -7   1    0.40    0.60
   4  -7   1    0.50    0.70
  -5   7  -1    1.90    0.70
   5  -7   1    0.20    0.50
   5  -7   1    2.00    0.60
   5  -7   1    1.00    0.60
   9   6  -1    4.50    0.70
   9   6  -1    4.00    0.80
  -9  -6   1    5.70    0.70
  -9  -6   1    7.70    1.00
  -9  -6   1    6.60    0.80
   8   6  -1    0.10    0.60
   8   6  -1    0.40    0.70
  -8  -6   1   -0.20    0.60
  -8  -6   1    0.60    1.00
  -8  -6   1   -0.40    0.50
  -8  -6   1    0.00    0.50
  -8  -6   1    0.70    0.60
   7   6  -1    4.70    1.10
   7   6  -1    5.40    1.10
  -7  -6   1    4.40    0.90
  -7  -6   1    3.80    0.90
  -7  -6   1    3.00    0.90
  -7  -6   1    4.20    1.00
   6   6  -1   65.99    3.60
  -6  -6   1   65.69    3.50
  -6  -6   1   67.59    3.40
  -6  -6   1   72.39    3.50
  -6  -6   1   73.69    3.60
  -6  -6   1   70.09    3.50
  -6  -6   1   72.59    3.60
  -5  -6   1   11.30    1.40
  -5  -6   1   11.20    1.30
  -5  -6   1   11.20    1.40
  -5  -6   1   12.10    1.40
  -5  -6   1   13.70    1.50
  -5  -6   1   10.10    1.30
   4   6  -1    1.80    0.90
  -4  -6   1    1.60    0.70
  -4  -6   1    2.60    0.90
   3   6  -1   23.00    2.10
  -3  -6   1   18.40    1.40
   2   6  -1  208.08    9.00
  -2  -6   1  219.18    8.00
  -2  -6   1  217.18    8.00
   1   6  -1   42.80    3.30
  -1  -6   1   59.99    2.70
  -1  -6   1   58.49    2.60
   0   6  -1    4.50    1.20
   0  -6   1    4.60    0.80
   0  -6   1    4.30    0.90
  -1   6  -1    1.40    0.80
   1  -6   1    2.40    0.80
   1  -6   1    1.60    0.70
   1  -6   1    3.60    0.90
   2  -6   1   30.80    2.20
   2  -6   1   31.40    2.10
   2  -6   1   31.50    2.10
   2  -6   1   29.60    2.20
   2  -6   1   32.60    2.10
   3  -6   1    7.90    1.30
   3  -6   1    5.60    1.10
   3  -6   1    7.20    1.20
   3  -6   1    7.20    1.20
   3  -6   1    6.50    1.20
   3  -6   1    7.70    1.40
  -4   6  -1    4.50    1.10
   4  -6   1    5.20    1.10
   4  -6   1    5.30    1.10
   4  -6   1    5.70    1.00
   4  -6   1    5.70    1.10
   4  -6   1    4.70    1.10
   4  -6   1    4.80    1.00
  -5   6  -1    0.10    0.70
   5  -6   1   -0.20    0.50
   5  -6   1    1.10    0.60
   5  -6   1    1.00    0.70
   5  -6   1   -0.70    0.60
   5  -6   1    0.50    0.60
  -6   6  -1    2.30    0.60
  -6   6  -1    2.10    0.70
   6  -6   1    1.70    0.50
   6  -6   1    1.10    0.60
   6  -6   1    1.70    0.60
   9   5  -1   16.70    1.40
   9   5  -1   17.10    1.40
  -9  -5   1   18.30    1.30
  -9  -5   1   18.50    1.40
  -9  -5   1   19.70    1.40
   8   5  -1    1.50    0.80
   8   5  -1    2.20    0.80
   8   5  -1    0.60    0.80
  -8  -5   1    4.00    0.90
  -8  -5   1    0.40    0.60
  -8  -5   1    2.60    0.90
  -8  -5   1    1.20    0.70
   7   5  -1   27.70    2.20
   7   5  -1   30.10    2.20
  -7  -5   1   31.20    2.10
  -7  -5   1   24.60    2.00
  -7  -5   1   32.20    2.20
  -7  -5   1   26.90    2.10
  -7  -5   1   28.30    2.20
   6   5  -1    1.30    0.80
  -6  -5   1    1.50    0.80
  -6  -5   1    1.50    0.80
  -6  -5   1    0.80    0.70
  -6  -5   1    1.60    0.70
  -6  -5   1    1.20    0.80
  -6  -5   1    1.30    0.80
   5   5  -1   93.19    5.20
   5   5  -1   98.89    4.60
  -5  -5   1   95.79    4.40
  -5  -5   1  110.79    4.40
   4   5  -1   93.09    4.30
   4   5  -1   91.29    4.70
  -4  -5   1   94.59    4.00
   3   5  -1  122.89    5.50
   3   5  -1  132.09    5.40
  -3  -5   1  124.79    5.00
   2   5  -1   93.09    4.20
  -2  -5   1   88.59    3.70
   1   5  -1   55.79    3.20
  -1  -5   1   56.89    2.50
   0   5  -1   40.00    2.70
   0  -5   1   46.50    2.20
  -1   5  -1    3.80    1.00
   1  -5   1    3.00    0.70
   1  -5   1    2.40    0.70
   2  -5   1    6.50    1.00
   2  -5   1   10.20    1.20
   3  -5   1    0.10    0.60
   3  -5   1    1.30    0.90
   3  -5   1    0.30    0.80
   3  -5   1    0.20    0.60
   3  -5   1    0.40    0.60
   3  -5   1    0.00    0.70
   4  -5   1    9.90    1.30
   4  -5   1    4.90    1.20
   4  -5   1    5.80    1.00
   4  -5   1    9.80    1.30
   4  -5   1    4.70    1.10
   4  -5   1    7.50    1.40
   5  -5   1   -0.70    0.60
   5  -5   1    0.70    0.70
   5  -5   1    1.80    0.90
   5  -5   1   -0.50    0.60
   5  -5   1    0.30    0.70
   5  -5   1    0.90    0.80
  -6   5  -1    5.20    1.10
   6  -5   1    4.10    0.80
   6  -5   1    2.80    0.80
   6  -5   1    4.50    0.90
   9   4  -1    1.20    0.50
   9   4  -1    1.20    0.50
  -9  -4   1    1.00    0.60
  -9  -4   1    0.20    0.60
   8   4  -1    6.90    1.20
   8   4  -1    9.70    1.40
   8   4  -1   10.00    1.40
  -8  -4   1    7.60    1.20
  -8  -4   1    9.70    1.30
  -8  -4   1    8.20    1.20
   7   4  -1  134.09    5.50
   7   4  -1  126.79    5.50
  -7  -4   1  128.69    5.50
  -7  -4   1  123.29    5.40
  -7  -4   1  124.69    5.50
  -7  -4   1  126.89    5.50
   6   4  -1    7.00    1.20
   6   4  -1    9.20    1.30
  -6  -4   1   11.10    1.50
  -6  -4   1    9.90    1.40
  -6  -4   1   10.60    1.40
  -6  -4   1   12.00    1.50
  -6  -4   1   11.40    1.50
  -6  -4   1    9.20    1.20
   5   4  -1   47.00    3.20
   5   4  -1   41.90    2.50
  -5  -4   1   48.20    2.70
  -5  -4   1   47.40    2.50
   4   4  -1    8.80    1.50
  -4  -4   1    7.00    0.90
  -4  -4   1    6.10    1.00
   3   4  -1  241.78    9.10
  -3  -4   1  225.68    8.80
  -3  -4   1  243.58    8.60
   2   4  -1  185.88    7.00
   2   4  -1  189.68    7.10
  -2  -4   1  183.78    6.80
   1   4  -1    8.70    1.10
   1   4  -1    7.20    0.80
  -1  -4   1    7.60    0.80
   0   4  -1    5.70    1.10
   0  -4   1    9.40    0.90
  -1   4  -1  172.88    6.90
   1  -4   1  177.28    6.50
  -2   4  -1  246.08    8.90
   2  -4   1  230.18    8.70
   3  -4   1   14.00    1.40
   3  -4   1   13.40    1.30
   4  -4   1    3.20    0.80
   4  -4   1    2.00    0.80
   4  -4   1    2.40    1.10
   4  -4   1    3.70    1.00
   4  -4   1    2.80    0.80
   4  -4   1    3.10    0.80
   5  -4   1   27.80    2.40
   5  -4   1   32.70    2.00
   5  -4   1   32.10    2.20
   5  -4   1   29.70    2.00
   5  -4   1   33.10    2.10
   5  -4   1   29.50    2.20
  -6   4  -1   -0.90    0.70
  -6   4  -1    0.60    0.70
   6  -4   1   -0.70    0.60
   6  -4   1   -0.30    0.70
   6  -4   1    0.00    0.80
   6  -4   1    0.40    0.70
   6  -4   1   -0.10    0.60
  -7   4  -1    6.60    1.00
  -7   4  -1    7.10    1.10
   7  -4   1    7.10    0.90
   7  -4   1    6.30    0.90
   9   3  -1    0.30    0.50
   9   3  -1    1.00    0.60
  -9  -3   1    1.30    0.70
   8   3  -1   25.30    2.00
   8   3  -1   22.80    2.00
   8   3  -1   28.40    1.90
  -8  -3   1   27.60    2.10
  -8  -3   1   26.10    1.90
   7   3  -1    6.40    1.10
   7   3  -1    4.90    1.30
   7   3  -1    3.40    0.90
  -7  -3   1    4.30    1.20
  -7  -3   1    6.90    1.20
  -7  -3   1    7.00    1.20
  -7  -3   1    4.90    1.10
   6   3  -1    2.00    0.70
   6   3  -1    2.00    1.30
  -6  -3   1    0.70    1.30
  -6  -3   1    1.90    0.80
  -6  -3   1    1.70    1.00
   5   3  -1   -0.40    0.50
   5   3  -1    0.30    0.70
  -5  -3   1   -0.20    0.40
   4   3  -1   70.29    3.60
   4   3  -1   68.59    3.10
  -4  -3   1   71.99    3.10
  -4  -3   1   56.29    2.80
   3   3  -1    1.90    0.70
   3   3  -1    0.80    0.40
  -3  -3   1    0.70    0.50
   2   3  -1  282.97    9.80
   2   3  -1  266.07    9.30
  -2  -3   1  267.47    9.60
   1   3  -1  454.45   15.00
   1   3  -1  454.05   15.30
   1   3  -1  434.96   15.40
  -1  -3   1  447.56   15.40
   0   3  -1   21.20    1.40
   0   3  -1   20.40    0.90
   0  -3   1   18.20    1.10
  -1   3  -1    2.90    0.80
   1  -3   1    3.20    0.60
  -2   3  -1   10.10    0.90
   2  -3   1   11.60    0.90
   2  -3   1    9.50    1.20
   3  -3   1  127.49    5.80
   3  -3   1  142.39    5.20
   4  -3   1   53.29    3.40
   4  -3   1   52.19    2.60
   4  -3   1   55.39    2.60
  -5   3  -1   -0.50    0.70
   5  -3   1    0.50    0.70
   5  -3   1    0.70    0.70
   5  -3   1    1.60    0.60
   5  -3   1   -0.50    0.90
   5  -3   1    1.00    0.70
  -6   3  -1   95.69    4.40
   6  -3   1   96.19    4.80
   6  -3   1   92.89    4.30
   6  -3   1   95.99    4.10
   6  -3   1   92.39    4.30
  -7   3  -1    0.50    0.70
  -7   3  -1   -0.60    0.70
   7  -3   1    0.60    0.80
   7  -3   1    0.70    0.70
   7  -3   1    0.40    0.50
  -8   3  -1   -0.20    0.50
  -8   3  -1    0.30    0.60
   8  -3   1    0.80    0.50
   8  -3   1    0.30    0.50
   9   2  -1    1.40    0.60
   9   2  -1    1.20    0.60
  -9  -2   1    1.00    0.70
  -9  -2   1    0.70    0.60
   8   2  -1    2.50    0.90
   8   2  -1    2.60    0.90
   8   2  -1    2.50    0.80
  -8  -2   1    2.50    0.80
  -8  -2   1    1.70    0.90
   7   2  -1    5.00    1.10
   7   2  -1    4.50    0.90
   7   2  -1    7.90    1.30
  -7  -2   1    4.80    1.10
  -7  -2   1    3.60    1.20
   6   2  -1    1.10    0.80
   6   2  -1    0.60    0.90
   6   2  -1    1.40    0.70
  -6  -2   1    1.50    0.90
   5   2  -1   -0.20    0.50
   5   2  -1    0.30    0.40
   5   2  -1    0.10    0.70
  -5  -2   1    0.30    0.40
   4   2  -1  114.29    4.50
   4   2  -1  115.59    4.80
   4   2  -1  114.59    5.10
  -4  -2   1  115.79    4.60
   3   2  -1   66.89    2.90
   3   2  -1   63.99    3.10
  -3  -2   1   67.69    2.80
   2   2  -1  172.28    6.30
   2   2  -1  170.28    6.00
  -2  -2   1  162.98    6.00
   1   2  -1   49.00    1.90
   1   2  -1   49.70    2.10
  -1  -2   1   46.50    2.00
   0   2  -1    0.90    0.30
   0   2  -1    1.00    0.40
   0  -2   1    0.30    0.40
  -1   2  -1    9.20    0.90
   1  -2   1    9.30    0.90
   1  -2   1   10.70    0.60
  -2   2  -1   11.20    0.80
   2  -2   1   11.40    1.30
  -3   2  -1    8.30    0.90
   3  -2   1    8.50    0.90
   3  -2   1    7.00    1.20
   4  -2   1   -0.10    0.30
   4  -2   1    0.80    0.70
   5  -2   1   17.30    2.30
   5  -2   1   19.40    1.50
  -6   2  -1   10.30    1.50
   6  -2   1   11.60    1.30
   6  -2   1   10.20    1.70
   6  -2   1    7.40    1.10
   6  -2   1   10.60    1.40
  -7   2  -1   12.00    1.60
   7  -2   1    8.00    1.20
   7  -2   1   12.40    1.80
   7  -2   1   10.70    1.20
   7  -2   1    9.40    1.30
  -8   2  -1    2.00    0.80
  -8   2  -1    1.10    0.70
   8  -2   1    0.80    0.60
   8  -2   1    1.90    0.50
   9   1  -1    1.10    0.50
   9   1  -1   -0.20    0.50
  -9  -1   1    0.10    0.70
  -9  -1   1    0.80    0.60
   8   1  -1    0.20    0.70
   8   1  -1    0.00    0.50
   8   1  -1    0.70    0.70
  -8  -1   1    0.90    0.80
  -8  -1   1   -0.10    0.70
   7   1  -1   -0.10    0.70
   7   1  -1    0.20    0.60
   7   1  -1    0.20    0.60
  -7  -1   1   -0.50    0.80
  -7  -1   1    0.30    0.80
   6   1  -1   18.70    2.30
   6   1  -1   24.10    2.50
   6   1  -1   23.20    1.70
   5   1  -1   40.40    2.10
   5   1  -1   43.10    2.90
   5   1  -1   40.60    2.70
  -5  -1   1   41.30    2.20
   4   1  -1  498.25   17.40
   4   1  -1  495.35   17.50
   4   1  -1  480.75   16.80
  -4  -1   1  489.15   16.90
   3   1  -1  222.98    8.10
   3   1  -1  217.38    8.20
  -3  -1   1  222.58    7.80
   2   1  -1  225.78    8.10
   2   1  -1  232.88    8.00
  -2  -1   1  224.88    7.90
   1   1  -1  456.75   15.20
  -1  -1   1  448.56   15.20
   0  -1   1 4076.09  133.99
   0  -1   1 4006.30  134.09
   0  -1   1 4013.70  133.99
  -1   1  -1  330.97   12.20
   1  -1   1  363.26   12.20
   1  -1   1  387.16   12.40
  -2   1  -1    0.80    0.30
   2  -1   1    0.50    0.50
   2  -1   1    1.40    0.60
  -3   1  -1  242.18    8.40
   3  -1   1  243.78    9.20
   4  -1   1  122.09    4.70
   4  -1   1  128.59    5.60
   5  -1   1   12.70    1.90
   5  -1   1   15.10    1.20
  -6   1  -1   16.90    1.90
   6  -1   1   13.90    1.40
   6  -1   1   13.20    1.30
   6  -1   1   11.60    1.30
   6  -1   1   13.60    1.90
  -7   1  -1    2.50    1.00
   7  -1   1    1.50    1.10
   7  -1   1    2.60    0.80
   7  -1   1    1.70    0.80
   7  -1   1    2.50    0.70
  -8   1  -1    0.10    0.70
  -8   1  -1    0.50    0.70
   8  -1   1   -0.60    0.70
   8  -1   1    0.40    0.50
   8  -1   1    0.40    0.60
  -9   1  -1    0.10    0.50
   9  -1   1    1.00    0.50
   9  -1   1    0.60    0.50
   9   0  -1    0.50    0.50
   9   0  -1    0.50    0.60
  -9   0   1    0.20    0.50
   8   0  -1    1.10    0.50
   8   0  -1    1.90    0.80
   8   0  -1    0.80    0.70
  -8   0   1    0.40    0.80
  -8   0   1    2.80    1.10
   7   0  -1   -0.40    0.60
   7   0  -1    0.90    0.60
   7   0  -1   -0.50    0.60
  -7   0   1    0.30    0.70
  -7   0   1    0.80    0.80
   6   0  -1    7.00    1.00
   6   0  -1    5.90    1.00
   6   0  -1    5.10    0.90
  -6   0   1    4.10    1.10
  -6   0   1    5.30    1.20
   5   0  -1   50.89    3.20
   5   0  -1   48.40    2.40
   5   0  -1   49.80    3.20
   4   0  -1  307.07   11.00
   4   0  -1  313.77   11.70
   4   0  -1  320.17   11.70
  -4   0   1  318.17   11.10
   3   0  -1  365.06   13.50
   3   0  -1  389.06   13.60
  -3   0   1  397.66   13.20
   2   0  -1 9999.00  330.07
   2   0  -1 9870.01  329.57
  -2   0   1 9933.11  329.27
   1   0  -1  369.86   12.60
   1   0  -1  356.26   12.60
  -1   0   1  370.36   12.50
   0   0   1  109.79    3.80
   0   0   1  121.99    4.00
   0   0   1  105.49    3.90
  -1   0  -1 1736.43   54.79
   1   0   1 1563.54   55.09
   1   0   1 1674.23   55.09
  -2   0  -1   88.59    3.10
   2   0   1   90.59    3.60
   2   0   1   91.19    3.70
  -3   0  -1  783.22   25.90
   3   0   1  773.82   26.70
   3   0   1  774.32   26.60
   4   0   1    1.20    0.40
   4   0   1    0.20    0.80
   4   0   1    2.20    0.80
   5   0   1   84.89    5.20
   5   0   1  112.69    5.10
   5   0   1  102.79    4.00
  -6   0  -1    0.40    0.70
   6   0   1    1.30    1.00
   6   0   1    1.60    0.60
   6   0   1    0.80    0.90
   6   0   1    1.30    0.70
  -7   0  -1    0.80    0.90
  -7   0  -1    0.10    0.80
   7   0   1    1.20    0.70
   7   0   1    0.20    0.60
   7   0   1    1.20    0.60
  -8   0  -1    0.10    0.90
  -8   0  -1   -0.10    0.80
   8   0   1   -0.20    0.60
   8   0   1    0.30    0.60
   8   0   1    0.90    0.60
  -9   0  -1    2.50    0.70
   9   0   1    2.00    0.60
   9   0   1    2.40    0.60
   9  -1  -1    0.20    0.50
  -9   1   1   -0.20    0.50
   8  -1  -1    3.10    0.70
   8  -1  -1    3.10    0.80
   8  -1  -1    1.90    0.70
  -8   1   1    3.50    0.90
   7  -1  -1    0.20    0.70
   7  -1  -1   -0.30    0.40
   7  -1  -1    0.70    0.60
  -7   1   1   -0.30    1.00
  -7   1   1   -0.10    0.80
   6  -1  -1    1.80    0.70
   6  -1  -1    3.20    0.80
   6  -1  -1    2.30    0.80
  -6   1   1    3.10    1.10
  -6   1   1    2.40    0.90
   5  -1  -1   38.80    2.10
   5  -1  -1   41.20    3.00
   4  -1  -1   49.80    2.80
   4  -1  -1   51.29    2.40
   4  -1  -1   51.79    3.00
  -4   1   1   51.59    2.40
   3  -1  -1  489.35   17.30
   3  -1  -1  503.75   17.60
  -3   1   1  506.05   17.10
   2  -1  -1 1671.43   56.09
   2  -1  -1 1705.53   56.29
  -2   1   1 1681.23   55.99
   1  -1  -1   12.60    0.70
  -1   1   1   13.30    0.70
   0  -1  -1    0.00    0.20
   0   1   1    0.00    0.20
   0   1   1    0.10    0.20
   1   1   1   49.30    1.90
   1   1   1   55.09    2.00
   1   1   1   48.00    2.20
  -2  -1  -1  127.89    4.50
   2   1   1  132.69    4.90
   2   1   1  133.99    5.00
  -3  -1  -1   96.29    3.40
   3   1   1   92.79    3.90
   3   1   1   92.89    4.00
   4   1   1   13.80    1.40
   4   1   1   15.40    1.60
   5   1   1  309.17   11.90
   5   1   1  299.67   11.00
   5   1   1  331.67   12.50
   6   1   1    4.90    1.80
   6   1   1    6.00    0.90
   6   1   1    5.90    1.40
  -7  -1  -1   23.50    2.20
  -7  -1  -1   22.20    2.20
   7   1   1   20.20    1.70
   7   1   1   22.10    1.80
   7   1   1   20.40    1.90
  -8  -1  -1    0.80    0.80
  -8  -1  -1   -0.20    0.90
   8   1   1    1.50    0.70
   8   1   1    0.20    0.60
   8   1   1    0.40    0.60
  -9  -1  -1    5.90    1.20
  -9  -1  -1    5.20    0.90
   9   1   1    4.10    0.70
   9   1   1    3.60    0.80
   8  -2  -1    0.00    0.60
  -8   2   1    0.10    0.70
  -8   2   1    0.30    0.60
   7  -2  -1    4.20    0.90
   7  -2  -1    4.70    1.00
   7  -2  -1    4.90    0.90
  -7   2   1    7.00    1.20
  -7   2   1    3.60    1.10
   6  -2  -1    6.70    1.10
   6  -2  -1    6.20    1.10
   6  -2  -1    7.80    1.00
  -6   2   1    9.00    1.40
  -6   2   1    7.30    1.30
   5  -2  -1   61.89    4.00
   5  -2  -1   62.19    3.00
   4  -2  -1   31.70    1.80
   4  -2  -1   32.10    2.50
  -4   2   1   34.50    1.90
   3  -2  -1    0.60    0.60
   3  -2  -1    0.30    0.30
  -3   2   1    0.20    0.40
   2  -2  -1    0.70    0.50
   2  -2  -1    0.80    0.40
  -2   2   1    1.00    0.40
   1  -2  -1 1114.89   36.70
   1  -2  -1 1095.39   36.40
  -1   2   1 1086.89   36.60
   0  -2  -1  814.42   27.20
   0   2   1  809.72   27.30
   0   2   1  830.02   27.20
   1   2   1   22.30    1.30
   1   2   1   22.40    1.20
   1   2   1   19.40    1.00
  -2  -2  -1  146.09    5.00
   2   2   1  132.99    5.10
   2   2   1  143.39    5.40
   2   2   1  146.09    5.00
  -3  -2  -1  519.05   17.70
   3   2   1  546.45   18.40
   3   2   1  515.15   18.00
  -4  -2  -1  196.78    6.80
   4   2   1  183.58    7.50
   4   2   1  184.88    7.20
   5   2   1   14.30    2.00
   5   2   1   11.90    1.50
   5   2   1   13.00    1.00
   6   2   1    1.60    0.90
   6   2   1    0.60    1.10
   6   2   1    2.30    0.60
  -7  -2  -1   30.60    2.20
  -7  -2  -1   34.60    2.40
   7   2   1   31.70    2.10
   7   2   1   30.70    2.20
   7   2   1   32.30    2.10
  -8  -2  -1   -0.70    0.70
  -8  -2  -1    1.00    0.80
   8   2   1    0.40    0.60
   8   2   1    0.80    0.70
   8   2   1   -0.10    0.60
  -9  -2  -1    3.30    1.10
  -9  -2  -1    3.30    0.80
   9   2   1    2.30    0.70
   9   2   1    2.10    0.70
   8  -3  -1    2.70    0.70
  -8   3   1    3.10    0.80
  -8   3   1    2.80    0.80
   7  -3  -1    1.60    0.60
   7  -3  -1    0.70    0.80
   7  -3  -1    1.60    0.90
  -7   3   1    1.10    0.80
  -7   3   1    1.80    0.90
   6  -3  -1   32.50    2.00
   6  -3  -1   35.90    2.40
   6  -3  -1   33.50    2.20
  -6   3   1   32.70    2.40
  -6   3   1   35.40    2.50
   5  -3  -1    1.40    0.70
   5  -3  -1    1.10    0.80
   5  -3  -1    1.70    0.90
   5  -3  -1    0.90    0.70
  -5   3   1    1.10    0.80
  -5   3   1    2.60    1.00
   4  -3  -1   34.30    2.00
   4  -3  -1   33.90    2.70
   3  -3  -1   64.59    2.80
   3  -3  -1   66.69    3.40
  -3   3   1   62.69    2.90
   2  -3  -1    6.10    0.70
   2  -3  -1    6.90    1.00
  -2   3   1    6.60    0.90
   1  -3  -1    0.60    0.40
  -1   3   1    2.40    0.60
   0  -3  -1   56.49    2.10
   0   3   1   51.49    2.00
   0   3   1   54.39    2.40
   1   3   1   12.50    1.10
   2   3   1   62.49    2.60
   2   3   1   65.49    2.80
   2   3   1   59.79    2.40
   3   3   1   91.39    3.80
   3   3   1  100.39    4.30
   3   3   1  102.99    3.80
  -4  -3  -1   54.29    2.40
   4   3   1   55.29    3.00
   4   3   1   52.29    2.60
   5   3   1   16.90    1.20
   5   3   1   17.00    1.80
   5   3   1   17.90    1.60
  -6  -3  -1    3.50    0.80
   6   3   1    2.10    1.00
   6   3   1    1.80    0.60
   6   3   1    1.00    1.10
  -7  -3  -1   33.20    2.40
  -7  -3  -1   29.90    2.20
   7   3   1   36.60    2.20
   7   3   1   33.00    2.20
   7   3   1   37.00    2.20
  -8  -3  -1    3.70    0.90
  -8  -3  -1    3.80    1.10
   8   3   1    4.50    0.90
   8   3   1    5.10    1.00
   8   3   1    3.30    0.90
  -9  -3  -1    4.60    1.00
   9   3   1    3.40    0.80
   9   3   1    3.70    0.70
   7  -4  -1    8.10    1.10
  -7   4   1    7.10    1.10
  -7   4   1    8.40    1.10
   6  -4  -1   12.80    1.60
   6  -4  -1   12.70    1.30
   6  -4  -1   12.00    1.50
  -6   4   1   11.50    1.50
  -6   4   1   10.70    1.50
   5  -4  -1    0.00    0.70
   5  -4  -1   -0.50    0.60
   5  -4  -1   -0.90    0.60
  -5   4   1   -0.50    0.80
  -5   4   1    0.10    0.70
   4  -4  -1   50.89    2.70
   4  -4  -1   51.59    2.70
   4  -4  -1   51.19    2.80
   4  -4  -1   54.69    3.10
   3  -4  -1   75.49    3.30
   3  -4  -1   75.69    3.40
   3  -4  -1   78.69    3.90
  -3   4   1   76.69    3.60
   2  -4  -1    0.40    0.40
   2  -4  -1    1.60    0.60
  -2   4   1    0.20    0.50
   1  -4  -1    8.00    0.90
   1  -4  -1    9.60    1.20
  -1   4   1    8.20    1.10
   0   4   1   69.79    3.20
   1   4   1   54.69    3.00
   1   4   1   67.69    2.80
   2   4   1  506.35   17.50
   2   4   1  492.85   17.40
   3   4   1    0.90    0.50
   3   4   1    0.30    0.60
  -4  -4  -1  214.88    7.80
   4   4   1  223.28    8.70
   4   4   1  212.38    7.90
   5   4   1   91.49    4.80
   5   4   1   89.29    3.80
  -6  -4  -1    3.00    0.80
   6   4   1    1.30    0.60
   6   4   1    1.60    1.20
  -7  -4  -1   13.70    1.50
  -7  -4  -1   12.70    1.60
  -7  -4  -1   12.80    1.40
  -7  -4  -1   12.10    1.50
   7   4   1   12.10    1.40
   7   4   1    9.70    1.40
   7   4   1   14.70    1.60
  -8  -4  -1   66.49    3.30
  -8  -4  -1   66.29    3.40
  -8  -4  -1   70.99    3.50
   8   4   1   70.49    3.40
   8   4   1   65.29    3.40
   8   4   1   66.69    3.30
  -9  -4  -1    5.50    1.10
   9   4   1    6.60    1.00
   7  -5  -1    0.20    0.50
  -7   5   1   -0.80    0.50
   6  -5  -1    8.70    1.20
   6  -5  -1   10.60    1.30
  -6   5   1    9.20    1.30
   5  -5  -1    0.70    0.70
   5  -5  -1    1.10    0.80
   5  -5  -1    2.70    0.90
   5  -5  -1    1.20    0.80
  -5   5   1    1.50    0.80
   4  -5  -1    0.90    0.70
   4  -5  -1    0.90    0.60
   4  -5  -1    1.70    0.90
   4  -5  -1    0.70    0.70
   4  -5  -1    1.30    1.00
  -4   5   1    0.20    0.70
   3  -5  -1   27.70    1.90
   3  -5  -1   33.90    3.30
   3  -5  -1   26.10    1.80
   3  -5  -1   27.50    2.00
  -3   5   1   26.50    2.10
   2  -5  -1   39.20    2.20
   2  -5  -1   38.60    2.20
  -2   5   1   43.20    2.50
   1  -5  -1    0.30    0.40
  -1   5   1    0.70    0.60
   0  -5  -1  146.69    5.60
   0   5   1  150.88    6.10
  -1  -5  -1   64.49    2.70
   1   5   1   67.89    3.40
  -2  -5  -1   10.60    0.90
   2   5   1    5.60    1.10
  -3  -5  -1  742.53   25.60
   3   5   1  778.92   26.50
   3   5   1  752.02   26.20
  -4  -5  -1    0.50    0.40
   4   5   1    0.50    0.80
   4   5   1   -0.10    0.50
  -5  -5  -1    0.10    0.40
   5   5   1    1.80    1.10
   5   5   1    0.20    0.50
  -6  -5  -1    0.90    0.70
  -6  -5  -1    0.00    0.80
  -6  -5  -1    0.30    0.80
  -6  -5  -1    0.30    0.60
   6   5   1    0.60    0.60
  -7  -5  -1  119.79    5.10
  -7  -5  -1  119.59    5.20
  -7  -5  -1  122.39    5.20
  -7  -5  -1  117.29    5.20
   7   5   1  119.79    5.30
   7   5   1  121.79    5.10
  -8  -5  -1    9.50    1.30
  -8  -5  -1   10.40    1.40
  -8  -5  -1   14.30    1.50
   8   5   1   11.60    1.40
   8   5   1    8.70    1.20
  -9  -5  -1    2.90    0.80
  -9  -5  -1    3.40    0.80
  -9  -5  -1    4.80    0.90
   9   5   1    2.80    0.80
   6  -6  -1    0.90    0.60
  -6   6   1    0.50    0.70
   5  -6  -1    0.00    0.80
   5  -6  -1   -0.90    0.70
   5  -6  -1   -0.70    0.60
  -5   6   1   -0.60    0.70
  -5   6   1    0.00    0.70
   4  -6  -1    2.70    1.00
   4  -6  -1    2.60    1.00
   4  -6  -1    2.90    0.90
   4  -6  -1    1.40    0.80
  -4   6   1    1.00    0.80
   3  -6  -1    0.30    0.70
   3  -6  -1   -0.30    0.70
   3  -6  -1    0.70    0.70
   3  -6  -1    0.80    0.90
   3  -6  -1   -0.50    0.70
  -3   6   1    1.80    0.90
   2  -6  -1   36.20    2.40
   2  -6  -1   33.40    2.30
   2  -6  -1   34.10    2.20
   2  -6  -1   36.30    2.20
  -2   6   1   39.20    3.30
   1  -6  -1    1.30    0.70
   1  -6  -1    0.30    0.60
  -1   6   1    1.70    0.70
   0  -6  -1   20.80    1.50
   0  -6  -1   19.30    1.30
   0   6   1   17.80    1.70
  -1  -6  -1    0.70    0.50
  -1  -6  -1    0.80    0.60
   1   6   1    0.40    0.70
  -2  -6  -1   25.10    1.50
   2   6   1   26.40    2.20
  -3  -6  -1    3.10    0.60
   3   6   1    1.40    0.90
  -4  -6  -1    0.60    0.50
   4   6   1   -0.30    0.70
   4   6   1    2.80    1.10
  -5  -6  -1  228.98    8.70
  -5  -6  -1  236.98    8.60
   5   6   1  227.08   10.30
  -6  -6  -1    7.50    1.10
  -6  -6  -1    5.70    1.10
  -6  -6  -1    7.40    1.10
  -6  -6  -1   10.10    1.20
  -6  -6  -1    6.90    1.10
   6   6   1    6.40    1.10
  -7  -6  -1   76.69    3.60
  -7  -6  -1   77.79    3.80
  -7  -6  -1   82.29    3.80
  -7  -6  -1   84.49    3.80
   7   6   1   81.49    3.90
   7   6   1   78.69    3.70
  -8  -6  -1    4.60    1.00
  -8  -6  -1    6.30    1.10
  -8  -6  -1    4.90    0.90
  -8  -6  -1    6.40    1.10
   8   6   1    4.30    1.00
  -9  -6  -1    1.80    0.60
  -9  -6  -1    0.30    0.60
  -9  -6  -1    1.50    0.60
   9   6   1    2.70    0.70
   5  -7  -1    2.90    0.70
  -5   7   1    4.00    0.90
  -5   7   1    3.70    0.80
   4  -7  -1    1.20    0.80
   4  -7  -1    0.10    0.70
   4  -7  -1    1.70    0.90
  -4   7   1    0.80    0.80
   3  -7  -1   54.99    2.90
   3  -7  -1   54.19    3.10
   3  -7  -1   55.79    3.10
   3  -7  -1   54.59    3.00
   3  -7  -1   53.99    2.80
  -3   7   1   52.89    2.90
   2  -7  -1   39.80    2.50
   2  -7  -1   38.90    2.40
   2  -7  -1   42.80    2.50
   2  -7  -1   33.60    2.40
   2  -7  -1   37.70    2.60
   1  -7  -1    1.30    0.70
   1  -7  -1    2.60    0.90
   1  -7  -1    1.60    0.90
   1  -7  -1    2.90    0.90
   1  -7  -1    3.20    0.90
   0  -7  -1   57.49    2.90
   0  -7  -1   56.79    3.00
   0  -7  -1   55.39    2.70
   0   7   1   47.00    3.80
  -1  -7  -1    3.90    0.80
  -1  -7  -1    2.50    0.80
   1   7   1    2.80    0.90
  -2  -7  -1   10.60    1.20
  -2  -7  -1   11.80    1.20
   2   7   1   11.10    1.50
   2   7   1   13.90    1.90
  -3  -7  -1   38.90    2.10
   3   7   1   38.50    2.90
   3   7   1   38.00    2.50
  -4  -7  -1    4.20    0.90
  -4  -7  -1    3.60    0.80
  -4  -7  -1    3.80    1.10
  -4  -7  -1    5.80    0.90
   4   7   1    2.90    1.30
  -5  -7  -1   12.90    1.40
  -5  -7  -1   13.10    1.40
  -5  -7  -1   12.60    1.40
  -5  -7  -1   13.10    1.40
  -5  -7  -1   11.60    1.30
  -5  -7  -1   11.00    1.30
  -6  -7  -1    7.70    1.10
  -6  -7  -1    6.90    1.20
  -6  -7  -1    8.00    1.20
  -6  -7  -1    7.80    1.20
  -6  -7  -1    4.60    1.00
   6   7   1    7.60    1.10
  -7  -7  -1    8.80    1.30
  -7  -7  -1    4.80    1.00
  -7  -7  -1    6.70    1.10
  -7  -7  -1    6.40    1.00
  -7  -7  -1    7.90    1.20
   7   7   1    8.20    1.20
  -8  -7  -1    7.90    1.10
  -8  -7  -1    7.20    1.10
  -8  -7  -1    8.30    1.10
   8   7   1    7.50    1.10
  -9  -7  -1    1.20    0.50
  -9  -7  -1    0.10    0.60
   9   7   1    0.70    0.50
   4  -8  -1   15.50    1.30
  -4   8   1   11.80    1.30
  -4   8   1   15.40    1.50
   3  -8  -1   -0.40    0.60
   3  -8  -1    0.50    0.70
   3  -8  -1    0.30    0.70
   3  -8  -1    0.70    0.60
  -3   8   1   -0.70    0.60
  -3   8   1   -0.10    0.80
   2  -8  -1   34.80    2.30
   2  -8  -1   33.50    2.10
   2  -8  -1   33.00    2.20
   2  -8  -1   33.90    2.20
   2  -8  -1   32.30    2.10
   1  -8  -1    1.50    0.90
   1  -8  -1   -0.60    0.70
   1  -8  -1    0.60    0.70
   1  -8  -1    0.30    0.70
   1  -8  -1   -0.20    0.70
   0  -8  -1   19.70    1.70
   0  -8  -1   23.90    2.20
   0  -8  -1   20.20    1.90
   0  -8  -1   21.20    1.80
   0  -8  -1   19.10    1.80
  -1  -8  -1   24.90    1.90
  -1  -8  -1   26.90    2.10
  -1  -8  -1   22.50    1.70
  -1  -8  -1   19.30    1.60
  -1  -8  -1   21.30    1.70
   1   8   1   23.80    1.80
   1   8   1   23.50    2.30
  -2  -8  -1  190.88    7.00
  -2  -8  -1  189.78    7.10
  -2  -8  -1  185.48    7.10
   2   8   1  161.38    7.40
  -3  -8  -1    0.70    0.60
  -3  -8  -1   -0.20    0.60
  -3  -8  -1    0.20    0.60
  -3  -8  -1   -0.30    0.70
   3   8   1    0.50    0.80
  -4  -8  -1    0.70    0.70
  -4  -8  -1    1.50    0.70
  -4  -8  -1    2.10    0.80
  -4  -8  -1    1.30    0.70
   4   8   1    1.60    1.00
  -5  -8  -1   31.80    2.00
  -5  -8  -1   31.20    2.10
  -5  -8  -1   31.00    2.00
  -5  -8  -1   30.00    2.00
  -5  -8  -1   31.00    2.00
  -5  -8  -1   30.10    2.00
  -6  -8  -1    9.60    1.30
  -6  -8  -1   10.00    1.20
  -6  -8  -1   12.50    1.60
  -6  -8  -1    9.50    1.20
  -6  -8  -1    9.40    1.20
  -6  -8  -1    7.10    1.10
  -7  -8  -1    1.60    0.70
  -7  -8  -1    1.70    0.80
  -7  -8  -1    1.50    0.70
  -7  -8  -1    1.50    0.80
   7   8   1    2.80    0.90
  -8  -8  -1    9.90    1.20
  -8  -8  -1    9.80    1.10
  -8  -8  -1   10.20    1.10
   8   8   1    9.50    1.10
  -9  -8  -1    9.50    0.90
  -9  -8  -1   10.50    1.00
   9   8   1   11.50    1.00
   3  -9  -1    0.50    0.50
  -3   9   1    1.40    0.70
   2  -9  -1   24.70    1.80
   2  -9  -1   27.10    1.70
  -2   9   1   23.90    2.20
  -2   9   1   17.80    1.80
   1  -9  -1    5.30    0.90
   1  -9  -1    6.90    1.00
   1  -9  -1    6.20    1.10
   1  -9  -1    7.70    1.30
  -1   9   1    6.80    1.50
  -1   9   1    6.20    1.20
   0  -9  -1    8.10    1.30
   0  -9  -1    9.80    1.20
   0  -9  -1    7.90    1.20
   0  -9  -1    8.50    1.10
   0   9   1    7.20    1.20
   0   9   1    8.70    1.60
  -1  -9  -1   37.10    2.20
  -1  -9  -1   37.10    2.20
  -1  -9  -1   40.20    2.30
   1   9   1   34.60    2.40
   1   9   1   36.50    2.70
  -2  -9  -1   38.00    2.20
  -2  -9  -1   32.70    2.10
  -2  -9  -1   37.60    2.30
   2   9   1   34.10    2.60
  -3  -9  -1   20.90    1.70
  -3  -9  -1   23.70    1.80
  -3  -9  -1   22.50    1.80
  -3  -9  -1   21.50    1.70
   3   9   1   20.60    2.00
  -4  -9  -1   60.19    3.00
  -4  -9  -1   60.99    3.00
  -4  -9  -1   59.89    3.00
  -4  -9  -1   60.99    3.00
  -5  -9  -1    2.30    1.00
  -5  -9  -1    0.80    0.70
  -5  -9  -1    1.50    0.70
  -5  -9  -1    2.10    0.70
  -6  -9  -1    0.80    0.70
  -6  -9  -1    1.50    0.70
  -6  -9  -1   -0.20    0.70
  -6  -9  -1   -0.10    0.60
  -7  -9  -1   19.70    1.50
  -7  -9  -1   18.60    1.50
  -7  -9  -1   18.10    1.40
  -7  -9  -1   19.20    1.60
   7   9   1   21.30    1.50
  -8  -9  -1   -0.30    0.50
  -8  -9  -1    0.70    0.50
  -8  -9  -1    0.60    0.50
   8   9   1    0.20    0.50
   2 -10  -1   -0.70    0.40
  -2  10   1    0.10    0.60
   1 -10  -1    4.50    0.80
  -1  10   1    5.40    0.90
  -1  10   1    4.50    1.10
   0 -10  -1    2.60    0.70
   0 -10  -1    2.80    0.70
   0  10   1    2.20    1.00
   0  10   1    1.50    0.70
  -1 -10  -1    2.80    0.80
  -1 -10  -1    4.40    0.80
  -1 -10  -1    3.20    0.80
   1  10   1    3.40    1.10
   1  10   1    1.60    0.90
  -2 -10  -1   -0.20    0.60
  -2 -10  -1    0.40    0.60
  -2 -10  -1    0.70    0.70
   2  10   1    0.70    0.90
  -3 -10  -1    3.40    0.90
  -3 -10  -1    3.50    0.90
  -3 -10  -1    2.40    0.80
   3  10   1    4.00    1.00
  -4 -10  -1    0.90    0.80
  -4 -10  -1    0.60    0.70
  -4 -10  -1    0.60    0.70
  -5 -10  -1    5.00    1.10
  -5 -10  -1    5.30    0.90
  -5 -10  -1    5.30    0.90
  -6 -10  -1    4.60    0.80
  -6 -10  -1    6.10    0.90
  -7 -10  -1    0.70    0.50
  -7 -10  -1    1.20    0.50
   7  10   1    1.90    0.60
  -1 -11  -1    1.40    0.60
  -2 -11  -1    6.30    0.90
  -2 -11  -1    4.30    0.70
   2  11   1    4.00    0.80
  -3 -11  -1    9.10    0.90
  -3 -11  -1    9.50    1.00
   3  11   1    8.70    1.20
  -4 -11  -1    0.70    0.50
  -5 -11  -1    0.00    0.40
  -5 -11  -1    0.00    0.50
  -6 -11  -1    0.00    0.40
  -6 -11  -1    1.10    0.40
   6  11   1    0.10    0.30
  -5 -10   2    0.30    0.50
  -5 -10   2    0.00    0.40
  -5 -10   2    0.20    0.50
  -4 -10   2    0.20    0.50
  -4 -10   2    0.30    0.50
  -3 -10   2    1.50    0.60
  -3 -10   2    2.40    0.70
  -2 -10   2    0.80    0.60
  -2 -10   2    1.10    0.60
  -1 -10   2   -0.40    0.50
  -1 -10   2    0.20    0.50
   0 -10   2    2.20    0.60
   0 -10   2    1.60    0.50
   7   9  -2   10.90    1.00
  -7  -9   2   11.80    1.00
  -7  -9   2   10.00    0.90
  -6  -9   2    0.80    0.50
  -6  -9   2    1.90    0.60
  -6  -9   2    1.10    0.60
  -5  -9   2    5.00    1.00
  -5  -9   2    4.20    0.80
  -5  -9   2    5.00    0.90
  -5  -9   2    5.20    0.90
  -4  -9   2   11.00    1.20
  -4  -9   2    9.60    1.20
  -4  -9   2   10.30    1.20
  -4  -9   2    9.20    1.20
  -3  -9   2    2.00    0.90
  -3  -9   2    0.70    0.70
  -3  -9   2    0.30    0.70
  -2  -9   2   -0.10    0.70
  -2  -9   2    0.20    0.60
  -2  -9   2    0.00    0.70
   1   9  -2    0.10    0.90
  -1  -9   2    0.00    0.60
  -1  -9   2   -0.70    0.70
  -1  -9   2    0.00    0.60
  -1  -9   2   -0.50    0.60
   0   9  -2    5.30    1.20
   0  -9   2    3.10    0.80
   0  -9   2    3.20    0.80
   0  -9   2    2.70    0.80
   0  -9   2    3.30    0.90
  -1   9  -2    0.00    0.70
   1  -9   2    0.30    0.50
   1  -9   2   -0.70    0.50
   1  -9   2    0.80    0.60
   1  -9   2    0.50    0.50
  -2   9  -2    4.20    0.80
  -2   9  -2    2.90    1.10
   2  -9   2    2.70    0.60
   2  -9   2    2.70    0.60
   2  -9   2    3.80    1.00
   2  -9   2    2.80    0.60
   8   8  -2    6.50    0.80
  -8  -8   2   10.10    0.90
  -8  -8   2    8.40    0.80
  -8  -8   2    6.50    0.70
  -8  -8   2    9.20    0.90
   7   8  -2   -0.70    0.50
  -7  -8   2   -0.10    0.50
  -7  -8   2   -0.50    0.50
  -7  -8   2    0.00    0.50
  -7  -8   2   -0.30    0.50
   6   8  -2   50.99    2.90
  -6  -8   2   45.00    2.30
  -6  -8   2   44.00    2.40
  -6  -8   2   42.30    2.50
  -6  -8   2   47.90    2.40
  -6  -8   2   44.20    2.40
  -5  -8   2   21.80    1.60
  -5  -8   2   21.10    1.70
  -5  -8   2   20.80    1.70
  -5  -8   2   22.20    1.70
  -5  -8   2   21.50    1.70
  -4  -8   2   46.60    2.70
  -4  -8   2   49.99    2.60
  -4  -8   2   46.90    2.70
  -4  -8   2   45.30    2.60
  -3  -8   2   11.30    1.30
  -3  -8   2    9.50    1.30
  -3  -8   2   10.90    1.40
  -3  -8   2   13.60    1.50
  -2  -8   2   71.29    3.50
  -2  -8   2   75.49    3.50
  -2  -8   2   72.89    3.60
  -1  -8   2    3.80    1.00
  -1  -8   2    5.30    1.10
  -1  -8   2    5.30    1.10
  -1  -8   2    5.30    1.00
   0  -8   2    0.40    0.80
   0  -8   2    0.30    0.70
   0  -8   2    0.30    0.70
   0  -8   2    2.30    0.80
   1  -8   2   26.40    1.90
   1  -8   2   24.60    1.80
   1  -8   2   20.90    1.80
   1  -8   2   21.80    1.70
   1  -8   2   18.50    1.70
   2  -8   2    9.70    1.20
   2  -8   2    9.20    1.20
   2  -8   2    6.10    1.00
   2  -8   2   10.10    1.20
   2  -8   2    8.10    1.20
   3  -8   2    0.40    0.60
   3  -8   2    0.10    0.50
   3  -8   2    0.30    0.50
   3  -8   2    0.10    0.60
   8   7  -2   -0.10    0.50
  -8  -7   2    0.10    0.60
  -8  -7   2    0.00    0.50
  -8  -7   2   -0.30    0.50
  -8  -7   2   -0.30    0.50
   7   7  -2    3.70    1.00
   7   7  -2    3.50    0.90
  -7  -7   2    3.00    0.80
  -7  -7   2    3.30    0.80
  -7  -7   2    3.80    0.80
  -7  -7   2    2.60    0.80
   6   7  -2   67.99    3.50
  -6  -7   2   65.89    3.20
  -6  -7   2   67.89    3.20
  -6  -7   2   67.59    3.40
  -6  -7   2   66.19    3.30
  -6  -7   2   65.29    3.40
  -6  -7   2   64.89    3.30
  -5  -7   2   27.10    1.90
  -5  -7   2   25.80    1.80
  -5  -7   2   23.40    1.90
  -5  -7   2   24.50    2.00
  -5  -7   2   25.20    1.90
  -5  -7   2   24.00    1.90
  -4  -7   2   49.60    2.80
  -4  -7   2   49.80    2.80
  -4  -7   2   50.69    2.80
  -4  -7   2   47.10    2.60
  -4  -7   2   47.70    2.70
  -3  -7   2   39.20    2.30
  -3  -7   2   37.50    2.30
  -3  -7   2   40.10    2.40
  -3  -7   2   37.50    2.40
  -2  -7   2   52.59    2.90
  -2  -7   2   56.79    2.90
  -2  -7   2   59.29    3.00
  -1  -7   2   84.59    3.90
  -1  -7   2   76.59    3.80
  -1  -7   2   85.39    3.90
  -1  -7   2   88.79    3.90
   0  -7   2   14.60    1.50
   0  -7   2   20.90    1.80
   0  -7   2   14.00    1.50
   0  -7   2   13.70    1.50
   0  -7   2   22.50    2.00
   1  -7   2   27.90    2.10
   1  -7   2   26.00    1.90
   1  -7   2   27.60    2.00
   1  -7   2   27.50    2.00
   1  -7   2   29.00    2.00
   2  -7   2   26.50    1.90
   2  -7   2   25.00    1.90
   2  -7   2   26.50    2.00
   2  -7   2   21.10    1.90
   2  -7   2   23.90    1.90
   3  -7   2    0.30    0.60
   3  -7   2    0.60    0.80
   3  -7   2    0.10    0.80
   3  -7   2   -0.20    0.80
   3  -7   2   -0.60    0.60
  -4   7  -2    1.40    0.80
   4  -7   2    1.30    0.60
   4  -7   2    1.60    0.70
   4  -7   2    0.70    0.70
   4  -7   2    1.90    0.70
  -5   7  -2    0.50    0.70
   5  -7   2    0.80    0.50
   5  -7   2    1.70    0.60
   5  -7   2    0.20    0.30
   9   6  -2    6.80    0.80
   9   6  -2    4.40    0.70
  -9  -6   2    6.40    1.00
  -9  -6   2    6.50    0.70
   8   6  -2    0.70    0.70
  -8  -6   2    0.10    0.60
  -8  -6   2    0.50    0.50
  -8  -6   2   -0.60    0.50
  -8  -6   2   -0.60    0.60
  -8  -6   2   -0.30    0.40
   7   6  -2    5.30    1.20
   7   6  -2    4.80    1.10
  -7  -6   2    5.40    1.00
  -7  -6   2    5.30    1.10
  -7  -6   2    3.70    0.90
  -7  -6   2    5.30    1.00
   6   6  -2    4.50    1.10
  -6  -6   2    5.00    1.10
  -6  -6   2    4.70    1.00
  -6  -6   2    4.90    1.10
  -6  -6   2    7.00    1.10
  -6  -6   2    5.80    1.00
  -5  -6   2   22.10    1.90
  -5  -6   2   21.00    1.90
  -5  -6   2   23.40    2.00
  -5  -6   2   23.80    2.00
  -5  -6   2   18.60    1.80
  -5  -6   2   22.10    1.80
  -4  -6   2   62.49    3.00
  -4  -6   2   62.99    3.20
  -4  -6   2   57.29    3.10
  -4  -6   2   58.99    3.10
  -4  -6   2   61.09    3.10
  -4  -6   2   57.59    3.10
   3   6  -2   13.00    1.90
  -3  -6   2   11.70    1.30
   2   6  -2    0.60    0.80
  -2  -6   2    0.30    0.60
   1   6  -2    5.80    1.50
  -1  -6   2   10.30    1.20
  -1  -6   2   11.80    1.30
   0   6  -2   89.19    4.90
   0  -6   2   98.59    4.10
   0  -6   2   95.49    4.20
   1  -6   2   55.39    2.90
   1  -6   2   60.79    3.00
   1  -6   2   60.79    3.00
   1  -6   2   58.09    2.90
   1  -6   2   59.89    3.00
   2  -6   2   60.89    3.10
   2  -6   2   54.39    3.00
   2  -6   2   56.29    3.00
   2  -6   2   56.39    2.90
   2  -6   2   56.99    3.00
   3  -6   2    9.30    1.30
   3  -6   2   10.00    1.40
   3  -6   2    9.50    1.30
   3  -6   2   10.20    1.40
   3  -6   2   10.20    1.30
   3  -6   2   10.30    1.60
   4  -6   2    0.90    0.70
   4  -6   2    1.70    0.80
   4  -6   2    0.60    0.60
   4  -6   2    0.30    0.70
   4  -6   2    1.80    0.90
   4  -6   2    2.10    0.70
  -5   6  -2   12.00    1.40
   5  -6   2   11.70    1.10
   5  -6   2   10.70    1.20
   5  -6   2   13.30    1.30
   5  -6   2   13.70    1.30
  -6   6  -2   -0.40    0.50
   6  -6   2    0.80    0.50
   9   5  -2    0.00    0.50
   9   5  -2   -0.10    0.50
  -9  -5   2    0.10    0.60
  -9  -5   2    0.30    0.40
  -9  -5   2    0.60    0.50
   8   5  -2   12.90    1.50
   8   5  -2    9.90    1.20
   8   5  -2    8.70    1.30
  -8  -5   2    8.90    1.20
  -8  -5   2    9.10    1.20
  -8  -5   2   11.50    1.30
  -8  -5   2   11.50    1.30
   7   5  -2   65.89    3.60
   7   5  -2   74.49    3.80
  -7  -5   2   74.09    3.60
  -7  -5   2   74.99    3.50
  -7  -5   2   73.69    3.60
  -7  -5   2   71.39    3.40
  -7  -5   2   70.79    3.60
   6   5  -2    5.40    1.20
  -6  -5   2    6.40    1.10
  -6  -5   2    5.50    1.00
  -6  -5   2    6.10    1.30
  -6  -5   2    5.30    1.10
  -6  -5   2    8.30    1.20
  -6  -5   2    5.30    1.20
  -5  -5   2   54.49    3.00
  -5  -5   2   55.29    2.90
  -5  -5   2   50.29    2.80
  -5  -5   2   54.19    2.90
  -5  -5   2   53.29    2.80
  -5  -5   2   52.99    2.90
   4   5  -2   72.59    3.70
   4   5  -2   72.79    4.00
  -4  -5   2   64.59    3.70
  -4  -5   2   73.49    3.40
  -4  -5   2   68.09    3.30
   3   5  -2  133.89    5.80
   3   5  -2  129.79    6.00
  -3  -5   2  134.89    5.30
   2   5  -2   65.29    3.40
  -2  -5   2   61.29    2.90
   1   5  -2   10.50    1.50
  -1  -5   2    9.70    1.00
   0   5  -2    3.50    1.10
   0  -5   2    8.00    1.00
   0  -5   2    6.60    0.90
  -1   5  -2    2.30    0.90
   1  -5   2    3.20    0.70
   1  -5   2    4.80    0.80
   2  -5   2   18.70    1.70
   2  -5   2   17.30    1.70
   2  -5   2   19.70    1.70
   3  -5   2   18.10    1.90
   3  -5   2   14.00    1.60
   3  -5   2   17.00    1.60
   3  -5   2   15.80    1.60
   3  -5   2   16.60    1.60
   3  -5   2   16.00    1.80
   4  -5   2   -0.30    0.80
   4  -5   2    0.10    0.70
   4  -5   2    0.00    0.70
   4  -5   2    0.50    0.70
   4  -5   2    0.10    0.70
   4  -5   2   -1.20    0.60
   5  -5   2    1.70    0.80
   5  -5   2    1.50    0.70
   5  -5   2    3.20    1.10
   5  -5   2    3.50    0.90
   5  -5   2    2.10    0.80
   5  -5   2    2.40    0.70
  -6   5  -2    7.10    1.10
   6  -5   2    5.80    0.90
   6  -5   2    5.50    0.80
   6  -5   2    6.60    1.00
   9   4  -2    0.10    0.50
   9   4  -2    0.10    0.50
  -9  -4   2    0.00    0.50
  -9  -4   2    0.80    0.50
   8   4  -2   18.90    1.90
   8   4  -2   19.00    1.90
   8   4  -2   18.90    1.70
  -8  -4   2   19.50    1.80
  -8  -4   2   18.00    1.70
  -8  -4   2   16.90    1.60
   7   4  -2    1.00    0.80
   7   4  -2    0.80    0.80
  -7  -4   2    1.00    0.80
  -7  -4   2    0.90    0.70
  -7  -4   2    0.90    0.80
  -7  -4   2    1.50    0.90
   6   4  -2    0.60    0.80
   6   4  -2    1.00    0.80
  -6  -4   2    1.40    0.80
  -6  -4   2    1.60    0.80
  -6  -4   2    1.90    0.80
  -6  -4   2    1.60    0.90
  -6  -4   2    2.80    1.00
  -6  -4   2    2.90    0.90
   5   4  -2    0.00    0.80
   5   4  -2    0.20    0.60
  -5  -4   2    0.40    0.60
  -5  -4   2    0.20    0.60
  -5  -4   2    0.30    0.70
   4   4  -2  249.38    9.80
  -4  -4   2  239.08    9.00
  -4  -4   2  241.08    9.30
   3   4  -2   13.10    1.50
  -3  -4   2    9.80    1.30
  -3  -4   2   10.60    1.10
   2   4  -2   34.30    2.10
   2   4  -2   36.70    2.20
  -2  -4   2   36.70    1.90
  -2  -4   2   35.40    2.10
   1   4  -2   93.89    4.10
  -1  -4   2   94.79    3.70
   0   4  -2  604.84   21.50
   0  -4   2  616.14   20.80
  -1   4  -2   48.80    2.80
   1  -4   2   44.90    2.30
   2  -4   2    0.40    0.50
   2  -4   2    0.70    0.50
   3  -4   2   61.99    3.10
   3  -4   2   65.19    3.00
   3  -4   2   63.59    3.00
   4  -4   2    3.70    1.00
   4  -4   2    7.40    1.00
   4  -4   2    5.30    1.30
   4  -4   2    6.80    1.10
   4  -4   2    6.10    1.10
   4  -4   2    5.50    1.00
   5  -4   2    0.80    0.80
   5  -4   2    0.50    0.60
   5  -4   2    0.20    0.80
   5  -4   2    1.40    0.70
   5  -4   2   -0.70    0.60
   5  -4   2    0.90    0.90
  -6   4  -2   11.50    1.40
   6  -4   2   10.00    1.30
   6  -4   2   10.10    1.20
   6  -4   2   10.90    1.30
   6  -4   2   10.80    1.60
   6  -4   2   11.10    1.20
  -7   4  -2    4.10    0.90
   7  -4   2    1.20    0.50
   7  -4   2    3.10    0.60
   9   3  -2    7.10    1.30
   9   3  -2    6.60    1.00
  -9  -3   2    7.50    1.00
   8   3  -2    2.80    1.00
   8   3  -2    3.20    0.90
   8   3  -2    4.70    0.90
  -8  -3   2    3.90    1.40
  -8  -3   2    5.80    1.00
   7   3  -2   34.20    2.20
   7   3  -2   37.60    2.40
  -7  -3   2   37.40    2.30
  -7  -3   2   28.50    2.20
  -7  -3   2   34.40    2.30
  -7  -3   2   33.40    2.40
   6   3  -2    0.40    0.80
   6   3  -2   -0.20    0.60
  -6  -3   2   -0.60    0.70
  -6  -3   2   -0.50    0.60
  -6  -3   2    0.50    0.80
  -6  -3   2    1.00    0.80
   5   3  -2   70.39    3.30
   5   3  -2   61.69    3.90
  -5  -3   2   67.09    3.30
   4   3  -2   11.40    1.60
  -4  -3   2   10.30    1.20
  -4  -3   2    9.70    1.20
   3   3  -2   74.79    3.10
   3   3  -2   75.79    3.50
  -3  -3   2   63.39    3.00
  -3  -3   2   69.99    3.20
   2   3  -2   16.00    1.00
   2   3  -2   17.00    1.40
  -2  -3   2   15.90    1.30
   1   3  -2    9.50    0.80
   1   3  -2    8.40    0.90
  -1  -3   2    8.20    1.00
   0   3  -2  105.79    4.00
   0   3  -2  106.69    4.30
   0  -3   2  102.39    4.10
   1  -3   2   76.79    3.30
   1  -3   2   78.99    3.60
  -2   3  -2   37.60    1.90
   2  -3   2   40.70    2.40
   2  -3   2   36.50    1.90
   3  -3   2   14.80    1.30
   3  -3   2   12.20    1.20
   3  -3   2   12.40    1.80
   4  -3   2   70.59    3.20
   4  -3   2   69.89    3.10
   4  -3   2   65.09    3.10
   4  -3   2   61.79    4.10
   5  -3   2    3.80    1.20
   5  -3   2    2.90    0.80
   5  -3   2    3.60    0.80
   5  -3   2    2.50    1.00
   5  -3   2    3.20    0.80
   5  -3   2    1.70    0.80
   5  -3   2    1.50    0.80
  -6   3  -2    4.50    1.10
   6  -3   2    3.10    0.90
   6  -3   2    3.30    1.10
   6  -3   2    3.70    0.90
   6  -3   2    2.50    0.90
   6  -3   2    3.70    0.90
  -7   3  -2    7.20    1.20
   7  -3   2    6.20    0.90
   7  -3   2    4.70    0.90
   7  -3   2    6.10    1.30
  -8   3  -2    5.00    0.80
  -8   3  -2    5.70    0.80
   8  -3   2    6.00    0.70
   8  -3   2    2.60    0.90
   9   2  -2    0.30    0.60
  -9  -2   2    0.00    0.60
  -9  -2   2    0.90    0.50
   8   2  -2    0.20    0.50
   8   2  -2    1.40    0.80
   8   2  -2    1.50    0.90
  -8  -2   2    0.00    0.90
  -8  -2   2    0.70    0.70
   7   2  -2    7.00    1.20
   7   2  -2    5.90    1.10
   7   2  -2    6.40    1.20
  -7  -2   2    7.90    1.30
  -7  -2   2    8.00    1.20
  -7  -2   2    6.30    1.20
   6   2  -2   -0.20    0.50
   6   2  -2   -0.10    0.60
  -6  -2   2    1.40    0.60
  -6  -2   2    0.10    0.70
  -6  -2   2    1.70    0.90
  -6  -2   2    0.70    0.80
  -6  -2   2    0.10    0.70
   5   2  -2   15.10    1.80
   5   2  -2   17.10    1.40
   5   2  -2   16.60    2.10
  -5  -2   2   15.50    1.40
   4   2  -2   22.20    1.70
   4   2  -2   23.00    1.90
  -4  -2   2   20.90    1.50
  -4  -2   2   19.90    1.40
   3   2  -2   47.50    2.60
   3   2  -2   46.00    2.30
  -3  -2   2   47.20    2.30
   2   2  -2  149.59    5.90
   2   2  -2  152.68    5.70
  -2  -2   2  162.88    5.80
   1   2  -2   89.29    3.30
   1   2  -2   82.39    3.40
  -1  -2   2   82.09    3.30
   0  -2   2   11.80    0.80
   0  -2   2   12.30    0.90
   0  -2   2   11.90    1.00
  -1   2  -2  270.97    9.80
   1  -2   2  281.07    9.60
   1  -2   2  278.57   10.10
  -2   2  -2   92.89    3.60
   2  -2   2   95.59    4.20
   3  -2   2   92.09    4.40
   3  -2   2   90.79    3.60
   4  -2   2   69.09    3.00
   4  -2   2   66.69    3.00
   4  -2   2   67.69    3.90
   5  -2   2   -0.30    0.80
   5  -2   2    1.50    1.30
   5  -2   2   -0.10    0.50
   5  -2   2   -0.40    0.50
   5  -2   2   -0.30    0.50
   5  -2   2    0.50    0.50
   5  -2   2   -0.60    0.70
  -6   2  -2    1.80    1.00
   6  -2   2    3.20    0.90
   6  -2   2    2.30    1.20
   6  -2   2    3.10    1.20
   6  -2   2    1.80    0.80
   6  -2   2    2.80    0.80
  -7   2  -2    1.50    0.90
   7  -2   2    1.60    0.70
   7  -2   2    1.10    0.70
   7  -2   2   -0.20    0.50
   7  -2   2    0.00    1.00
  -8   2  -2    0.10    0.70
  -8   2  -2    1.10    0.70
   8  -2   2    0.30    0.40
   8  -2   2    0.50    0.60
   9   1  -2    0.90    0.60
  -9  -1   2    0.10    0.70
  -9  -1   2    0.70    0.50
   8   1  -2    6.20    1.20
   8   1  -2    7.30    1.20
  -8  -1   2    6.40    1.20
  -8  -1   2    5.60    1.10
   7   1  -2    1.00    0.80
   7   1  -2    0.50    0.60
   7   1  -2    1.70    0.80
  -7  -1   2    0.70    0.80
  -7  -1   2    1.40    0.90
   6   1  -2   -0.40    0.50
   6   1  -2    0.60    0.80
   6   1  -2   -0.10    0.60
  -6  -1   2   -0.30    0.70
  -6  -1   2    0.70    0.90
   5   1  -2    6.70    0.90
   5   1  -2    9.60    1.60
   5   1  -2    6.90    1.40
  -5  -1   2    6.50    1.00
   4   1  -2  110.09    4.30
   4   1  -2  109.69    4.80
   4   1  -2  103.39    4.80
  -4  -1   2  108.09    4.40
   3   1  -2  333.77   11.90
   3   1  -2  323.17   12.00
  -3  -1   2  338.67   11.60
   2   1  -2   12.60    1.00
   2   1  -2   12.40    1.10
  -2  -1   2   12.60    1.00
   1   1  -2  869.51   29.40
   1   1  -2  891.81   29.40
  -1  -1   2  862.81   29.20
  -1  -1   2  875.91   29.40
   0  -1   2  308.27   10.80
   0  -1   2  314.87   10.90
   0  -1   2  330.77   11.10
  -1   1  -2  565.74   19.10
   1  -1   2  589.94   19.30
   1  -1   2  551.54   19.60
  -2   1  -2  471.05   15.60
   2  -1   2  456.25   16.30
   2  -1   2  469.05   16.00
   3  -1   2   36.60    2.00
   3  -1   2   32.50    2.20
   4  -1   2   34.90    2.50
   4  -1   2   37.80    1.80
   5  -1   2   56.39    2.60
   5  -1   2   57.69    3.70
   6  -1   2    0.70    0.60
   6  -1   2   -0.10    1.00
   6  -1   2    0.20    0.50
   6  -1   2    0.00    1.00
   6  -1   2    0.50    0.60
  -7   1  -2    1.30    0.90
   7  -1   2    0.10    0.90
   7  -1   2   -0.10    0.50
   7  -1   2    0.10    0.60
   7  -1   2    0.30    0.60
  -8   1  -2    4.70    1.00
  -8   1  -2    3.20    0.90
   8  -1   2    1.60    1.00
   8  -1   2    3.20    0.80
   8  -1   2    3.00    0.70
  -9   1  -2   -0.80    0.50
   9  -1   2   -0.40    0.40
   9   0  -2    1.60    0.60
  -9   0   2    0.90    0.50
   8   0  -2    7.30    1.20
   8   0  -2    6.10    1.10
  -8   0   2    7.70    1.30
  -8   0   2    7.40    1.20
   7   0  -2    4.50    1.00
   7   0  -2    5.40    1.10
  -7   0   2    5.70    1.30
  -7   0   2    5.50    1.20
   6   0  -2  127.99    5.40
   6   0  -2  132.39    5.40
  -6   0   2  137.49    5.60
  -6   0   2  124.09    5.60
   5   0  -2  341.37   12.30
   5   0  -2  348.47   13.40
   5   0  -2  338.57   13.30
  -5   0   2  357.76   12.60
   4   0  -2  934.61   31.50
   4   0  -2  938.81   32.20
   4   0  -2  937.41   32.30
  -4   0   2  923.91   31.70
   3   0  -2   13.20    1.40
   3   0  -2   11.90    1.20
  -3   0   2   11.40    1.00
   2   0  -2 4063.29  133.19
   2   0  -2 3976.50  134.39
  -2   0   2 4018.50  134.19
   1   0  -2   28.10    1.50
  -1   0   2   27.60    1.40
  -1   0   2   28.20    1.30
   0   0   2   29.00    1.30
   0   0   2   35.90    1.70
   0   0   2   32.20    1.50
   1   0   2 1512.95   50.89
   1   0   2 1579.24   50.59
   1   0   2 1493.35   51.09
   2   0   2 1133.29   39.80
   2   0   2 1232.28   39.80
   3   0   2  368.16   13.70
   3   0   2  387.26   13.60
   4   0   2   76.79    4.10
   4   0   2   78.79    3.10
   4   0   2   79.09    3.90
   5   0   2   35.60    1.80
   5   0   2   34.10    2.60
  -6   0  -2    1.00    0.90
   6   0   2    2.10    1.10
   6   0   2    0.40    0.50
   6   0   2    0.70    0.60
   6   0   2    1.10    0.80
   6   0   2   -0.50    0.90
  -7   0  -2    6.30    1.30
  -7   0  -2   12.00    1.60
   7   0   2    7.40    1.10
   7   0   2    8.50    1.60
   7   0   2    7.50    1.00
   7   0   2   10.30    1.30
  -8   0  -2    7.60    1.30
  -8   0  -2    7.70    1.40
   8   0   2    6.70    1.10
   8   0   2   10.00    1.10
  -9   0  -2   17.60    1.40
   9   0   2   15.00    1.20
   8  -1  -2    5.10    1.00
  -8   1   2    2.40    0.90
   7  -1  -2    1.60    0.80
   7  -1  -2    0.60    0.70
  -7   1   2   -0.70    1.40
  -7   1   2   -0.40    0.70
   6  -1  -2   82.89    3.80
   6  -1  -2   84.09    3.90
  -6   1   2   83.29    4.10
  -6   1   2   78.39    5.20
  -6   1   2   82.09    3.90
   5  -1  -2   65.09    3.00
   5  -1  -2   62.59    4.00
  -5   1   2   65.19    3.20
   4  -1  -2  814.12   28.20
   4  -1  -2  802.12   28.00
   4  -1  -2  800.32   27.30
  -4   1   2  802.82   27.50
   3  -1  -2  405.86   14.50
   3  -1  -2  399.86   14.60
   3  -1  -2  400.26   14.00
  -3   1   2  428.96   14.30
   2  -1  -2   41.30    2.20
   2  -1  -2   43.20    2.10
  -2   1   2   43.30    2.00
   1  -1  -2 2932.61   97.69
  -1   1   2 2961.90   98.49
  -1   1   2 2951.50   97.49
   0  -1  -2 1585.74   53.59
   0   1   2 1729.73   53.69
   0   1   2 1517.05   53.59
   0   1   2 1618.04   53.69
   1   1   2   41.70    2.20
   1   1   2   44.10    1.60
   1   1   2   46.50    2.00
   2   1   2 1402.76   46.20
   2   1   2 1359.66   46.60
   3   1   2   14.90    1.20
   3   1   2    9.90    1.50
   4   1   2   91.49    4.00
   4   1   2   70.09    4.30
   5   1   2   34.40    1.70
   5   1   2   26.80    3.20
   5   1   2   34.50    2.50
   6   1   2   -0.70    0.80
   6   1   2    1.30    0.60
   6   1   2    1.50    1.40
  -7  -1  -2   63.29    3.40
  -7  -1  -2   63.29    3.40
   7   1   2   50.19    3.50
   7   1   2   58.39    2.90
   7   1   2   60.89    2.90
  -8  -1  -2    8.00    1.30
  -8  -1  -2    8.90    1.50
   8   1   2    6.50    1.00
  -9  -1  -2    0.70    0.60
  -9  -1  -2    0.50    0.80
   9   1   2    1.20    0.50
   8  -2  -2    0.60    0.60
  -8   2   2    1.60    0.70
   7  -2  -2    3.10    0.90
   7  -2  -2    3.10    0.90
  -7   2   2    3.50    1.00
  -7   2   2    2.60    1.00
   6  -2  -2   -0.10    0.60
   6  -2  -2    0.20    0.60
  -6   2   2   -0.40    0.80
  -6   2   2   -0.60    0.80
   5  -2  -2   49.90    2.60
   5  -2  -2   48.30    2.60
  -5   2   2   47.30    2.80
   4  -2  -2    1.70    0.90
   4  -2  -2    1.00    0.50
  -4   2   2    0.60    0.50
   3  -2  -2  113.29    4.40
   3  -2  -2  118.59    5.20
  -3   2   2  118.89    4.70
   2  -2  -2   24.90    1.60
   2  -2  -2   23.70    1.40
  -2   2   2   22.10    1.40
   1  -2  -2  324.37   11.20
  -1   2   2  306.07   10.90
  -1   2   2  326.17   11.00
   0  -2  -2  373.96   12.70
   0   2   2  370.46   12.70
   0   2   2  365.06   12.60
   1   2   2  674.03   22.40
   1   2   2  595.44   22.20
   1   2   2  704.43   22.00
   2   2   2  366.56   12.80
   2   2   2  367.46   12.40
   3   2   2  563.14   19.30
   3   2   2  622.94   19.90
   3   2   2  539.25   20.50
   4   2   2    9.50    1.20
   4   2   2    7.30    1.60
   5   2   2  164.68    8.60
   5   2   2  204.98    8.00
   5   2   2  215.08    7.20
   6   2   2    1.40    1.00
   6   2   2    0.80    1.30
   6   2   2    1.30    0.50
  -7  -2  -2    1.60    0.90
  -7  -2  -2    0.70    0.80
   7   2   2    0.50    0.60
   7   2   2    0.80    1.00
   7   2   2   -0.40    0.80
  -8  -2  -2    9.70    1.60
  -8  -2  -2    8.70    1.30
   8   2   2   10.20    1.20
  -9  -2  -2    2.30    1.00
  -9  -2  -2    1.50    0.70
   9   2   2    0.60    0.60
   8  -3  -2    6.10    0.90
  -8   3   2    5.70    0.90
  -8   3   2    6.20    0.90
   7  -3  -2    5.50    1.00
   7  -3  -2    6.20    1.10
  -7   3   2    8.10    1.20
  -7   3   2    7.20    1.30
   6  -3  -2   20.00    1.90
   6  -3  -2   22.20    1.80
  -6   3   2   20.30    2.00
  -6   3   2   21.80    2.10
   5  -3  -2    4.30    1.00
   5  -3  -2    4.00    0.90
  -5   3   2    3.00    0.90
  -5   3   2    4.20    1.10
   4  -3  -2    0.90    0.50
   4  -3  -2    0.70    0.90
  -4   3   2    1.10    0.60
   3  -3  -2   49.10    2.90
   3  -3  -2   48.70    2.30
  -3   3   2   48.60    2.50
   2  -3  -2  179.98    6.80
   2  -3  -2  174.88    6.30
  -2   3   2  166.78    6.50
   1  -3  -2    4.30    0.50
   1  -3  -2    3.20    0.60
  -1   3   2    3.50    0.60
   0  -3  -2  454.95   15.20
   0   3   2  440.26   15.20
   0   3   2  443.16   15.30
  -1  -3  -2  151.58    5.10
   1   3   2  131.59    5.30
   1   3   2  141.99    5.20
   2   3   2  110.09    4.00
   2   3   2   99.19    3.90
   2   3   2   89.19    4.40
   3   3   2   89.19    4.60
   3   3   2   95.09    3.80
   3   3   2  107.69    4.10
   4   3   2   19.70    1.50
   4   3   2   23.00    2.20
   5   3   2    9.50    1.90
   5   3   2   11.20    1.40
  -6  -3  -2    5.20    1.00
   6   3   2    3.20    1.60
   6   3   2    3.90    1.20
  -7  -3  -2    4.00    1.00
  -7  -3  -2    2.90    1.00
  -7  -3  -2    2.90    0.90
   7   3   2    4.00    0.90
  -8  -3  -2   21.10    2.10
  -8  -3  -2   20.20    1.70
   8   3   2   21.70    1.70
  -9  -3  -2    3.90    0.80
  -9  -3  -2    6.70    1.20
   9   3   2    3.90    0.80
   7  -4  -2   -0.60    0.50
  -7   4   2    0.60    0.70
  -7   4   2   -0.50    0.50
   6  -4  -2    7.30    1.20
   6  -4  -2    6.40    1.20
  -6   4   2    8.60    1.30
  -6   4   2    9.20    1.30
   5  -4  -2   64.99    3.40
   5  -4  -2   65.59    3.30
  -5   4   2   63.99    3.40
  -5   4   2   64.69    3.50
   4  -4  -2   17.40    1.70
   4  -4  -2   12.10    1.40
  -4   4   2   17.10    1.80
  -4   4   2   19.30    2.00
   3  -4  -2   16.20    1.30
   3  -4  -2   18.90    1.80
  -3   4   2   16.00    1.50
   2  -4  -2    0.10    0.50
   2  -4  -2   -0.10    0.30
  -2   4   2    0.40    0.50
   1  -4  -2  194.68    7.00
   1  -4  -2  186.48    7.20
  -1   4   2  203.58    7.40
   0  -4  -2   35.00    1.60
   0   4   2   36.20    2.00
   1   4   2   12.70    1.10
   1   4   2   14.00    1.20
   2   4   2   20.30    1.50
   2   4   2   19.10    1.70
   3   4   2  360.86   13.40
   3   4   2  402.46   14.30
   4   4   2   -0.70    0.80
   5   4   2    0.60    1.10
  -6  -4  -2   19.30    1.70
   6   4   2   11.10    2.30
  -7  -4  -2    0.80    0.70
  -7  -4  -2   -0.50    0.80
  -7  -4  -2   -0.10    0.60
   7   4   2    0.90    0.70
  -8  -4  -2    1.10    0.90
  -8  -4  -2    3.10    1.00
   8   4   2    2.20    0.80
  -9  -4  -2    4.20    1.10
   9   4   2    2.90    0.80
 -10  -4  -2    4.30    0.70
  10   4   2    3.00    0.60
   7  -5  -2    0.90    0.60
  -7   5   2    1.00    0.70
   6  -5  -2   12.90    1.50
   6  -5  -2   14.80    2.00
  -6   5   2   13.20    1.50
   5  -5  -2    3.90    1.00
   5  -5  -2    4.30    1.10
  -5   5   2    4.00    1.00
   4  -5  -2    2.40    0.90
   4  -5  -2    1.40    0.80
   4  -5  -2    0.60    0.70
  -4   5   2    3.60    1.00
   3  -5  -2    1.20    0.70
   3  -5  -2   -0.10    0.60
   3  -5  -2    0.10    0.80
  -3   5   2    0.30    0.70
  -3   5   2   -0.30    0.50
   2  -5  -2    0.10    0.50
   2  -5  -2    0.00    0.50
  -2   5   2   -0.20    0.50
   1  -5  -2  126.99    5.00
  -1   5   2  128.29    5.40
   0  -5  -2   68.29    2.90
   0   5   2   64.89    3.20
   1   5   2  120.39    5.00
   2   5   2    0.70    0.60
   2   5   2    1.40    0.70
   3   5   2    2.70    1.10
   3   5   2    4.00    0.90
   4   5   2   10.00    1.80
   5   5   2   74.29    4.80
  -6  -5  -2   90.69    4.40
  -6  -5  -2   96.99    4.20
  -6  -5  -2   93.59    4.20
  -6  -5  -2   98.49    4.20
   6   5   2   90.49    4.20
  -7  -5  -2   50.19    2.80
  -7  -5  -2   52.29    2.80
  -7  -5  -2   46.50    2.80
   7   5   2   46.60    2.70
  -8  -5  -2   13.60    1.60
  -8  -5  -2   14.40    1.60
  -8  -5  -2   11.00    1.40
   8   5   2   12.00    1.50
  -9  -5  -2    1.30    0.70
  -9  -5  -2    0.20    0.60
   9   5   2    1.10    0.70
   6  -6  -2    0.40    0.60
  -6   6   2    0.50    0.70
   5  -6  -2   14.10    1.60
   5  -6  -2   14.10    1.60
  -5   6   2   12.80    1.50
   4  -6  -2    4.60    1.10
   4  -6  -2    6.40    1.20
   4  -6  -2    6.80    1.20
  -4   6   2    7.70    1.30
   3  -6  -2    3.30    1.00
   3  -6  -2    5.10    1.00
   3  -6  -2    3.10    1.00
   3  -6  -2    4.60    1.10
  -3   6   2    4.20    1.00
   2  -6  -2   74.29    3.60
   2  -6  -2   74.09    3.70
   2  -6  -2   77.09    3.60
   2  -6  -2   76.39    3.50
  -2   6   2   77.19    3.80
   1  -6  -2   -0.70    0.50
   1  -6  -2    0.20    0.50
  -1   6   2    0.90    0.70
   0  -6  -2   14.70    1.40
   0  -6  -2   12.60    1.20
   0   6   2   13.60    1.70
  -1  -6  -2  156.18    6.00
  -1  -6  -2  155.98    5.80
   1   6   2  155.68    6.40
  -2  -6  -2  152.18    5.70
   2   6   2  159.08    6.50
  -3  -6  -2  229.48    8.10
   3   6   2  217.48    8.50
   3   6   2  219.18    8.70
   4   6   2   31.70    3.00
   4   6   2   35.90    2.50
   4   6   2   41.60    2.10
  -5  -6  -2   16.40    1.50
   5   6   2    9.20    2.10
  -6  -6  -2   22.40    1.70
  -6  -6  -2   22.60    1.70
  -6  -6  -2   20.80    1.80
  -6  -6  -2   21.90    1.70
  -7  -6  -2    1.10    0.80
  -7  -6  -2    1.50    0.80
  -7  -6  -2   -0.40    0.60
   7   6   2   -0.60    0.60
  -8  -6  -2   47.60    2.60
  -8  -6  -2   45.60    2.60
  -8  -6  -2   42.60    2.60
   8   6   2   45.50    2.50
  -9  -6  -2    9.20    1.10
  -9  -6  -2    7.90    1.10
  -9  -6  -2    9.80    1.10
   9   6   2    8.30    1.00
   5  -7  -2    3.00    0.70
  -5   7   2    3.20    0.90
   4  -7  -2   27.20    2.10
   4  -7  -2   31.00    2.20
  -4   7   2   29.80    2.10
  -4   7   2   32.70    2.20
   3  -7  -2    1.70    0.80
   3  -7  -2    2.30    0.90
   3  -7  -2    1.00    0.90
   3  -7  -2    2.10    0.90
  -3   7   2    1.20    0.80
  -3   7   2    1.50    0.80
   2  -7  -2    7.60    1.30
   2  -7  -2    7.80    1.40
   2  -7  -2    7.00    1.20
   2  -7  -2    7.70    1.30
  -2   7   2    9.00    1.30
   1  -7  -2    8.60    1.30
   1  -7  -2    6.60    1.10
   1  -7  -2   10.20    1.40
   1  -7  -2   10.50    1.30
   0  -7  -2   31.10    2.10
   0  -7  -2   27.00    1.70
   0  -7  -2   26.10    2.00
   0   7   2   28.80    2.30
  -1  -7  -2   21.40    1.60
  -1  -7  -2   20.40    1.40
   1   7   2   19.20    1.80
   1   7   2   19.90    1.90
  -2  -7  -2   16.60    1.30
   2   7   2   15.70    1.70
   2   7   2   19.30    1.80
  -3  -7  -2    5.80    0.80
   3   7   2    5.00    1.10
   3   7   2    7.60    1.40
  -4  -7  -2   12.30    1.30
   4   7   2   11.90    2.00
   4   7   2    7.80    1.10
  -5  -7  -2  117.29    4.90
  -5  -7  -2  116.29    4.70
  -5  -7  -2  110.79    4.70
  -5  -7  -2  112.69    4.70
  -6  -7  -2   11.10    1.30
  -6  -7  -2   11.60    1.30
  -6  -7  -2   12.60    1.30
  -6  -7  -2   11.40    1.40
  -7  -7  -2    4.30    0.90
  -7  -7  -2    4.20    0.90
  -7  -7  -2    3.50    0.90
   7   7   2    3.10    0.90
  -8  -7  -2    7.70    1.10
  -8  -7  -2    6.30    1.00
   8   7   2    8.60    1.10
  -9  -7  -2   -0.20    0.70
  -9  -7  -2    0.10    0.50
   9   7   2    0.40    0.50
   4  -8  -2    1.60    0.60
  -4   8   2    1.90    0.80
  -4   8   2    1.80    0.70
   3  -8  -2    1.70    0.70
   3  -8  -2    1.50    0.70
  -3   8   2    1.50    0.80
  -3   8   2    2.40    1.10
  -3   8   2    1.80    1.00
   2  -8  -2   22.00    1.90
   2  -8  -2   20.80    1.90
   2  -8  -2   22.20    1.70
   2  -8  -2   22.60    1.80
  -2   8   2   18.90    2.00
  -2   8   2   21.90    2.00
   1  -8  -2   24.00    2.10
   1  -8  -2   18.80    1.70
   1  -8  -2   23.50    2.10
   1  -8  -2   23.30    1.80
  -1   8   2   24.60    2.20
  -1   8   2   17.50    2.00
   0  -8  -2  135.59    5.70
   0  -8  -2  132.89    5.40
   0  -8  -2  133.39    5.50
   0  -8  -2  133.09    5.60
   0   8   2  128.59    5.60
   0   8   2  136.39    6.00
  -1  -8  -2    8.00    1.10
  -1  -8  -2    5.40    1.10
  -1  -8  -2    6.10    1.20
   1   8   2    4.30    1.10
   1   8   2    4.50    1.30
  -2  -8  -2   -0.20    0.50
  -2  -8  -2    0.20    0.60
  -2  -8  -2    0.70    0.70
   2   8   2   -0.50    0.70
   2   8   2    1.30    0.90
  -3  -8  -2   34.80    2.10
  -3  -8  -2   32.30    2.00
   3   8   2   33.70    2.30
  -4  -8  -2   48.50    2.60
  -4  -8  -2   52.09    2.70
   4   8   2   50.69    2.70
  -5  -8  -2    5.50    1.00
  -5  -8  -2    6.70    1.10
  -5  -8  -2    7.80    1.10
  -5  -8  -2    7.20    1.10
  -6  -8  -2   74.99    3.50
  -6  -8  -2   76.59    3.40
  -6  -8  -2   70.09    3.50
  -6  -8  -2   73.09    3.60
  -7  -8  -2   21.90    1.70
  -7  -8  -2   20.10    1.70
  -7  -8  -2   17.50    1.60
   7   8   2   24.10    1.70
  -8  -8  -2    1.70    0.70
  -8  -8  -2    2.50    0.70
  -8  -8  -2    3.00    0.80
   8   8   2    2.80    0.80
  -9  -8  -2   12.90    1.10
  -9  -8  -2   14.80    1.10
   9   8   2   14.00    1.00
   3  -9  -2   -0.70    0.40
  -3   9   2    0.40    0.60
   2  -9  -2    8.60    1.00
  -2   9   2    8.40    1.30
  -2   9   2   10.10    1.50
   1  -9  -2   84.99    3.60
   1  -9  -2   76.89    3.60
  -1   9   2   82.19    4.20
  -1   9   2   82.99    4.20
   0  -9  -2   -0.30    0.60
   0  -9  -2    0.70    0.70
   0   9   2   -0.40    0.90
   0   9   2   -1.40    0.90
  -1  -9  -2   36.70    2.20
  -1  -9  -2   40.60    2.30
   1   9   2   39.00    2.80
   1   9   2   35.00    2.50
  -2  -9  -2   36.50    2.10
   2   9   2   32.60    2.50
   2   9   2   34.50    2.30
  -3  -9  -2    2.40    0.80
  -3  -9  -2    2.40    0.70
   3   9   2    2.10    0.90
  -4  -9  -2   20.80    1.80
  -4  -9  -2   19.20    1.70
   4   9   2   19.90    1.80
  -5  -9  -2   67.99    3.30
  -5  -9  -2   68.49    3.20
  -5  -9  -2   65.79    3.20
  -6  -9  -2    5.60    0.90
  -6  -9  -2    7.20    1.10
  -6  -9  -2    6.30    0.90
  -6  -9  -2    5.30    0.90
  -7  -9  -2   -0.20    0.60
  -7  -9  -2    0.30    0.60
  -7  -9  -2    0.50    0.60
   7   9   2    1.30    0.60
  -8  -9  -2    5.90    0.90
  -8  -9  -2    5.60    0.80
  -8  -9  -2    5.40    0.80
   8   9   2    7.10    0.90
   2 -10  -2    0.20    0.50
  -2  10   2   -0.30    0.50
   1 -10  -2   -0.10    0.50
  -1  10   2    1.10    0.70
  -1  10   2   -0.20    0.70
   0 -10  -2    2.40    0.70
   0  10   2    3.10    1.00
   0  10   2    1.10    0.80
  -1 -10  -2    7.60    1.00
   1  10   2    7.80    1.40
   1  10   2    8.00    1.30
   2  10   2    2.10    1.00
  -3 -10  -2    6.00    0.90
  -3 -10  -2    6.70    1.00
   3  10   2    6.90    1.10
  -4 -10  -2   -0.40    0.60
  -4 -10  -2    0.20    0.60
   4  10   2   -0.20    0.50
  -5 -10  -2    0.60    0.60
  -5 -10  -2   -0.50    0.50
  -6 -10  -2    1.00    0.60
  -6 -10  -2    1.20    0.60
  -7 -10  -2    1.10    0.60
  -7 -10  -2    0.90    0.50
   7  10   2    1.50    0.60
   0  11   2    5.30    0.70
   1  11   2    3.90    0.90
   1  11   2    5.60    0.90
   2  11   2    1.10    0.60
   3  11   2    0.20    0.50
  -4 -11  -2    1.00    0.50
  -4 -11  -2    1.50    0.50
   4  11   2    1.00    0.60
  -5 -11  -2   -0.50    0.40
  -5 -11  -2    0.00    0.40
  -6 -11  -2   12.30    1.00
   6  11   2   13.70    0.90
  -4 -10   3   -0.30    0.40
  -4 -10   3   -0.30    0.40
  -3 -10   3    3.20    0.60
  -3 -10   3    2.60    0.60
  -2 -10   3    3.30    0.60
  -2 -10   3    3.90    0.70
  -1 -10   3   -1.10    0.40
  -1 -10   3   -0.20    0.50
  -6  -9   3    6.60    0.80
  -6  -9   3    5.90    0.70
  -6  -9   3    6.40    0.80
  -5  -9   3   -0.10    0.50
  -5  -9   3   -0.30    0.40
  -5  -9   3    0.00    0.50
  -4  -9   3    0.20    0.50
  -4  -9   3   -0.50    0.60
  -4  -9   3    0.20    0.60
  -3  -9   3    6.10    0.90
  -3  -9   3    7.10    1.00
  -3  -9   3    6.50    1.00
  -2  -9   3    0.10    0.60
  -2  -9   3    0.60    0.60
  -2  -9   3    0.80    0.60
  -1  -9   3    2.10    0.80
  -1  -9   3    1.30    0.70
   0   9  -3   -0.80    0.80
   0  -9   3    1.00    0.50
   0  -9   3    1.30    0.60
   0  -9   3    0.60    0.50
  -1   9  -3   10.50    1.60
   1  -9   3   10.30    1.00
   1  -9   3   10.50    1.00
   7   8  -3   -0.20    0.50
  -7  -8   3   -0.30    0.40
  -7  -8   3    0.00    0.40
  -7  -8   3    0.80    0.40
  -7  -8   3    0.60    0.50
  -6  -8   3   19.70    1.50
  -6  -8   3   22.10    1.50
  -6  -8   3   21.70    1.50
  -6  -8   3   21.10    1.40
  -6  -8   3   22.50    1.50
  -5  -8   3    2.70    0.90
  -5  -8   3    2.20    0.80
  -5  -8   3    2.50    0.80
  -5  -8   3    2.30    0.70
  -4  -8   3   22.70    1.80
  -4  -8   3   23.90    1.80
  -4  -8   3   21.70    1.80
  -4  -8   3   22.70    1.70
  -3  -8   3    8.30    1.20
  -3  -8   3   10.20    1.40
  -3  -8   3    9.90    1.40
  -2  -8   3   34.00    2.20
  -2  -8   3   28.00    2.00
  -2  -8   3   28.60    2.00
  -1  -8   3   43.00    2.40
  -1  -8   3   33.50    2.20
  -1  -8   3   36.80    2.30
   0  -8   3    2.20    0.80
   0  -8   3    4.30    0.90
   0  -8   3    3.80    0.90
   0  -8   3    4.70    1.00
   1  -8   3    5.30    1.00
   1  -8   3    4.00    0.90
   1  -8   3    3.80    0.80
   1  -8   3    3.70    0.80
   1  -8   3    4.10    1.00
   2  -8   3    1.20    0.60
   2  -8   3    1.80    0.60
   2  -8   3    4.20    0.90
   2  -8   3    1.50    0.70
   3  -8   3    0.70    0.40
   3  -8   3   -0.10    0.50
   3  -8   3    1.20    0.90
   3  -8   3    1.50    0.60
   8   7  -3    8.00    1.00
   8   7  -3    5.50    0.70
  -8  -7   3    9.30    0.80
  -8  -7   3   10.50    1.00
  -8  -7   3    9.70    0.90
  -8  -7   3    8.90    0.90
   7   7  -3   -0.30    0.60
  -7  -7   3   -0.30    0.50
  -7  -7   3   -0.20    0.60
  -7  -7   3   -0.10    0.60
  -7  -7   3   -0.60    0.50
   6   7  -3    8.50    1.40
  -6  -7   3    7.90    1.20
  -6  -7   3   10.50    1.20
  -6  -7   3   10.00    1.20
  -6  -7   3    9.00    1.20
  -6  -7   3    9.60    1.20
  -5  -7   3   34.40    2.20
  -5  -7   3   35.00    2.20
  -5  -7   3   33.30    2.20
  -5  -7   3   32.80    2.10
  -5  -7   3   33.80    2.10
  -5  -7   3   38.10    2.30
  -4  -7   3   13.00    1.50
  -4  -7   3    9.80    1.30
  -4  -7   3   10.10    1.40
  -4  -7   3    9.10    1.20
  -3  -7   3    0.10    0.70
  -3  -7   3    0.80    0.70
  -3  -7   3    0.00    0.70
  -3  -7   3    1.20    0.80
  -2  -7   3   17.60    1.60
  -2  -7   3   15.60    1.60
  -2  -7   3   12.60    1.50
  -1  -7   3   18.10    1.60
  -1  -7   3   18.70    1.70
  -1  -7   3   17.40    1.70
  -1  -7   3   14.80    1.50
   0  -7   3   26.90    1.90
   0  -7   3   24.90    1.90
   0  -7   3   22.40    1.80
   0  -7   3   23.00    1.90
   1  -7   3    0.10    0.70
   1  -7   3   -0.30    0.60
   1  -7   3    0.40    0.70
   1  -7   3    1.60    0.80
   1  -7   3    0.30    0.70
   2  -7   3   13.00    1.30
   2  -7   3   13.70    1.50
   2  -7   3   13.70    1.40
   2  -7   3   20.10    1.80
   2  -7   3   14.30    1.40
   3  -7   3    0.40    0.60
   3  -7   3   -0.60    0.50
   3  -7   3    0.60    0.70
   3  -7   3   -0.40    0.40
   3  -7   3    0.30    0.60
   4  -7   3    0.70    0.40
   4  -7   3    0.60    0.60
   4  -7   3    0.70    0.60
   4  -7   3    0.90    0.60
   8   6  -3    6.20    0.90
   8   6  -3    9.50    1.10
  -8  -6   3    9.90    1.10
  -8  -6   3   12.10    1.20
  -8  -6   3   10.50    1.00
  -8  -6   3    9.80    1.00
   7   6  -3    2.90    1.00
   7   6  -3    3.40    1.10
  -7  -6   3    2.90    0.80
  -7  -6   3    2.60    0.70
  -7  -6   3    4.60    1.00
  -7  -6   3    4.30    0.90
   6   6  -3   18.00    2.00
  -6  -6   3   17.50    1.70
  -6  -6   3   20.80    1.80
  -6  -6   3   19.00    1.70
  -6  -6   3   21.30    1.80
  -6  -6   3   20.90    1.90
  -5  -6   3    4.10    1.00
  -5  -6   3    2.90    0.90
  -5  -6   3    2.70    0.90
  -5  -6   3    4.40    1.00
  -5  -6   3    2.70    0.90
  -5  -6   3    2.90    0.90
  -4  -6   3   30.00    2.00
  -4  -6   3   29.10    2.10
  -4  -6   3   27.50    2.00
  -4  -6   3   23.70    1.90
  -4  -6   3   29.10    2.10
  -4  -6   3   29.70    2.00
  -3  -6   3  100.99    4.50
  -3  -6   3  101.79    4.40
  -3  -6   3   99.29    4.30
  -3  -6   3  102.29    4.50
  -2  -6   3   10.80    1.30
  -2  -6   3   10.60    1.40
  -2  -6   3   10.40    1.30
  -1  -6   3  148.19    6.00
  -1  -6   3  145.89    6.00
  -1  -6   3  156.68    6.00
   0  -6   3   14.70    1.50
   0  -6   3   13.80    1.50
   0  -6   3   16.50    1.70
   0  -6   3   14.00    1.50
   1  -6   3    4.00    1.00
   1  -6   3    3.80    0.90
   1  -6   3    4.00    1.00
   1  -6   3    1.90    0.80
   1  -6   3    2.50    0.80
   2  -6   3   16.80    1.70
   2  -6   3   22.30    1.80
   2  -6   3   19.90    1.80
   2  -6   3   18.10    1.80
   2  -6   3   18.10    1.70
   3  -6   3   48.50    2.80
   3  -6   3   50.79    2.70
   3  -6   3   51.99    2.80
   3  -6   3   51.09    2.70
   3  -6   3   50.89    2.70
   4  -6   3   -0.10    0.60
   4  -6   3   -0.30    0.60
   4  -6   3    1.10    0.90
   4  -6   3    1.60    0.60
   4  -6   3    0.30    0.60
   4  -6   3   -0.20    0.50
  -5   6  -3    2.30    0.80
   5  -6   3    1.00    0.50
   5  -6   3    2.30    0.70
   5  -6   3    1.60    0.50
   5  -6   3    0.90    0.60
   8   5  -3    0.20    0.70
   8   5  -3    0.30    0.60
  -8  -5   3    1.60    0.70
  -8  -5   3    1.00    0.60
  -8  -5   3    0.80    0.60
  -8  -5   3    1.10    0.60
   7   5  -3   15.40    1.90
   7   5  -3   13.60    1.50
  -7  -5   3   15.00    1.50
  -7  -5   3   12.20    1.30
  -7  -5   3   20.40    1.90
  -7  -5   3   15.70    1.60
  -7  -5   3   14.50    1.50
   6   5  -3   32.10    2.50
  -6  -5   3   38.40    2.40
  -6  -5   3   41.50    2.50
  -6  -5   3   38.20    2.40
  -6  -5   3   36.70    2.30
  -6  -5   3   35.60    2.20
  -6  -5   3   43.50    2.50
   5   5  -3   63.99    3.90
  -5  -5   3   77.89    3.80
  -5  -5   3   79.69    3.90
  -5  -5   3   79.69    3.70
  -5  -5   3   85.29    3.70
  -5  -5   3   86.19    3.90
  -5  -5   3   82.29    3.90
   4   5  -3  130.99    6.40
  -4  -5   3  138.39    5.80
  -4  -5   3  142.19    5.60
  -4  -5   3  135.29    5.70
  -4  -5   3  143.49    5.70
  -4  -5   3  138.59    5.70
   3   5  -3    3.80    1.10
  -3  -5   3    4.10    0.80
  -3  -5   3    3.10    0.80
   2   5  -3    2.40    1.00
  -2  -5   3    2.00    0.70
   1   5  -3   15.60    1.90
  -1  -5   3   13.60    1.40
   0   5  -3    2.70    1.20
   0  -5   3    1.00    0.60
   0  -5   3    0.90    0.60
   1  -5   3   32.20    2.00
   1  -5   3   33.10    2.00
   1  -5   3   35.00    1.90
   2  -5   3   23.30    1.90
   2  -5   3   20.40    1.60
   2  -5   3   21.00    1.60
   2  -5   3   22.70    1.70
   2  -5   3   19.80    1.80
   3  -5   3   10.70    1.30
   3  -5   3    9.50    1.30
   3  -5   3   11.40    1.40
   3  -5   3   10.20    1.30
   3  -5   3   11.40    1.40
   3  -5   3    9.20    1.40
   4  -5   3   12.90    1.40
   4  -5   3   13.00    1.40
   4  -5   3   10.40    1.30
   4  -5   3   13.10    1.40
   4  -5   3   11.70    1.60
   4  -5   3   13.00    1.40
   5  -5   3    1.80    0.70
   5  -5   3    1.40    0.80
   5  -5   3    0.40    0.60
   5  -5   3    1.60    0.70
   5  -5   3    0.90    0.80
   5  -5   3    1.10    0.60
  -6   5  -3    5.90    1.00
   6  -5   3    6.20    0.80
   6  -5   3    7.00    1.10
   6  -5   3    7.80    1.00
   9   4  -3    7.40    0.90
  -9  -4   3    8.70    0.80
   8   4  -3    6.50    1.10
   8   4  -3    4.90    1.10
  -8  -4   3    6.00    1.00
  -8  -4   3    6.60    0.90
  -8  -4   3    7.00    1.10
   7   4  -3   17.60    1.70
   7   4  -3   15.70    1.80
  -7  -4   3   12.60    1.50
  -7  -4   3   16.90    1.50
  -7  -4   3   14.30    1.60
  -7  -4   3   15.50    1.70
  -7  -4   3   16.50    1.70
   6   4  -3   18.10    1.80
   6   4  -3   18.10    1.90
  -6  -4   3   16.10    1.70
  -6  -4   3   19.10    1.90
  -6  -4   3   17.50    1.70
  -6  -4   3   15.70    1.50
  -6  -4   3   16.10    1.80
  -6  -4   3   15.90    1.70
   5   4  -3   70.29    3.40
  -5  -4   3   62.19    3.10
  -5  -4   3   58.39    3.20
  -5  -4   3   60.99    3.20
  -5  -4   3   66.79    3.20
  -5  -4   3   59.09    3.10
  -5  -4   3   60.09    3.10
  -5  -4   3   57.79    3.20
   4   4  -3    2.20    0.90
  -4  -4   3    2.00    0.90
  -4  -4   3    2.00    0.80
  -4  -4   3    0.90    0.70
   3   4  -3   57.39    3.30
  -3  -4   3   61.99    3.20
  -3  -4   3   57.89    2.80
   2   4  -3  266.77   10.10
  -2  -4   3  272.47    9.70
  -2  -4   3  264.57   10.10
   1   4  -3   47.60    2.70
  -1  -4   3   48.40    2.30
   0   4  -3  112.89    5.00
   0  -4   3  107.29    4.30
   1  -4   3   80.39    3.40
   1  -4   3   82.19    3.40
   2  -4   3    1.70    0.60
   2  -4   3    1.40    0.70
   3  -4   3    4.40    1.20
   3  -4   3    5.10    1.10
   3  -4   3    3.30    0.80
   3  -4   3    4.30    0.90
   3  -4   3    5.10    0.90
   3  -4   3    3.90    0.90
   4  -4   3    0.50    0.60
   4  -4   3    0.80    0.80
   4  -4   3    0.70    0.70
   4  -4   3   -0.20    0.70
   4  -4   3    1.60    0.80
   4  -4   3    0.50    0.90
   5  -4   3   21.40    1.70
   5  -4   3   21.80    1.80
   5  -4   3   18.00    1.60
   5  -4   3   21.70    2.10
   5  -4   3   16.80    1.60
   5  -4   3   16.30    1.50
   6  -4   3    0.60    0.60
   6  -4   3    2.40    0.80
   6  -4   3    0.90    0.60
   6  -4   3    1.00    0.60
   6  -4   3    1.60    1.00
  -7   4  -3    5.60    1.00
   7  -4   3    7.70    0.80
   9   3  -3    2.00    0.60
  -9  -3   3    2.20    0.60
   8   3  -3    4.10    1.00
   8   3  -3    3.70    1.00
  -8  -3   3    3.60    0.90
  -8  -3   3    4.70    0.90
   7   3  -3   37.80    2.40
   7   3  -3   34.70    2.40
  -7  -3   3   31.00    2.30
  -7  -3   3   32.40    2.20
  -7  -3   3   33.30    2.30
  -7  -3   3   37.60    2.30
   6   3  -3   17.30    1.80
  -6  -3   3   22.00    1.90
  -6  -3   3   19.80    1.70
  -6  -3   3   22.00    1.90
  -6  -3   3   13.90    1.60
  -6  -3   3   17.20    1.90
   5   3  -3    3.80    0.90
   5   3  -3    3.80    1.30
  -5  -3   3    2.80    0.90
  -5  -3   3    4.80    0.90
   4   3  -3   65.19    3.70
  -4  -3   3   63.79    3.20
  -4  -3   3   61.39    3.00
   3   3  -3   64.39    3.40
  -3  -3   3   60.89    2.90
  -3  -3   3   69.09    3.20
   2   3  -3  261.27    9.40
   2   3  -3  262.67    9.70
  -2  -3   3  249.88    9.20
  -2  -3   3  262.37    9.50
   1   3  -3  148.09    5.50
   1   3  -3  148.09    5.70
  -1  -3   3  146.79    5.70
  -1  -3   3  135.79    5.40
   0   3  -3   75.49    3.30
   0   3  -3   74.99    3.10
   0  -3   3   69.69    3.30
   0  -3   3   72.39    3.00
  -1   3  -3  188.98    8.20
   1  -3   3  231.58    8.40
   1  -3   3  228.48    7.80
   2  -3   3   27.00    1.60
   2  -3   3   29.10    2.30
   3  -3   3   15.50    1.30
   3  -3   3   13.20    2.10
   3  -3   3   15.60    1.50
   4  -3   3   51.79    2.60
   4  -3   3   50.79    2.60
   4  -3   3   53.79    2.80
   4  -3   3   50.79    3.00
   4  -3   3   51.49    2.60
   4  -3   3   61.59    3.70
   5  -3   3    3.80    0.80
   5  -3   3    2.30    0.90
   5  -3   3    4.10    1.20
   5  -3   3    4.60    1.00
   5  -3   3    4.00    0.90
   5  -3   3    3.70    1.00
   5  -3   3    1.80    1.00
  -6   3  -3   15.40    1.70
   6  -3   3   14.30    1.40
   6  -3   3   13.60    1.40
   6  -3   3   11.60    1.40
   6  -3   3   13.50    1.40
   6  -3   3   10.60    1.30
   6  -3   3   13.20    1.80
  -7   3  -3    1.40    0.80
   7  -3   3    2.40    0.60
   7  -3   3    2.00    1.00
   9   2  -3    2.10    0.70
  -9  -2   3    1.60    0.70
   8   2  -3    0.50    0.70
   8   2  -3   -0.30    0.60
  -8  -2   3    0.20    0.60
  -8  -2   3    0.00    0.70
   7   2  -3    2.70    1.00
   7   2  -3    4.70    1.00
  -7  -2   3    3.80    1.00
  -7  -2   3    2.50    0.90
  -7  -2   3    2.10    0.90
   6   2  -3    7.20    1.40
  -6  -2   3    8.20    1.20
  -6  -2   3    7.90    1.20
  -6  -2   3    7.50    1.30
  -6  -2   3    6.60    1.20
  -6  -2   3    8.30    1.40
   5   2  -3    0.90    0.90
   5   2  -3    1.10    0.60
   5   2  -3    2.20    0.90
  -5  -2   3    0.90    0.70
  -5  -2   3    2.70    0.80
   4   2  -3   29.20    1.70
   4   2  -3   29.90    2.00
   4   2  -3   29.80    2.20
  -4  -2   3   27.30    1.90
   3   2  -3    2.00    0.70
   3   2  -3    1.90    0.70
  -3  -2   3    3.30    0.70
  -3  -2   3    3.30    0.70
   2   2  -3  266.17    9.70
   2   2  -3  271.17    9.90
  -2  -2   3  270.67    9.70
   1   2  -3  107.99    4.30
   1   2  -3  106.49    4.30
  -1  -2   3  106.09    4.20
   0  -2   3   81.99    3.30
   0  -2   3   76.49    3.20
   0  -2   3   74.59    3.40
  -1   2  -3   11.70    1.00
   1  -2   3   15.60    1.50
   1  -2   3   13.40    1.10
   2  -2   3  179.38    7.60
   2  -2   3  187.18    7.00
   3  -2   3    1.00    0.80
   3  -2   3    0.40    0.40
   4  -2   3   20.10    1.40
   4  -2   3   16.40    2.30
   5  -2   3  151.28    5.90
   5  -2   3  148.19    6.20
   5  -2   3  139.89    5.70
   5  -2   3  143.79    5.70
   5  -2   3  149.39    6.40
   5  -2   3  145.49    5.70
   6  -2   3    7.50    1.10
   6  -2   3    7.80    1.30
   6  -2   3    4.40    1.20
   6  -2   3    7.20    1.10
   6  -2   3    6.30    1.00
   6  -2   3    7.90    1.50
  -7   2  -3   -1.20    0.80
   7  -2   3    0.50    0.60
   7  -2   3    0.90    1.10
  -8   2  -3    0.90    0.70
  -8   2  -3   -0.30    0.60
   8  -2   3    0.10    0.40
   9   1  -3   -1.00    0.50
  -9  -1   3    0.20    0.50
  -9  -1   3    0.70    0.60
   8   1  -3    0.60    0.70
   8   1  -3    0.70    0.60
  -8  -1   3   -0.80    0.50
  -8  -1   3    0.40    0.70
   7   1  -3   47.90    2.70
   7   1  -3   47.40    2.70
  -7  -1   3   44.70    2.70
  -7  -1   3   44.80    2.80
   6   1  -3   65.89    3.30
   6   1  -3   65.79    3.20
  -6  -1   3   64.49    3.40
  -6  -1   3   61.79    3.40
   5   1  -3  155.28    6.20
   5   1  -3  159.68    7.10
   5   1  -3  154.88    7.20
  -5  -1   3  166.68    6.60
   4   1  -3    8.70    1.40
   4   1  -3    7.90    0.90
   4   1  -3   11.60    1.50
  -4  -1   3    7.90    1.10
   3   1  -3  178.88    6.90
   3   1  -3  171.98    7.00
   3   1  -3  170.28    6.30
  -3  -1   3  173.48    6.40
  -3  -1   3  175.08    6.60
   2   1  -3  277.97   10.00
   2   1  -3  264.97   10.00
  -2  -1   3  281.87    9.80
   1   1  -3  222.98    8.20
  -1  -1   3  223.98    7.90
  -1  -1   3  225.98    8.20
   0  -1   3    0.80    0.40
   0  -1   3    1.10    0.50
   0  -1   3    1.00    0.60
  -1   1  -3    1.00    0.40
   1  -1   3    0.60    0.70
   1  -1   3    1.40    0.50
   1  -1   3    0.50    0.40
   2  -1   3    2.20    0.90
   2  -1   3    3.40    0.70
   3  -1   3   90.59    4.00
   3  -1   3   94.09    4.60
   4  -1   3   49.30    3.50
   4  -1   3   51.19    2.40
   4  -1   3   53.59    2.40
   5  -1   3   39.80    2.10
   5  -1   3   43.60    2.20
   5  -1   3   38.50    2.20
   5  -1   3   39.00    3.40
   6  -1   3   11.80    1.20
   6  -1   3   21.20    2.30
   6  -1   3   19.20    1.60
   6  -1   3   18.80    2.20
   6  -1   3   19.30    1.60
  -7   1  -3    0.00    0.80
   7  -1   3    1.80    1.20
   7  -1   3    3.20    0.80
   7  -1   3    3.70    1.30
  -8   1  -3    1.40    0.90
   8  -1   3    2.60    1.10
   8  -1   3    3.00    0.70
   8   0  -3   35.90    2.20
  -8   0   3   35.80    2.20
  -8   0   3   35.70    2.20
   7   0  -3   15.50    1.60
   7   0  -3   15.30    1.60
  -7   0   3   19.40    2.00
  -7   0   3   24.00    2.10
   6   0  -3  272.57   10.20
   6   0  -3  274.27   10.20
  -6   0   3  276.57   10.30
  -6   0   3  273.17   10.50
   5   0  -3   22.70    1.60
   5   0  -3   23.00    2.30
   5   0  -3   24.70    2.70
  -5   0   3   20.80    1.80
   4   0  -3 1022.50   35.30
   4   0  -3 1009.30   35.30
   4   0  -3 1037.20   34.40
  -4   0   3 1017.30   34.80
   3   0  -3  127.59    4.70
   3   0  -3  124.19    5.30
   3   0  -3  122.69    5.30
  -3   0   3  126.49    5.00
   2   0  -3  213.38    8.00
  -2   0   3  218.38    7.80
   1   0  -3   33.60    1.90
  -1   0   3   34.20    1.80
  -1   0   3   35.00    1.60
   0   0   3  826.02   26.20
   0   0   3  740.43   26.00
   0   0   3  739.43   25.70
   1   0   3   94.09    4.20
   1   0   3   99.19    3.40
   1   0   3   92.99    3.80
   2   0   3    5.80    1.10
   2   0   3    7.40    1.00
   3   0   3  436.16   15.30
   3   0   3  423.06   15.60
   4   0   3  195.18    8.40
   4   0   3  212.78    8.30
   5   0   3   13.60    1.20
   5   0   3   13.20    2.00
  -6   0  -3   32.40    2.40
   6   0   3   35.00    2.60
   6   0   3   33.70    1.90
   6   0   3   33.60    2.60
   6   0   3   32.80    1.90
  -7   0  -3   32.30    2.40
   7   0   3   33.10    1.90
   7   0   3   34.50    2.70
   7   0   3   30.40    2.60
  -8   0  -3    1.90    0.80
  -8   0  -3    2.40    1.20
   8   0   3    2.70    0.70
   8   0   3    0.80    1.10
  -9   0  -3    0.80    0.50
   9   0   3    0.20    0.40
   8  -1  -3    7.40    1.00
  -8   1   3    5.50    1.00
   7  -1  -3    3.80    0.90
   7  -1  -3    3.20    0.90
  -7   1   3    3.30    1.00
  -7   1   3    5.40    1.10
   6  -1  -3   29.70    2.00
   6  -1  -3   26.40    1.90
  -6   1   3   28.70    2.30
  -6   1   3   29.20    2.00
   5  -1  -3  212.48    9.50
   5  -1  -3  224.08    8.30
  -5   1   3  223.28   10.00
  -5   1   3  225.68    8.70
   4  -1  -3   24.10    2.20
   4  -1  -3   24.30    2.00
  -4   1   3   23.70    1.70
   3  -1  -3  151.88    5.50
   3  -1  -3  144.39    6.20
   3  -1  -3  146.29    6.00
  -3   1   3  146.99    5.70
   2  -1  -3   13.60    1.20
   2  -1  -3   13.30    1.40
  -2   1   3   12.70    1.00
   1  -1  -3 1006.60   33.60
  -1   1   3  976.60   33.50
  -1   1   3  999.90   33.30
   0  -1  -3 1464.15   51.49
   0   1   3 1552.84   51.09
   0   1   3 1479.15   51.39
   0   1   3 1658.63   51.59
   1   1   3   61.89    2.80
   1   1   3   61.99    3.10
   1   1   3   67.89    2.40
   2   1   3   72.59    3.60
   2   1   3   74.29    3.30
   3   1   3   96.69    4.50
   3   1   3  103.69    4.60
   4   1   3    0.50    0.90
   4   1   3    0.60    0.60
   5   1   3  221.88    8.10
   5   1   3  226.18    9.30
   5   1   3  223.98    9.60
  -6  -1  -3    8.80    1.40
   6   1   3    9.60    1.60
   6   1   3   13.40    1.30
   6   1   3    9.80    1.60
  -7  -1  -3   -0.80    0.80
   7   1   3    0.40    0.90
   7   1   3    0.50    0.50
  -8  -1  -3   15.30    1.70
  -8  -1  -3   15.20    1.80
   8   1   3    9.60    1.10
  -9  -1  -3    1.50    0.70
  -9  -1  -3    1.80    0.80
   9   1   3    1.50    0.60
   8  -2  -3    1.70    0.70
  -8   2   3    1.40    0.60
   7  -2  -3    0.60    0.80
   7  -2  -3    0.30    0.70
  -7   2   3   -1.00    0.70
  -7   2   3   -0.60    0.70
   6  -2  -3   12.70    1.40
   6  -2  -3   11.70    1.40
  -6   2   3   11.40    1.60
  -6   2   3   10.40    1.60
   5  -2  -3    7.80    1.10
   5  -2  -3    7.50    1.10
  -5   2   3    7.80    1.30
  -5   2   3    8.00    1.40
   4  -2  -3   47.50    3.30
   4  -2  -3   53.49    2.50
  -4   2   3   46.70    2.70
   3  -2  -3    0.90    0.40
   3  -2  -3    0.30    0.50
   3  -2  -3    0.80    0.60
  -3   2   3    1.40    0.50
   2  -2  -3  191.18    7.50
   2  -2  -3  190.28    7.30
  -2   2   3  198.08    7.20
   1  -2  -3  697.63   24.00
  -1   2   3  676.73   23.80
  -1   2   3  726.93   23.70
   0  -2  -3   30.00    1.70
   0   2   3   32.70    1.50
   0   2   3   32.80    1.70
   1   2   3  194.88    6.90
   1   2   3  164.98    6.90
   1   2   3  193.18    6.40
   2   2   3   76.69    3.60
   2   2   3   78.99    2.70
   2   2   3   73.29    3.50
   3   2   3  495.65   17.60
   3   2   3  496.05   17.90
   4   2   3   45.20    3.20
   4   2   3   42.00    2.60
   5   2   3   12.50    2.20
   5   2   3   12.10    1.80
   6   2   3   28.60    3.40
   6   2   3   24.90    2.80
  -7  -2  -3    1.80    0.90
   7   2   3    2.90    1.10
   7   2   3    4.50    0.90
  -8  -2  -3    2.10    0.90
  -8  -2  -3    3.40    1.10
   8   2   3    2.10    0.70
  -9  -2  -3   -0.50    0.70
  -9  -2  -3    0.40    0.60
   9   2   3   -0.20    0.50
   7  -3  -3    4.40    0.90
  -7   3   3    3.40    1.00
  -7   3   3    3.80    0.90
   6  -3  -3    0.50    0.60
   6  -3  -3    1.60    0.70
  -6   3   3   -0.20    0.70
  -6   3   3   -0.30    0.70
   5  -3  -3   27.90    2.00
   5  -3  -3   27.00    1.90
  -5   3   3   25.50    2.10
  -5   3   3   26.00    2.10
   4  -3  -3   33.10    2.80
   4  -3  -3   33.50    1.90
  -4   3   3   32.40    2.20
   3  -3  -3   11.30    1.60
   3  -3  -3    7.40    0.80
  -3   3   3    9.30    1.20
   2  -3  -3  240.28    8.40
   2  -3  -3  242.48    9.10
  -2   3   3  236.28    8.80
   1  -3  -3   16.80    1.40
  -1   3   3   16.10    1.20
  -1   3   3   16.50    1.20
   0  -3  -3   44.00    2.20
   0   3   3   47.60    2.10
   0   3   3   45.10    2.20
  -1  -3  -3  115.09    4.20
   1   3   3  107.09    4.40
   1   3   3   98.39    4.00
   2   3   3  148.59    5.50
   2   3   3  161.18    5.90
   2   3   3  147.59    6.10
   3   3   3  351.86   12.90
   3   3   3  325.27   12.40
   4   3   3   31.60    2.20
   4   3   3   32.30    2.80
   5   3   3   15.80    2.50
   5   3   3   19.00    1.90
  -6  -3  -3   42.00    2.40
   6   3   3   41.50    3.20
   6   3   3   44.70    4.00
  -7  -3  -3    5.30    1.20
   7   3   3    3.90    1.10
   7   3   3    5.30    1.00
  -8  -3  -3    0.50    0.80
  -8  -3  -3   -0.70    0.60
   8   3   3    0.00    0.60
  -9  -3  -3   -0.50    0.80
  -9  -3  -3   -0.10    0.50
   9   3   3   -0.40    0.50
   7  -4  -3    4.80    0.90
  -7   4   3    7.70    1.20
  -7   4   3    5.20    0.90
   6  -4  -3   13.30    1.50
   6  -4  -3   13.70    1.70
  -6   4   3   14.00    1.80
  -6   4   3   12.10    1.50
   5  -4  -3    1.20    0.70
   5  -4  -3    1.00    0.80
  -5   4   3    0.90    0.80
  -5   4   3    1.70    0.90
   4  -4  -3    1.80    0.80
   4  -4  -3    2.00    0.80
  -4   4   3    1.50    0.80
  -4   4   3    2.30    0.90
   3  -4  -3   19.70    1.40
   3  -4  -3   19.60    2.10
  -3   4   3   18.20    1.60
   2  -4  -3   30.90    1.70
   2  -4  -3   34.10    2.20
  -2   4   3   31.10    2.00
   1  -4  -3   21.50    1.50
  -1   4   3   22.40    1.50
   0  -4  -3   42.90    2.10
   0   4   3   44.80    2.10
   0   4   3   40.70    2.20
  -1  -4  -3    8.50    0.80
   1   4   3    6.90    1.00
   1   4   3    8.20    1.00
  -2  -4  -3  198.88    7.00
   2   4   3  202.88    7.10
   2   4   3  185.38    7.10
   2   4   3  186.88    7.60
   3   4   3   13.50    1.30
   3   4   3   13.10    1.00
   3   4   3   12.00    1.70
   4   4   3  101.79    5.40
   5   4   3   10.20    2.00
   5   4   3   12.00    1.20
  -6  -4  -3   67.49    3.30
   6   4   3   67.79    5.40
  -7  -4  -3   23.70    1.90
  -7  -4  -3   23.20    1.90
  -7  -4  -3   20.90    2.10
   7   4   3   21.10    1.90
  -8  -4  -3   11.80    1.40
  -8  -4  -3    8.80    1.40
   8   4   3   10.10    1.30
  -9  -4  -3    2.70    1.00
   9   4   3    1.60    0.70
   6  -5  -3    1.00    0.90
  -6   5   3    3.50    1.00
   5  -5  -3   15.10    1.60
   5  -5  -3   16.50    1.70
  -5   5   3   13.50    1.70
   4  -5  -3    0.70    0.90
   4  -5  -3    0.80    0.80
  -4   5   3    1.70    0.90
   3  -5  -3    1.60    0.80
   3  -5  -3    0.70    0.80
   3  -5  -3    1.50    0.70
  -3   5   3    1.80    0.70
  -3   5   3    1.70    0.80
   2  -5  -3   57.59    2.80
  -2   5   3   62.89    3.30
   1  -5  -3   26.20    1.60
  -1   5   3   27.30    1.90
   0   5   3   35.00    2.10
   1   5   3  592.04   20.60
   2   5   3   79.69    3.50
   2   5   3   74.69    3.60
   3   5   3   46.30    2.40
   3   5   3   45.00    2.90
   4   5   3   62.49    3.90
  -5  -5  -3   20.40    1.70
   5   5   3   18.20    1.60
   5   5   3   17.40    2.60
  -6  -5  -3  111.99    4.60
  -6  -5  -3  106.49    4.50
  -6  -5  -3  101.49    4.60
   6   5   3  103.89    4.60
  -7  -5  -3   11.50    1.40
  -7  -5  -3   10.40    1.50
  -7  -5  -3   13.50    1.50
   7   5   3    9.50    1.30
  -8  -5  -3    1.20    0.80
  -8  -5  -3    1.00    0.80
  -8  -5  -3    1.10    0.80
   8   5   3   -0.20    0.60
  -9  -5  -3   13.20    1.30
  -9  -5  -3   12.10    1.40
   9   5   3   10.50    1.10
   6  -6  -3    0.10    0.50
  -6   6   3   -0.20    0.60
   5  -6  -3    0.20    0.70
   5  -6  -3    1.80    0.80
  -5   6   3    0.20    0.70
   4  -6  -3   23.60    1.90
   4  -6  -3   23.10    1.90
  -4   6   3   24.40    2.00
  -4   6   3   24.30    2.10
   3  -6  -3    0.80    0.80
   3  -6  -3    2.60    0.90
   3  -6  -3    1.20    0.90
  -3   6   3    0.70    0.80
  -3   6   3   -0.20    0.70
   2  -6  -3    0.40    0.60
   2  -6  -3    1.00    0.70
   2  -6  -3    0.70    0.70
   2  -6  -3    1.20    0.80
  -2   6   3    2.60    0.90
  -2   6   3   -0.20    0.70
  -2   6   3    0.70    0.70
   1  -6  -3  149.59    6.00
   1  -6  -3  135.09    6.90
   1  -6  -3  154.28    6.10
  -1   6   3  143.89    6.60
  -1   6   3  168.48    6.80
  -1   6   3  178.18    6.40
   0  -6  -3    0.90    0.50
   0   6   3    0.10    0.60
   0   6   3    0.30    0.60
   1   6   3   30.90    2.10
   1   6   3   36.20    2.20
   2   6   3  245.18    9.40
   2   6   3  256.77    9.50
   3   6   3   90.69    4.00
   3   6   3   94.09    4.20
   4   6   3   16.70    1.30
  -5  -6  -3  147.49    5.80
   5   6   3  144.49    7.30
   5   6   3  144.09    5.70
  -6  -6  -3    9.80    1.30
  -6  -6  -3    5.20    1.10
  -6  -6  -3    8.80    1.10
  -6  -6  -3    6.10    1.00
   6   6   3    8.70    1.20
  -7  -6  -3   10.20    1.30
  -7  -6  -3   11.30    1.40
  -7  -6  -3   11.40    1.40
   7   6   3   11.20    1.30
  -8  -6  -3    9.40    1.30
  -8  -6  -3    9.70    1.30
  -8  -6  -3    8.20    1.20
   8   6   3    8.90    1.20
  -9  -6  -3    0.30    0.50
  -9  -6  -3    0.30    0.60
  -9  -6  -3    0.10    0.60
   9   6   3    0.00    0.50
   5  -7  -3    2.80    0.70
  -5   7   3    2.00    0.80
   4  -7  -3   -0.10    0.60
   4  -7  -3    0.50    0.70
  -4   7   3   -0.40    0.70
  -4   7   3    0.30    0.80
   3  -7  -3    2.00    0.80
   3  -7  -3    0.40    0.90
  -3   7   3    0.60    0.70
  -3   7   3    1.30    0.90
   2  -7  -3    0.90    0.70
   2  -7  -3    0.50    0.80
   2  -7  -3   -0.80    0.60
   2  -7  -3    0.00    0.80
  -2   7   3    0.00    0.80
  -2   7   3    1.10    0.80
  -2   7   3    0.90    0.90
   1  -7  -3   54.79    2.80
   1  -7  -3   52.39    2.80
   1  -7  -3   50.79    2.70
  -1   7   3   57.59    3.00
  -1   7   3   50.39    3.10
   0  -7  -3    1.70    0.80
   0   7   3    3.80    1.10
   0   7   3    2.20    0.90
   1   7   3   49.99    2.90
   1   7   3   47.00    2.80
   1   7   3   54.19    3.10
   2   7   3    7.10    1.30
   2   7   3    5.90    1.10
   3   7   3   57.99    2.90
   3   7   3   52.59    3.00
  -4  -7  -3    1.10    0.60
  -4  -7  -3    0.60    0.70
   4   7   3    1.60    0.60
  -5  -7  -3    6.20    1.00
  -5  -7  -3    5.80    1.00
  -5  -7  -3    5.50    0.90
  -5  -7  -3    2.20    0.80
   5   7   3    3.70    0.80
  -6  -7  -3  163.48    6.30
  -6  -7  -3  153.48    6.40
  -6  -7  -3  165.48    6.30
  -6  -7  -3  153.08    6.40
   6   7   3  166.68    6.30
  -7  -7  -3    1.80    0.70
  -7  -7  -3    1.70    0.70
  -7  -7  -3    2.50    0.90
   7   7   3    0.80    0.70
  -8  -7  -3    1.90    0.80
  -8  -7  -3    1.90    0.70
   8   7   3    1.70    0.70
  -9  -7  -3    2.10    0.60
  -9  -7  -3    1.50    0.50
  -9  -7  -3    3.40    0.80
   9   7   3    1.80    0.60
   4  -8  -3   21.50    1.40
  -4   8   3   20.00    1.40
  -4   8   3   20.10    1.70
   3  -8  -3    8.70    1.10
   3  -8  -3    4.60    1.20
  -3   8   3    5.90    1.10
  -3   8   3    9.40    1.40
   2  -8  -3   46.60    2.50
   2  -8  -3   44.40    2.40
  -2   8   3   39.90    2.80
  -2   8   3   43.90    2.80
   1  -8  -3    6.60    1.20
  -1   8   3    3.10    1.20
  -1   8   3    4.90    1.20
   0   8   3   20.00    2.20
   0   8   3   21.00    2.20
   1   8   3    0.70    0.90
   1   8   3    1.20    1.20
  -2  -8  -3   15.70    1.40
   2   8   3   14.80    1.80
   2   8   3   13.90    1.60
  -3  -8  -3   45.80    2.50
   3   8   3   52.59    2.80
  -4  -8  -3  105.19    4.60
  -4  -8  -3  115.49    4.60
   4   8   3  107.09    4.60
  -5  -8  -3  111.59    4.60
  -5  -8  -3  106.89    4.50
  -5  -8  -3  110.89    4.60
  -5  -8  -3  101.59    4.60
   5   8   3  104.19    4.50
  -6  -8  -3    1.60    0.70
  -6  -8  -3    0.90    0.60
  -6  -8  -3    0.40    0.70
  -6  -8  -3   -0.10    0.60
  -7  -8  -3   26.70    1.80
  -7  -8  -3   27.00    1.90
  -7  -8  -3   23.80    1.90
   7   8   3   26.30    1.80
  -8  -8  -3    0.20    0.60
  -8  -8  -3    1.70    0.80
  -8  -8  -3    0.20    0.90
   8   8   3    0.90    0.60
  -9  -8  -3    2.60    0.60
  -9  -8  -3    1.60    0.70
   9   8   3    2.80    0.60
   3  -9  -3   23.50    1.40
  -3   9   3   22.10    1.50
   2  -9  -3    0.60    0.60
  -2   9   3   -0.40    0.70
  -2   9   3    1.10    0.80
  -1   9   3   10.60    1.60
  -1   9   3   12.70    1.70
   0   9   3    0.90    0.90
   0   9   3    0.50    0.90
   1   9   3   -0.10    0.90
   1   9   3    0.00    0.80
  -2  -9  -3   88.79    3.80
   2   9   3   89.59    4.40
   2   9   3   91.19    4.10
  -3  -9  -3   71.99    3.30
   3   9   3   70.29    3.50
  -4  -9  -3   45.70    2.50
   4   9   3   44.90    2.50
  -5  -9  -3    1.90    0.80
  -5  -9  -3    1.20    0.70
  -5  -9  -3    1.40    0.70
   5   9   3    1.50    0.70
  -6  -9  -3   10.10    1.20
  -6  -9  -3    9.70    1.20
  -6  -9  -3   10.40    1.20
  -6  -9  -3    9.50    1.20
  -7  -9  -3    9.80    1.20
  -7  -9  -3    9.30    1.10
  -7  -9  -3   10.80    1.20
   7   9   3   10.90    1.20
  -8  -9  -3    6.50    0.80
  -8  -9  -3    6.00    0.90
  -8  -9  -3    5.60    0.80
   8   9   3    7.40    0.90
  -2  10   3    0.20    0.40
  -1  10   3    3.40    0.80
  -1  10   3    2.90    0.80
   0  10   3    4.30    1.00
   0  10   3    3.80    0.90
   1  10   3    2.60    0.90
   1  10   3    2.80    0.90
   2  10   3    3.00    0.80
   2  10   3    2.90    1.00
  -3 -10  -3   -0.10    0.60
   3  10   3   -0.20    0.60
  -4 -10  -3    4.50    0.90
   4  10   3    5.20    1.00
  -5 -10  -3    0.60    0.70
   5  10   3    0.40    0.60
  -6 -10  -3   25.90    1.60
  -6 -10  -3   31.20    1.80
  -6 -10  -3   27.10    1.80
   6  10   3   25.50    1.60
  -7 -10  -3    0.10    0.50
  -7 -10  -3    2.10    0.60
  -7 -10  -3    0.90    0.50
   7  10   3    1.00    0.50
   0  11   3    0.10    0.50
   1  11   3    1.10    0.50
   1  11   3    2.70    0.70
   2  11   3    0.40    0.50
   3  11   3    0.30    0.50
  -4 -11  -3    9.10    0.90
   4  11   3    9.10    1.00
  -5 -11  -3    3.00    0.60
  -6 -11  -3    1.80    0.50
  -5  -9   4   -0.20    0.40
  -5  -9   4   -0.40    0.30
  -5  -9   4    0.10    0.40
  -4  -9   4   -0.70    0.40
  -4  -9   4    1.30    0.50
  -3  -9   4    2.50    0.60
  -3  -9   4    2.50    0.60
  -2  -9   4    1.30    0.50
  -2  -9   4    0.90    0.60
  -1  -9   4    7.70    0.90
  -1  -9   4    6.30    0.80
   0  -9   4    8.60    0.80
   0  -9   4    6.30    0.70
   6   8  -4    5.40    0.80
  -6  -8   4   10.70    0.90
  -6  -8   4    8.50    0.90
  -6  -8   4    8.50    0.90
  -6  -8   4    7.40    0.80
  -5  -8   4   11.60    1.10
  -5  -8   4    8.50    1.10
  -5  -8   4    8.90    1.00
  -4  -8   4    0.70    0.60
  -4  -8   4    0.20    0.50
  -4  -8   4    1.00    0.60
  -4  -8   4    0.80    0.60
  -3  -8   4    3.70    0.90
  -3  -8   4    3.00    0.80
  -3  -8   4    3.30    0.90
  -2  -8   4    1.20    0.70
  -2  -8   4    1.50    0.80
  -2  -8   4    0.10    0.70
  -1  -8   4    4.40    0.90
  -1  -8   4    3.00    0.80
  -1  -8   4    3.30    0.90
   0  -8   4    1.00    0.60
   0  -8   4    1.60    1.10
   0  -8   4    0.10    0.50
   0  -8   4    1.00    0.60
   1  -8   4    0.20    0.50
   1  -8   4    1.00    0.70
   1  -8   4    0.40    0.50
   2  -8   4   10.20    1.00
   2  -8   4    7.20    1.00
   2  -8   4    9.30    1.00
  -7  -7   4   23.90    1.50
  -7  -7   4   26.90    1.50
  -7  -7   4   25.50    1.50
  -7  -7   4   25.80    1.50
   6   7  -4    0.10    0.50
  -6  -7   4    0.90    0.70
  -6  -7   4    0.00    0.60
  -6  -7   4    0.70    0.60
  -6  -7   4    1.20    0.60
  -6  -7   4    1.30    0.60
   5   7  -4    0.50    0.80
  -5  -7   4    0.30    0.60
  -5  -7   4    0.70    0.70
  -5  -7   4    1.20    0.60
  -5  -7   4    1.20    0.60
  -5  -7   4    1.00    0.70
  -5  -7   4    0.40    0.80
  -4  -7   4   21.90    1.80
  -4  -7   4   25.30    1.80
  -4  -7   4   24.30    1.80
  -4  -7   4   23.00    1.70
  -3  -7   4   10.60    1.30
  -3  -7   4   13.20    1.50
  -3  -7   4   14.50    1.60
  -3  -7   4   13.70    1.40
  -2  -7   4    0.30    0.60
  -2  -7   4    0.50    0.70
  -2  -7   4    1.40    0.60
  -1  -7   4    0.30    0.60
  -1  -7   4    0.90    0.70
  -1  -7   4    0.40    0.60
   0  -7   4    1.20    0.70
   0  -7   4    1.00    0.70
   0  -7   4    0.30    0.60
   0  -7   4    2.80    0.90
   1  -7   4    0.90    0.70
   1  -7   4    2.20    0.80
   1  -7   4    1.70    0.70
   1  -7   4    2.90    0.80
   1  -7   4    1.90    0.70
   2  -7   4    0.10    0.70
   2  -7   4   -0.20    0.60
   2  -7   4   -0.50    0.60
   2  -7   4   -0.40    0.50
   2  -7   4    0.80    0.70
   3  -7   4    7.40    1.00
   3  -7   4    5.50    0.90
   3  -7   4    5.20    0.90
   3  -7   4    5.80    0.80
   4  -7   4    0.00    0.50
   4  -7   4   -0.10    0.50
   8   6  -4   -0.80    0.40
  -8  -6   4   -0.30    0.40
  -8  -6   4    0.10    0.50
  -8  -6   4   -0.70    0.40
  -7  -6   4    5.00    0.90
  -7  -6   4    4.60    0.80
  -7  -6   4    4.70    0.80
  -7  -6   4    4.10    0.80
   6   6  -4    0.90    0.70
   6   6  -4    1.00    0.80
  -6  -6   4    2.70    0.90
  -6  -6   4    3.30    1.00
  -6  -6   4    3.10    1.00
  -6  -6   4    5.50    1.00
   5   6  -4    7.90    1.40
  -5  -6   4   11.40    1.40
  -5  -6   4   11.40    1.40
  -5  -6   4   11.00    1.30
  -5  -6   4   12.40    1.50
  -5  -6   4   11.60    1.40
  -5  -6   4   12.80    1.50
  -4  -6   4   24.90    1.90
  -4  -6   4   28.20    1.90
  -4  -6   4   26.00    2.00
  -4  -6   4   30.60    2.10
  -4  -6   4   28.60    1.90
  -4  -6   4   29.20    2.10
  -3  -6   4   93.69    4.20
  -3  -6   4   94.69    4.30
  -3  -6   4   90.99    4.30
  -3  -6   4   93.59    4.20
  -2  -6   4   29.80    2.00
  -2  -6   4   28.10    2.00
  -2  -6   4   26.60    1.90
  -1  -6   4    1.40    0.80
  -1  -6   4    3.00    0.80
  -1  -6   4    1.90    0.80
   0  -6   4  103.59    4.50
   0  -6   4  103.99    4.50
   0  -6   4  105.09    4.60
   0  -6   4  105.99    4.50
   1  -6   4   19.30    1.70
   1  -6   4   20.30    1.70
   1  -6   4   18.20    1.80
   1  -6   4   18.90    1.60
   1  -6   4   16.20    1.60
   2  -6   4   14.70    1.40
   2  -6   4   14.30    1.60
   2  -6   4   10.90    1.30
   2  -6   4   13.10    1.50
   2  -6   4   15.40    1.50
   3  -6   4    5.30    0.90
   3  -6   4    5.50    1.10
   3  -6   4    6.60    1.10
   3  -6   4    3.70    0.70
   3  -6   4    4.60    1.00
   4  -6   4    1.30    0.80
   4  -6   4    0.70    0.50
   4  -6   4    1.00    0.80
   4  -6   4    0.80    0.70
   4  -6   4    1.20    0.70
  -5   6  -4    0.60    0.60
   5  -6   4    0.40    0.50
   5  -6   4   -0.30    0.40
   8   5  -4    1.20    0.70
  -8  -5   4    2.00    0.70
  -8  -5   4    0.90    0.50
  -8  -5   4    1.60    0.60
  -8  -5   4    2.00    0.70
   7   5  -4    7.20    1.30
  -7  -5   4   12.90    1.40
  -7  -5   4   11.60    1.30
  -7  -5   4   10.70    1.20
  -7  -5   4   12.20    1.30
  -7  -5   4   13.00    1.40
   6   5  -4   12.80    1.70
  -6  -5   4   16.90    1.60
  -6  -5   4   15.70    1.60
  -6  -5   4   17.20    1.70
  -6  -5   4   17.70    1.70
  -6  -5   4   14.60    1.60
   5   5  -4    0.00    0.70
  -5  -5   4   -0.30    0.70
  -5  -5   4   -0.20    0.60
  -5  -5   4   -0.90    0.60
  -5  -5   4   -0.40    0.60
  -5  -5   4   -0.40    0.60
  -4  -5   4    0.50    0.70
  -4  -5   4    0.90    0.80
  -4  -5   4    0.50    0.80
  -4  -5   4    1.30    0.70
  -4  -5   4    1.20    0.80
  -3  -5   4   26.60    2.00
  -3  -5   4   27.30    1.90
  -3  -5   4   24.30    1.80
  -3  -5   4   25.90    1.90
  -3  -5   4   25.80    1.90
  -3  -5   4   21.70    1.70
   2   5  -4   12.30    1.70
  -2  -5   4   14.90    1.50
   1   5  -4   63.69    3.90
  -1  -5   4   63.49    3.10
   0  -5   4   53.09    2.70
   0  -5   4   49.40    2.60
   0  -5   4   48.50    2.80
   1  -5   4   25.80    1.80
   1  -5   4   23.70    1.70
   1  -5   4   22.70    1.80
   1  -5   4   28.30    1.80
   1  -5   4   22.80    1.70
   2  -5   4    0.00    0.60
   2  -5   4    0.60    0.70
   2  -5   4   -0.90    0.40
   2  -5   4   -0.40    0.70
   2  -5   4    0.50    0.70
   3  -5   4    3.10    0.90
   3  -5   4    1.20    0.70
   3  -5   4    2.90    0.90
   3  -5   4    2.30    1.00
   3  -5   4    0.90    0.70
   3  -5   4    1.70    0.70
   4  -5   4   26.50    1.80
   4  -5   4   24.60    2.10
   4  -5   4   24.10    1.70
   4  -5   4   25.50    1.90
   4  -5   4   25.60    1.80
   5  -5   4    0.30    0.60
   5  -5   4    0.30    0.70
   5  -5   4   -0.20    0.60
   5  -5   4    0.50    0.60
  -6   5  -4    1.00    0.70
   6  -5   4    0.90    0.50
   6  -5   4    0.70    0.50
   6  -5   4    0.50    0.50
   8   4  -4    0.60    0.70
  -8  -4   4    2.30    0.70
  -8  -4   4    2.20    0.70
  -8  -4   4    2.10    0.70
   7   4  -4   17.90    1.80
  -7  -4   4   19.30    1.80
  -7  -4   4   19.00    1.80
  -7  -4   4   17.50    1.50
  -7  -4   4   14.40    1.60
  -7  -4   4   15.40    1.60
   6   4  -4   45.00    2.70
  -6  -4   4   37.80    2.50
  -6  -4   4   41.80    2.60
  -6  -4   4   40.00    2.50
  -6  -4   4   45.20    2.50
  -6  -4   4   42.90    2.60
   5   4  -4    5.10    1.20
  -5  -4   4    5.40    1.00
  -5  -4   4    4.50    1.00
  -5  -4   4    5.20    1.10
  -5  -4   4    4.50    1.10
  -5  -4   4    5.10    1.10
  -4  -4   4    9.60    1.20
  -4  -4   4    9.70    1.30
  -4  -4   4   12.00    1.40
  -4  -4   4    9.20    1.30
  -4  -4   4    8.90    1.20
   3   4  -4    2.80    1.00
  -3  -4   4    4.30    0.90
  -3  -4   4    2.60    0.80
  -3  -4   4    3.50    1.00
   2   4  -4   87.59    4.40
  -2  -4   4   88.59    4.20
  -2  -4   4   81.79    3.70
   1   4  -4   98.89    4.50
  -1  -4   4   92.59    4.00
   0   4  -4   15.10    1.80
   0  -4   4   15.90    1.20
   0  -4   4   17.70    1.30
   1  -4   4    9.80    1.10
   1  -4   4    9.40    1.10
   2  -4   4    3.20    0.80
   2  -4   4    3.80    0.90
   2  -4   4    4.40    0.90
   3  -4   4    4.50    0.90
   3  -4   4    2.50    0.80
   3  -4   4    2.90    1.00
   3  -4   4    5.40    1.00
   3  -4   4    3.90    0.80
   4  -4   4    2.90    0.80
   4  -4   4    3.60    1.10
   4  -4   4    4.90    1.00
   4  -4   4    4.50    1.00
   5  -4   4   32.10    1.90
   5  -4   4   31.80    2.10
   5  -4   4   29.50    2.00
   5  -4   4   32.10    2.40
   6  -4   4    6.30    0.90
   6  -4   4    7.70    1.00
   6  -4   4    7.40    1.00
   6  -4   4    7.30    1.20
   8   3  -4    3.80    0.90
  -8  -3   4    2.40    0.60
  -8  -3   4    3.10    0.80
  -8  -3   4    2.90    0.80
   7   3  -4   10.90    1.50
   7   3  -4    9.80    1.50
  -7  -3   4    9.20    1.40
  -7  -3   4    8.20    1.20
  -7  -3   4   10.40    1.40
  -7  -3   4   10.50    1.30
   6   3  -4   25.60    2.00
  -6  -3   4   21.90    1.70
  -6  -3   4   21.50    2.00
  -6  -3   4   19.00    1.80
  -6  -3   4   23.10    1.90
  -6  -3   4   24.70    1.90
   5   3  -4   23.40    1.90
  -5  -3   4   20.20    1.90
  -5  -3   4   28.50    2.20
  -5  -3   4   22.00    1.70
  -5  -3   4   24.10    2.20
  -5  -3   4   22.40    1.80
   4   3  -4   92.29    4.00
   4   3  -4   84.69    4.70
  -4  -3   4   83.19    3.80
  -4  -3   4   84.09    4.20
  -4  -3   4   83.29    3.80
   3   3  -4   11.70    1.60
  -3  -3   4    9.10    1.30
  -3  -3   4   11.00    1.20
   2   3  -4   47.30    2.80
  -2  -3   4   48.90    2.30
  -2  -3   4   48.60    2.60
   1   3  -4  158.08    6.30
  -1  -3   4  160.08    6.20
  -1  -3   4  148.29    5.80
   0   3  -4   21.90    1.70
   0  -3   4   24.30    1.40
   1  -3   4  161.98    8.30
   1  -3   4  154.08    5.90
   2  -3   4   73.99    3.20
   2  -3   4   68.69    3.10
   3  -3   4    1.70    0.70
   3  -3   4    0.60    0.50
   3  -3   4    1.70    0.70
   4  -3   4    1.20    0.60
   4  -3   4    0.70    0.60
   4  -3   4    0.50    0.50
   4  -3   4    2.30    1.50
   4  -3   4    0.40    0.70
   5  -3   4    3.20    1.10
   5  -3   4    2.50    0.70
   5  -3   4    3.70    0.90
   5  -3   4    4.30    0.90
   5  -3   4    3.00    1.10
  -6   3  -4   25.40    2.00
   6  -3   4   29.80    1.90
   6  -3   4   29.60    1.90
   6  -3   4   26.30    2.50
   6  -3   4   27.50    1.90
   6  -3   4   32.50    2.30
  -7   3  -4    0.10    0.60
   7  -3   4   -1.10    0.60
   7  -3   4    0.20    0.50
   7  -3   4    0.60    0.60
   8   2  -4    1.30    0.70
  -8  -2   4    1.60    0.70
  -8  -2   4    2.20    0.70
   7   2  -4   16.50    1.70
   7   2  -4   14.20    1.60
  -7  -2   4   18.80    1.90
  -7  -2   4   15.50    1.70
  -7  -2   4   14.50    1.40
  -7  -2   4   17.90    1.60
   6   2  -4    0.00    0.60
  -6  -2   4    0.90    0.80
  -6  -2   4   -0.30    0.70
  -6  -2   4   -0.50    0.60
  -6  -2   4    0.50    0.60
  -6  -2   4    0.10    0.70
  -6  -2   4    0.00    0.60
   5   2  -4    0.40    0.50
  -5  -2   4    1.20    0.70
  -5  -2   4    0.30    0.60
  -5  -2   4   -0.20    0.60
  -5  -2   4    1.10    0.80
  -5  -2   4    0.40    0.70
   4   2  -4    0.10    0.60
   4   2  -4    0.00    0.50
   4   2  -4    0.90    0.80
  -4  -2   4    0.40    0.50
  -4  -2   4    0.60    0.60
   3   2  -4   91.89    4.40
   3   2  -4   88.89    4.20
  -3  -2   4   86.09    4.00
  -3  -2   4   85.89    3.70
   2   2  -4   43.90    2.40
   2   2  -4   43.00    2.60
  -2  -2   4   38.40    2.20
  -2  -2   4   42.20    2.00
   1   2  -4   30.90    2.00
   1   2  -4   29.50    1.90
  -1  -2   4   29.00    1.70
   0  -2   4   13.10    1.20
   0  -2   4   13.00    1.10
   0  -2   4   11.50    1.40
   1  -2   4    1.90    0.60
   1  -2   4    2.00    0.80
   2  -2   4    0.50    0.80
   3  -2   4  134.09    6.90
   3  -2   4  143.59    5.40
   4  -2   4    7.20    1.00
   4  -2   4    5.50    1.90
   4  -2   4    8.30    2.00
   4  -2   4    7.80    1.00
   5  -2   4   38.10    2.70
   5  -2   4   38.60    2.30
   5  -2   4   40.60    2.20
   5  -2   4   39.50    2.30
   5  -2   4   40.40    2.80
   6  -2   4    0.20    0.90
   6  -2   4   -0.40    0.50
   6  -2   4   -0.10    0.80
   6  -2   4    0.20    0.70
   6  -2   4    0.50    0.60
  -7   2  -4    0.00    0.70
   7  -2   4   -0.10    0.50
   7  -2   4    0.90    0.90
   7  -2   4    0.30    0.60
   7  -2   4   -0.70    0.60
  -8   2  -4    9.50    1.10
  -8   2  -4   10.80    1.10
   8  -2   4   10.70    1.00
   8  -2   4   10.40    1.30
   8   1  -4    4.30    0.90
  -8  -1   4    5.50    1.00
  -8  -1   4    3.80    0.90
   7   1  -4    5.50    1.00
   7   1  -4    7.80    1.20
  -7  -1   4    7.80    1.20
  -7  -1   4    7.00    1.20
   6   1  -4   26.20    2.00
   6   1  -4   24.00    1.90
  -6  -1   4   31.10    1.90
  -6  -1   4   28.60    2.30
  -6  -1   4   29.20    1.90
  -6  -1   4   27.50    2.00
   5   1  -4    0.20    0.50
  -5  -1   4    1.80    0.90
  -5  -1   4   -0.70    0.60
  -5  -1   4    0.90    0.70
  -5  -1   4    0.30    0.70
  -5  -1   4    1.50    0.60
   4   1  -4    0.50    0.70
   4   1  -4    0.00    0.40
   4   1  -4   -0.20    0.70
  -4  -1   4    0.70    0.50
   3   1  -4   94.19    3.80
   3   1  -4   95.09    4.60
   3   1  -4   96.69    4.50
  -3  -1   4   97.59    4.20
   2   1  -4   36.70    2.20
   2   1  -4   36.50    2.20
  -2  -1   4   30.30    1.80
   1   1  -4   87.09    4.00
  -1  -1   4   90.49    3.70
  -1  -1   4   92.19    4.00
   0  -1   4  457.65   16.20
   0  -1   4  489.45   16.90
   0  -1   4  477.95   16.60
   1  -1   4   94.49    3.80
   1  -1   4  101.29    4.50
   1  -1   4   95.59    4.20
   2  -1   4   91.29    4.80
   2  -1   4  101.69    4.30
   3  -1   4    0.00    0.80
   4  -1   4   12.30    2.20
   4  -1   4   10.70    1.10
   5  -1   4    0.90    0.60
   5  -1   4    1.00    0.60
   5  -1   4    2.00    1.00
   5  -1   4    1.40    0.50
   5  -1   4    1.80    1.00
   6  -1   4   10.20    1.70
   6  -1   4    8.90    1.10
   6  -1   4    9.80    1.30
   6  -1   4    8.30    1.20
   6  -1   4    9.70    1.60
  -7   1  -4    1.50    0.90
   7  -1   4    4.00    1.20
   7  -1   4    2.20    0.80
   7  -1   4    2.30    0.70
   7  -1   4    2.90    1.20
  -8   1  -4    3.70    0.90
   8  -1   4    3.50    1.10
   8  -1   4    4.80    0.70
   8   0  -4   40.70    2.20
  -8   0   4   38.10    2.10
  -8   0   4   40.30    2.20
   7   0  -4   -0.30    0.60
   7   0  -4   -0.30    0.60
  -7   0   4   -0.10    0.70
  -7   0   4   -0.40    0.70
   6   0  -4   52.79    2.80
   6   0  -4   48.20    2.70
  -6   0   4   51.09    3.10
  -6   0   4   50.79    2.80
   5   0  -4    6.50    1.00
   5   0  -4    8.00    1.10
  -5   0   4    7.00    1.30
  -5   0   4    5.40    1.10
   4   0  -4    7.80    1.00
   4   0  -4    7.60    1.40
   4   0  -4    8.10    1.50
  -4   0   4    5.90    1.00
   3   0  -4   33.80    2.30
   3   0  -4   31.50    2.30
   3   0  -4   33.30    1.70
  -3   0   4   34.60    2.00
   2   0  -4   13.70    1.40
   2   0  -4   12.90    1.50
  -2   0   4   13.90    1.20
   1   0  -4  234.38    9.00
  -1   0   4  240.28    8.90
  -1   0   4  243.78    8.60
   0   0   4    1.60    0.80
   0   0   4    0.80    0.50
   0   0   4    0.60    0.40
   1   0   4  506.95   18.20
   1   0   4  519.55   17.30
   1   0   4  511.95   17.90
   2   0   4   34.00    2.60
   2   0   4   32.50    2.00
   3   0   4    0.70    0.90
   3   0   4    0.50    0.60
   4   0   4  291.97   10.70
   4   0   4  311.97   12.50
   4   0   4  302.97   11.50
   5   0   4   11.50    1.30
   5   0   4   11.20    1.20
   5   0   4   10.20    2.20
  -6   0  -4    2.20    1.00
   6   0   4    0.50    0.60
   6   0   4    3.20    1.20
   6   0   4    2.40    1.20
   6   0   4    0.00    0.40
   6   0   4    1.90    0.80
  -7   0  -4   13.90    1.80
   7   0   4    7.70    1.00
   7   0   4    8.90    1.60
   7   0   4    8.70    1.10
   7   0   4   10.20    1.70
  -8   0  -4   17.10    1.70
   8   0   4   17.20    1.90
   8   0   4   21.40    1.50
  -9   0  -4    6.10    0.80
   9   0   4    7.80    0.80
   8  -1  -4   25.00    1.60
  -8   1   4   21.60    1.60
   7  -1  -4   37.20    2.30
   7  -1  -4   34.00    2.10
  -7   1   4   37.50    2.20
  -7   1   4   35.80    2.40
   6  -1  -4  108.19    4.60
   6  -1  -4  101.59    4.60
  -6   1   4  109.59    5.00
  -6   1   4  103.49    4.60
   5  -1  -4    9.20    1.20
   5  -1  -4    9.10    1.30
  -5   1   4    6.50    1.20
  -5   1   4   10.00    1.30
   4  -1  -4    7.80    1.50
   4  -1  -4    9.50    1.60
   4  -1  -4    9.10    1.10
  -4   1   4    8.40    1.20
   3  -1  -4    2.10    0.50
   3  -1  -4    2.20    0.80
   3  -1  -4    2.10    0.80
  -3   1   4    2.10    0.60
   2  -1  -4   16.20    1.50
   2  -1  -4   13.60    1.30
  -2   1   4   14.20    1.20
   1  -1  -4   42.50    2.50
  -1   1   4   42.10    2.30
  -1   1   4   46.40    2.10
   0  -1  -4   65.99    3.30
   0   1   4   68.09    3.20
   0   1   4   70.49    2.80
   1   1   4   35.10    1.50
   1   1   4   29.70    2.10
   1   1   4   34.80    2.00
   2   1   4    7.50    1.30
   2   1   4    8.30    1.20
   3   1   4  732.93   26.70
   3   1   4  767.22   26.20
   4   1   4    8.50    1.50
   4   1   4    4.30    1.30
   5   1   4   31.20    2.60
   5   1   4   27.50    1.70
   5   1   4   28.70    2.90
  -6  -1  -4   56.19    3.10
   6   1   4   39.30    3.10
   6   1   4   52.09    2.50
   6   1   4   54.39    2.60
   6   1   4   46.30    3.00
   6   1   4   49.30    3.00
  -7  -1  -4    3.50    1.10
   7   1   4    3.00    0.70
   7   1   4    0.40    1.00
   7   1   4    2.00    1.10
   7   1   4    1.00    1.00
  -8  -1  -4    0.40    1.00
  -8  -1  -4    0.40    0.70
   8   1   4    0.50    0.50
  -9  -1  -4   -0.20    0.80
  -9  -1  -4    0.60    0.50
   9   1   4    0.00    0.50
   8  -2  -4    3.70    0.80
  -8   2   4    5.20    0.80
   7  -2  -4   31.60    2.00
   7  -2  -4   31.90    2.00
  -7   2   4   33.30    2.20
   6  -2  -4   10.80    1.30
   6  -2  -4   12.70    1.50
  -6   2   4   10.00    1.70
  -6   2   4    9.60    1.50
   5  -2  -4    9.30    1.20
   5  -2  -4    6.20    1.00
  -5   2   4    7.10    1.30
  -5   2   4    8.20    1.60
   4  -2  -4    5.90    1.50
   4  -2  -4    5.80    0.90
  -4   2   4    6.60    1.20
   3  -2  -4  233.38    9.30
   3  -2  -4  229.78    9.00
   3  -2  -4  230.78    8.20
  -3   2   4  221.38    8.70
   2  -2  -4  147.29    5.90
   2  -2  -4  150.78    6.20
  -2   2   4  136.59    5.60
   1  -2  -4  155.38    6.30
  -1   2   4  156.58    6.20
  -1   2   4  158.28    5.90
   0  -2  -4  195.18    7.60
   0   2   4  194.68    7.60
   0   2   4  208.88    7.20
   1   2   4   64.99    3.40
   1   2   4   72.99    2.80
   1   2   4   75.49    3.30
   2   2   4   33.70    2.20
   2   2   4   35.40    2.30
   3   2   4   13.50    1.80
   3   2   4   12.00    1.60
   4   2   4   78.29    4.30
   4   2   4   75.09    4.30
   5   2   4    9.10    1.80
   5   2   4    9.40    1.10
   5   2   4    6.40    1.60
   6   2   4    0.60    0.90
   6   2   4    0.90    0.60
   6   2   4    0.60    0.60
   6   2   4    1.40    1.00
  -7  -2  -4    6.40    1.30
   7   2   4    4.80    1.30
   7   2   4    4.40    0.80
  -8  -2  -4    0.10    0.70
  -8  -2  -4    1.80    1.00
   8   2   4    1.30    0.60
   8   2   4    1.10    1.00
  -9  -2  -4    1.20    0.80
  -9  -2  -4    1.00    0.50
   9   2   4    2.10    0.60
   7  -3  -4    7.00    1.00
  -7   3   4    5.70    1.00
  -7   3   4    8.20    1.30
   6  -3  -4    1.40    0.70
   6  -3  -4    1.00    0.60
  -6   3   4   -0.10    0.90
  -6   3   4    3.10    0.90
   5  -3  -4    1.10    0.80
   5  -3  -4    1.20    0.60
  -5   3   4    0.80    1.00
  -5   3   4    2.30    0.90
   4  -3  -4    3.70    0.90
   4  -3  -4    3.80    0.80
  -4   3   4    5.30    1.30
  -4   3   4    3.40    1.00
   3  -3  -4   -0.90    0.70
   3  -3  -4    0.50    0.40
  -3   3   4    0.50    0.60
   2  -3  -4    1.00    0.70
  -2   3   4    1.10    0.50
   1  -3  -4  313.37   11.70
  -1   3   4  314.27   11.50
  -1   3   4  325.67   11.40
   0  -3  -4   62.39    3.00
   0   3   4   62.99    2.70
   0   3   4   63.59    3.10
  -1  -3  -4 1231.88   41.60
   1   3   4 1291.37   41.80
   1   3   4 1175.58   41.20
   2   3   4   51.89    2.10
   2   3   4   53.39    2.80
   2   3   4   49.99    2.90
   3   3   4    0.10    0.70
   3   3   4   -0.30    0.60
   4   3   4  248.18   10.40
   4   3   4  273.17   10.70
   5   3   4   31.20    2.80
   5   3   4   33.70    1.90
   5   3   4   34.30    3.00
  -6  -3  -4    1.60    1.40
   6   3   4    1.00    0.90
   6   3   4    2.40    0.80
   6   3   4    1.00    0.90
   6   3   4    2.10    0.70
  -7  -3  -4    9.30    1.50
   7   3   4    8.10    1.10
   7   3   4    6.90    1.50
  -8  -3  -4    1.20    0.70
  -8  -3  -4    2.80    1.00
   8   3   4    1.50    0.60
  -9  -3  -4   -0.50    0.60
  -9  -3  -4   -0.60    0.50
   9   3   4   -0.30    0.50
   7  -4  -4    4.10    0.80
  -7   4   4    4.90    1.00
  -7   4   4    4.20    0.80
   6  -4  -4   -0.20    0.60
   6  -4  -4    0.10    0.70
  -6   4   4    0.50    0.60
  -6   4   4    1.20    0.90
   5  -4  -4    1.80    0.90
   5  -4  -4    1.70    0.80
  -5   4   4    2.50    1.10
  -5   4   4    0.80    0.80
   4  -4  -4   32.70    2.10
   4  -4  -4   29.50    2.00
  -4   4   4   27.50    2.30
  -4   4   4   27.20    2.10
   3  -4  -4   37.00    2.80
   3  -4  -4   37.00    2.10
  -3   4   4   39.10    2.50
   2  -4  -4   12.60    1.60
  -2   4   4    8.60    1.20
   1  -4  -4   13.60    1.50
  -1   4   4   12.10    1.30
   0  -4  -4  249.28    9.60
   0   4   4  282.57    9.70
   0   4   4  251.57    9.50
  -1  -4  -4  195.78    7.30
   1   4   4  191.18    7.50
   1   4   4  193.48    7.20
  -2  -4  -4  139.19    5.30
   2   4   4  130.89    5.10
   2   4   4  129.29    5.70
   2   4   4  136.39    5.50
   3   4   4    3.10    1.10
   3   4   4    2.10    0.70
   4   4   4    0.60    0.70
   4   4   4    0.70    0.80
   5   4   4   71.89    3.20
   5   4   4   69.59    4.40
  -6  -4  -4   59.19    3.00
  -6  -4  -4   65.19    3.10
  -6  -4  -4   54.09    3.10
   6   4   4   61.59    2.90
   6   4   4   52.49    3.10
   6   4   4   61.19    2.90
  -7  -4  -4   27.80    2.10
  -7  -4  -4   25.40    2.10
  -7  -4  -4   29.70    2.00
   7   4   4   24.30    1.90
  -8  -4  -4    8.80    1.20
  -8  -4  -4    7.90    1.30
   8   4   4    6.20    1.00
  -9  -4  -4   16.10    1.60
   9   4   4   14.10    1.30
   6  -5  -4    1.20    0.70
  -6   5   4    2.60    0.90
   5  -5  -4    4.60    1.00
   5  -5  -4    3.70    0.90
  -5   5   4    5.70    1.30
  -5   5   4    5.20    1.00
   4  -5  -4    6.90    1.10
   4  -5  -4    4.00    1.10
  -4   5   4    5.20    1.20
   3  -5  -4    1.00    0.70
  -3   5   4    0.20    1.00
  -3   5   4   -0.70    0.60
  -2   5   4    9.30    1.90
  -2   5   4    7.60    1.20
  -1   5   4  226.38    8.80
   0   5   4    7.80    1.20
   1   5   4   21.60    1.60
   2   5   4   13.40    1.20
   2   5   4   11.90    1.50
   3   5   4    5.30    1.20
   4   5   4   12.80    1.90
   4   5   4   10.20    1.10
  -5  -5  -4   16.90    1.60
   5   5   4   15.40    1.50
   5   5   4   16.80    2.40
  -6  -5  -4    7.00    1.10
  -6  -5  -4    8.50    1.20
  -6  -5  -4    6.40    1.10
   6   5   4    7.30    1.00
   6   5   4    7.00    1.00
  -7  -5  -4    2.10    0.80
  -7  -5  -4    3.00    1.00
  -7  -5  -4    2.10    0.80
   7   5   4    2.10    0.70
  -8  -5  -4   28.90    2.10
  -8  -5  -4   30.50    2.10
  -8  -5  -4   30.50    2.10
   8   5   4   30.70    1.90
  -9  -5  -4    5.20    1.00
  -9  -5  -4    5.20    0.90
   9   5   4    3.60    0.70
   6  -6  -4    1.40    0.90
  -6   6   4    3.10    0.80
   5  -6  -4    4.20    0.90
  -5   6   4    1.40    1.00
   4  -6  -4    4.50    1.00
   4  -6  -4    5.70    1.10
  -4   6   4    4.00    1.10
   3  -6  -4   19.60    2.70
  -3   6   4   17.40    1.90
  -3   6   4   15.80    1.80
  -2   6   4    8.20    1.40
  -2   6   4    5.60    1.20
  -1   6   4   11.60    1.50
  -1   6   4   14.20    1.80
  -1   6   4   14.00    1.70
   0   6   4   11.10    1.50
   0   6   4   12.10    1.50
   1   6   4   10.70    1.40
   1   6   4    9.30    1.30
   2   6   4   28.40    1.90
   2   6   4   24.30    1.70
   3   6   4   45.80    2.40
  -4  -6  -4   22.60    1.80
   4   6   4   29.60    1.70
   4   6   4   27.90    2.40
  -5  -6  -4   95.69    4.30
  -5  -6  -4  100.19    4.40
  -5  -6  -4   99.49    4.40
   5   6   4  113.09    7.40
   5   6   4   99.09    4.30
  -6  -6  -4   39.00    2.30
  -6  -6  -4   43.50    2.60
  -6  -6  -4   44.10    2.50
   6   6   4   46.30    2.50
  -7  -6  -4    0.40    0.80
  -7  -6  -4   -0.40    0.60
  -7  -6  -4   -0.10    0.70
   7   6   4    0.70    0.60
  -8  -6  -4   73.99    3.50
  -8  -6  -4   75.39    3.60
  -8  -6  -4   71.09    3.50
   8   6   4   75.29    3.40
  -9  -6  -4    1.10    0.60
  -9  -6  -4    1.30    0.70
  -9  -6  -4    0.40    0.60
   9   6   4    2.10    0.60
  -5   7   4   -0.60    0.60
   4  -7  -4    2.10    0.80
  -4   7   4    2.50    1.00
  -3   7   4   -1.00    0.70
  -3   7   4   -0.30    0.70
  -2   7   4    0.20    0.80
  -2   7   4   -0.20    0.80
  -1   7   4    0.50    0.80
  -1   7   4    1.80    1.00
  -1   7   4    1.90    0.90
   0   7   4   17.50    1.90
   0   7   4   19.20    2.00
   1   7   4   23.60    2.10
   1   7   4   27.30    2.10
   1   7   4   26.30    2.20
   2   7   4    7.80    1.20
   2   7   4    7.20    1.10
   2   7   4    5.40    1.10
  -3  -7  -4   28.70    1.90
   3   7   4   28.60    1.80
   3   7   4   28.60    1.90
  -4  -7  -4   53.39    2.80
  -4  -7  -4   52.69    2.80
  -4  -7  -4   53.09    2.70
   4   7   4   53.99    2.70
  -5  -7  -4    4.40    1.00
  -5  -7  -4    5.70    1.00
  -5  -7  -4    5.90    1.00
   5   7   4    4.90    0.90
  -6  -7  -4   27.70    2.00
  -6  -7  -4   28.20    1.90
  -6  -7  -4   25.10    1.90
   6   7   4   27.50    1.90
  -7  -7  -4   12.80    1.40
  -7  -7  -4   15.80    1.40
  -7  -7  -4   16.90    1.70
   7   7   4   19.10    1.60
  -8  -7  -4   11.90    1.30
  -8  -7  -4    9.80    1.30
  -8  -7  -4   11.30    1.30
   8   7   4   11.60    1.20
  -9  -7  -4    8.80    0.90
  -9  -7  -4    9.70    1.10
  -9  -7  -4    8.80    1.00
   9   7   4   10.50    1.00
  -4   8   4    5.80    1.10
  -3   8   4    0.60    0.80
  -3   8   4    0.50    0.60
  -2   8   4    4.10    1.00
  -2   8   4    4.30    1.20
  -1   8   4    7.40    1.40
  -1   8   4    9.60    1.50
   0   8   4    5.70    1.30
   0   8   4    4.10    1.10
   1   8   4   92.19    4.40
   1   8   4   97.79    4.60
  -2  -8  -4  129.09    5.40
   2   8   4  135.79    5.70
   2   8   4  136.99    5.60
  -3  -8  -4   65.49    3.30
   3   8   4   74.19    3.30
   3   8   4   69.89    3.40
  -4  -8  -4   34.10    2.10
  -4  -8  -4   31.50    2.10
   4   8   4   31.20    2.10
  -5  -8  -4   10.00    1.30
  -5  -8  -4    9.40    1.20
  -5  -8  -4   11.10    1.40
   5   8   4   12.00    1.30
  -6  -8  -4   25.10    1.90
  -6  -8  -4   22.40    1.70
  -6  -8  -4   25.40    1.90
   6   8   4   22.70    1.60
  -7  -8  -4    5.10    0.90
  -7  -8  -4    5.00    1.10
  -7  -8  -4    5.50    1.00
   7   8   4    6.50    1.20
  -8  -8  -4   -0.40    0.70
  -8  -8  -4    0.00    0.60
   8   8   4    1.00    0.60
  -9  -8  -4    0.90    0.50
  -9  -8  -4    0.40    0.60
   9   8   4    1.40    0.50
  -3   9   4    0.20    0.40
  -2   9   4    4.60    0.90
  -1   9   4    5.60    1.10
  -1   9   4    3.50    1.00
   0   9   4  101.79    4.60
   0   9   4  100.89    4.60
   1   9   4   36.60    2.40
   1   9   4   35.40    2.50
  -2  -9  -4   38.60    2.20
   2   9   4   40.40    2.30
   2   9   4   38.50    2.50
  -3  -9  -4   11.40    1.20
   3   9   4    9.00    1.20
   3   9   4    8.30    1.20
  -4  -9  -4   12.00    1.30
   4   9   4   11.50    1.30
  -5  -9  -4    5.10    0.90
  -5  -9  -4    4.70    0.90
   5   9   4    5.30    1.00
  -6  -9  -4    0.60    0.70
  -6  -9  -4   -0.50    0.60
  -6  -9  -4    1.10    0.70
   6   9   4    0.00    0.50
  -7  -9  -4   18.50    1.50
  -7  -9  -4   18.50    1.50
  -7  -9  -4   20.70    1.60
  -8  -9  -4   17.00    1.30
  -8  -9  -4   16.60    1.20
  -8  -9  -4   18.40    1.40
  -1  10   4    3.80    0.80
  -1  10   4    3.90    1.20
   0  10   4    1.60    0.80
   0  10   4    2.80    0.90
   1  10   4   -0.20    0.60
   1  10   4    1.10    0.70
   2  10   4   -0.40    0.70
   2  10   4   -0.10    0.60
  -3 -10  -4    0.50    0.60
   3  10   4    0.20    0.70
  -4 -10  -4    7.80    1.10
   4  10   4    8.90    1.10
  -5 -10  -4    1.20    0.70
   5  10   4    2.00    0.70
  -6 -10  -4   -0.90    0.60
  -6 -10  -4    0.70    0.60
  -7 -10  -4    5.40    0.80
  -7 -10  -4    6.30    0.80
  -7 -10  -4    4.00    0.70
   0  11   4    3.50    0.60
   1  11   4    6.40    0.80
   1  11   4    6.00    0.80
   2  11   4    1.10    0.50
   2  11   4    1.90    0.60
  -3 -11  -4    0.20    0.60
   3  11   4   -0.50    0.50
  -4 -11  -4    2.60    0.70
   4  11   4    1.50    0.60
  -5 -11  -4    0.80    0.50
  -6 -11  -4    0.60    0.50
  -5  -8   5    7.30    0.80
  -5  -8   5    8.70    0.80
  -4  -8   5    8.40    0.80
  -4  -8   5    8.40    0.90
  -3  -8   5    0.80    0.60
  -3  -8   5    2.80    0.70
  -2  -8   5    0.10    0.60
  -2  -8   5    0.40    0.60
  -1  -8   5    0.10    0.60
  -1  -8   5   -0.60    0.50
   0  -8   5    0.30    0.50
   0  -8   5    0.50    0.40
   1  -8   5    0.00    0.40
   1  -8   5    0.40    0.50
  -6  -7   5   20.30    1.30
  -6  -7   5   20.70    1.30
  -6  -7   5   19.50    1.20
  -6  -7   5   20.20    1.30
  -5  -7   5    0.40    0.50
  -5  -7   5   -0.30    0.40
  -5  -7   5    1.00    0.60
  -4  -7   5    1.10    0.80
  -4  -7   5    1.20    0.70
  -4  -7   5    1.10    0.70
  -3  -7   5    2.30    0.80
  -3  -7   5    2.70    0.80
  -3  -7   5    2.70    0.80
  -3  -7   5    1.40    0.70
  -2  -7   5   30.50    2.00
  -2  -7   5   31.30    2.10
  -2  -7   5   37.00    2.10
  -1  -7   5    2.80    0.80
  -1  -7   5    3.80    0.90
  -1  -7   5    2.70    0.80
   0  -7   5    6.60    1.00
   0  -7   5    4.80    0.90
   0  -7   5    5.10    0.90
   1  -7   5    0.00    0.50
   1  -7   5    0.30    0.70
   1  -7   5    0.20    0.60
   2  -7   5    0.40    0.70
   2  -7   5   -0.20    0.60
   2  -7   5   -0.60    0.50
   2  -7   5    1.00    0.60
   3  -7   5    0.40    0.40
   3  -7   5    0.50    0.50
  -7  -6   5    2.70    0.60
  -7  -6   5    3.10    0.60
  -7  -6   5    1.50    0.60
  -7  -6   5    2.60    0.60
  -6  -6   5    5.70    0.90
  -6  -6   5    7.90    1.00
  -6  -6   5    6.80    1.00
  -6  -6   5    6.50    1.00
  -5  -6   5   10.40    1.30
  -5  -6   5    9.80    1.20
  -5  -6   5    9.10    1.20
  -5  -6   5   10.40    1.40
  -4  -6   5    0.30    0.60
  -4  -6   5   -0.30    0.60
  -4  -6   5   -0.70    0.60
  -4  -6   5   -0.20    0.70
  -4  -6   5    0.60    0.60
  -3  -6   5   29.40    2.00
  -3  -6   5   27.00    1.90
  -3  -6   5   24.90    1.90
  -2  -6   5   98.89    4.20
  -2  -6   5   96.29    4.40
  -2  -6   5   97.09    4.30
  -1  -6   5    9.40    1.30
  -1  -6   5   13.50    1.40
  -1  -6   5   11.80    1.40
   0  -6   5   11.10    1.30
   0  -6   5   10.20    1.20
   1  -6   5   26.80    1.90
   1  -6   5   26.50    1.90
   2  -6   5    1.30    0.70
   2  -6   5    1.80    0.80
   2  -6   5    3.20    0.80
   3  -6   5   -0.10    0.60
   3  -6   5    0.90    0.70
   3  -6   5    0.80    0.60
   4  -6   5    0.10    0.50
   4  -6   5    0.50    0.50
   4  -6   5   -0.40    0.50
  -7  -5   5    2.20    0.60
  -7  -5   5    2.20    0.70
  -7  -5   5    1.80    0.70
  -7  -5   5    1.30    0.60
  -7  -5   5    2.10    0.70
   6   5  -5    4.60    1.10
  -6  -5   5    5.50    1.00
  -6  -5   5    4.80    0.90
  -6  -5   5    6.00    1.00
  -6  -5   5    4.20    1.00
  -6  -5   5    4.10    0.90
   5   5  -5    9.40    1.40
  -5  -5   5    6.20    1.10
  -5  -5   5    6.60    1.10
  -5  -5   5    6.80    1.10
  -5  -5   5    6.90    1.10
  -4  -5   5    2.60    1.00
  -4  -5   5    4.30    1.00
  -4  -5   5    3.20    0.90
  -4  -5   5    4.60    0.90
  -4  -5   5    2.40    0.90
  -3  -5   5  109.59    4.70
  -3  -5   5  114.59    4.70
  -3  -5   5  109.19    4.70
  -3  -5   5  112.19    4.90
  -3  -5   5  109.89    4.80
  -2  -5   5   -0.70    0.60
  -2  -5   5    0.20    0.80
  -2  -5   5    0.50    0.60
  -1  -5   5   14.60    1.50
  -1  -5   5   13.40    1.50
   0  -5   5   14.60    1.50
   0  -5   5   11.30    1.30
   1  -5   5    0.50    0.70
   1  -5   5    0.30    0.70
   1  -5   5   -0.90    0.60
   2  -5   5   22.00    2.00
   2  -5   5   23.00    1.90
   2  -5   5   22.60    1.80
   3  -5   5    9.70    1.20
   3  -5   5   11.10    1.40
   3  -5   5   12.10    1.50
   3  -5   5   10.40    1.30
   4  -5   5    2.00    0.80
   4  -5   5    1.40    0.90
   4  -5   5    0.80    0.70
   4  -5   5    2.50    0.80
   5  -5   5    0.80    0.60
   5  -5   5    1.90    0.60
   5  -5   5    1.40    0.70
   5  -5   5    1.30    0.60
   8   4  -5   18.20    1.50
  -8  -4   5   22.30    1.30
  -8  -4   5   20.40    1.30
  -8  -4   5   18.10    1.80
   7   4  -5    0.60    0.80
  -7  -4   5   -0.30    0.60
  -7  -4   5    0.80    0.60
  -7  -4   5    0.00    0.60
  -7  -4   5    0.10    0.60
  -7  -4   5    0.60    0.70
   6   4  -5    2.30    0.90
  -6  -4   5    0.60    0.70
  -6  -4   5    1.60    0.70
  -6  -4   5    1.80    0.80
  -6  -4   5    1.10    0.60
  -6  -4   5    1.20    0.70
   5   4  -5   13.60    1.70
  -5  -4   5   12.20    1.50
  -5  -4   5    7.10    1.10
  -5  -4   5   10.40    1.40
  -5  -4   5    8.60    1.30
  -5  -4   5    8.40    1.30
   4   4  -5   57.39    3.10
  -4  -4   5   48.70    2.80
  -4  -4   5   52.29    2.90
  -4  -4   5   51.59    2.80
  -4  -4   5   54.99    2.90
  -4  -4   5   50.99    2.90
  -4  -4   5   54.29    2.90
  -3  -4   5   15.20    1.60
  -3  -4   5   14.40    1.40
  -3  -4   5   13.70    1.40
  -3  -4   5   15.00    1.50
  -3  -4   5   19.20    1.70
   2   4  -5    6.80    1.50
  -2  -4   5    8.00    1.00
  -2  -4   5    9.10    1.70
  -2  -4   5    9.60    1.30
   1   4  -5    0.20    0.70
  -1  -4   5    0.60    0.60
   0  -4   5    1.10    0.60
   1  -4   5    9.70    1.20
   1  -4   5   10.50    1.20
   1  -4   5    9.70    1.40
   2  -4   5    4.30    0.90
   2  -4   5    5.80    1.00
   2  -4   5    4.20    0.90
   3  -4   5   75.29    3.50
   3  -4   5   71.49    3.40
   3  -4   5   74.99    3.50
   3  -4   5   73.39    3.80
   4  -4   5    6.50    1.00
   4  -4   5    4.30    1.00
   4  -4   5    4.00    1.00
   4  -4   5    2.30    1.00
   5  -4   5    8.00    1.00
   5  -4   5    6.80    1.00
   5  -4   5    8.40    1.30
   5  -4   5    9.10    1.10
   6  -4   5    4.40    0.80
   6  -4   5    3.90    0.70
   6  -4   5    3.30    0.90
   6  -4   5    2.80    0.70
   8   3  -5    0.90    0.60
  -8  -3   5   -0.50    0.40
  -8  -3   5    1.10    0.60
   7   3  -5    1.80    0.80
   7   3  -5    0.30    0.70
  -7  -3   5    0.10    0.70
  -7  -3   5    1.20    0.70
  -7  -3   5    0.20    0.60
  -7  -3   5    0.80    0.60
   6   3  -5    0.30    0.70
  -6  -3   5    1.10    0.80
  -6  -3   5    0.60    0.70
  -6  -3   5    0.40    0.60
  -6  -3   5    1.20    0.60
  -6  -3   5    0.40    0.70
   5   3  -5    7.00    1.20
  -5  -3   5    7.80    1.30
  -5  -3   5    6.10    1.00
  -5  -3   5    8.80    1.20
  -5  -3   5    7.90    1.30
  -5  -3   5   10.20    1.40
   4   3  -5    2.90    0.90
  -4  -3   5    2.70    0.80
  -4  -3   5    3.60    1.00
  -4  -3   5    4.10    1.00
  -4  -3   5    2.50    0.90
  -4  -3   5    3.90    0.90
   3   3  -5  152.48    7.00
  -3  -3   5  151.08    6.00
  -3  -3   5  157.68    6.00
  -3  -3   5  150.78    6.50
   2   3  -5   16.90    2.00
  -2  -3   5   12.50    1.60
  -2  -3   5   15.60    1.40
   1   3  -5   31.60    2.30
  -1  -3   5   33.00    2.20
  -1  -3   5   33.70    2.00
   1  -3   5    1.30    0.60
   2  -3   5   41.50    2.20
   2  -3   5   41.20    2.30
   3  -3   5    6.40    1.00
   3  -3   5    5.60    1.10
   3  -3   5    5.50    1.00
   3  -3   5    6.90    1.10
   4  -3   5   89.19    4.40
   4  -3   5   92.09    4.10
   4  -3   5   86.09    4.00
   4  -3   5   95.19    5.60
   4  -3   5   96.09    4.10
   5  -3   5    2.90    1.00
   5  -3   5    2.40    1.00
   5  -3   5    4.60    1.00
   5  -3   5    4.20    0.90
   5  -3   5    5.10    1.00
  -6   3  -5    2.50    0.80
   6  -3   5    3.60    1.00
   6  -3   5    4.40    0.80
   6  -3   5    4.50    0.90
   6  -3   5    3.30    1.00
   6  -3   5    5.40    0.90
  -7   3  -5    1.10    0.60
   7  -3   5    0.40    0.70
   7  -3   5    1.10    0.50
   7  -3   5    0.10    0.50
   8   2  -5   13.40    1.30
  -8  -2   5    9.80    1.20
   7   2  -5    5.10    1.00
   7   2  -5    4.00    0.90
  -7  -2   5    7.00    1.10
  -7  -2   5    3.50    0.90
  -7  -2   5    4.20    0.90
  -7  -2   5    4.80    1.10
   6   2  -5   23.80    2.00
   6   2  -5   24.10    1.80
  -6  -2   5   20.00    1.60
  -6  -2   5   25.20    1.80
  -6  -2   5   23.90    1.80
  -6  -2   5   18.40    1.70
  -6  -2   5   25.10    2.30
  -6  -2   5   21.80    1.90
   5   2  -5   30.50    2.10
  -5  -2   5   28.40    2.00
  -5  -2   5   29.40    2.00
  -5  -2   5   30.60    2.00
  -5  -2   5   17.60    2.60
  -5  -2   5   29.00    2.20
  -5  -2   5   31.30    1.90
   4   2  -5   34.30    2.00
  -4  -2   5   32.40    2.00
  -4  -2   5   32.10    2.00
  -4  -2   5   27.80    2.10
  -4  -2   5   32.60    2.10
   3   2  -5   44.20    2.30
   3   2  -5   45.90    3.10
   3   2  -5   44.70    2.90
  -3  -2   5   43.70    2.60
  -3  -2   5   40.20    2.20
  -3  -2   5   43.80    2.20
   2   2  -5    0.70    0.70
   2   2  -5    0.70    0.70
  -2  -2   5    0.40    0.50
  -2  -2   5    0.70    0.60
   1   2  -5   15.20    1.60
   1   2  -5   15.40    1.60
  -1  -2   5   15.20    1.30
   0   2  -5  148.99    6.60
   0  -2   5  147.99    6.40
   0  -2   5  157.78    6.10
   0  -2   5  159.88    6.40
   1  -2   5   52.89    3.00
   1  -2   5   53.39    3.20
   2  -2   5    0.60    0.50
   2  -2   5   -0.70    0.70
   3  -2   5    4.20    0.80
   3  -2   5    5.30    1.60
   3  -2   5    6.40    0.90
   4  -2   5   18.20    1.40
   4  -2   5   21.60    1.60
   4  -2   5   18.80    1.70
   4  -2   5   23.80    2.20
   4  -2   5   21.70    2.20
   5  -2   5   -0.40    0.50
   5  -2   5   -0.80    0.50
   5  -2   5    0.40    0.70
   5  -2   5   -0.20    0.80
   5  -2   5    1.00    1.00
   6  -2   5   29.60    1.90
   6  -2   5   29.00    1.90
   6  -2   5   33.40    2.40
   6  -2   5   33.10    2.50
   6  -2   5   28.60    1.90
  -7   2  -5    0.70    0.70
   7  -2   5    0.70    0.60
   7  -2   5    0.90    0.60
   7  -2   5   -0.70    0.70
   7  -2   5    1.40    0.60
   8   1  -5    6.30    0.90
  -8  -1   5    6.20    1.00
  -8  -1   5    5.60    0.80
   7   1  -5    2.10    0.80
   7   1  -5    1.00    0.70
  -7  -1   5    1.50    0.80
  -7  -1   5    1.60    0.90
   6   1  -5    6.30    1.10
   6   1  -5    8.10    1.20
  -6  -1   5    9.10    1.40
  -6  -1   5    9.70    1.20
  -6  -1   5   12.00    1.60
  -6  -1   5    6.00    1.00
   5   1  -5    1.30    0.60
  -5  -1   5    1.00    0.70
  -5  -1   5    1.10    0.90
  -5  -1   5    1.00    0.70
  -5  -1   5    2.70    0.80
  -5  -1   5    0.70    0.70
  -5  -1   5    1.60    0.80
   4   1  -5    0.60    0.50
   4   1  -5    0.50    0.90
   4   1  -5    1.50    0.90
  -4  -1   5    0.90    0.70
  -4  -1   5    0.80    0.60
   3   1  -5   10.70    1.10
   3   1  -5    6.70    1.40
   3   1  -5   10.40    1.60
  -3  -1   5    9.90    1.30
   2   1  -5  102.39    4.80
   2   1  -5  107.59    5.00
  -2  -1   5   99.39    4.40
   1   1  -5   96.19    4.40
   1   1  -5   89.09    4.30
  -1  -1   5   85.09    3.80
  -1  -1   5   87.39    4.20
   0   1  -5  160.78    7.60
   0  -1   5  198.88    7.70
   0  -1   5  197.98    7.00
   0  -1   5  196.68    7.60
   1  -1   5   96.89    4.60
   1  -1   5   87.99    4.20
   2  -1   5    9.70    1.40
   2  -1   5    7.70    1.40
   3  -1   5   45.30    2.20
   3  -1   5   40.10    3.30
   4  -1   5    8.40    2.20
   4  -1   5    9.20    1.10
   4  -1   5    9.70    1.10
   4  -1   5    9.10    1.60
   5  -1   5   21.90    1.70
   5  -1   5   19.10    1.70
   5  -1   5   24.40    2.30
   5  -1   5   22.10    1.60
   5  -1   5   25.20    2.30
   6  -1   5   26.30    1.90
   6  -1   5   29.80    2.00
   6  -1   5   29.30    2.40
   6  -1   5   30.20    1.80
   6  -1   5   30.80    2.50
   7  -1   5    1.90    0.90
   7  -1   5    0.40    0.90
   7  -1   5    0.50    0.90
   7  -1   5    0.20    0.70
   7  -1   5    1.50    0.60
  -8   1  -5    6.70    1.00
   8  -1   5    9.60    0.90
   8  -1   5    6.90    1.20
   8   0  -5   36.10    1.90
  -8   0   5   33.40    1.80
  -8   0   5   35.30    1.90
   7   0  -5    1.10    0.70
   7   0  -5    0.40    0.60
  -7   0   5    0.60    0.70
  -7   0   5    1.20    0.80
   6   0  -5   48.30    2.70
   6   0  -5   49.20    2.60
  -6   0   5   51.39    3.00
  -6   0   5   49.50    2.80
   5   0  -5    6.60    1.00
   5   0  -5    7.20    1.10
  -5   0   5    6.20    1.10
  -5   0   5    4.30    0.90
  -5   0   5    4.80    1.10
  -5   0   5    5.90    1.30
   4   0  -5    1.10    0.90
   4   0  -5    1.20    0.60
   4   0  -5    0.40    0.90
  -4   0   5    1.30    0.70
  -4   0   5    0.80    0.60
   3   0  -5   17.70    1.70
   3   0  -5   14.10    1.90
   3   0  -5   17.10    2.10
  -3   0   5   16.30    1.50
   2   0  -5   40.70    2.70
   2   0  -5   40.30    2.60
  -2   0   5   35.60    2.10
   1   0  -5  378.26   14.10
  -1   0   5  382.56   13.40
  -1   0   5  385.06   14.00
   0   0  -5   12.20    1.70
   0   0   5   12.40    1.30
   0   0   5   14.10    1.00
   1   0   5   46.40    3.00
   1   0   5   50.49    2.70
   2   0   5  126.49    5.60
   2   0   5  135.99    6.10
   3   0   5   70.89    3.00
   3   0   5   66.49    3.60
   3   0   5   66.29    4.20
   4   0   5    2.60    0.60
   4   0   5    2.10    1.40
   4   0   5    2.60    1.50
   5   0   5  129.09    5.90
   5   0   5  132.69    5.20
   5   0   5  133.69    5.80
   5   0   5  128.69    5.20
   5   0   5  126.39    5.70
   5   0   5  128.89    5.10
  -6   0  -5   46.30    3.00
   6   0   5   45.70    2.60
   6   0   5   44.90    2.40
   6   0   5   49.40    3.20
   6   0   5   42.60    2.50
   6   0   5   43.80    3.20
   6   0   5   47.30    2.80
  -7   0  -5   45.90    2.80
   7   0   5   44.00    2.40
   7   0   5   40.10    2.20
   7   0   5   38.70    2.80
   7   0   5   45.70    2.40
   7   0   5   36.50    2.80
  -8   0  -5    0.80    0.70
   8   0   5   -0.80    0.90
   8   0   5    0.10    0.50
   8  -1  -5    9.90    1.00
  -8   1   5    9.30    1.00
   7  -1  -5   26.80    1.80
  -7   1   5   28.90    1.90
  -7   1   5   28.10    2.10
   6  -1  -5    6.70    1.10
   6  -1  -5    6.00    1.00
  -6   1   5    7.90    1.40
  -6   1   5    9.10    1.30
   5  -1  -5   20.80    1.60
   5  -1  -5   18.30    1.50
  -5   1   5   19.60    1.80
  -5   1   5   19.80    2.20
   4  -1  -5    3.60    1.20
   4  -1  -5    4.10    0.80
  -4   1   5    6.60    1.10
   3  -1  -5   26.60    2.40
   3  -1  -5   31.80    2.40
  -3   1   5   28.30    2.00
   2  -1  -5  237.18    9.40
   2  -1  -5  240.18    9.30
  -2   1   5  227.68    8.70
   1  -1  -5  218.98    8.80
  -1   1   5  217.98    8.60
  -1   1   5  221.98    8.10
   0  -1  -5   19.10    1.80
   0   1   5   22.10    1.30
   0   1   5   20.30    1.60
   1   1   5   98.69    4.90
   1   1   5  109.09    4.70
   2   1   5   58.29    3.10
   2   1   5   57.69    3.40
   3   1   5   50.49    3.00
   3   1   5   48.00    3.40
   4   1   5  215.28    8.10
   4   1   5  219.98    9.90
   4   1   5  222.38    9.10
   5   1   5    3.10    0.80
   5   1   5    4.60    0.90
   5   1   5    3.90    2.80
   5   1   5    6.40    1.60
   5   1   5    3.20    1.30
   6   1   5    1.40    0.90
   6   1   5    0.80    0.50
   6   1   5    0.10    1.00
   6   1   5    0.20    0.80
   6   1   5   -0.50    0.60
   6   1   5   -0.20    0.50
  -7  -1  -5    2.50    1.20
   7   1   5    2.30    1.10
   7   1   5    5.60    1.30
   7   1   5    2.40    0.80
   7   1   5    3.20    0.70
  -8  -1  -5   13.10    1.50
  -8  -1  -5    9.70    1.30
   8   1   5    9.70    1.10
   8   1   5    9.80    1.50
  -9  -1  -5    0.60    0.50
   9   1   5    0.70    0.50
   7  -2  -5    0.40    0.60
  -7   2   5    2.40    0.80
   6  -2  -5   16.70    1.50
   6  -2  -5   16.80    1.60
  -6   2   5   16.50    1.80
  -6   2   5   17.50    2.10
   5  -2  -5   37.40    2.30
   5  -2  -5   39.70    2.20
  -5   2   5   39.20    2.60
  -5   2   5   39.80    2.40
  -5   2   5   41.10    3.00
   4  -2  -5    8.10    1.10
  -4   2   5    7.10    1.20
  -4   2   5    5.80    1.50
  -4   2   5    7.90    1.40
   3  -2  -5   -0.20    0.80
   3  -2  -5    1.40    0.90
  -3   2   5    0.90    0.60
   2  -2  -5   50.69    3.00
   2  -2  -5   51.09    3.20
  -2   2   5   51.69    2.70
   1  -2  -5  311.67   11.90
  -1   2   5  312.07   11.60
  -1   2   5  311.27   11.20
   0  -2  -5  114.09    4.90
   0   2   5  106.79    4.20
   0   2   5  100.79    4.70
   1   2   5  261.57    9.20
   1   2   5  227.58    8.30
   1   2   5  221.58    9.30
   2   2   5    3.30    1.00
   2   2   5    3.50    0.90
   3   2   5    0.30    0.80
   3   2   5    1.00    0.80
   4   2   5    2.00    0.60
   4   2   5    0.90    0.80
   4   2   5    1.20    1.10
   5   2   5    8.30    1.30
   5   2   5   11.60    1.30
   5   2   5    6.50    1.90
   5   2   5   11.50    2.00
   6   2   5   14.40    1.40
   6   2   5   14.30    1.70
   6   2   5   13.10    1.20
   6   2   5   10.20    1.50
   6   2   5   11.60    1.80
  -7  -2  -5    0.10    0.80
   7   2   5    0.10    0.80
   7   2   5    0.60    0.60
   7   2   5   -0.40    0.50
  -8  -2  -5    2.20    0.80
  -8  -2  -5    4.40    1.10
   8   2   5    2.10    0.70
   8   2   5    1.50    1.00
  -9  -2  -5    1.30    0.80
  -9  -2  -5    1.10    0.50
   9   2   5    0.90    0.50
   7  -3  -5    0.40    0.60
  -7   3   5    0.20    0.60
  -7   3   5    0.80    1.00
   6  -3  -5    5.40    1.00
  -6   3   5    6.10    1.40
  -6   3   5    7.20    1.20
   5  -3  -5    0.20    0.60
   5  -3  -5    0.10    0.70
  -5   3   5    0.90    1.00
  -5   3   5    0.30    0.70
  -4   3   5   22.10    2.30
  -4   3   5   21.20    2.00
   3  -3  -5    5.00    1.40
  -3   3   5    4.60    1.00
   2  -3  -5  168.68    7.50
  -2   3   5  181.08    7.00
   1  -3  -5  170.88    7.10
  -1   3   5  163.98    6.50
  -1   3   5  170.58    6.90
   0  -3  -5   16.80    1.50
   0   3   5   18.50    1.30
   0   3   5   17.50    1.60
  -1  -3  -5   61.39    3.10
   1   3   5   66.59    3.30
   1   3   5   54.19    2.50
   2   3   5  347.17   13.30
   2   3   5  370.96   13.40
   3   3   5   10.90    1.60
   3   3   5   12.70    1.70
   4   3   5  126.99    6.10
   4   3   5  123.49    4.90
   4   3   5  118.69    5.90
  -5  -3  -5    3.30    0.90
   5   3   5    2.30    1.30
   5   3   5    4.00    0.80
   5   3   5    4.00    1.40
  -6  -3  -5    2.20    0.90
   6   3   5    2.00    1.00
   6   3   5    6.00    1.00
   6   3   5    4.30    1.20
  -7  -3  -5    6.70    1.30
   7   3   5    6.60    1.30
   7   3   5    5.80    0.90
   7   3   5    5.70    1.10
  -8  -3  -5    0.20    0.90
  -8  -3  -5    0.00    0.60
   8   3   5    0.90    0.90
   8   3   5    0.40    0.60
  -9  -3  -5   -0.10    0.70
  -9  -3  -5    0.00    0.40
   9   3   5    0.80    0.50
   6  -4  -5    4.20    0.80
  -6   4   5    3.20    1.10
  -6   4   5    1.70    0.80
   5  -4  -5   25.40    2.60
  -5   4   5   25.20    2.60
  -5   4   5   21.50    2.00
  -4   4   5    2.60    1.10
  -4   4   5    2.10    0.90
  -3   4   5   10.20    1.40
  -3   4   5    6.40    1.30
   2  -4  -5  104.99    5.10
  -2   4   5  103.69    4.80
   1  -4  -5   34.30    2.40
  -1   4   5   36.80    2.20
   0  -4  -5   44.10    2.60
   0   4   5   42.30    2.30
   0   4   5   46.80    2.70
  -1  -4  -5    5.50    0.90
   1   4   5    6.30    1.10
   1   4   5    5.70    0.80
  -2  -4  -5    3.40    0.80
   2   4   5    4.70    1.00
   2   4   5    3.90    1.00
   3   4   5    2.40    0.90
   3   4   5    2.90    1.00
   4   4   5    1.30    0.50
   4   4   5    0.50    0.70
   4   4   5    0.70    0.90
  -5  -4  -5   32.80    2.10
   5   4   5   32.10    2.00
   5   4   5   33.80    3.00
  -6  -4  -5    0.90    0.80
  -6  -4  -5    1.70    0.90
   6   4   5    1.40    0.70
   6   4   5    2.00    0.90
  -7  -4  -5    0.80    0.80
  -7  -4  -5    0.20    0.70
  -7  -4  -5    0.60    0.70
   7   4   5    1.20    0.60
   7   4   5    1.20    0.70
  -8  -4  -5    0.10    1.00
   8   4   5    0.20    0.50
  -9  -4  -5    5.60    1.00
   9   4   5    7.30    0.80
  -6   5   5    3.00    0.70
  -6   5   5    2.00    0.80
  -5   5   5    0.00    0.80
  -5   5   5   -0.20    0.70
  -4   5   5    6.50    1.20
  -4   5   5    5.50    1.40
  -3   5   5   28.30    2.40
  -2   5   5   17.30    1.80
  -2   5   5   13.80    1.90
  -1   5   5   16.50    1.60
   0   5   5   16.50    1.50
   0   5   5   17.50    1.40
   1   5   5   -0.20    0.40
   1   5   5   -0.60    0.50
   2   5   5   54.59    3.30
   2   5   5   59.39    2.70
   3   5   5   37.00    2.10
   3   5   5   40.70    2.80
  -4  -5  -5   23.40    1.70
   4   5   5   24.60    2.40
   4   5   5   22.00    1.60
  -5  -5  -5   20.40    1.80
  -5  -5  -5   22.80    1.90
   5   5   5   18.90    1.50
  -6  -5  -5   26.00    2.10
  -6  -5  -5   24.70    1.90
   6   5   5   27.50    2.40
   6   5   5   23.10    1.80
  -7  -5  -5   34.40    2.20
  -7  -5  -5   36.60    2.20
  -7  -5  -5   35.70    2.40
   7   5   5   32.00    2.20
  -8  -5  -5   55.59    2.90
  -8  -5  -5   59.19    3.20
  -8  -5  -5   58.59    2.90
   8   5   5   59.79    2.70
  -9  -5  -5    0.10    0.60
   9   5   5    1.60    0.50
  -5   6   5    3.60    1.00
  -4   6   5    3.00    1.30
  -3   6   5   58.09    3.00
  -3   6   5   53.19    3.40
  -2   6   5   19.30    1.90
  -2   6   5   14.10    1.90
  -1   6   5   15.20    1.90
  -1   6   5   18.20    1.90
   0   6   5    7.40    1.30
   0   6   5   11.00    1.30
   0   6   5    9.00    1.40
   1   6   5   39.20    2.50
   1   6   5   39.70    2.20
   2   6   5    3.10    0.80
  -3  -6  -5   11.30    1.20
   3   6   5   10.80    1.20
  -4  -6  -5    6.70    1.10
   4   6   5    7.60    1.50
   4   6   5    5.60    1.00
   4   6   5    8.70    1.10
  -5  -6  -5    2.80    0.80
  -5  -6  -5    1.00    0.80
  -5  -6  -5    2.90    0.80
   5   6   5    1.80    0.70
  -6  -6  -5  313.67   11.30
  -6  -6  -5  309.87   11.30
  -6  -6  -5  308.57   11.40
   6   6   5  300.37   11.30
  -7  -6  -5   -0.70    0.60
  -7  -6  -5   -0.60    0.60
  -7  -6  -5   -0.30    0.70
   7   6   5   -0.70    0.50
  -8  -6  -5   21.30    1.70
  -8  -6  -5   18.80    1.70
  -8  -6  -5   22.10    1.70
  -9  -6  -5    0.30    0.60
  -9  -6  -5    0.60    0.60
  -4   7   5    1.70    0.80
  -3   7   5    5.70    1.00
  -3   7   5    6.60    1.40
  -2   7   5   30.10    2.40
  -2   7   5   28.70    2.20
  -1   7   5    1.40    1.00
  -1   7   5    1.90    0.90
   0   7   5    7.20    1.20
   0   7   5    7.70    1.30
  -1  -7  -5  148.39    5.80
   1   7   5  142.89    6.00
   1   7   5  150.18    6.00
  -2  -7  -5   13.90    1.40
   2   7   5   15.80    1.60
   2   7   5   11.80    1.40
  -3  -7  -5    8.00    1.10
  -3  -7  -5   10.30    1.20
   3   7   5    7.50    1.10
   3   7   5    7.00    1.00
  -4  -7  -5   32.40    2.10
  -4  -7  -5   32.50    2.10
  -4  -7  -5   34.10    2.20
   4   7   5   33.70    2.00
   4   7   5   34.20    2.10
  -5  -7  -5    0.80    0.80
  -5  -7  -5   -0.60    0.60
  -5  -7  -5   -0.30    0.80
   5   7   5    0.50    0.70
  -6  -7  -5   45.50    2.40
  -6  -7  -5   42.60    2.60
  -6  -7  -5   43.40    2.60
   6   7   5   48.00    2.50
  -7  -7  -5   22.40    1.80
  -7  -7  -5   24.30    2.00
   7   7   5   24.50    1.70
  -8  -7  -5    2.70    0.70
  -8  -7  -5    2.50    0.80
  -8  -7  -5    3.00    0.90
  -9  -7  -5   -0.70    0.60
  -9  -7  -5    0.60    0.60
  -9  -7  -5   -0.70    0.40
  -4   8   5    1.60    0.70
  -3   8   5    2.60    0.90
  -3   8   5    0.80    0.60
  -2   8   5    9.00    1.30
  -2   8   5    7.00    1.30
  -1   8   5   26.30    2.00
   0   8   5  125.59    5.50
   0   8   5  130.09    5.40
  -1  -8  -5   12.40    1.30
   1   8   5   11.70    1.50
   1   8   5   12.40    1.50
  -2  -8  -5   66.69    3.30
   2   8   5   68.89    3.40
   2   8   5   68.39    3.30
  -3  -8  -5  117.29    4.80
   3   8   5  112.29    4.70
   3   8   5  112.49    4.80
  -4  -8  -5   74.49    3.50
  -4  -8  -5   67.19    3.40
   4   8   5   70.69    3.40
   4   8   5   74.79    3.30
  -5  -8  -5   14.60    1.50
  -5  -8  -5   19.30    1.70
  -5  -8  -5   19.40    1.70
   5   8   5   19.80    1.60
  -6  -8  -5   34.70    2.20
  -6  -8  -5   32.80    2.10
  -6  -8  -5   30.90    2.10
   6   8   5   33.80    2.00
  -7  -8  -5    0.50    0.70
  -7  -8  -5    0.30    0.70
  -7  -8  -5   -0.10    0.60
  -8  -8  -5    2.70    0.70
  -8  -8  -5    2.10    0.80
  -2   9   5    8.50    1.00
  -1   9   5   32.00    2.00
   0   9   5    2.00    0.90
   0   9   5    3.00    0.90
   1   9   5   32.10    2.10
   1   9   5   36.90    2.20
  -2  -9  -5   18.20    1.50
   2   9   5   17.50    1.70
   2   9   5   19.70    1.70
  -3  -9  -5    1.00    0.70
   3   9   5    0.40    0.60
   3   9   5    0.80    0.70
  -4  -9  -5    1.50    0.70
   4   9   5    1.10    0.60
  -5  -9  -5   72.99    3.40
  -5  -9  -5   67.49    3.30
  -5  -9  -5   70.59    3.30
   5   9   5   71.29    3.30
  -6  -9  -5   42.60    2.40
  -6  -9  -5   42.80    2.30
  -6  -9  -5   42.00    2.50
   6   9   5   41.40    2.20
  -7  -9  -5    2.60    0.80
  -7  -9  -5    1.80    0.70
  -7  -9  -5    4.00    0.80
  -8  -9  -5    0.40    0.60
  -8  -9  -5   -0.80    0.50
  -1  10   5    0.00    0.40
   0  10   5   14.90    1.40
   0  10   5   13.60    1.30
   1  10   5    4.50    0.90
   1  10   5    3.20    0.80
  -2 -10  -5    0.50    0.70
   2  10   5    1.30    0.60
   2  10   5    0.20    0.60
  -3 -10  -5    3.00    0.80
   3  10   5    1.70    0.70
   3  10   5    2.70    0.70
  -4 -10  -5    7.70    1.00
   4  10   5    8.80    1.10
  -5 -10  -5   13.30    1.30
   5  10   5   11.10    1.20
  -6 -10  -5   -0.30    0.60
  -6 -10  -5    0.60    0.60
   6  10   5   -0.10    0.40
  -7 -10  -5    0.50    0.50
  -7 -10  -5    0.60    0.50
  -7 -10  -5    0.60    0.50
   1  11   5    5.30    0.70
   2  11   5    3.80    0.60
   2  11   5    3.00    0.60
  -3 -11  -5   -0.40    0.40
   3  11   5    0.10    0.50
  -4 -11  -5    3.00    0.60
   4  11   5    2.80    0.60
  -5 -11  -5   -1.00    0.40
  -6 -11  -5    2.60    0.50
  -3  -8   6    3.80    0.60
  -5  -7   6    0.40    0.40
  -5  -7   6    0.60    0.40
  -4  -7   6    0.50    0.50
  -4  -7   6    0.10    0.40
  -3  -7   6    1.40    0.60
  -2  -7   6    5.40    0.80
   0  -7   6    0.80    0.60
   1  -7   6   17.70    1.20
   2  -7   6   -0.60    0.40
  -6  -6   6    0.40    0.40
  -6  -6   6    0.20    0.50
  -6  -6   6   -0.70    0.40
  -6  -6   6   -0.10    0.40
  -5  -6   6    8.30    1.00
  -5  -6   6    7.60    0.90
  -5  -6   6    9.50    1.10
  -5  -6   6   11.30    1.10
   4   6  -6    2.80    0.70
  -4  -6   6    3.90    0.80
  -4  -6   6    2.70    0.70
  -4  -6   6    1.80    0.70
  -3  -6   6   29.60    1.80
  -3  -6   6   29.40    1.90
  -2  -6   6    0.00    0.70
   1  -6   6    1.20    0.60
   2  -6   6    0.20    0.60
   2  -6   6    0.10    0.50
   2  -6   6    0.80    0.60
   3  -6   6    9.60    0.90
   3  -6   6    8.00    0.90
   3  -6   6    9.20    1.00
   7   5  -6   -0.50    0.50
  -7  -5   6    0.30    0.40
  -7  -5   6   -0.30    0.40
  -7  -5   6    0.80    0.50
  -6  -5   6    0.60    0.60
  -6  -5   6    1.90    0.60
  -6  -5   6    1.60    0.60
  -6  -5   6    1.10    0.60
   5   5  -6   10.00    1.30
  -5  -5   6    9.10    1.20
  -5  -5   6   11.50    1.20
  -5  -5   6    9.80    1.20
  -5  -5   6    9.10    1.20
   4   5  -6    1.90    0.80
  -4  -5   6    1.30    0.70
  -4  -5   6    3.10    0.80
  -4  -5   6    1.10    0.70
  -4  -5   6    1.70    0.70
  -3  -5   6    4.40    0.90
  -3  -5   6    4.60    1.00
  -3  -5   6    3.50    0.80
  -3  -5   6    1.70    0.90
  -3  -5   6    5.20    0.90
  -2  -5   6   85.39    4.40
   2  -5   6   23.00    1.70
   2  -5   6   22.80    1.70
   2  -5   6   21.30    1.60
   3  -5   6    2.80    0.70
   3  -5   6    2.50    0.80
   3  -5   6    1.00    0.70
   4  -5   6    2.00    0.70
   4  -5   6    0.80    0.60
   4  -5   6    1.50    0.60
   4  -5   6    0.70    0.60
   7   4  -6    7.90    1.00
  -7  -4   6    5.60    0.80
  -7  -4   6    5.60    0.80
  -7  -4   6    6.30    0.90
  -7  -4   6    6.00    0.80
  -6  -4   6    7.30    1.00
  -6  -4   6    5.10    0.90
  -6  -4   6    7.40    1.00
  -6  -4   6    6.90    1.00
  -6  -4   6    7.60    1.10
   5   4  -6   -0.10    0.60
  -5  -4   6    0.00    0.60
  -5  -4   6    0.00    0.70
  -5  -4   6    0.20    0.50
  -5  -4   6   -0.50    0.60
  -5  -4   6    0.30    0.60
   4   4  -6    5.00    1.10
  -4  -4   6    4.10    0.90
  -4  -4   6    2.30    0.90
  -4  -4   6    2.80    0.80
  -4  -4   6    2.80    0.90
  -4  -4   6    3.40    0.90
  -3  -4   6   17.10    1.60
  -3  -4   6   16.80    1.70
  -3  -4   6   17.70    1.60
  -2  -4   6   -0.10    0.60
  -2  -4   6   -0.40    0.60
   1  -4   6   56.09    2.80
   2  -4   6   41.60    2.30
   2  -4   6   40.80    2.40
   3  -4   6   41.00    2.60
   3  -4   6   42.20    2.40
   3  -4   6   39.30    2.30
   3  -4   6   41.00    2.40
   4  -4   6    9.30    1.20
   4  -4   6    9.10    1.40
   4  -4   6   10.80    1.20
   4  -4   6   10.10    1.20
   5  -4   6   -0.10    0.50
   5  -4   6    0.10    0.50
   5  -4   6   -0.80    0.60
   5  -4   6    0.20    0.60
   7   3  -6   10.60    1.20
  -7  -3   6   10.50    1.20
  -7  -3   6   10.70    1.10
  -7  -3   6    9.00    1.00
  -7  -3   6    8.80    1.00
   6   3  -6   14.90    1.60
   6   3  -6   11.80    1.40
  -6  -3   6   11.90    1.30
  -6  -3   6   12.40    1.30
  -6  -3   6   12.60    1.30
  -6  -3   6   12.80    1.50
  -6  -3   6   11.40    1.30
   5   3  -6   27.90    2.00
  -5  -3   6   27.00    2.10
  -5  -3   6   27.60    1.90
  -5  -3   6   27.20    2.00
  -5  -3   6   26.70    1.80
  -5  -3   6   25.90    1.90
   4   3  -6   22.60    1.80
  -4  -3   6   23.90    1.80
  -4  -3   6   17.10    1.70
  -4  -3   6   22.10    1.70
  -4  -3   6   22.90    2.10
  -3  -3   6    9.50    1.30
  -3  -3   6   10.60    1.30
  -3  -3   6    7.60    1.10
  -3  -3   6   10.00    1.20
  -2  -3   6   40.90    2.30
  -2  -3   6   43.20    2.30
  -2  -3   6   41.50    2.30
  -1  -3   6    6.40    0.90
   2  -3   6   99.29    4.70
   2  -3   6  106.49    4.40
   2  -3   6  103.09    4.40
   3  -3   6   11.50    1.30
   3  -3   6   14.90    1.70
   3  -3   6   13.90    1.50
   4  -3   6   15.50    1.80
   4  -3   6   16.50    1.50
   4  -3   6   16.70    1.60
   4  -3   6   12.30    1.40
   5  -3   6    3.90    0.80
   5  -3   6    3.30    0.80
   5  -3   6    2.50    0.90
   5  -3   6    2.20    0.80
   5  -3   6    3.60    1.00
  -6   3  -6    0.50    0.60
   6  -3   6    0.10    0.40
   6  -3   6    0.60    0.60
   6  -3   6   -0.30    0.50
   6  -3   6   -0.50    0.70
   7   2  -6    2.20    0.70
  -7  -2   6    1.40    0.60
  -7  -2   6    1.50    0.70
  -7  -2   6    0.90    0.50
   6   2  -6    7.20    1.00
   6   2  -6    8.30    1.20
  -6  -2   6    8.60    1.10
  -6  -2   6    5.90    1.50
  -6  -2   6    9.20    1.50
  -6  -2   6    8.90    1.10
  -6  -2   6    8.30    1.10
   5   2  -6   22.10    1.70
  -5  -2   6   22.80    1.70
  -5  -2   6   16.80    2.10
  -5  -2   6   22.50    2.50
  -5  -2   6   20.80    1.80
  -5  -2   6   19.30    1.90
  -5  -2   6   21.20    1.80
  -4  -2   6    2.70    0.80
  -4  -2   6    1.50    0.80
  -4  -2   6    2.20    1.00
  -4  -2   6    1.70    0.70
  -3  -2   6   66.79    3.10
  -3  -2   6   66.09    3.40
  -3  -2   6   64.99    3.10
  -3  -2   6   67.69    3.20
   2   2  -6    5.80    1.30
   2   2  -6    6.60    1.50
  -2  -2   6    8.90    1.10
  -2  -2   6    7.10    1.20
   1   2  -6   16.20    2.00
   1   2  -6   11.40    1.70
  -1  -2   6   15.30    1.30
  -1  -2   6   13.90    1.60
   0   2  -6    8.40    1.50
   0   2  -6    6.40    1.20
   0  -2   6   11.50    1.60
   1  -2   6   60.69    3.70
   2  -2   6   17.30    1.50
   2  -2   6   16.70    2.30
   2  -2   6   16.20    1.50
   3  -2   6   31.70    2.00
   3  -2   6   30.40    1.90
   3  -2   6   32.00    2.40
   3  -2   6   31.40    2.50
   4  -2   6    4.90    1.00
   4  -2   6    6.50    1.20
   4  -2   6    5.10    1.30
   4  -2   6    4.10    0.90
   5  -2   6    0.40    0.90
   5  -2   6    1.40    0.70
   5  -2   6    0.00    1.00
   5  -2   6    0.50    0.60
   5  -2   6    0.10    0.70
   6  -2   6    2.00    0.70
   6  -2   6    1.70    0.90
   6  -2   6    2.00    0.90
   6  -2   6    3.10    0.70
   6  -2   6    1.10    0.70
  -7   2  -6    1.20    0.70
   7  -2   6    1.00    0.50
   7  -2   6    1.90    0.60
   7  -2   6    1.90    0.80
   7   1  -6   -0.10    0.50
  -7  -1   6    1.60    0.70
  -7  -1   6    0.30    0.60
   6   1  -6    0.50    0.70
  -6  -1   6    0.90    0.60
  -6  -1   6   -0.60    0.60
  -6  -1   6   -0.20    0.70
  -6  -1   6    0.30    0.70
  -6  -1   6    0.50    0.60
  -5  -1   6    0.70    0.60
  -5  -1   6    0.20    0.50
  -5  -1   6    0.30    0.70
  -5  -1   6   -0.10    0.60
  -5  -1   6    0.20    0.70
  -4  -1   6    3.60    0.80
  -4  -1   6    3.80    1.00
  -4  -1   6    3.80    1.00
  -4  -1   6    5.80    1.00
  -4  -1   6    4.80    0.90
   3   1  -6   11.70    1.80
  -3  -1   6   17.80    1.80
  -3  -1   6   14.20    1.40
  -3  -1   6   23.30    1.80
  -3  -1   6   15.70    1.40
   2   1  -6   12.60    1.80
   2   1  -6   13.60    1.90
  -2  -1   6   14.80    1.30
  -2  -1   6   15.00    1.50
   1   1  -6    3.80    1.10
   1   1  -6    5.10    1.20
  -1  -1   6    4.70    0.90
  -1  -1   6    4.70    1.10
   0   1  -6   29.10    2.40
   1  -1   6   84.39    4.30
   1  -1   6   87.19    4.70
   2  -1   6   30.00    2.80
   2  -1   6   30.00    2.20
   2  -1   6   27.20    1.70
   3  -1   6   22.30    1.60
   3  -1   6   22.40    2.90
   3  -1   6   23.10    2.40
   3  -1   6   20.90    1.50
   4  -1   6  130.09    5.20
   4  -1   6  128.29    5.80
   4  -1   6  128.29    5.30
   4  -1   6  127.99    5.80
   5  -1   6   29.50    2.30
   5  -1   6   20.80    2.10
   5  -1   6   26.30    1.90
   5  -1   6   25.50    1.80
   6  -1   6    8.80    1.20
   6  -1   6   10.80    1.20
   6  -1   6    8.60    1.50
   6  -1   6   11.30    1.60
   6  -1   6    9.30    1.10
   7  -1   6    9.30    1.10
   7  -1   6   10.60    1.10
   7  -1   6    9.20    1.40
   7  -1   6   12.40    1.20
   7  -1   6   11.20    1.40
   7   0  -6    0.80    0.60
  -7   0   6    0.90    0.60
  -7   0   6    0.70    0.60
   6   0  -6   -0.40    0.60
  -6   0   6    0.50    0.70
  -6   0   6    1.00    0.80
  -5   0   6    5.60    1.00
  -5   0   6    7.20    1.10
  -5   0   6    6.40    1.30
  -5   0   6    5.10    1.10
  -5   0   6    5.70    0.90
  -4   0   6   11.20    1.50
  -4   0   6   11.30    1.20
  -4   0   6    8.90    1.30
  -4   0   6    8.70    1.20
  -4   0   6    8.50    1.10
   3   0  -6    7.40    1.50
   3   0  -6    9.10    1.80
  -3   0   6    9.50    1.50
  -3   0   6    9.30    1.10
   2   0  -6    0.30    0.80
   2   0  -6    0.00    0.70
  -2   0   6    0.70    0.60
   1   0  -6    4.40    1.20
  -1   0   6    4.20    1.00
  -1   0   6    4.60    0.90
   0   0  -6    2.60    0.90
   0   0   6    7.20    1.30
   1   0   6   37.40    2.50
   1   0   6   40.30    2.90
   2   0   6    8.00    1.40
   2   0   6    6.00    1.60
   2   0   6    8.70    1.00
   3   0   6   33.60    3.00
   3   0   6   30.70    2.40
   3   0   6   28.70    1.80
   4   0   6  130.29    5.60
   4   0   6  114.29    5.80
   4   0   6  128.99    5.20
   4   0   6  136.59    5.70
   4   0   6  128.69    5.10
   5   0   6   65.19    3.60
   5   0   6   68.09    3.20
   5   0   6   74.19    3.80
   5   0   6   65.69    3.20
   5   0   6   60.49    3.80
   6   0   6    2.90    0.90
   6   0   6   -0.80    0.90
   6   0   6    2.30    0.70
   6   0   6    1.70    1.00
   6   0   6    2.40    1.00
  -7   0  -6    9.20    2.00
   7   0   6    2.10    1.00
   7   0   6    3.90    0.90
   7   0   6    7.10    1.00
   7   0   6    2.20    1.00
   7   0   6    4.90    0.90
  -8   0  -6   20.00    1.50
   8   0   6   20.10    1.20
   8   0   6   21.20    1.80
  -7   1   6    1.50    0.70
  -7   1   6    0.60    0.60
  -6   1   6    4.60    1.10
  -6   1   6    6.50    1.10
  -5   1   6    6.30    1.30
  -5   1   6    5.60    1.10
  -4   1   6    0.40    0.60
  -4   1   6    0.40    0.70
  -4   1   6   -0.60    0.50
  -4   1   6   -0.30    0.70
  -4   1   6    0.20    0.60
   3  -1  -6   37.40    3.00
   3  -1  -6   40.80    3.40
  -3   1   6   37.60    2.10
  -3   1   6   35.00    2.50
  -3   1   6   34.50    2.40
   2  -1  -6    4.90    1.30
   2  -1  -6    7.60    1.50
  -2   1   6    4.80    0.90
   1  -1  -6   16.80    2.10
  -1   1   6   12.30    1.60
  -1   1   6   13.90    1.20
   0  -1  -6   42.80    3.00
   0   1   6   46.60    2.20
   0   1   6   43.10    2.70
  -1  -1  -6  232.18    9.10
   1   1   6  215.98    8.70
   1   1   6  203.08    9.00
   2   1   6   67.59    4.00
   2   1   6   60.99    3.50
   3   1   6    7.70    1.70
   3   1   6    7.50    1.40
   3   1   6    7.50    0.90
   4   1   6    7.50    1.90
   4   1   6    7.10    1.50
   4   1   6    7.60    1.00
   4   1   6    8.70    1.10
   5   1   6   39.30    2.80
   5   1   6   45.40    2.90
   5   1   6   45.90    3.00
   5   1   6   45.60    2.50
   6   1   6    8.70    1.60
   6   1   6   10.10    1.50
   6   1   6    8.60    1.20
   6   1   6    9.50    1.50
   6   1   6    9.60    1.20
  -7  -1  -6    0.10    0.90
   7   1   6    0.60    0.90
   7   1   6    0.80    0.60
   7   1   6    1.10    0.90
   7   1   6    0.70    0.70
   7   1   6    0.00    0.50
  -8  -1  -6    1.60    0.70
  -8  -1  -6    5.30    1.00
   8   1   6    2.10    0.60
   8   1   6    1.70    0.70
   8   1   6    2.20    1.00
   8   1   6    1.10    0.90
  -7   2   6    0.50    0.50
  -6   2   6   18.90    1.80
  -5   2   6    2.70    1.00
  -5   2   6    4.80    1.30
  -5   2   6    1.90    0.80
  -4   2   6    5.60    1.40
  -4   2   6    6.90    1.40
  -4   2   6    3.30    0.90
   3  -2  -6    4.70    1.40
  -3   2   6    6.50    0.90
  -3   2   6    4.30    1.10
  -3   2   6    3.20    0.70
  -3   2   6    4.30    1.20
  -3   2   6    3.60    0.90
   2  -2  -6    8.10    1.60
   2  -2  -6    9.20    1.60
  -2   2   6    8.20    1.20
   1  -2  -6   36.20    2.80
  -1   2   6   38.90    2.20
  -1   2   6   36.60    2.50
   0  -2  -6    4.80    1.10
   0   2   6    6.00    0.80
   0   2   6    5.10    1.10
  -1  -2  -6   27.90    2.30
   1   2   6   27.60    2.20
   2   2   6   81.39    4.20
   2   2   6   72.99    4.30
   3   2   6   12.00    1.10
   3   2   6   11.50    1.80
   3   2   6   13.60    1.80
   4   2   6   42.00    3.20
   4   2   6   40.40    2.40
   4   2   6   42.90    2.70
   4   2   6   42.10    2.20
   5   2   6    0.90    0.60
   5   2   6    0.30    0.60
   5   2   6    0.00    0.80
   5   2   6    0.70    0.80
   5   2   6    0.70    1.00
   6   2   6    4.70    1.20
   6   2   6    6.90    1.40
   6   2   6    8.50    1.20
   6   2   6    7.20    1.40
   6   2   6    9.10    1.10
  -7  -2  -6    8.40    1.40
   7   2   6    5.70    1.00
   7   2   6    6.60    1.40
   7   2   6    5.80    1.30
   7   2   6    8.40    1.10
  -8  -2  -6   10.20    1.40
   8   2   6    8.20    1.50
   8   2   6    6.90    1.00
   8   2   6    8.40    1.40
  -9  -2  -6   13.00    1.20
  -6   3   6    4.10    1.10
  -6   3   6    2.60    0.80
  -5   3   6    0.40    0.70
  -5   3   6    0.30    0.90
  -4   3   6   28.80    2.80
  -4   3   6   26.00    2.10
  -3   3   6    3.00    1.00
  -3   3   6    5.80    1.40
   2  -3  -6   52.79    3.60
  -2   3   6   51.29    2.90
   1  -3  -6  441.46   16.80
  -1   3   6  461.95   16.70
  -1   3   6  450.45   16.10
   0  -3  -6   87.29    4.40
   0   3   6   90.09    4.40
   0   3   6   80.49    3.70
  -1  -3  -6   59.39    3.40
   1   3   6   66.29    3.70
   2   3   6   49.40    3.10
   2   3   6   50.39    3.20
   3   3   6   15.00    2.00
   3   3   6   18.90    2.30
   3   3   6   18.70    1.30
   4   3   6   20.90    1.50
   4   3   6   19.90    2.50
   4   3   6   22.30    1.70
   4   3   6   24.20    2.50
  -5  -3  -6   24.00    2.00
   5   3   6   28.50    2.20
   5   3   6   26.60    2.20
   5   3   6   26.70    1.80
   5   3   6   24.70    1.80
   5   3   6   25.50    1.90
   5   3   6   22.50    2.20
  -6  -3  -6   12.00    1.40
   6   3   6   14.10    1.60
   6   3   6    9.60    1.30
   6   3   6   13.50    1.70
   6   3   6   13.10    1.80
  -7  -3  -6    3.70    1.10
   7   3   6    2.30    0.80
   7   3   6    2.20    1.00
   7   3   6    1.40    1.00
  -8  -3  -6    2.40    0.90
   8   3   6    3.70    0.80
   8   3   6    4.50    1.10
  -9  -3  -6    1.60    0.50
  -9  -3  -6    1.30    0.70
  -6   4   6    2.40    0.80
  -6   4   6    3.50    0.70
  -5   4   6    1.00    0.80
  -5   4   6   -0.30    0.90
  -4   4   6    4.00    1.30
  -4   4   6    1.90    0.90
  -3   4   6   25.90    2.60
  -3   4   6   23.40    2.00
  -2   4   6   59.59    3.60
  -2   4   6   67.09    3.20
  -2   4   6   67.79    3.10
   1  -4  -6  113.09    5.50
  -1   4   6  118.19    5.20
   0  -4  -6   36.60    2.50
   0   4   6   34.20    2.50
   0   4   6   31.50    2.10
  -1  -4  -6    8.50    1.30
   1   4   6    5.60    1.30
  -2  -4  -6    0.30    0.60
   2   4   6   -0.30    0.40
   2   4   6   -0.10    0.70
   3   4   6  174.08    7.50
   3   4   6  168.08    7.70
   3   4   6  171.98    6.50
  -4  -4  -6    1.50    0.70
   4   4   6    2.90    0.70
   4   4   6    0.40    0.70
   4   4   6    1.10    0.70
   4   4   6    0.70    1.00
   4   4   6    1.30    1.00
  -5  -4  -6   37.20    2.30
  -5  -4  -6   32.90    2.20
   5   4   6   36.10    2.10
   5   4   6   35.20    2.20
   5   4   6   35.30    2.40
   5   4   6   34.70    2.30
  -6  -4  -6   13.20    1.50
  -6  -4  -6   17.60    1.70
   6   4   6   12.70    1.50
   6   4   6   14.50    1.50
   6   4   6   12.60    1.60
   6   4   6   13.00    1.70
  -7  -4  -6   49.20    3.00
  -7  -4  -6   52.69    2.80
   7   4   6   53.29    3.00
   7   4   6   52.59    2.90
   7   4   6   55.49    3.10
  -8  -4  -6    6.10    1.10
   8   4   6    3.20    0.90
   8   4   6    4.30    1.10
  -9  -4  -6    1.80    0.70
  -5   5   6    7.70    1.30
  -5   5   6    6.40    0.90
  -4   5   6    7.40    1.10
  -4   5   6    9.20    1.60
  -3   5   6   22.50    2.50
  -3   5   6   23.60    1.80
  -2   5   6    8.10    1.50
  -1   5   6    3.50    0.90
  -1   5   6    4.40    0.90
  -1   5   6    4.40    1.20
   0   5   6    3.30    0.90
   0   5   6    3.50    0.90
   1   5   6   48.20    2.40
   2   5   6   67.29    4.00
   2   5   6   72.99    4.10
   2   5   6   71.49    3.20
   3   5   6    0.50    0.50
   3   5   6    0.40    0.70
   3   5   6    0.90    0.90
  -4  -5  -6  241.08    9.10
   4   5   6  246.68    9.10
   4   5   6  245.98    9.10
   4   5   6  234.58    9.00
   4   5   6  235.58    8.90
   4   5   6  247.28   10.40
  -5  -5  -6    1.90    0.80
  -5  -5  -6    0.80    0.80
   5   5   6    1.30    0.80
   5   5   6    0.90    0.80
   5   5   6    1.40    0.60
   5   5   6    1.90    0.80
  -6  -5  -6  148.09    6.10
  -6  -5  -6  150.08    6.20
   6   5   6  146.99    6.10
   6   5   6  157.48    6.30
  -7  -5  -6    4.20    1.00
  -7  -5  -6    2.10    0.80
  -7  -5  -6    2.70    1.00
   7   5   6    3.30    0.90
  -8  -5  -6   16.20    1.70
  -8  -5  -6   19.90    1.50
  -9  -5  -6   -0.60    0.50
  -5   6   6   11.70    1.30
  -4   6   6    4.90    1.20
  -3   6   6    0.80    0.90
  -2   6   6    6.40    1.10
  -2   6   6    3.70    1.20
  -1   6   6    3.30    1.00
  -1   6   6    3.60    1.10
  -1   6   6    5.80    1.10
   0   6   6   29.10    2.10
   0   6   6   31.40    2.40
   0   6   6   33.80    2.10
  -1  -6  -6   20.10    1.70
   1   6   6   22.10    1.80
   1   6   6   22.00    1.70
   1   6   6   21.30    1.80
  -2  -6  -6   14.00    1.50
   2   6   6   12.50    1.30
   2   6   6   14.60    1.40
   2   6   6   10.90    1.30
  -3  -6  -6    0.50    0.70
  -3  -6  -6    0.30    0.70
   3   6   6    2.90    0.80
   3   6   6    1.30    0.70
   3   6   6    1.10    0.60
   3   6   6    1.60    0.70
  -4  -6  -6   59.99    3.00
  -4  -6  -6   55.59    2.90
  -4  -6  -6   55.69    3.00
   4   6   6   58.39    3.00
   4   6   6   57.89    2.80
   4   6   6   55.09    2.90
  -5  -6  -6    3.70    1.00
  -5  -6  -6    3.10    0.90
  -5  -6  -6    2.40    0.80
   5   6   6    1.50    0.70
   5   6   6    1.50    0.70
  -6  -6  -6   18.80    1.80
  -6  -6  -6   15.70    1.60
  -6  -6  -6   17.90    1.80
   6   6   6   17.10    1.80
   6   6   6   19.10    1.80
  -7  -6  -6    2.30    0.90
  -7  -6  -6    3.00    0.90
  -7  -6  -6    4.10    1.00
   7   6   6    3.40    0.90
  -8  -6  -6    2.00    0.70
  -8  -6  -6    4.10    0.90
  -8  -6  -6    3.10    0.80
  -9  -6  -6    1.50    0.60
  -9  -6  -6    1.80    0.60
  -4   7   6    5.00    1.00
  -3   7   6    1.40    0.90
  -2   7   6    3.50    1.20
  -2   7   6    4.70    0.90
  -1   7   6    5.50    1.30
  -1   7   6    5.90    1.10
   0  -7  -6   28.50    1.90
   0   7   6   28.40    1.90
   0   7   6   26.00    1.90
   0   7   6   26.30    2.20
  -1  -7  -6   14.40    1.40
   1   7   6   14.60    1.50
   1   7   6   20.00    1.70
  -2  -7  -6   50.89    2.70
   2   7   6   48.80    2.60
   2   7   6   46.20    2.60
  -3  -7  -6   33.00    2.10
  -3  -7  -6   29.50    2.00
  -3  -7  -6   28.60    2.00
   3   7   6   32.20    2.00
   3   7   6   27.30    1.80
   3   7   6   28.90    2.00
  -4  -7  -6  180.78    7.20
  -4  -7  -6  187.08    7.10
  -4  -7  -6  180.98    7.20
   4   7   6  188.18    7.20
   4   7   6  182.38    7.00
  -5  -7  -6    0.50    0.70
  -5  -7  -6    1.00    0.80
  -5  -7  -6    0.90    0.80
   5   7   6    0.00    0.60
   5   7   6   -0.60    0.60
  -6  -7  -6    0.10    0.60
  -6  -7  -6    0.90    0.80
  -6  -7  -6    1.20    0.60
   6   7   6   -0.40    0.60
  -7  -7  -6    9.50    1.40
  -7  -7  -6    8.30    1.20
   7   7   6   14.90    1.40
  -8  -7  -6    3.40    0.80
  -8  -7  -6    1.70    0.70
  -8  -7  -6    3.10    0.80
  -9  -7  -6    0.10    0.50
  -3   8   6    5.20    1.00
  -2   8   6    8.40    1.10
  -2   8   6   11.10    1.50
  -1   8   6    0.50    0.60
  -1   8   6    0.00    0.80
   0   8   6   12.60    1.40
   0   8   6   13.50    1.40
  -1  -8  -6  153.88    6.00
   1   8   6  146.09    6.00
   1   8   6  151.28    6.10
  -2  -8  -6   34.60    2.20
   2   8   6   34.50    2.20
   2   8   6   37.00    2.20
  -3  -8  -6    1.60    0.80
  -3  -8  -6    1.20    0.80
   3   8   6    2.40    0.70
   3   8   6    1.20    0.60
  -4  -8  -6    6.00    1.10
  -4  -8  -6    5.50    1.10
  -4  -8  -6    5.20    1.00
   4   8   6    6.90    1.10
   4   8   6    5.30    0.90
  -5  -8  -6    7.60    1.10
  -5  -8  -6    7.80    1.10
  -5  -8  -6    6.50    1.10
   5   8   6    8.80    1.20
  -6  -8  -6    8.20    1.10
  -6  -8  -6    6.40    1.10
  -6  -8  -6    8.90    1.20
   6   8   6    7.30    1.10
  -7  -8  -6    5.30    0.80
  -7  -8  -6    5.70    1.00
  -7  -8  -6    4.70    0.90
   7   8   6    4.30    0.80
  -8  -8  -6    1.00    0.60
  -8  -8  -6   -0.10    0.50
  -2   9   6    4.50    0.70
  -1   9   6    9.60    1.10
   0   9   6   12.40    1.30
   0   9   6   17.60    1.50
  -1  -9  -6    0.30    0.60
   1   9   6    0.50    0.60
   1   9   6    0.40    0.60
  -2  -9  -6    0.80    0.70
   2   9   6   -0.10    0.60
   2   9   6   -0.10    0.60
  -3  -9  -6   77.89    3.50
   3   9   6   76.29    3.40
   3   9   6   73.39    3.50
  -4  -9  -6   17.40    1.60
  -4  -9  -6   20.70    1.70
   4   9   6   16.40    1.50
   4   9   6   20.30    1.60
  -5  -9  -6    5.50    1.00
  -5  -9  -6    5.20    0.90
  -5  -9  -6    7.10    1.10
   5   9   6    5.90    1.00
  -6  -9  -6   16.30    1.50
  -6  -9  -6   16.90    1.50
  -6  -9  -6   16.70    1.40
   6   9   6   17.00    1.50
  -7  -9  -6    9.30    1.10
  -7  -9  -6    8.00    1.00
  -7  -9  -6   10.70    1.10
   7   9   6    8.70    1.00
  -8  -9  -6   12.60    1.10
  -8  -9  -6   12.50    1.00
  -1  10   6    2.10    0.50
   0  10   6    0.20    0.50
   1  10   6    3.20    0.70
   1  10   6    3.40    0.80
  -2 -10  -6   10.60    1.10
   2  10   6   11.80    1.20
   2  10   6   11.00    1.10
  -3 -10  -6    3.20    0.80
   3  10   6    3.80    0.70
   3  10   6    2.70    0.80
  -4 -10  -6    0.50    0.60
   4  10   6    0.30    0.50
   4  10   6    0.30    0.50
  -5 -10  -6    1.20    0.60
   5  10   6    2.70    0.70
  -6 -10  -6   20.10    1.40
  -6 -10  -6   18.60    1.40
   6  10   6   18.90    1.30
  -7 -10  -6    1.90    0.60
  -7 -10  -6    1.10    0.50
  -7 -10  -6    1.70    0.60
   1  11   6    0.70    0.40
   2  11   6    2.60    0.60
  -3 -11  -6    1.60    0.50
   3  11   6    0.50    0.40
   3  11   6    1.90    0.60
  -4 -11  -6   -0.40    0.40
   4  11   6    0.70    0.50
  -5 -11  -6    5.60    0.70
  -5  -6   7    1.40    0.50
  -5  -6   7    1.40    0.40
  -4  -6   7    7.00    0.80
  -3  -6   7    0.00    0.70
  -6  -5   7    0.60    0.40
  -6  -5   7    0.00    0.50
  -6  -5   7    0.10    0.40
  -5  -5   7   18.70    1.40
  -5  -5   7   17.90    1.40
  -5  -5   7   20.30    1.40
  -4  -5   7   10.50    1.10
  -4  -5   7    7.80    1.00
  -4  -5   7    8.60    1.00
  -3  -5   7    5.50    1.00
  -3  -5   7    5.60    0.90
   3  -5   7    1.80    0.60
   3  -5   7    2.30    0.60
   4  -5   7    0.90    0.40
  -6  -4   7    2.60    0.60
  -6  -4   7    2.60    0.60
  -6  -4   7    3.90    0.80
  -6  -4   7    2.90    0.60
  -5  -4   7    1.40    0.70
  -5  -4   7    2.90    0.80
  -5  -4   7    2.80    0.70
  -5  -4   7    2.70    0.80
  -4  -4   7   12.80    1.30
  -4  -4   7    9.80    1.20
  -4  -4   7   10.10    1.30
  -4  -4   7    9.50    1.20
  -3  -4   7    0.60    0.60
  -3  -4   7    0.90    0.60
  -3  -4   7    0.90    0.60
  -2  -4   7    0.40    0.60
  -2  -4   7    0.40    0.60
  -2  -4   7   -0.70    0.70
   2  -4   7    0.70    0.60
   2  -4   7    1.40    0.70
   3  -4   7    4.90    0.90
   3  -4   7    4.70    0.90
   3  -4   7    4.30    1.00
   4  -4   7    0.40    0.50
   4  -4   7    1.40    0.70
   4  -4   7    0.90    0.60
   5  -4   7   -0.30    0.40
   5  -4   7    0.80    0.50
  -6  -3   7    4.40    0.80
  -6  -3   7    4.40    0.80
  -6  -3   7    3.70    0.80
  -6  -3   7    3.20    0.70
  -5  -3   7    2.90    0.90
  -5  -3   7    2.50    0.70
  -5  -3   7    4.00    0.90
  -5  -3   7    2.20    0.70
  -4  -3   7   12.00    1.30
  -4  -3   7   13.20    1.40
  -4  -3   7   13.30    1.40
  -4  -3   7   11.60    1.40
  -3  -3   7    3.90    0.90
  -3  -3   7    2.50    0.80
  -3  -3   7    1.40    0.70
  -3  -3   7    2.90    0.80
  -2  -3   7    4.70    1.00
  -2  -3   7    4.60    0.90
  -2  -3   7    4.40    0.90
  -2  -3   7    2.60    0.80
  -1  -3   7   15.30    1.40
   2  -3   7   18.70    1.60
   2  -3   7   17.40    1.60
   2  -3   7   17.50    1.70
   3  -3   7    0.80    0.60
   3  -3   7    1.40    0.70
   3  -3   7    2.00    0.80
   4  -3   7    0.50    0.60
   4  -3   7    0.30    0.90
   4  -3   7   -0.20    0.60
   5  -3   7    1.20    0.60
   5  -3   7    0.00    0.50
   5  -3   7    0.40    0.70
   6  -3   7    0.30    0.40
   6  -3   7    2.00    0.70
  -7  -2   7   11.20    1.10
  -7  -2   7    9.60    0.90
  -6  -2   7    4.20    0.80
  -6  -2   7    2.20    0.80
  -6  -2   7    2.50    0.70
  -6  -2   7    4.60    0.90
  -5  -2   7   11.20    1.20
  -5  -2   7   10.70    1.20
  -5  -2   7   12.40    1.50
  -5  -2   7    9.90    1.20
  -4  -2   7    2.60    0.80
  -4  -2   7    1.70    0.70
  -4  -2   7    2.20    0.90
  -4  -2   7    2.10    0.70
  -3  -2   7    2.50    0.70
  -3  -2   7    4.50    0.90
  -3  -2   7    1.90    0.80
  -3  -2   7    1.30    0.70
  -2  -2   7    9.80    1.20
  -2  -2   7    8.20    1.10
  -2  -2   7    6.40    1.20
  -2  -2   7    9.00    1.10
  -1  -2   7    5.40    1.00
  -1  -2   7    6.50    1.00
  -1  -2   7    6.10    1.00
  -1  -2   7    5.80    0.90
   0  -2   7   35.10    2.20
   0  -2   7   35.60    2.20
   1  -2   7    5.70    1.10
   1  -2   7    7.80    1.40
   2  -2   7   52.69    3.00
   2  -2   7   47.00    2.80
   2  -2   7   47.40    2.50
   2  -2   7   47.50    2.50
   3  -2   7    0.00    0.60
   3  -2   7   -0.30    0.80
   3  -2   7   -0.20    0.50
   3  -2   7    1.40    1.00
   4  -2   7   20.20    2.00
   4  -2   7   21.20    2.00
   4  -2   7   21.50    1.60
   4  -2   7   18.70    1.70
   5  -2   7    7.10    1.00
   5  -2   7    4.20    1.20
   5  -2   7    4.70    1.10
   5  -2   7    6.60    1.00
   6  -2   7    0.80    0.60
   6  -2   7    0.20    0.50
   6  -2   7   -1.10    0.60
   6  -2   7    0.10    0.50
  -7  -1   7    1.20    0.60
  -7  -1   7    1.20    0.60
  -6  -1   7   -0.10    0.60
  -6  -1   7   -0.50    0.70
  -6  -1   7    0.20    0.50
  -6  -1   7    1.20    0.60
  -6  -1   7   -0.70    0.50
  -5  -1   7    1.10    0.80
  -5  -1   7   -0.80    0.50
  -5  -1   7    0.50    0.60
  -5  -1   7    0.70    0.70
  -5  -1   7    0.40    0.60
  -4  -1   7    5.60    1.10
  -4  -1   7    5.90    1.30
  -4  -1   7    5.40    1.00
  -4  -1   7    4.70    0.90
  -4  -1   7    4.80    0.90
  -3  -1   7   15.40    1.70
  -3  -1   7   13.30    1.40
  -3  -1   7   22.50    2.10
  -3  -1   7   20.00    1.70
  -3  -1   7   18.00    1.50
  -2  -1   7    9.70    1.40
  -2  -1   7    9.80    1.20
  -2  -1   7   14.60    1.40
  -2  -1   7    8.30    1.00
  -2  -1   7   14.40    1.80
  -1  -1   7   13.90    1.80
  -1  -1   7   13.50    1.30
  -1  -1   7   15.90    1.50
  -1  -1   7   14.30    1.50
  -1  -1   7   11.70    1.20
   0  -1   7   51.09    2.50
   0  -1   7   49.60    3.30
   1  -1   7    1.70    1.30
   1  -1   7    2.90    1.00
   1  -1   7    1.60    1.00
   1  -1   7    1.30    1.00
   2  -1   7   50.09    2.90
   2  -1   7   53.69    2.60
   2  -1   7   54.29    3.20
   2  -1   7   50.29    3.00
   2  -1   7   54.59    2.60
   3  -1   7    2.90    1.10
   3  -1   7    3.50    1.00
   3  -1   7    3.20    0.80
   3  -1   7    4.40    1.30
   3  -1   7    3.60    0.80
   4  -1   7   12.10    1.40
   4  -1   7   11.40    1.30
   4  -1   7   10.30    1.60
   4  -1   7   13.40    1.80
   5  -1   7   10.30    1.20
   5  -1   7   10.70    1.30
   5  -1   7   14.10    1.70
   5  -1   7   10.10    1.60
   6  -1   7    4.50    1.10
   6  -1   7    4.60    1.10
   6  -1   7    4.20    0.80
   6  -1   7    5.40    0.90
   7  -1   7   -0.10    0.60
   7  -1   7   -0.50    0.70
   7  -1   7    0.40    0.50
  -7   0   7    1.00    0.60
  -7   0   7    0.40    0.50
  -6   0   7    0.30    0.70
  -6   0   7    0.40    0.70
  -6   0   7   -0.30    0.50
  -5   0   7    2.20    0.80
  -5   0   7    2.40    0.90
  -5   0   7    1.80    0.90
  -5   0   7    1.90    0.70
  -5   0   7    1.90    0.70
  -4   0   7   29.30    1.90
  -4   0   7   28.00    2.20
  -4   0   7   28.20    1.90
  -4   0   7   25.80    1.80
  -4   0   7   28.40    2.00
  -3   0   7    0.00    0.50
  -3   0   7    0.10    0.50
  -3   0   7   -0.30    0.70
  -3   0   7    0.50    0.60
  -3   0   7   -0.10    0.60
  -2   0   7   51.39    2.70
  -2   0   7   53.29    3.00
  -2   0   7   50.69    2.60
  -2   0   7   53.89    2.80
  -2   0   7   49.80    2.60
   1   0  -7   69.79    4.20
  -1   0   7   66.19    3.10
  -1   0   7   62.39    3.80
   0   0  -7   11.00    1.80
   0   0   7   19.10    1.40
   0   0   7   19.40    2.30
  -1   0  -7   14.10    2.10
   1   0   7   15.10    1.90
   1   0   7   14.60    1.30
   2   0   7  114.69    4.70
   2   0   7  122.89    4.70
   2   0   7  117.59    6.30
   2   0   7  120.79    5.80
   3   0   7    0.90    0.60
   3   0   7    2.20    1.10
   3   0   7    1.30    0.60
   3   0   7    1.40    0.90
   3   0   7    0.70    0.80
   4   0   7    4.30    1.40
   4   0   7    4.30    0.90
   4   0   7    5.90    0.90
   4   0   7    7.10    1.30
   4   0   7    4.90    1.20
   5   0   7   43.00    2.90
   5   0   7   44.90    2.80
   5   0   7   45.40    2.50
   5   0   7   45.00    3.10
   5   0   7   44.00    2.40
   6   0   7   14.50    1.60
   6   0   7   16.60    1.90
   6   0   7   15.80    1.50
   6   0   7   16.50    1.60
   6   0   7   15.40    2.00
   7   0   7    1.40    0.80
   7   0   7    3.40    1.00
   7   0   7    2.10    0.60
   7   0   7    3.30    0.70
  -6   1   7    0.20    0.60
  -6   1   7    1.60    0.70
  -5   1   7    7.10    1.30
  -5   1   7    5.60    1.10
  -5   1   7    5.30    0.90
  -4   1   7    5.80    0.90
  -4   1   7    7.70    1.10
  -4   1   7    8.90    1.40
  -4   1   7    8.60    1.10
  -4   1   7    7.10    1.20
  -3   1   7   90.89    4.20
  -3   1   7   88.19    3.80
  -3   1   7   83.39    3.80
  -3   1   7   81.69    3.90
  -3   1   7   88.59    4.10
  -2   1   7   45.50    2.30
  -2   1   7   43.10    2.50
  -2   1   7   39.00    2.50
  -2   1   7   46.40    2.40
  -2   1   7   46.80    2.80
  -2   1   7   43.80    2.40
   1  -1  -7  113.59    6.30
   1  -1  -7  129.49    6.30
  -1   1   7  125.39    6.10
  -1   1   7  126.79    5.10
  -1   1   7  134.79    5.50
   0  -1  -7   15.10    2.10
   0   1   7   18.90    1.50
   0   1   7   22.40    2.20
  -1  -1  -7    4.50    1.30
   1   1   7    3.80    0.70
   1   1   7    3.60    1.10
   2   1   7   23.10    1.40
   2   1   7   19.40    2.10
   2   1   7   20.00    1.40
   2   1   7   22.40    2.10
   2   1   7   13.30    2.20
   3   1   7   64.69    5.50
   3   1   7   66.79    3.60
   3   1   7   71.89    3.70
   3   1   7   67.39    3.10
   3   1   7   68.19    3.50
   3   1   7   70.49    3.10
   3   1   7   65.69    3.20
   4   1   7    0.90    0.90
   4   1   7    0.70    1.10
   4   1   7    1.10    0.60
   4   1   7   -0.30    0.50
   4   1   7    0.50    0.70
   5   1   7    3.40    1.10
   5   1   7    5.00    0.90
   5   1   7    4.70    0.90
   5   1   7    3.40    1.20
   5   1   7    7.20    1.30
   6   1   7   16.60    1.80
   6   1   7   16.40    1.80
   6   1   7   14.40    1.80
   6   1   7   14.90    1.50
   6   1   7   15.00    1.50
  -7  -1  -7   -0.70    0.80
   7   1   7    0.20    0.70
   7   1   7   -0.30    0.60
   7   1   7    0.70    0.60
   7   1   7    0.70    0.80
  -8  -1  -7   -0.30    0.40
  -8  -1  -7    0.70    0.70
   8   1   7   -0.10    0.80
   8   1   7    0.90    0.70
  -6   2   7    3.40    0.80
  -5   2   7    2.60    1.00
  -5   2   7    3.70    0.90
  -5   2   7    3.20    1.00
  -4   2   7    1.80    1.00
  -4   2   7    1.20    0.70
  -4   2   7    3.10    0.90
  -4   2   7    3.10    1.00
  -3   2   7   21.80    1.60
  -3   2   7   19.20    1.90
  -3   2   7   26.70    2.50
  -3   2   7   23.00    1.70
  -3   2   7   23.50    2.00
  -2   2   7   14.00    1.70
  -2   2   7   14.20    1.40
  -2   2   7   12.00    1.60
  -2   2   7   16.20    1.50
  -2   2   7   14.40    1.50
  -2   2   7   12.50    1.30
   1  -2  -7   70.79    4.50
   1  -2  -7   83.79    4.70
  -1   2   7   76.79    3.70
  -1   2   7   74.99    3.40
  -1   2   7   81.59    4.40
   0  -2  -7   20.70    2.50
   0   2   7   15.90    1.30
   0   2   7   14.60    1.90
  -1  -2  -7    1.90    1.00
   1   2   7    1.50    0.90
   1   2   7    1.20    0.60
  -2  -2  -7   21.20    2.50
   2   2   7   18.60    2.50
   2   2   7   20.10    2.20
   2   2   7   22.20    1.40
   2   2   7   19.80    1.50
   3   2   7   23.20    1.70
   3   2   7   24.70    1.60
   3   2   7   25.90    2.60
   3   2   7   23.10    1.60
   3   2   7   24.10    2.50
   4   2   7   11.50    1.30
   4   2   7   11.50    1.40
   4   2   7   12.30    1.70
   4   2   7   14.50    1.70
   4   2   7   12.30    1.40
   4   2   7   15.50    1.90
   4   2   7   11.10    1.30
   5   2   7   16.60    1.90
   5   2   7   18.90    1.90
   5   2   7   17.70    2.00
   5   2   7   16.70    1.60
   5   2   7   16.50    1.60
   6   2   7   10.50    1.50
   6   2   7    7.30    1.40
   6   2   7   10.00    1.20
   6   2   7    7.70    1.40
   6   2   7    9.70    1.20
  -7  -2  -7   17.20    1.70
   7   2   7   18.60    1.90
   7   2   7   15.20    1.50
   7   2   7   16.10    1.70
   7   2   7   14.40    1.50
   7   2   7   15.70    1.80
  -8  -2  -7    1.10    0.80
   8   2   7    1.40    0.70
   8   2   7    3.40    0.90
  -6   3   7   -0.10    0.50
  -5   3   7    0.40    0.60
  -5   3   7    1.60    0.90
  -4   3   7   -1.00    0.90
  -4   3   7    0.50    0.70
  -3   3   7  123.59    5.80
  -3   3   7  125.89    5.10
  -3   3   7  126.29    5.40
  -3   3   7  122.49    5.10
  -2   3   7    7.40    1.00
  -2   3   7    7.20    1.20
  -2   3   7    6.70    1.00
  -2   3   7    6.10    1.00
  -2   3   7    6.30    1.30
  -2   3   7    6.10    1.00
   1  -3  -7  105.59    5.70
   1  -3  -7   72.29    4.80
  -1   3   7   94.99    4.00
  -1   3   7   99.29    4.50
  -1   3   7   96.79    4.00
  -1   3   7   85.29    5.40
  -1   3   7   95.49    4.60
  -1   3   7  102.59    5.20
   0  -3  -7   11.70    1.90
   0   3   7   10.70    1.70
   0   3   7   11.50    1.20
  -1  -3  -7   33.40    2.70
   1   3   7   31.90    1.80
   1   3   7   36.50    2.70
  -2  -3  -7   17.80    2.20
   2   3   7   19.70    1.30
   2   3   7   18.30    1.40
   2   3   7   17.20    2.30
   3   3   7   27.20    2.60
   3   3   7   26.30    2.60
   3   3   7   26.00    1.80
   3   3   7   25.10    1.60
   3   3   7   25.90    1.70
   4   3   7   25.00    2.10
   4   3   7   27.00    2.00
   4   3   7   27.30    1.80
   4   3   7   24.30    2.10
   4   3   7   29.70    2.00
   4   3   7   25.70    1.70
   4   3   7   29.60    2.00
  -5  -3  -7    1.30    0.80
   5   3   7   -0.50    0.70
   5   3   7   -0.10    0.60
   5   3   7    0.50    0.80
   5   3   7    0.40    0.70
   5   3   7    0.20    0.60
   5   3   7   -0.10    0.90
  -6  -3  -7    3.80    0.90
   6   3   7    2.80    0.80
   6   3   7    4.80    1.30
   6   3   7    3.40    0.90
   6   3   7    4.50    1.20
   6   3   7    1.50    1.00
  -7  -3  -7    2.40    1.10
   7   3   7    1.30    1.00
   7   3   7    2.80    0.80
   7   3   7    2.90    1.00
   7   3   7    2.50    0.80
  -8  -3  -7   -0.40    0.70
   8   3   7    0.20    0.70
   8   3   7    0.50    0.60
  -5   4   7    1.50    0.90
  -5   4   7    1.30    0.70
  -4   4   7   45.60    3.10
  -3   4   7    5.50    1.40
  -3   4   7    5.50    1.10
  -2   4   7   -0.20    0.70
  -2   4   7    0.30    0.90
  -2   4   7   -0.30    0.50
  -1   4   7    6.00    1.20
  -1   4   7    5.50    1.30
  -1   4   7    7.40    1.00
  -1   4   7    4.90    0.80
   0  -4  -7   39.90    2.90
   0   4   7   37.70    4.10
   0   4   7   38.40    2.10
   0   4   7   37.20    3.00
   0   4   7   39.20    2.60
   0   4   7   41.70    2.10
  -1  -4  -7   24.30    2.20
   1   4   7   19.80    1.40
   1   4   7   21.60    1.50
   1   4   7   19.30    2.10
  -2  -4  -7    9.40    1.50
   2   4   7   10.30    1.20
   2   4   7   10.50    1.80
   2   4   7    9.90    1.10
   2   4   7    9.60    1.10
  -3  -4  -7   16.60    2.10
   3   4   7   21.20    1.80
   3   4   7   17.40    2.20
   3   4   7   15.90    1.50
   3   4   7   17.90    1.70
   3   4   7   18.00    1.60
   3   4   7   15.50    2.50
  -4  -4  -7   92.59    4.20
   4   4   7   94.99    4.40
   4   4   7   90.99    4.00
   4   4   7   92.09    4.30
   4   4   7   95.79    4.10
   4   4   7   94.49    4.20
   4   4   7   94.39    4.40
   4   4   7   92.59    4.20
  -5  -4  -7   22.10    1.90
   5   4   7   19.60    2.10
   5   4   7   23.80    1.70
   5   4   7   18.50    1.80
   5   4   7   19.70    1.80
   5   4   7   19.40    2.00
  -6  -4  -7   -0.40    0.70
  -6  -4  -7    0.40    0.80
   6   4   7    0.10    0.60
   6   4   7   -0.60    0.70
   6   4   7    0.50    0.60
   6   4   7    0.50    0.80
  -7  -4  -7    0.00    0.60
  -7  -4  -7    1.50    0.90
   7   4   7    0.90    0.90
   7   4   7    0.80    0.70
   7   4   7   -0.20    0.70
  -8  -4  -7   -0.30    0.60
   8   4   7    0.40    0.80
   8   4   7    0.70    0.60
  -5   5   7    3.60    0.80
  -5   5   7    1.40    0.70
  -4   5   7    0.40    0.70
  -4   5   7    0.50    0.80
  -3   5   7    4.30    1.20
  -3   5   7    7.00    1.20
  -2   5   7    6.60    1.20
  -2   5   7    6.90    1.40
  -2   5   7    5.80    1.00
  -1   5   7    9.90    1.60
  -1   5   7   12.00    1.40
  -1   5   7   10.50    1.30
   0   5   7   10.10    1.50
   0   5   7    8.30    1.10
   0   5   7    5.90    0.90
   0   5   7    7.40    1.10
   1   5   7    2.00    0.80
   1   5   7    2.70    0.70
   1   5   7    0.30    0.70
   1   5   7    2.40    0.80
   1   5   7    2.00    0.70
   2   5   7  142.29    5.60
   2   5   7  138.99    5.50
   2   5   7  143.79    5.60
   2   5   7  135.69    5.50
   2   5   7  136.89    5.70
   2   5   7  133.69    6.10
  -3  -5  -7    1.90    0.70
   3   5   7    3.60    0.80
   3   5   7    3.00    0.90
   3   5   7    1.80    0.80
   3   5   7    4.80    0.90
   3   5   7    4.10    0.90
   3   5   7    2.70    1.00
   3   5   7    4.50    0.90
  -4  -5  -7   36.00    2.10
  -4  -5  -7   37.30    2.30
   4   5   7   39.30    2.40
   4   5   7   33.90    2.10
   4   5   7   36.80    2.30
   4   5   7   30.90    2.10
   4   5   7   34.10    2.20
  -5  -5  -7   34.80    2.30
  -5  -5  -7   33.00    2.30
   5   5   7   34.00    2.10
   5   5   7   35.70    2.30
   5   5   7   31.60    2.40
   5   5   7   34.60    2.20
  -6  -5  -7    5.20    1.10
  -6  -5  -7    5.20    1.10
   6   5   7    4.00    1.00
   6   5   7    4.90    0.90
   6   5   7    6.30    1.20
  -7  -5  -7    1.30    0.70
  -7  -5  -7    0.10    0.90
  -7  -5  -7    0.30    0.80
   7   5   7    0.60    0.90
   7   5   7    1.10    0.70
  -8  -5  -7    0.00    0.60
  -8  -5  -7   -1.50    0.50
   8   5   7    0.10    0.50
  -4   6   7    0.20    0.80
  -3   6   7   -0.30    0.80
  -2   6   7   20.90    2.30
  -1   6   7   21.10    1.80
  -1   6   7   17.50    2.00
  -1   6   7   18.60    1.80
   0   6   7    6.40    1.30
   0   6   7    4.30    1.00
   0   6   7    5.30    1.10
   1   6   7   11.50    1.40
   1   6   7   12.70    1.40
   1   6   7   15.10    1.50
   1   6   7   10.60    1.30
   1   6   7   12.90    1.60
  -2  -6  -7   74.99    3.40
   2   6   7   71.09    3.40
   2   6   7   76.99    3.40
   2   6   7   69.29    3.40
   2   6   7   72.29    3.40
   2   6   7   72.59    3.40
  -3  -6  -7    1.70    0.80
  -3  -6  -7    0.30    0.70
   3   6   7    1.30    0.70
   3   6   7    1.50    0.70
   3   6   7    2.40    0.80
   3   6   7    1.10    0.70
  -4  -6  -7  140.29    5.90
  -4  -6  -7  137.09    5.70
   4   6   7  147.39    5.80
   4   6   7  144.69    5.90
   4   6   7  142.79    5.70
  -5  -6  -7    6.10    1.00
  -5  -6  -7    6.30    1.20
  -5  -6  -7    7.30    1.30
   5   6   7    7.50    1.10
   5   6   7    5.30    1.10
   5   6   7    8.30    1.30
  -6  -6  -7   37.10    2.40
  -6  -6  -7   38.50    2.40
   6   6   7   35.60    2.20
   6   6   7   35.10    2.30
   6   6   7   31.90    2.00
  -7  -6  -7    2.20    0.80
  -7  -6  -7    3.30    0.90
  -7  -6  -7    1.30    0.80
   7   6   7    3.00    0.90
  -8  -6  -7    3.10    0.80
  -8  -6  -7    3.50    0.70
  -8  -6  -7    4.80    0.80
   8   6   7    3.00    0.70
  -4   7   7    1.60    0.60
  -3   7   7    3.00    0.90
  -2   7   7    0.80    0.60
  -2   7   7    1.30    0.90
  -1   7   7    0.50    0.60
  -1   7   7    0.90    0.80
   0  -7  -7    2.90    0.80
   0   7   7    3.50    1.10
   0   7   7    4.60    0.90
  -1  -7  -7   13.60    1.40
   1   7   7   12.50    1.40
   1   7   7   18.70    2.20
   1   7   7   16.70    1.60
  -2  -7  -7   94.09    4.20
  -2  -7  -7   88.99    4.20
   2   7   7   96.59    4.10
   2   7   7   96.99    4.20
  -3  -7  -7   33.70    2.20
  -3  -7  -7   30.40    2.10
   3   7   7   30.90    2.00
   3   7   7   33.90    2.10
   3   7   7   31.30    2.10
  -4  -7  -7   14.60    1.50
  -4  -7  -7   17.50    1.60
  -4  -7  -7   14.60    1.50
   4   7   7   17.70    1.70
   4   7   7   15.50    1.50
  -5  -7  -7   99.69    4.50
  -5  -7  -7  101.99    4.30
  -5  -7  -7  102.79    4.50
   5   7   7  102.39    4.30
   5   7   7   99.69    4.40
  -6  -7  -7   11.30    1.20
  -6  -7  -7   11.70    1.30
  -6  -7  -7   11.10    1.40
   6   7   7   13.90    1.40
  -7  -7  -7    8.30    1.10
  -7  -7  -7    8.40    1.10
  -7  -7  -7    8.10    1.10
   7   7   7    5.70    0.90
  -8  -7  -7    0.10    0.40
  -8  -7  -7   -0.10    0.60
  -8  -7  -7    0.70    0.60
  -3   8   7    0.70    0.60
  -2   8   7   23.30    1.40
  -2   8   7   21.10    1.70
  -1   8   7   38.90    2.50
  -1   8   7   39.70    2.10
   0  -8  -7    1.80    0.70
   0   8   7    1.70    0.70
  -1  -8  -7    0.40    0.60
   1   8   7    0.00    0.50
   1   8   7    0.00    0.60
  -2  -8  -7    4.10    0.90
   2   8   7    5.00    0.90
   2   8   7    3.20    0.80
  -3  -8  -7   -0.50    0.70
  -3  -8  -7    0.20    0.70
   3   8   7    0.10    0.60
   3   8   7   -0.30    0.50
  -4  -8  -7   23.70    1.80
  -4  -8  -7   23.00    1.80
  -4  -8  -7   23.00    1.80
   4   8   7   23.70    1.80
   4   8   7   22.30    1.60
  -5  -8  -7    7.40    1.10
  -5  -8  -7    5.10    1.00
  -5  -8  -7    7.30    1.10
   5   8   7    7.10    1.00
   5   8   7    5.30    0.90
  -6  -8  -7    2.40    0.70
  -6  -8  -7    2.30    0.80
  -6  -8  -7    3.10    0.90
   6   8   7    2.70    0.80
  -7  -8  -7    2.40    0.70
  -7  -8  -7    3.00    0.80
   7   8   7    1.70    0.70
  -8  -8  -7    4.80    0.80
  -8  -8  -7    2.90    0.70
  -1   9   7   18.80    1.30
   0   9   7    2.90    0.80
  -1  -9  -7   16.70    1.40
   1   9   7   17.50    1.50
   1   9   7   18.00    1.50
  -2  -9  -7   15.00    1.40
   2   9   7   11.70    1.20
   2   9   7   12.80    1.30
  -3  -9  -7   -0.10    0.80
   3   9   7    0.50    0.70
   3   9   7    0.00    0.60
  -4  -9  -7   40.80    2.20
  -4  -9  -7   39.40    2.30
   4   9   7   41.40    2.20
   4   9   7   39.30    2.10
  -5  -9  -7    2.10    0.80
  -5  -9  -7    3.30    0.80
  -5  -9  -7    4.20    0.90
   5   9   7    3.50    0.70
   5   9   7    4.10    0.80
  -6  -9  -7   68.79    3.20
  -6  -9  -7   72.79    3.20
  -6  -9  -7   76.29    3.30
   6   9   7   73.99    3.20
  -7  -9  -7   13.70    1.10
  -7  -9  -7   14.10    1.20
  -7  -9  -7   13.80    1.20
   0  10   7    1.80    0.50
   1  10   7    0.80    0.50
  -2 -10  -7    0.40    0.50
   2  10   7   -0.10    0.50
   2  10   7   -0.80    0.40
  -3 -10  -7    3.60    0.70
   3  10   7    3.00    0.60
   3  10   7    1.70    0.70
  -4 -10  -7    7.60    0.90
   4  10   7    7.90    1.00
   4  10   7    8.00    0.90
  -5 -10  -7    9.00    1.00
   5  10   7    6.30    0.90
  -6 -10  -7    0.30    0.50
  -6 -10  -7    1.20    0.50
  -3 -11  -7    0.40    0.40
   3  11   7   -0.20    0.40
  -4 -11  -7    0.60    0.40
  -4  -5   8   10.10    0.90
  -4  -5   8   11.80    0.90
  -4  -5   8   10.10    0.90
  -3  -5   8    2.60    0.60
  -5  -4   8    3.60    0.70
  -5  -4   8    3.20    0.60
  -5  -4   8    3.40    0.60
  -5  -4   8    3.30    0.70
  -4  -4   8    0.60    0.60
  -4  -4   8    0.90    0.60
  -4  -4   8    1.50    0.60
  -3  -4   8   51.59    2.40
  -3  -4   8   43.60    2.30
  -3  -4   8   44.90    2.40
  -2  -4   8    4.80    0.80
   3  -4   8    1.40    0.60
   3  -4   8    1.80    0.50
   4  -4   8   -0.40    0.30
  -5  -3   8    0.30    0.50
  -5  -3   8    0.30    0.60
  -5  -3   8    1.30    0.60
  -5  -3   8    0.70    0.50
  -4  -3   8   18.30    1.60
  -4  -3   8   18.90    1.50
  -4  -3   8   18.20    1.50
  -4  -3   8   17.20    1.60
  -3  -3   8   12.30    1.30
  -3  -3   8   11.80    1.20
  -3  -3   8   12.10    1.30
  -3  -3   8   11.70    1.30
  -2  -3   8   94.29    4.10
  -2  -3   8   98.69    4.10
  -2  -3   8   93.69    4.10
  -2  -3   8   92.49    4.00
  -1  -3   8   10.70    1.40
   2  -3   8    4.80    0.90
   2  -3   8    5.30    0.80
   3  -3   8    0.50    0.60
   3  -3   8   -0.40    0.50
   3  -3   8    0.30    0.70
   4  -3   8    2.30    0.60
   4  -3   8    3.40    0.80
   4  -3   8    2.50    0.60
   5  -3   8    7.30    1.00
   5  -3   8    6.50    0.80
  -6  -2   8    0.80    0.50
  -6  -2   8   -0.20    0.60
  -6  -2   8    1.20    0.60
  -6  -2   8    0.20    0.40
  -5  -2   8    3.00    0.70
  -5  -2   8    4.80    0.80
  -5  -2   8    4.40    0.90
  -5  -2   8    4.20    0.80
  -4  -2   8    1.50    0.70
  -4  -2   8    2.20    0.90
  -4  -2   8    0.00    0.60
  -4  -2   8    2.10    0.70
  -3  -2   8   13.30    1.30
  -3  -2   8   14.80    1.50
  -3  -2   8   14.60    1.50
  -3  -2   8   12.20    1.30
  -2  -2   8   37.10    2.20
  -2  -2   8   35.10    2.10
  -2  -2   8   33.00    2.20
  -2  -2   8   32.20    2.00
  -1  -2   8   19.50    1.60
  -1  -2   8   14.80    1.50
  -1  -2   8   17.60    1.60
  -1  -2   8   15.40    1.60
   0  -2   8   18.80    1.80
   0  -2   8   18.40    1.90
   0  -2   8   18.50    1.80
   0  -2   8   19.20    2.00
   1  -2   8    2.90    1.10
   1  -2   8    4.00    1.00
   2  -2   8    0.90    0.80
   2  -2   8    0.70    0.60
   2  -2   8   -0.20    0.80
   3  -2   8   -1.10    0.80
   3  -2   8    0.50    0.50
   3  -2   8   -0.60    0.60
   3  -2   8    1.10    0.60
   4  -2   8    5.40    0.90
   4  -2   8    4.00    1.10
   4  -2   8    2.30    0.80
   4  -2   8    4.60    0.90
   5  -2   8    0.50    0.70
   5  -2   8   -0.80    0.40
   5  -2   8   -0.30    0.50
   5  -2   8   -0.40    0.60
  -6  -1   8   -0.30    0.50
  -6  -1   8    0.40    0.50
  -6  -1   8    0.60    0.60
  -6  -1   8    0.50    0.60
  -6  -1   8    0.60    0.60
  -5  -1   8    0.70    0.70
  -5  -1   8    0.00    0.60
  -5  -1   8    0.50    0.70
  -5  -1   8   -0.60    0.50
  -5  -1   8   -0.30    0.50
  -4  -1   8   11.30    1.50
  -4  -1   8   11.70    1.40
  -4  -1   8   12.50    1.20
  -4  -1   8    9.50    1.20
  -4  -1   8   10.50    1.20
  -3  -1   8    7.70    1.20
  -3  -1   8    8.20    1.10
  -3  -1   8    6.00    1.00
  -3  -1   8    9.40    1.50
  -3  -1   8    8.00    1.10
  -2  -1   8   -0.10    0.70
  -2  -1   8    0.30    0.90
  -2  -1   8   -0.30    0.50
  -2  -1   8   -0.10    0.60
  -2  -1   8    0.20    0.50
  -1  -1   8   19.20    1.70
  -1  -1   8   17.80    1.50
  -1  -1   8   20.70    1.90
  -1  -1   8   16.60    1.50
  -1  -1   8   21.00    2.20
   0  -1   8   23.10    1.80
   0  -1   8   22.40    1.70
   0  -1   8   25.30    2.10
   0  -1   8   22.50    2.10
   0  -1   8   21.60    1.60
   1  -1   8    2.40    0.70
   1  -1   8    3.00    1.10
   1  -1   8    3.80    1.00
   1  -1   8    2.50    1.10
   2  -1   8   36.70    2.70
   2  -1   8   39.10    2.20
   2  -1   8   42.20    2.60
   3  -1   8    8.50    1.40
   3  -1   8    9.30    1.20
   3  -1   8    9.00    1.60
   3  -1   8    7.90    1.10
   3  -1   8    7.90    1.30
   4  -1   8    1.90    0.80
   4  -1   8    1.50    0.70
   4  -1   8    1.30    0.90
   4  -1   8    0.70    0.90
   5  -1   8    0.50    0.50
   5  -1   8    1.40    0.80
   5  -1   8    1.30    0.70
   5  -1   8    0.80    0.90
   6  -1   8    0.10    0.50
   6  -1   8    1.00    0.70
   6  -1   8    0.50    0.60
   6  -1   8    0.10    0.50
  -6   0   8    0.50    0.50
  -6   0   8    0.50    0.60
  -5   0   8    0.50    0.80
  -5   0   8   -0.30    0.50
  -5   0   8    0.30    0.50
  -5   0   8    1.00    0.60
  -5   0   8   -0.30    0.60
  -4   0   8    3.90    0.80
  -4   0   8    3.80    0.90
  -4   0   8    3.70    0.80
  -4   0   8    5.10    1.20
  -4   0   8    3.40    1.00
  -3   0   8   52.69    2.70
  -3   0   8   50.99    2.70
  -3   0   8   51.19    2.60
  -3   0   8   52.49    3.10
  -3   0   8   52.29    2.90
  -2   0   8    2.70    0.80
  -2   0   8    4.00    0.90
  -2   0   8    2.80    1.20
  -2   0   8    4.10    0.90
  -2   0   8    5.10    0.90
  -1   0   8   15.10    1.50
  -1   0   8   12.70    1.20
  -1   0   8   14.10    1.40
  -1   0   8   13.60    1.50
  -1   0   8   14.10    2.00
  -1   0   8   12.70    1.40
   0   0   8   80.79    3.90
   0   0   8   82.29    3.70
   0   0   8   85.39    3.60
   0   0   8   81.79    3.70
   0   0   8   82.59    4.30
   0   0   8   80.79    3.80
   1   0   8   13.80    1.30
   1   0   8   14.10    1.60
   1   0   8   17.90    1.80
   1   0   8   14.00    1.90
   1   0   8   14.20    1.40
   2   0   8    1.70    0.90
   2   0   8    1.70    0.70
   2   0   8    0.90    0.90
   2   0   8    1.20    0.70
   2   0   8    2.00    0.90
   2   0   8    1.70    1.10
   3   0   8   85.99    4.30
   3   0   8   86.89    3.80
   3   0   8   90.09    4.50
   3   0   8   90.29    3.90
   3   0   8   89.49    4.30
   4   0   8    0.50    1.00
   4   0   8   -0.90    0.80
   4   0   8    0.70    0.90
   4   0   8    0.10    0.60
   4   0   8    0.60    0.60
   5   0   8   15.30    1.40
   5   0   8   15.30    1.60
   5   0   8   14.40    1.70
   5   0   8   14.80    1.50
   5   0   8   15.70    1.90
  -6   0  -8    0.50    0.90
   6   0   8    3.50    0.80
   6   0   8    3.80    1.10
   6   0   8    2.70    0.80
   6   0   8    5.10    1.40
   6   0   8    3.70    1.10
   7   0   8    1.70    0.80
   7   0   8    0.10    0.50
   7   0   8    1.00    0.60
  -6   1   8    0.60    0.50
  -6   1   8    1.40    0.70
  -5   1   8   11.20    1.60
  -5   1   8   12.90    1.20
  -5   1   8   13.50    1.20
  -5   1   8   12.30    1.30
  -4   1   8    4.80    1.00
  -4   1   8    3.60    1.10
  -4   1   8    3.50    0.80
  -4   1   8    4.00    0.80
  -4   1   8    3.10    0.80
  -3   1   8   12.50    1.50
  -3   1   8    9.00    1.20
  -3   1   8   12.30    1.50
  -3   1   8   12.20    1.30
  -3   1   8   11.70    1.70
  -3   1   8    9.80    1.20
  -2   1   8    9.60    1.20
  -2   1   8   10.00    1.20
  -2   1   8    6.60    1.30
  -2   1   8    8.80    1.10
  -2   1   8    7.60    1.30
  -2   1   8    8.30    1.20
  -1   1   8   -0.30    0.70
  -1   1   8    0.20    0.60
  -1   1   8    0.40    0.60
  -1   1   8    0.60    0.80
  -1   1   8    0.10    0.50
  -1   1   8   -0.50    0.50
   0   1   8   17.00    2.10
   0   1   8   19.20    1.50
   0   1   8   14.40    1.50
   0   1   8   16.30    1.40
   0   1   8   15.60    1.40
   0   1   8   16.50    1.80
   1   1   8   21.40    1.60
   1   1   8   20.10    1.50
   1   1   8   21.20    1.50
   1   1   8   18.70    1.90
   1   1   8   20.10    1.90
   1   1   8   24.40    1.50
   1   1   8   21.50    2.20
   2   1   8   11.30    1.20
   2   1   8   11.40    1.70
   2   1   8   11.80    1.60
   2   1   8   12.70    1.60
   2   1   8   14.30    1.40
   2   1   8   14.50    1.30
   3   1   8    7.70    1.40
   3   1   8    7.80    1.00
   3   1   8    8.50    1.20
   3   1   8    7.50    1.40
   3   1   8    6.70    1.00
   3   1   8    7.60    1.10
   3   1   8    9.00    1.60
   4   1   8   25.50    1.80
   4   1   8   26.70    1.70
   4   1   8   23.80    2.60
   4   1   8   22.90    2.30
   4   1   8   27.10    2.20
   5   1   8    0.00    0.60
   5   1   8    1.50    0.90
   5   1   8    0.10    0.90
   5   1   8    0.80    0.60
   5   1   8    0.50    1.00
   6   1   8   -0.60    0.50
   6   1   8    0.10    0.80
   6   1   8   -0.40    0.50
   6   1   8   -0.20    0.60
   6   1   8    0.00    0.80
  -7  -1  -8    4.20    1.00
   7   1   8    2.30    0.60
   7   1   8    3.80    0.90
   7   1   8    4.10    0.80
   7   1   8    2.50    0.90
  -6   2   8    0.50    0.60
  -5   2   8    0.80    0.70
  -5   2   8    0.60    0.60
  -4   2   8    0.50    0.80
  -4   2   8    0.70    0.60
  -4   2   8    0.60    0.90
  -4   2   8    1.60    0.90
  -4   2   8   -0.40    0.50
  -3   2   8   35.70    2.10
  -3   2   8   37.90    2.10
  -3   2   8   33.20    2.10
  -3   2   8   32.90    2.40
  -3   2   8   32.20    2.10
  -3   2   8   35.40    2.40
  -2   2   8    1.80    0.90
  -2   2   8    1.70    0.70
  -2   2   8    0.50    0.60
  -2   2   8    0.80    0.60
  -2   2   8    0.00    0.80
  -2   2   8    1.80    0.60
  -1   2   8    4.10    1.10
  -1   2   8    4.60    0.90
  -1   2   8    5.00    1.10
  -1   2   8    4.90    0.90
  -1   2   8    3.70    0.80
  -1   2   8    2.40    0.70
   0   2   8    5.90    1.00
   0   2   8    3.80    0.80
   0   2   8    5.60    0.90
   0   2   8    5.60    0.90
   0   2   8    3.70    1.00
   0   2   8    5.50    1.20
   1   2   8   16.00    1.40
   1   2   8   17.80    1.40
   1   2   8   18.20    1.40
   1   2   8   17.50    2.00
   1   2   8   17.00    1.60
   1   2   8   17.70    1.80
   1   2   8   15.60    1.60
   2   2   8   52.09    3.10
   2   2   8   52.89    2.70
   2   2   8   50.29    2.90
   2   2   8   52.09    2.60
   2   2   8   52.69    2.70
   2   2   8   50.09    3.00
   3   2   8   55.79    2.70
   3   2   8   51.39    3.10
   3   2   8   51.39    2.60
   3   2   8   53.59    3.00
   3   2   8   51.59    3.10
   3   2   8   51.89    2.80
   3   2   8   52.69    2.80
   4   2   8   51.99    2.80
   4   2   8   51.89    3.10
   4   2   8   52.19    3.10
   4   2   8   53.49    2.70
   4   2   8   54.19    2.80
   4   2   8   50.29    3.20
   4   2   8   54.09    2.70
   5   2   8    7.60    1.40
   5   2   8   10.00    1.30
   5   2   8    8.50    1.40
   5   2   8    9.20    1.20
   5   2   8   12.40    1.60
   6   2   8    2.40    0.80
   6   2   8    4.50    1.10
   6   2   8    2.90    0.90
   6   2   8    3.30    1.10
   6   2   8    3.90    1.30
  -7  -2  -8    2.00    0.80
   7   2   8    2.80    0.70
   7   2   8    2.50    0.90
   7   2   8    2.50    0.70
   7   2   8    2.60    0.90
  -5   3   8    5.90    1.00
  -5   3   8    4.70    0.90
  -4   3   8   20.30    1.40
  -4   3   8   19.70    1.90
  -4   3   8   20.40    2.00
  -3   3   8    0.30    0.60
  -3   3   8    0.50    0.80
  -3   3   8   -0.90    0.50
  -3   3   8    0.60    0.90
  -2   3   8    3.80    1.00
  -2   3   8    4.00    0.90
  -2   3   8    5.30    1.00
  -2   3   8    3.60    0.80
  -2   3   8    5.90    1.00
  -2   3   8    5.50    1.20
  -1   3   8    3.10    0.70
  -1   3   8    3.40    0.80
  -1   3   8    1.90    1.00
  -1   3   8    3.50    0.80
  -1   3   8    3.30    0.80
  -1   3   8    2.50    1.00
   0   3   8   69.39    3.20
   0   3   8   61.19    3.50
   0   3   8   66.69    3.10
   0   3   8   66.59    3.10
   0   3   8   63.29    3.50
   0   3   8   64.19    3.00
   1   3   8   40.20    2.60
   1   3   8   42.20    2.20
   1   3   8   41.20    2.70
   1   3   8   37.80    2.20
   1   3   8   41.60    2.40
   1   3   8   38.00    2.20
   1   3   8   42.30    2.20
   2   3   8   50.19    3.00
   2   3   8   53.39    2.90
   2   3   8   51.39    2.70
   2   3   8   50.29    2.50
   2   3   8   53.09    2.90
   2   3   8   50.99    2.70
   2   3   8   49.80    2.50
   2   3   8   49.40    2.60
   3   3   8    7.80    1.30
   3   3   8    8.30    1.20
   3   3   8   11.20    1.50
   3   3   8    9.80    1.30
   3   3   8    6.90    1.10
   3   3   8    8.30    1.40
   3   3   8    8.50    1.10
   4   3   8    4.20    1.10
   4   3   8    4.70    0.90
   4   3   8    5.00    1.00
   4   3   8    3.80    0.90
   4   3   8    6.10    1.30
   4   3   8    2.30    1.00
   4   3   8    5.50    1.00
  -5  -3  -8   25.50    1.90
   5   3   8   24.10    2.30
   5   3   8   21.60    1.70
   5   3   8   21.60    1.70
   5   3   8   25.00    2.20
   5   3   8   19.00    1.70
   5   3   8   15.80    1.80
  -6  -3  -8    1.80    0.70
   6   3   8    3.50    1.10
   6   3   8    3.10    0.80
   6   3   8    4.00    1.00
   6   3   8    3.90    0.90
   6   3   8    2.90    1.00
  -7  -3  -8   10.50    1.40
   7   3   8   11.30    1.40
   7   3   8   10.10    1.30
   7   3   8    9.50    1.10
   7   3   8   11.40    1.30
  -8  -3  -8    5.80    0.90
   8   3   8    5.60    1.00
  -5   4   8    0.20    0.60
  -5   4   8    0.60    0.60
  -4   4   8   -0.70    0.70
  -4   4   8    0.20    0.70
  -3   4   8   33.70    2.30
  -3   4   8   32.40    2.00
  -3   4   8   34.60    2.50
  -2   4   8    0.40    0.80
  -2   4   8    1.00    0.60
  -2   4   8    1.60    1.00
  -1   4   8   16.30    1.90
  -1   4   8   18.90    1.50
  -1   4   8   19.80    2.10
  -1   4   8   20.60    1.70
  -1   4   8   16.20    1.50
   0   4   8    8.70    1.20
   0   4   8    7.50    1.30
   0   4   8   11.10    1.30
   0   4   8    8.40    1.10
   0   4   8   11.50    1.60
   0   4   8    9.10    1.10
   0   4   8    7.60    1.10
   1   4   8   54.29    3.20
   1   4   8   51.29    2.70
   1   4   8   54.29    3.10
   1   4   8   52.89    2.70
   1   4   8   54.69    2.90
   1   4   8   54.49    2.70
   1   4   8   54.19    2.70
   2   4   8   14.60    1.40
   2   4   8   13.90    1.50
   2   4   8   15.40    1.70
   2   4   8   15.30    1.40
   2   4   8   14.90    1.60
   2   4   8   11.00    1.40
   2   4   8   12.90    1.40
   2   4   8   16.00    1.80
   3   4   8   63.09    3.20
   3   4   8   55.19    3.10
   3   4   8   61.59    3.30
   3   4   8   58.39    2.90
   3   4   8   56.19    3.10
   3   4   8   58.09    2.90
   3   4   8   60.49    2.90
   3   4   8   59.19    3.30
  -4  -4  -8   10.10    1.30
   4   4   8    6.30    1.40
   4   4   8    9.20    1.30
   4   4   8    7.80    1.10
   4   4   8    9.10    1.20
   4   4   8    9.10    1.40
   4   4   8    7.20    1.10
   4   4   8   10.10    1.50
  -5  -4  -8    1.60    0.90
   5   4   8    1.90    0.90
   5   4   8    1.90    1.00
   5   4   8    2.40    0.80
   5   4   8    2.30    0.80
   5   4   8    1.80    0.80
   5   4   8    2.80    0.90
  -6  -4  -8    4.50    1.00
  -6  -4  -8    5.00    1.00
   6   4   8    4.40    1.10
   6   4   8    3.70    0.90
   6   4   8    4.70    1.10
   6   4   8    4.90    0.90
  -7  -4  -8    2.60    0.70
  -7  -4  -8    2.20    0.90
   7   4   8    2.70    0.80
   7   4   8    2.30    0.80
   7   4   8    3.10    0.70
   7   4   8    1.50    0.80
  -8  -4  -8   -0.10    0.60
   8   4   8    0.10    0.70
  -4   5   8    0.30    0.60
  -4   5   8   -1.30    0.50
  -3   5   8   -0.10    0.80
  -3   5   8    0.20    0.80
  -2   5   8   16.20    1.50
  -2   5   8   15.40    1.90
  -2   5   8   16.70    1.80
  -1   5   8   57.69    3.20
  -1   5   8   54.69    2.90
  -1   5   8   51.39    3.10
   0   5   8   59.19    2.90
   0   5   8   63.49    3.00
   0   5   8   61.49    3.30
   0   5   8   61.29    3.30
   0   5   8   59.19    3.00
   0   5   8   57.59    3.00
   1   5   8   16.60    1.80
   1   5   8   15.20    1.50
   1   5   8   15.60    1.50
   1   5   8   14.50    1.40
   1   5   8   16.30    1.60
   2   5   8  152.38    6.00
   2   5   8  145.99    6.00
   2   5   8  151.88    5.90
   2   5   8  148.99    6.10
   2   5   8  143.09    6.00
   2   5   8  150.28    6.20
   2   5   8  146.09    6.00
  -3  -5  -8   46.60    2.60
   3   5   8   50.19    2.70
   3   5   8   49.50    2.70
   3   5   8   52.09    2.90
   3   5   8   53.39    2.90
   3   5   8   49.40    2.80
   3   5   8   53.49    2.80
   3   5   8   52.69    2.80
  -4  -5  -8   47.10    2.70
  -4  -5  -8   46.00    2.50
   4   5   8   46.90    2.60
   4   5   8   49.60    2.70
   4   5   8   43.50    2.70
   4   5   8   50.49    2.80
   4   5   8   48.00    2.60
   4   5   8   45.90    2.70
  -5  -5  -8    2.10    0.90
  -5  -5  -8    1.20    0.80
   5   5   8    1.80    0.80
   5   5   8    2.80    0.90
   5   5   8    2.20    0.80
   5   5   8    2.60    1.00
  -6  -5  -8   31.70    2.10
  -6  -5  -8   26.20    2.00
   6   5   8   28.70    1.80
   6   5   8   26.30    2.00
   6   5   8   27.60    2.00
  -7  -5  -8    1.50    0.70
  -7  -5  -8    1.30    0.60
  -7  -5  -8    1.30    0.70
   7   5   8    1.90    0.70
   7   5   8    2.40    0.80
   7   5   8    0.80    0.50
  -8  -5  -8    1.20    0.60
  -8  -5  -8    1.50    0.80
  -4   6   8    0.00    0.50
  -3   6   8    0.00    0.70
  -2   6   8   11.50    1.60
  -1   6   8   -0.50    0.70
  -1   6   8   -0.70    0.60
  -1   6   8    0.10    0.50
   0   6   8  112.99    4.80
   0   6   8  111.19    5.00
   0   6   8  110.59    4.70
   1   6   8   10.30    1.50
   1   6   8    8.50    1.20
   1   6   8   11.60    1.30
   1   6   8    8.70    1.20
   1   6   8   13.60    1.40
  -2  -6  -8   61.69    3.00
   2   6   8   61.99    3.00
   2   6   8   54.79    3.10
   2   6   8   60.99    3.10
   2   6   8   58.99    3.00
   2   6   8   59.59    3.00
   2   6   8   61.19    3.00
  -3  -6  -8    6.70    1.00
  -3  -6  -8    4.70    1.00
   3   6   8    5.30    1.00
   3   6   8    6.40    1.10
   3   6   8    9.30    1.20
   3   6   8    5.20    1.00
  -4  -6  -8   45.50    2.40
  -4  -6  -8   42.50    2.60
   4   6   8   36.10    2.70
   4   6   8   42.30    2.40
   4   6   8   40.40    2.40
   4   6   8   40.00    2.40
  -5  -6  -8    6.50    1.20
  -5  -6  -8    7.40    1.20
  -5  -6  -8    6.80    1.00
   5   6   8    9.40    1.30
   5   6   8    6.70    1.10
   5   6   8    6.10    1.10
  -6  -6  -8    1.10    0.70
  -6  -6  -8    3.40    1.00
   6   6   8    1.90    0.80
   6   6   8    1.90    0.70
   6   6   8    2.10    0.80
  -7  -6  -8    0.40    0.70
  -7  -6  -8    1.20    0.70
  -7  -6  -8    0.50    0.70
   7   6   8    1.90    0.70
  -8  -6  -8    3.90    0.60
  -8  -6  -8    3.10    0.60
  -3   7   8    0.40    0.60
  -2   7   8    1.90    0.80
   1  -7  -8    2.30    0.70
  -1   7   8    3.10    0.70
  -1   7   8    0.60    0.80
   0  -7  -8    2.20    0.70
   0   7   8    2.30    0.70
   0   7   8    2.40    0.90
  -1  -7  -8   14.20    1.40
   1   7   8   15.30    1.50
   1   7   8   19.00    1.80
  -2  -7  -8   30.80    2.10
  -2  -7  -8   31.40    2.10
   2   7   8   30.90    2.00
   2   7   8   33.50    2.00
   2   7   8   32.10    2.00
  -3  -7  -8   15.70    1.60
  -3  -7  -8   11.10    1.30
   3   7   8   15.90    1.50
   3   7   8   14.30    1.40
   3   7   8   16.80    1.60
  -4  -7  -8    0.30    0.70
  -4  -7  -8   -0.30    0.60
  -4  -7  -8   -0.40    0.70
   4   7   8   -0.10    0.60
   4   7   8    0.60    0.60
   4   7   8    0.40    0.60
  -5  -7  -8   25.00    2.00
  -5  -7  -8   27.10    1.80
  -5  -7  -8   25.20    2.00
   5   7   8   31.60    1.80
   5   7   8   28.70    1.90
  -6  -7  -8   -0.10    0.60
  -6  -7  -8    0.00    0.80
   6   7   8   -0.20    0.50
   6   7   8   -0.90    0.50
  -7  -7  -8    0.80    0.60
  -7  -7  -8    0.20    0.60
  -7  -7  -8   -0.60    0.50
   7   7   8    0.90    0.60
  -8  -7  -8    0.10    0.50
  -2   8   8    0.30    0.60
  -1   8   8   14.10    1.40
  -1   8   8   14.20    1.20
   0  -8  -8   14.40    1.30
   0   8   8   14.20    1.30
   0   8   8   18.30    1.60
  -1  -8  -8    1.00    0.80
   1   8   8    0.50    0.60
  -2  -8  -8    9.80    1.20
   2   8   8    8.70    1.10
   2   8   8    8.60    1.20
  -3  -8  -8   -0.50    0.70
  -3  -8  -8   -0.80    0.50
   3   8   8    0.40    0.60
   3   8   8    0.00    0.60
  -4  -8  -8   26.60    2.10
  -4  -8  -8   31.80    2.00
  -4  -8  -8   28.50    1.90
   4   8   8   29.00    1.90
   4   8   8   25.20    1.90
  -5  -8  -8    2.70    0.80
  -5  -8  -8    2.30    0.70
  -5  -8  -8    2.70    0.80
   5   8   8    3.30    0.70
   5   8   8    3.50    0.80
  -6  -8  -8    9.30    1.20
  -6  -8  -8   10.10    1.20
  -6  -8  -8   10.00    1.10
   6   8   8   10.40    1.20
   6   8   8   10.00    1.10
  -7  -8  -8    2.00    0.60
  -7  -8  -8    2.40    0.70
   7   8   8    1.10    0.50
  -1   9   8    0.20    0.30
   0   9   8   11.20    1.00
  -1  -9  -8    1.90    0.70
   1   9   8    2.50    0.60
  -2  -9  -8    5.10    0.90
   2   9   8    4.90    0.90
   2   9   8    5.40    0.90
  -3  -9  -8    5.00    0.90
   3   9   8    5.20    0.90
   3   9   8    2.80    0.70
  -4  -9  -8   39.70    2.30
  -4  -9  -8   38.10    2.10
   4   9   8   40.00    2.00
   4   9   8   38.30    2.10
  -5  -9  -8    6.00    0.90
  -5  -9  -8    6.50    0.90
  -5  -9  -8    7.10    0.90
   5   9   8    6.50    0.80
   5   9   8    6.80    0.90
  -6  -9  -8    3.40    0.70
  -6  -9  -8    3.30    0.70
  -6  -9  -8    3.80    0.70
   6   9   8    2.90    0.60
   1  10   8    1.10    0.40
  -2 -10  -8    0.40    0.40
   2  10   8    0.10    0.40
  -3 -10  -8    0.30    0.40
   3  10   8    0.20    0.40
   3  10   8    0.70    0.50
  -4 -10  -8   10.90    1.00
   4  10   8   11.50    1.00
   4  10   8   11.30    1.00
  -5 -10  -8    1.20    0.50
  -3  -4   9    3.80    0.60
  -3  -4   9    3.00    0.60
  -3  -4   9    3.50    0.60
  -4  -3   9    8.70    0.90
  -4  -3   9    9.00    0.90
  -4  -3   9   10.00    1.00
  -4  -3   9    9.70    1.00
  -3  -3   9    0.20    0.50
  -3  -3   9    0.70    0.50
  -3  -3   9    0.00    0.60
  -3  -3   9    0.00    0.60
  -2  -3   9   27.40    1.70
  -2  -3   9   28.30    1.70
  -2  -3   9   25.20    2.10
  -2  -3   9   28.50    1.70
   3  -3   9    6.40    0.90
   3  -3   9    7.80    0.80
  -5  -2   9    1.70    0.60
  -5  -2   9    0.90    0.50
  -5  -2   9    1.20    0.50
  -5  -2   9    0.80    0.50
  -4  -2   9   21.60    1.60
  -4  -2   9   23.10    1.50
  -4  -2   9   21.90    1.50
  -4  -2   9   22.30    1.60
  -3  -2   9    1.00    0.60
  -3  -2   9    1.20    0.70
  -3  -2   9    0.20    0.50
  -3  -2   9    0.70    0.60
  -2  -2   9    2.70    0.80
  -2  -2   9    3.20    0.80
  -2  -2   9    1.50    0.70
  -2  -2   9    2.70    0.80
  -1  -2   9    7.00    1.00
  -1  -2   9    9.90    1.10
  -1  -2   9    6.50    1.00
  -1  -2   9    6.80    1.10
   0  -2   9    2.50    1.00
   0  -2   9    0.80    0.70
   1  -2   9    6.20    1.20
   2  -2   9    1.10    0.70
   2  -2   9    0.10    0.90
   3  -2   9    1.20    0.70
   3  -2   9    1.80    0.60
   3  -2   9    1.30    0.80
   4  -2   9    1.30    0.60
   4  -2   9    1.30    0.50
   4  -2   9    0.70    0.50
   4  -2   9    1.10    0.70
  -5  -1   9    4.40    0.70
  -5  -1   9    5.90    0.80
  -5  -1   9    6.20    0.90
  -5  -1   9    4.70    0.70
  -5  -1   9    6.20    0.90
  -4  -1   9   10.10    1.20
  -4  -1   9    9.40    1.30
  -4  -1   9    7.40    0.90
  -4  -1   9    9.00    1.10
  -4  -1   9    8.10    1.00
  -3  -1   9    3.40    0.80
  -3  -1   9    3.70    0.90
  -3  -1   9    3.90    1.10
  -3  -1   9    2.90    0.70
  -3  -1   9    3.30    0.80
  -2  -1   9   40.60    2.30
  -2  -1   9   42.50    2.50
  -2  -1   9   42.30    2.20
  -2  -1   9   42.30    2.40
  -2  -1   9   42.40    2.70
  -1  -1   9   -0.70    0.50
  -1  -1   9   -0.60    0.50
  -1  -1   9    0.60    0.80
  -1  -1   9    0.60    0.60
  -1  -1   9   -0.90    0.60
   0  -1   9   49.00    2.90
   0  -1   9   49.60    2.60
   0  -1   9   47.70    2.80
   0  -1   9   50.89    2.60
   0  -1   9   53.49    3.00
   1  -1   9   -0.30    0.80
   1  -1   9    1.30    0.90
   1  -1   9    1.70    0.70
   1  -1   9    0.50    0.70
   2  -1   9    4.60    1.20
   2  -1   9    2.50    0.90
   2  -1   9    3.50    1.00
   2  -1   9    3.50    0.80
   3  -1   9    8.70    1.10
   3  -1   9    7.20    1.20
   3  -1   9    8.00    1.50
   3  -1   9    5.90    1.30
   4  -1   9    0.50    0.70
   4  -1   9    1.50    0.60
   4  -1   9    1.20    0.90
   4  -1   9    1.40    0.60
   5  -1   9   -0.50    0.60
   5  -1   9    0.50    0.50
   5  -1   9    0.30    0.40
   5  -1   9   -0.60    0.60
  -5   0   9    2.10    0.80
  -5   0   9    1.90    0.50
  -5   0   9    3.00    0.60
  -5   0   9    0.90    0.60
  -5   0   9    1.40    0.60
  -4   0   9    0.90    0.60
  -4   0   9    0.20    0.70
  -4   0   9    0.90    0.70
  -4   0   9    0.70    0.70
  -4   0   9    1.00    0.80
  -3   0   9    0.20    0.60
  -3   0   9    0.50    0.70
  -3   0   9    1.40    0.80
  -3   0   9   -0.20    1.00
  -3   0   9    0.10    0.60
  -2   0   9   16.20    2.00
  -2   0   9   15.00    1.40
  -2   0   9   17.00    1.70
  -2   0   9   16.60    1.50
  -2   0   9   15.20    1.40
  -1   0   9   49.60    2.70
  -1   0   9   51.99    2.60
  -1   0   9   52.19    2.60
  -1   0   9   51.19    3.20
  -1   0   9   50.99    2.80
  -1   0   9   53.09    2.90
   0   0   9    1.90    0.70
   0   0   9    1.90    0.70
   0   0   9    1.90    0.80
   0   0   9    1.90    0.80
   0   0   9    3.90    1.20
   0   0   9    2.70    0.70
   1   0   9   16.50    1.80
   1   0   9   17.90    2.10
   1   0   9   16.20    1.80
   1   0   9   16.60    1.50
   1   0   9   20.60    1.50
   2   0   9   12.20    1.70
   2   0   9   10.40    1.50
   2   0   9   10.80    1.20
   2   0   9   13.60    1.70
   2   0   9   15.00    1.50
   3   0   9    2.50    0.70
   3   0   9    3.80    1.10
   3   0   9    2.00    1.20
   3   0   9    2.60    1.00
   3   0   9    4.00    0.80
   4   0   9    8.60    1.40
   4   0   9   10.00    1.20
   4   0   9   10.30    1.40
   4   0   9   12.30    1.30
   4   0   9   12.20    1.60
   5   0   9    2.60    0.70
   5   0   9    1.50    0.80
   5   0   9    2.40    0.70
   5   0   9    2.90    0.90
   5   0   9    2.60    0.90
   6   0   9   -0.20    0.70
   6   0   9    0.50    0.60
   6   0   9    0.20    0.40
  -5   1   9   23.20    1.40
  -5   1   9   24.00    1.40
  -5   1   9   25.00    1.80
  -4   1   9    1.80    0.70
  -4   1   9    3.90    1.10
  -4   1   9    2.70    0.70
  -4   1   9    1.30    0.70
  -4   1   9    1.40    0.60
  -3   1   9    2.70    0.80
  -3   1   9    4.20    1.10
  -3   1   9    5.10    1.30
  -3   1   9    3.60    0.90
  -3   1   9    5.40    1.00
  -2   1   9    2.50    0.70
  -2   1   9    2.40    0.70
  -2   1   9    4.20    0.90
  -2   1   9    3.80    0.90
  -2   1   9    2.00    0.80
  -2   1   9    4.60    1.20
  -1   1   9    1.80    0.80
  -1   1   9    1.80    0.70
  -1   1   9    0.60    1.00
  -1   1   9    1.20    0.60
  -1   1   9    0.80    0.70
  -1   1   9    0.70    0.60
   0   1   9    3.40    0.80
   0   1   9    5.20    1.10
   0   1   9    3.50    0.80
   0   1   9    5.00    0.90
   0   1   9    4.00    1.20
   0   1   9    4.00    1.00
   1   1   9   11.30    1.20
   1   1   9   17.90    1.40
   1   1   9   13.20    1.20
   1   1   9   13.00    1.60
   1   1   9   12.00    1.70
   1   1   9   15.10    1.80
   2   1   9    7.20    1.00
   2   1   9    8.00    1.10
   2   1   9    7.70    1.40
   2   1   9    7.40    1.50
   2   1   9    7.70    1.00
   2   1   9    6.10    1.30
   3   1   9   30.80    2.30
   3   1   9   31.60    2.50
   3   1   9   28.90    1.80
   3   1   9   29.80    1.90
   3   1   9   31.50    2.40
   4   1   9   15.30    1.70
   4   1   9   15.40    2.00
   4   1   9   12.50    1.30
   4   1   9   13.50    1.60
   4   1   9   12.70    1.30
   5   1   9    0.30    0.60
   5   1   9   -0.80    0.70
   5   1   9    0.40    0.80
   5   1   9    1.30    0.80
   5   1   9    0.60    0.50
   6   1   9    1.10    0.80
   6   1   9    0.20    0.50
   6   1   9    0.70    0.60
   6   1   9    0.00    0.70
   6   1   9   -0.30    0.50
  -5   2   9    0.00    0.60
  -5   2   9    0.40    0.50
  -4   2   9    6.10    0.80
  -4   2   9    6.20    0.90
  -4   2   9    5.50    0.80
  -4   2   9    6.90    0.80
  -4   2   9    6.40    1.20
  -3   2   9    0.30    0.60
  -3   2   9   -0.70    0.70
  -3   2   9   -0.60    0.70
  -3   2   9   -0.50    0.50
  -3   2   9   -0.20    0.50
  -3   2   9    0.40    0.70
  -2   2   9   14.20    1.90
  -2   2   9   11.20    1.20
  -2   2   9   13.50    1.30
  -2   2   9   14.50    1.70
  -2   2   9   13.40    1.50
  -2   2   9   13.90    1.40
  -1   2   9    5.30    0.90
  -1   2   9    4.50    1.30
  -1   2   9    5.10    1.00
  -1   2   9    3.70    1.00
  -1   2   9    3.90    0.90
  -1   2   9    5.80    1.00
   0   2   9   68.69    3.50
   0   2   9   63.19    3.20
   0   2   9   69.49    3.40
   0   2   9   68.69    3.10
   0   2   9   67.19    3.20
   0   2   9   67.89    3.80
   1   2   9   16.70    1.90
   1   2   9   15.40    1.40
   1   2   9   15.00    1.80
   1   2   9   15.00    1.50
   1   2   9   18.10    1.50
   1   2   9   14.00    1.60
   1   2   9   15.00    1.50
   2   2   9   33.70    2.40
   2   2   9   33.80    2.50
   2   2   9   33.90    2.00
   2   2   9   33.30    2.10
   2   2   9   36.70    2.60
   2   2   9   37.90    2.20
   3   2   9   22.40    2.20
   3   2   9   15.30    1.60
   3   2   9   20.70    1.80
   3   2   9   21.30    1.60
   3   2   9   19.10    1.90
   3   2   9   22.90    1.60
   3   2   9   20.30    2.20
  -4  -2  -9    3.90    0.90
   4   2   9    3.40    1.10
   4   2   9    3.20    0.80
   4   2   9    2.60    0.70
   4   2   9    3.40    0.90
   4   2   9    2.30    1.10
   4   2   9    2.90    1.00
   4   2   9    4.70    1.00
   5   2   9   12.90    1.70
   5   2   9   12.00    1.30
   5   2   9   12.50    1.60
   5   2   9   11.00    1.30
   5   2   9   11.70    1.60
   6   2   9    0.00    0.70
   6   2   9   -0.20    0.60
   6   2   9    0.10    0.50
   6   2   9    1.80    0.80
   6   2   9    0.00    0.60
  -7  -2  -9   -0.30    0.70
   7   2   9    0.40    0.50
   7   2   9   -0.90    0.70
   7   2   9    0.90    0.60
  -4   3   9    0.30    0.60
  -4   3   9   -0.70    0.60
  -4   3   9   -0.10    0.50
  -3   3   9    8.20    1.40
  -3   3   9    8.60    1.20
  -3   3   9    8.10    1.30
  -3   3   9    7.80    1.00
  -3   3   9    7.60    1.00
  -3   3   9    9.00    1.00
  -2   3   9    3.40    1.10
  -2   3   9    3.20    1.00
  -2   3   9    2.70    0.90
  -2   3   9    2.90    0.70
  -2   3   9    2.60    0.70
  -2   3   9    1.90    0.70
  -1   3   9   28.60    2.00
  -1   3   9   32.60    2.00
  -1   3   9   31.80    1.90
  -1   3   9   32.90    2.50
  -1   3   9   30.80    2.40
  -1   3   9   31.10    2.00
   0   3   9   13.40    1.40
   0   3   9   14.60    1.60
   0   3   9   13.30    1.80
   0   3   9   10.30    1.20
   0   3   9   15.20    1.70
   0   3   9   13.70    1.40
   1   3   9    7.20    1.20
   1   3   9    8.00    1.00
   1   3   9    8.80    1.40
   1   3   9    9.40    1.20
   1   3   9    8.60    1.40
   1   3   9    9.10    1.20
   1   3   9    8.30    1.10
   2   3   9    0.20    0.60
   2   3   9   -0.60    0.70
   2   3   9    0.50    0.60
   2   3   9    0.00    0.60
   2   3   9    0.50    0.70
   2   3   9    0.10    0.70
   2   3   9    1.00    0.80
   3   3   9    0.40    0.70
   3   3   9   -0.50    0.50
   3   3   9    0.90    0.60
   3   3   9    0.90    0.90
   3   3   9    0.40    0.80
   3   3   9    0.60    0.80
   3   3   9   -0.40    0.60
  -4  -3  -9    3.60    0.90
   4   3   9    4.00    1.10
   4   3   9    1.90    0.80
   4   3   9    2.80    0.80
   4   3   9    3.30    1.00
   4   3   9    2.30    0.80
   4   3   9    2.40    0.80
   4   3   9    1.30    0.90
  -5  -3  -9   15.10    1.50
  -5  -3  -9    9.20    1.20
   5   3   9   13.50    1.40
   5   3   9   13.30    1.40
   5   3   9   10.20    1.30
   5   3   9   13.70    1.70
   5   3   9   14.00    1.60
   5   3   9   14.10    1.60
   6   3   9   11.50    1.20
   6   3   9    9.80    1.10
   6   3   9   10.80    1.40
   6   3   9   10.10    1.30
   6   3   9    9.80    1.30
  -7  -3  -9    3.00    0.80
   7   3   9    1.20    0.80
   7   3   9    2.00    0.60
   7   3   9    4.20    0.70
   7   3   9    3.80    0.90
  -4   4   9    0.40    0.60
  -4   4   9   -0.30    0.50
  -3   4   9    3.20    0.70
  -3   4   9    3.00    0.90
  -3   4   9    3.60    1.00
  -2   4   9    8.90    1.10
  -2   4   9    9.00    1.40
  -2   4   9   10.20    1.50
  -2   4   9    7.70    1.10
  -1   4   9   73.49    3.80
  -1   4   9   73.59    3.40
  -1   4   9   73.79    3.40
  -1   4   9   69.39    3.30
  -1   4   9   69.49    3.70
  -1   4   9   72.19    3.40
   0   4   9    1.60    0.70
   0   4   9    0.00    0.70
   0   4   9    0.50    0.60
   0   4   9    2.10    0.90
   0   4   9    1.00    0.90
   0   4   9    0.90    0.70
   1   4   9   38.10    2.20
   1   4   9   37.10    2.50
   1   4   9   37.10    2.50
   1   4   9   39.40    2.30
   1   4   9   37.10    2.40
   1   4   9   37.70    2.20
   1   4   9   39.40    2.30
   2   4   9   15.20    1.50
   2   4   9   16.80    1.50
   2   4   9   16.50    1.80
   2   4   9   16.20    1.60
   2   4   9   12.30    1.40
   2   4   9   15.30    1.70
   2   4   9   11.70    1.50
  -3  -4  -9   -0.30    0.50
   3   4   9   -0.50    0.60
   3   4   9   -0.10    0.50
   3   4   9    1.80    0.90
   3   4   9   -0.10    0.70
   3   4   9    1.60    0.70
   3   4   9   -0.40    0.70
   3   4   9    0.10    0.60
   3   4   9    0.50    0.70
  -4  -4  -9    1.00    0.80
   4   4   9    0.10    0.60
   4   4   9   -0.10    0.60
   4   4   9    1.70    0.70
   4   4   9   -0.80    0.70
   4   4   9    0.30    0.80
   4   4   9    1.10    0.80
   4   4   9   -0.60    0.60
  -5  -4  -9    0.80    0.80
  -5  -4  -9    1.00    0.70
   5   4   9    0.50    0.70
   5   4   9    1.20    0.90
   5   4   9    0.00    0.70
   5   4   9   -0.80    0.70
   5   4   9    0.20    0.60
   5   4   9    1.10    0.70
  -6  -4  -9    5.50    0.90
  -6  -4  -9    6.40    1.00
   6   4   9    7.30    1.20
   6   4   9    7.20    1.10
   6   4   9    4.30    0.90
   6   4   9    6.10    0.90
   6   4   9    7.50    1.10
  -7  -4  -9    1.00    0.60
   7   4   9    0.10    0.50
   7   4   9    0.20    0.70
   7   4   9   -0.30    0.40
  -4   5   9    4.50    0.80
  -4   5   9    3.30    1.00
  -3   5   9    0.20    0.70
  -3   5   9    0.10    0.60
  -2   5   9   21.20    1.70
  -2   5   9   26.90    2.00
  -2   5   9   25.70    2.00
  -1   5   9   -0.10    0.60
  -1   5   9    2.00    0.70
  -1   5   9    1.30    0.80
  -1   5   9    1.40    0.90
   0   5   9  119.49    4.90
   0   5   9  124.19    5.00
   0   5   9  111.99    5.20
   0   5   9  120.99    4.90
   0   5   9  111.19    5.20
   0   5   9  118.99    4.90
   1   5   9    7.30    1.10
   1   5   9    9.80    1.40
   1   5   9    7.90    1.10
   1   5   9    9.20    1.40
   1   5   9    8.30    1.20
   1   5   9    8.00    1.10
   2   5   9    5.80    1.20
   2   5   9    4.60    1.10
   2   5   9    5.50    1.00
   2   5   9    5.00    1.10
   2   5   9    5.60    1.00
   2   5   9    4.70    1.00
   2   5   9    7.40    1.10
  -3  -5  -9    0.80    0.70
   3   5   9    0.10    0.70
   3   5   9    1.50    0.80
   3   5   9    0.20    0.80
   3   5   9    1.70    0.80
   3   5   9    1.60    0.70
   3   5   9    1.70    0.70
   3   5   9    0.50    0.70
  -4  -5  -9   11.80    1.40
  -4  -5  -9   11.30    1.20
   4   5   9   13.40    1.40
   4   5   9   18.00    1.80
   4   5   9   14.10    1.50
   4   5   9   13.80    1.50
   4   5   9   12.50    1.40
   4   5   9   14.10    1.60
   4   5   9   12.40    1.60
  -5  -5  -9    6.20    1.10
  -5  -5  -9    5.40    1.20
   5   5   9    6.70    1.10
   5   5   9    6.30    1.40
   5   5   9    4.60    1.10
   5   5   9    6.10    1.10
   5   5   9    6.40    1.10
  -6  -5  -9    1.80    0.70
  -6  -5  -9    2.90    0.80
   6   5   9    2.80    0.70
   6   5   9    2.50    0.80
   6   5   9    2.20    0.70
  -7  -5  -9    6.40    0.80
  -7  -5  -9    7.20    0.90
   7   5   9    6.50    0.90
   7   5   9    6.40    0.80
  -3   6   9    4.60    0.80
   2  -6  -9    7.90    0.90
  -2   6   9    8.40    1.20
   1  -6  -9    1.90    0.70
  -1   6   9    1.60    0.70
  -1   6   9    1.30    0.70
   0   6   9   17.20    1.60
   0   6   9   17.10    1.80
   0   6   9   19.70    1.60
   0   6   9   18.90    1.70
  -1  -6  -9    0.30    0.70
   1   6   9    2.40    0.80
   1   6   9    1.40    0.80
   1   6   9   -0.10    0.60
   1   6   9    1.00    0.70
   1   6   9    1.60    0.70
  -2  -6  -9   36.70    2.30
   2   6   9   36.30    2.30
   2   6   9   36.20    2.20
   2   6   9   35.40    2.20
   2   6   9   39.20    2.30
  -3  -6  -9    9.80    1.20
  -3  -6  -9    8.30    1.20
   3   6   9   10.90    1.30
   3   6   9    9.30    1.20
   3   6   9   10.60    1.40
   3   6   9    8.60    1.10
   3   6   9   10.10    1.30
  -4  -6  -9    2.00    0.70
  -4  -6  -9    1.40    0.80
   4   6   9    2.40    0.80
   4   6   9    2.70    0.90
   4   6   9    3.40    0.80
   4   6   9    2.90    0.80
  -5  -6  -9    4.80    0.90
  -5  -6  -9    3.40    0.90
   5   6   9    5.40    1.00
   5   6   9    4.50    0.90
   5   6   9    1.60    1.00
  -6  -6  -9   11.10    1.30
  -6  -6  -9   12.20    1.30
   6   6   9   12.20    1.30
   6   6   9   11.90    1.10
   6   6   9   11.40    1.20
  -7  -6  -9    1.20    0.60
  -7  -6  -9    0.80    0.50
  -7  -6  -9    1.40    0.60
   7   6   9    1.30    0.50
   7   6   9    1.40    0.50
  -2   7   9   21.00    1.50
   1  -7  -9    0.90    0.60
  -1   7   9    1.00    0.70
   0  -7  -9   43.40    2.30
   0   7   9   40.00    2.10
   0   7   9   43.80    2.50
  -1  -7  -9    5.10    1.00
   1   7   9    5.70    1.00
   1   7   9    6.60    1.10
  -2  -7  -9   11.20    1.40
  -2  -7  -9   10.00    1.20
   2   7   9   10.60    1.20
   2   7   9   11.50    1.20
   2   7   9    9.80    1.20
  -3  -7  -9    0.50    0.90
  -3  -7  -9    0.00    0.70
   3   7   9    0.40    0.60
   3   7   9    0.60    0.60
   3   7   9    0.90    0.70
  -4  -7  -9   12.20    1.40
  -4  -7  -9   10.60    1.30
  -4  -7  -9    8.80    1.20
   4   7   9   12.00    1.20
   4   7   9   10.40    1.30
  -5  -7  -9    2.80    0.90
  -5  -7  -9    2.80    0.80
  -5  -7  -9    1.60    0.70
   5   7   9    1.50    0.70
   5   7   9    1.30    0.60
  -6  -7  -9    0.10    0.60
  -6  -7  -9   -0.60    0.60
   6   7   9    0.60    0.50
   6   7   9    0.60    0.50
  -7  -7  -9   -0.20    0.60
  -7  -7  -9    0.80    0.60
  -1   8   9    9.00    1.10
   0  -8  -9    0.10    0.50
   0   8   9   -0.30    0.60
   0   8   9    0.10    0.40
  -1  -8  -9    1.60    0.70
   1   8   9    0.70    0.60
  -2  -8  -9    1.10    0.70
   2   8   9    0.80    0.60
  -3  -8  -9    2.00    0.70
  -3  -8  -9    1.70    0.60
  -3  -8  -9    1.20    0.80
   3   8   9    1.00    0.60
   3   8   9    1.20    0.60
  -4  -8  -9    7.30    1.00
  -4  -8  -9    8.40    1.10
  -4  -8  -9    9.30    1.10
   4   8   9    7.10    1.00
   4   8   9    8.70    1.00
  -5  -8  -9    2.50    0.70
  -5  -8  -9    3.20    0.70
  -5  -8  -9    3.00    0.80
   5   8   9    2.70    0.60
   5   8   9    3.30    0.70
  -6  -8  -9    0.00    0.50
  -6  -8  -9   -1.10    0.50
   6   8   9   -0.20    0.40
   6   8   9    0.60    0.50
   0   9   9    0.00    0.30
  -1  -9  -9    2.00    0.50
   1   9   9    1.70    0.50
  -2  -9  -9    2.90    0.60
   2   9   9    2.10    0.50
  -3  -9  -9   11.80    1.10
   3   9   9    9.60    1.00
   3   9   9    9.90    1.00
  -4  -9  -9    2.40    0.70
  -4  -9  -9    1.50    0.50
   4   9   9    2.10    0.50
   4   9   9    1.80    0.60
  -5  -9  -9   14.30    1.00
  -5  -9  -9   14.70    1.20
  -5  -9  -9   15.30    1.20
   5   9   9   16.60    1.10
  -2  -3  10   -0.40    0.50
  -3  -2  10    1.30    0.60
  -3  -2  10    0.70    0.50
  -3  -2  10    1.20    0.60
  -3  -2  10    1.10    0.50
  -2  -2  10    3.10    0.80
  -2  -2  10    3.00    0.60
  -2  -2  10    4.00    0.70
  -2  -2  10    3.50    0.70
  -1  -2  10    4.60    0.90
  -1  -2  10    5.90    0.80
  -1  -2  10    4.90    0.80
   0  -2  10    1.60    0.70
   3  -2  10    3.00    0.60
  -3  -1  10    0.00    0.40
  -3  -1  10    0.40    0.60
  -3  -1  10   -0.50    0.50
  -3  -1  10   -0.40    0.50
  -3  -1  10   -0.70    0.40
  -2  -1  10   15.60    1.50
  -2  -1  10   13.00    1.20
  -2  -1  10   13.80    1.20
  -2  -1  10   15.20    1.40
  -2  -1  10   17.40    1.40
  -1  -1  10    2.90    0.90
  -1  -1  10    3.50    0.70
  -1  -1  10    1.60    0.60
  -1  -1  10    4.10    0.80
  -1  -1  10    2.80    0.90
   0  -1  10    0.50    0.70
   0  -1  10    0.10    0.60
   0  -1  10    1.80    0.80
   0  -1  10    0.80    0.60
   1  -1  10    0.70    0.80
   1  -1  10    0.60    0.60
   1  -1  10    1.20    0.80
   2  -1  10    1.80    0.70
   2  -1  10    2.20    1.00
   2  -1  10    1.40    0.70
   3  -1  10    0.50    0.70
   3  -1  10   -0.40    0.40
   3  -1  10    0.20    0.50
   4  -1  10    2.60    0.70
   4  -1  10    1.30    0.60
   4  -1  10    2.60    0.50
  -4   0  10    9.40    0.90
  -4   0  10    9.70    0.90
  -4   0  10    8.90    1.10
  -4   0  10   10.60    1.00
  -4   0  10    9.30    1.00
  -3   0  10    5.50    0.90
  -3   0  10    7.10    1.10
  -3   0  10    7.20    1.00
  -3   0  10    5.30    0.80
  -3   0  10    5.30    0.80
  -2   0  10    3.00    0.70
  -2   0  10    4.60    0.80
  -2   0  10    3.90    0.90
  -2   0  10    3.70    0.80
  -2   0  10    3.80    1.00
  -1   0  10    1.30    0.60
  -1   0  10    1.80    0.80
  -1   0  10    0.40    0.90
  -1   0  10    1.00    0.60
  -1   0  10    0.20    0.50
   0   0  10    5.40    1.20
   0   0  10    6.80    0.90
   0   0  10    4.10    0.90
   0   0  10    3.70    1.20
   0   0  10    4.90    0.90
   0   0  10    4.60    0.80
   1   0  10    1.20    0.90
   1   0  10   -0.50    0.60
   1   0  10   -0.10    0.80
   1   0  10   -0.50    0.50
   1   0  10   -0.10    0.80
   2   0  10    0.60    0.80
   2   0  10    0.50    0.80
   2   0  10   -0.70    0.70
   2   0  10   -0.50    0.60
   3   0  10    0.30    0.70
   3   0  10    1.10    0.50
   3   0  10   -0.40    0.70
   3   0  10    1.80    1.00
   4   0  10    0.10    0.60
   4   0  10   -0.10    0.60
   4   0  10    0.20    0.50
   4   0  10    0.40    0.70
   5   0  10    1.10    0.50
   5   0  10    1.10    0.60
   5   0  10    1.40    0.60
  -4   1  10    9.40    1.20
  -4   1  10   10.60    1.10
  -4   1  10    7.40    0.80
  -4   1  10   10.10    1.00
  -4   1  10    9.00    0.90
  -3   1  10    4.00    0.70
  -3   1  10    5.40    0.80
  -3   1  10    5.30    0.80
  -3   1  10    5.50    1.10
  -3   1  10    5.20    0.90
  -2   1  10    0.10    0.60
  -2   1  10   -0.10    0.50
  -2   1  10    0.10    0.50
  -2   1  10   -0.40    0.50
  -2   1  10    0.90    0.60
  -2   1  10   -0.70    0.70
  -1   1  10    4.90    0.80
  -1   1  10    7.10    1.00
  -1   1  10    4.00    0.80
  -1   1  10    6.70    1.10
  -1   1  10    5.00    1.00
  -1   1  10    7.30    1.40
   0   1  10    8.40    1.00
   0   1  10    8.50    1.10
   0   1  10   11.00    1.40
   0   1  10    9.00    1.10
   0   1  10   10.10    1.60
   0   1  10   14.20    1.60
   1   1  10    4.40    1.20
   1   1  10    2.90    0.80
   1   1  10    4.70    1.10
   1   1  10    5.40    0.90
   1   1  10    5.60    1.20
   2   1  10   15.30    1.90
   2   1  10   16.70    1.50
   2   1  10   20.40    1.40
   2   1  10   19.00    2.00
   2   1  10   17.00    1.60
   2   1  10   18.50    1.90
   3   1  10    0.20    0.70
   3   1  10    0.90    0.90
   3   1  10   -0.10    0.70
   3   1  10    0.80    0.80
   3   1  10    0.60    0.50
   4   1  10    5.10    1.10
   4   1  10    6.10    1.20
   4   1  10    5.40    0.90
   4   1  10    3.60    0.80
   4   1  10    6.70    1.10
   5   1  10    1.40    0.70
   5   1  10    1.10    0.60
   5   1  10    0.10    0.50
   5   1  10    1.00    0.70
   5   1  10   -0.10    0.60
  -4   2  10   -0.10    0.50
  -4   2  10    0.30    0.50
  -4   2  10   -0.50    0.60
  -3   2  10    4.60    0.80
  -3   2  10    6.60    0.80
  -3   2  10    4.60    1.10
  -3   2  10    6.10    0.80
  -3   2  10    5.60    0.80
  -3   2  10    5.80    0.90
  -2   2  10   27.00    1.70
  -2   2  10   26.40    1.70
  -2   2  10   28.00    1.90
  -2   2  10   25.60    2.20
  -2   2  10   25.90    1.80
  -2   2  10   24.40    1.60
  -1   2  10    0.20    0.70
  -1   2  10    0.40    0.90
  -1   2  10    1.00    0.80
  -1   2  10    0.60    0.60
  -1   2  10    0.30    0.60
  -1   2  10    1.10    0.70
   0   2  10   23.40    1.70
   0   2  10   22.70    1.60
   0   2  10   20.40    2.10
   0   2  10   24.90    2.00
   0   2  10   22.70    1.70
   0   2  10   23.00    2.10
   1   2  10   43.50    2.50
   1   2  10   43.80    2.50
   1   2  10   46.90    2.30
   1   2  10   41.50    2.80
   1   2  10   41.80    2.70
   1   2  10   47.30    2.70
   2   2  10    0.40    0.50
   2   2  10    0.60    0.80
   2   2  10    1.30    0.90
   2   2  10    0.80    0.70
   2   2  10    0.10    0.80
   2   2  10    0.20    0.60
   3   2  10   -0.10    0.60
   3   2  10   -0.10    0.90
   3   2  10    0.00    0.80
   3   2  10    0.40    0.90
   3   2  10   -0.20    0.60
   3   2  10    0.30    0.70
   4   2  10    5.20    1.10
   4   2  10    4.50    1.00
   4   2  10    2.70    1.10
   4   2  10    1.00    0.60
   4   2  10    2.70    0.70
   4   2  10    1.50    0.60
   5   2  10    3.60    0.90
   5   2  10    2.40    0.90
   5   2  10    4.90    0.80
   5   2  10    1.90    0.60
   5   2  10    2.90    0.90
   6   2  10    0.20    0.70
   6   2  10   -0.20    0.50
   6   2  10    0.20    0.60
   6   2  10    0.40    0.50
  -3   3  10   12.00    1.20
  -3   3  10   11.90    1.10
  -3   3  10   11.00    1.00
  -3   3  10    9.50    1.00
  -3   3  10    9.00    1.20
  -3   3  10   11.40    1.10
  -2   3  10    4.70    1.20
  -2   3  10    6.70    0.90
  -2   3  10    5.50    0.90
  -2   3  10    6.10    0.90
  -2   3  10    6.00    1.10
  -2   3  10    6.60    1.00
  -1   3  10    5.00    0.90
  -1   3  10    5.80    1.10
  -1   3  10    4.60    0.80
  -1   3  10    4.50    1.10
  -1   3  10    4.30    1.20
  -1   3  10    4.30    0.80
   0   3  10    0.60    0.80
   0   3  10    1.30    0.70
   0   3  10    1.10    0.70
   0   3  10    2.20    0.90
   0   3  10    1.90    0.70
   0   3  10    1.00    0.80
   1   3  10    2.80    0.80
   1   3  10    0.90    0.80
   1   3  10    2.80    0.80
   1   3  10    5.30    1.20
   1   3  10    3.90    0.90
   1   3  10    3.60    1.00
   2   3  10    0.30    0.70
   2   3  10   -0.30    0.50
   2   3  10   -0.10    0.70
   2   3  10    0.00    0.60
   2   3  10   -0.20    0.80
   2   3  10    1.00    0.80
   2   3  10   -0.60    0.60
   3   3  10   62.79    3.10
   3   3  10   62.99    3.30
   3   3  10   61.29    3.40
   3   3  10   63.49    3.40
   3   3  10   64.29    3.10
   3   3  10   60.19    2.90
  -4  -3 -10   -0.30    0.70
   4   3  10    1.00    0.70
   4   3  10    1.70    0.80
   4   3  10    1.60    0.90
   4   3  10    1.40    0.60
   4   3  10   -0.30    0.70
   4   3  10    1.20    0.60
   4   3  10    1.50    0.70
  -5  -3 -10    1.60    0.70
   5   3  10    1.00    0.80
   5   3  10    1.50    0.90
   5   3  10   -0.70    0.60
   5   3  10    0.80    0.60
   5   3  10    1.70    0.70
   6   3  10    1.30    0.50
   6   3  10    1.00    0.70
   6   3  10    1.50    0.80
   6   3  10    0.90    0.50
  -3   4  10    1.70    0.60
  -3   4  10    2.50    0.80
  -3   4  10    1.10    0.60
  -2   4  10    5.50    0.90
  -2   4  10    6.40    1.10
  -2   4  10    5.70    0.90
  -2   4  10    5.50    1.10
  -2   4  10    6.40    0.90
  -1   4  10    3.30    0.80
  -1   4  10    1.90    0.80
  -1   4  10    4.80    0.80
  -1   4  10    3.00    0.80
  -1   4  10    3.30    1.00
  -1   4  10    2.90    1.00
   0   4  10   11.70    1.30
   0   4  10    9.20    1.40
   0   4  10   11.40    1.40
   0   4  10    9.60    1.40
   0   4  10   11.10    1.30
   0   4  10   10.90    1.30
   1   4  10   -0.50    0.70
   1   4  10    0.60    0.50
   1   4  10    0.80    0.70
   1   4  10   -0.10    0.70
   1   4  10    0.70    0.80
   1   4  10   -0.10    0.70
   1   4  10    1.20    0.70
   2   4  10   26.10    1.90
   2   4  10   25.40    2.00
   2   4  10   26.40    1.70
   2   4  10   25.50    2.00
   2   4  10   26.10    1.90
   2   4  10   26.00    2.00
   2   4  10   24.70    2.10
  -3  -4 -10   -1.10    0.60
   3   4  10    0.10    0.80
   3   4  10    0.30    0.80
   3   4  10    0.20    0.70
   3   4  10   -0.70    0.60
   3   4  10   -0.20    0.80
   3   4  10   -0.50    0.80
  -4  -4 -10    0.60    0.70
   4   4  10    0.60    0.60
   4   4  10    1.40    0.90
   4   4  10    1.20    0.60
   4   4  10    1.20    0.60
   4   4  10    2.20    0.90
   4   4  10    1.70    0.80
   4   4  10    0.30    0.70
  -5  -4 -10    1.70    0.70
  -5  -4 -10    3.30    0.80
   5   4  10    3.20    0.80
   5   4  10    2.30    0.70
   5   4  10    1.90    0.90
   5   4  10    3.00    0.90
   5   4  10    2.80    0.90
  -6  -4 -10    3.00    0.60
   6   4  10    2.80    0.70
   6   4  10    3.90    0.70
   6   4  10    3.50    0.80
   6   4  10    3.80    0.90
   6   4  10    2.60    0.60
  -2   5  10    8.90    1.10
  -2   5  10    8.80    1.00
  -2   5  10    9.10    1.10
  -1   5  10   11.60    1.20
  -1   5  10   12.90    1.30
  -1   5  10   12.10    1.40
  -1   5  10   11.90    1.40
   0   5  10    9.10    1.30
   0   5  10   10.80    1.20
   0   5  10    8.30    1.20
   0   5  10    9.60    1.20
   0   5  10   11.30    1.30
   1   5  10    6.50    1.20
   1   5  10    6.00    1.10
   1   5  10    6.20    1.10
   1   5  10    5.30    1.10
   1   5  10    6.40    1.10
   1   5  10    5.00    1.00
   1   5  10    6.30    0.90
  -2  -5 -10   16.10    1.50
   2   5  10   12.40    1.40
   2   5  10   18.40    1.50
   2   5  10   16.10    1.60
   2   5  10   12.80    1.40
   2   5  10   11.90    1.40
   2   5  10   15.30    1.70
   2   5  10   15.00    1.60
  -3  -5 -10    6.20    1.00
  -3  -5 -10    7.40    1.10
   3   5  10    6.60    1.10
   3   5  10    5.00    1.10
   3   5  10    6.00    1.00
   3   5  10    6.00    1.30
   3   5  10    3.90    0.90
   3   5  10    5.70    1.00
  -4  -5 -10    0.40    0.70
   4   5  10    0.30    0.70
   4   5  10   -0.20    0.60
   4   5  10    1.20    0.90
   4   5  10    0.60    0.70
   4   5  10    1.00    0.60
   4   5  10   -0.10    0.60
  -5  -5 -10    2.50    0.90
  -5  -5 -10    1.90    0.80
   5   5  10    3.40    0.90
   5   5  10    2.30    0.80
   5   5  10    3.20    0.80
   5   5  10    2.40    0.70
   5   5  10    2.30    0.80
  -6  -5 -10   -0.20    0.50
  -6  -5 -10   -0.40    0.60
   6   5  10    0.00    0.40
   6   5  10    0.30    0.50
   6   5  10    0.50    0.50
   2  -6 -10   57.59    2.40
  -2   6  10   61.09    2.70
   1  -6 -10    0.40    0.50
  -1   6  10    1.70    0.70
   0  -6 -10   35.70    2.10
   0   6  10   34.90    2.20
   0   6  10   37.20    2.10
   0   6  10   34.20    2.00
  -1  -6 -10   -1.40    0.60
   1   6  10    0.20    0.50
   1   6  10    0.20    0.60
   1   6  10    0.90    0.70
   1   6  10    0.60    0.60
  -2  -6 -10   21.50    1.70
  -2  -6 -10   23.50    1.70
   2   6  10   19.10    1.70
   2   6  10   22.10    1.50
   2   6  10   19.50    1.60
   2   6  10   21.20    1.60
  -3  -6 -10    4.80    0.90
  -3  -6 -10    6.00    1.00
   3   6  10    4.20    0.90
   3   6  10    5.30    0.90
   3   6  10    5.20    0.90
   3   6  10    5.20    0.90
  -4  -6 -10    6.80    1.20
  -4  -6 -10    7.40    1.00
  -4  -6 -10    7.00    1.10
   4   6  10    7.10    1.00
   4   6  10    7.90    1.10
   4   6  10    6.90    1.00
   4   6  10    8.60    1.10
   4   6  10    7.50    1.00
  -5  -6 -10    1.60    0.70
  -5  -6 -10    2.70    0.80
   5   6  10    1.40    0.60
   5   6  10    1.70    0.60
   5   6  10    1.70    0.70
  -6  -6 -10    0.30    0.60
  -6  -6 -10    0.60    0.60
  -6  -6 -10   -0.10    0.50
   6   6  10    0.10    0.50
   6   6  10    0.70    0.50
   1  -7 -10    9.20    0.80
  -1   7  10   10.80    1.10
   0  -7 -10    6.30    0.80
   0   7  10    6.20    0.70
   0   7  10    6.80    1.00
  -1  -7 -10    1.20    0.70
   1   7  10    0.90    0.50
   1   7  10    0.80    0.70
  -2  -7 -10    0.70    0.70
  -2  -7 -10    0.40    0.60
   2   7  10    0.30    0.50
   2   7  10    0.00    0.60
   2   7  10    0.60    0.50
  -3  -7 -10    2.50    0.80
  -3  -7 -10    2.00    0.90
  -3  -7 -10    1.50    0.80
   3   7  10    2.50    0.70
   3   7  10    1.80    0.70
  -4  -7 -10    4.70    0.90
  -4  -7 -10    4.00    0.90
  -4  -7 -10    5.30    0.90
   4   7  10    2.90    0.80
   4   7  10    3.00    0.60
  -5  -7 -10    0.40    0.60
  -5  -7 -10   -0.10    0.60
   5   7  10   -0.20    0.40
   5   7  10    0.40    0.50
  -6  -7 -10    1.20    0.60
  -6  -7 -10    1.20    0.60
   6   7  10    1.20    0.50
   0  -8 -10    2.10    0.50
   0   8  10    2.90    0.60
  -1  -8 -10    2.00    0.50
   1   8  10    0.20    0.40
   1   8  10    1.00    0.60
  -2  -8 -10    0.70    0.60
   2   8  10   -0.30    0.40
  -3  -8 -10    1.10    0.70
  -3  -8 -10    2.70    0.70
  -3  -8 -10    0.70    0.60
   3   8  10    1.50    0.50
  -4  -8 -10    0.80    0.60
  -4  -8 -10    0.40    0.60
  -4  -8 -10   -0.20    0.60
   4   8  10   -0.20    0.40
  -5  -8 -10   15.30    1.10
  -5  -8 -10   14.30    1.10
  -5  -8 -10   15.20    1.20
   5   8  10   13.20    1.00
  -1  -1  11   -0.40    0.40
  -1  -1  11    0.50    0.50
  -1  -1  11    1.60    0.60
   0  -1  11    0.00    0.50
   0  -1  11    0.20    0.50
   0  -1  11    0.00    0.50
   1  -1  11    0.30    0.50
   1  -1  11   -0.20    0.50
   2  -1  11    0.80    0.50
  -2   0  11    0.80    0.50
  -2   0  11    0.50    0.40
  -2   0  11    0.50    0.50
  -2   0  11    1.00    0.50
  -2   0  11    0.60    0.60
  -1   0  11    0.20    0.50
  -1   0  11   -0.20    0.40
  -1   0  11   -0.10    0.60
  -1   0  11    0.60    0.60
  -1   0  11    1.10    0.40
   0   0  11   -0.40    0.60
   0   0  11    0.50    0.60
   0   0  11    0.90    0.50
   0   0  11   -0.30    0.40
   1   0  11    0.90    0.70
   1   0  11    0.60    0.50
   1   0  11    3.00    0.80
   1   0  11    1.50    0.60
   1   0  11    2.00    0.60
   2   0  11    5.60    0.90
   2   0  11    6.50    1.10
   2   0  11    6.10    0.90
   3   0  11    5.80    0.90
   3   0  11    8.00    0.90
   3   0  11    6.30    0.80
  -2   1  11   15.00    1.20
  -2   1  11   14.50    1.10
  -2   1  11   14.90    1.00
  -2   1  11   12.30    1.20
  -2   1  11   14.10    1.40
  -1   1  11   -0.70    0.60
  -1   1  11    0.30    0.60
  -1   1  11   -0.10    0.50
  -1   1  11    0.60    0.50
  -1   1  11   -0.60    0.40
  -1   1  11    0.10    0.60
   0   1  11    6.30    1.10
   0   1  11    6.20    1.00
   0   1  11    7.70    1.10
   0   1  11    8.30    1.00
   0   1  11    7.30    0.90
   0   1  11    8.30    1.00
   1   1  11    4.20    0.80
   1   1  11    5.70    1.10
   1   1  11    5.50    0.80
   1   1  11    2.80    0.90
   1   1  11    4.50    0.90
   2   1  11   -1.00    0.50
   2   1  11   -0.50    0.60
   2   1  11    0.10    0.60
   2   1  11   -0.20    0.50
   2   1  11   -0.20    0.60
   3   1  11    1.10    0.70
   3   1  11   -0.10    0.70
   3   1  11    0.50    0.50
   3   1  11    0.30    0.60
   4   1  11    3.60    0.80
   4   1  11    1.10    0.60
   4   1  11    3.30    0.70
   4   1  11    2.80    0.60
  -2   2  11   14.70    1.20
  -2   2  11   14.70    1.20
  -2   2  11   17.30    1.40
  -2   2  11   13.60    1.30
  -2   2  11   15.90    1.20
  -2   2  11   16.60    1.20
  -1   2  11   28.50    1.80
  -1   2  11   28.20    1.70
  -1   2  11   28.10    1.90
  -1   2  11   28.30    1.70
  -1   2  11   26.40    1.60
  -1   2  11   29.20    1.80
   0   2  11    1.20    0.80
   0   2  11    0.70    0.60
   0   2  11    1.10    0.70
   0   2  11    1.30    0.70
   0   2  11    1.10    0.50
   0   2  11    1.00    0.60
   1   2  11   -1.10    0.60
   1   2  11    0.40    0.60
   1   2  11    0.20    0.60
   1   2  11    0.70    0.70
   1   2  11   -0.20    0.60
   1   2  11    0.30    0.70
   2   2  11   -0.60    0.60
   2   2  11    0.10    0.60
   2   2  11    0.90    0.60
   2   2  11    1.80    0.70
   2   2  11    0.00    0.70
  -3  -2 -11    1.30    0.70
   3   2  11    1.20    0.90
   3   2  11    1.30    0.50
   3   2  11    0.90    0.70
   3   2  11    1.20    0.60
   3   2  11    1.20    0.60
   3   2  11    1.10    0.70
   4   2  11    1.80    0.80
   4   2  11    2.10    0.60
   4   2  11    2.70    0.80
   4   2  11    2.70    0.70
  -2   3  11    6.10    0.90
  -2   3  11    3.90    0.70
  -2   3  11    5.40    0.80
  -2   3  11    4.50    0.80
  -2   3  11    4.20    0.70
  -2   3  11    4.60    0.70
  -1   3  11   16.90    1.30
  -1   3  11   13.70    1.40
  -1   3  11   15.70    1.40
  -1   3  11   17.40    1.30
  -1   3  11   16.10    1.30
  -1   3  11   13.00    1.40
   0   3  11   -0.40    0.60
   0   3  11    0.00    0.60
   0   3  11   -0.30    0.50
   0   3  11    0.90    0.70
   0   3  11    0.10    0.50
   0   3  11   -0.50    0.50
   1   3  11   20.90    1.60
   1   3  11   23.30    1.70
   1   3  11   21.80    1.60
   1   3  11   17.70    1.80
   1   3  11   22.60    1.80
   1   3  11   21.10    1.70
  -2  -3 -11    4.00    0.80
   2   3  11    3.60    0.90
   2   3  11    3.90    1.00
   2   3  11    4.00    0.90
   2   3  11    4.50    0.80
   2   3  11    3.20    0.80
   2   3  11    3.70    0.90
  -3  -3 -11    3.90    0.80
   3   3  11    4.00    0.90
   3   3  11    3.50    0.90
   3   3  11    4.70    0.70
   3   3  11    4.00    0.90
   3   3  11    3.50    0.70
   3   3  11    3.50    0.70
  -4  -3 -11    4.00    0.80
   4   3  11    4.40    0.90
   4   3  11    4.80    0.90
   4   3  11    3.70    0.70
   4   3  11    4.30    0.80
   4   3  11    5.30    0.70
   5   3  11    2.90    0.70
   5   3  11    1.90    0.70
   5   3  11    3.30    0.60
   5   3  11    1.90    0.60
  -2   4  11    1.00    0.50
  -2   4  11    0.20    0.50
  -2   4  11   -0.40    0.50
  -1   4  11    2.70    0.70
  -1   4  11    2.20    0.70
  -1   4  11    3.10    0.70
  -1   4  11    3.60    0.80
  -1   4  11    2.60    0.60
  -1   4  11    2.30    0.70
   0   4  11    6.30    0.90
   0   4  11    5.40    0.90
   0   4  11    7.30    1.00
   0   4  11    5.40    1.00
   0   4  11    5.80    1.00
   0   4  11    5.40    0.90
   1   4  11    0.20    0.70
   1   4  11    1.00    0.70
   1   4  11    0.20    0.60
   1   4  11   -0.10    0.60
   1   4  11   -0.20    0.60
   1   4  11   -0.60    0.50
  -2  -4 -11    0.00    0.60
   2   4  11    1.70    0.60
   2   4  11    0.60    0.60
   2   4  11    1.90    0.70
   2   4  11    0.30    0.60
   2   4  11    0.20    0.70
   2   4  11    0.30    0.70
  -3  -4 -11   20.50    1.60
   3   4  11   21.40    1.40
   3   4  11   19.80    1.70
   3   4  11   22.10    1.70
   3   4  11   21.90    1.50
   3   4  11   21.50    1.50
   3   4  11   16.50    1.50
  -4  -4 -11   18.80    1.50
   4   4  11   20.30    1.40
   4   4  11   21.70    1.60
   4   4  11   20.50    1.50
   4   4  11   21.00    1.60
   4   4  11   21.30    1.40
  -5  -4 -11   -0.40    0.40
   5   4  11   -0.30    0.40
   5   4  11    0.10    0.70
   5   4  11   -0.50    0.40
   5   4  11    0.10    0.60
   1  -5 -11    1.90    0.50
  -1   5  11    0.80    0.60
  -1   5  11    1.90    0.60
  -1   5  11    2.30    0.60
   0  -5 -11    5.30    0.80
   0   5  11    5.00    0.80
   0   5  11    3.50    0.80
   0   5  11    6.60    0.80
   0   5  11    5.70    0.90
   0   5  11    4.10    0.70
  -1  -5 -11    1.20    0.70
   1   5  11    0.70    0.60
   1   5  11    0.90    0.60
   1   5  11    0.40    0.60
   1   5  11    0.60    0.60
   1   5  11    1.70    0.70
   1   5  11    0.30    0.60
  -2  -5 -11    3.10    0.80
  -2  -5 -11    2.60    0.80
   2   5  11    2.40    0.70
   2   5  11    2.20    0.70
   2   5  11    2.60    0.60
   2   5  11    2.10    0.60
   2   5  11    2.00    0.70
   2   5  11    2.20    0.80
  -3  -5 -11   24.70    1.50
  -3  -5 -11   28.20    1.80
   3   5  11   23.30    1.60
   3   5  11   23.90    1.60
   3   5  11   21.70    1.40
   3   5  11   27.10    1.80
   3   5  11   23.30    1.60
   3   5  11   22.60    1.60
  -4  -5 -11    0.60    0.60
  -4  -5 -11    0.30    0.70
   4   5  11    1.00    0.70
   4   5  11   -0.40    0.60
   4   5  11    0.60    0.50
   4   5  11    0.10    0.60
   4   5  11    0.40    0.50
  -5  -5 -11    7.90    0.90
  -5  -5 -11    9.10    1.00
   5   5  11    7.30    1.00
   5   5  11    8.20    0.90
   5   5  11    8.00    0.80
   0  -6 -11    3.30    0.60
   0   6  11    4.30    0.80
  -1  -6 -11    0.90    0.60
  -1  -6 -11    0.00    0.50
   1   6  11    0.00    0.50
   1   6  11   -0.50    0.50
   1   6  11   -0.40    0.60
   1   6  11    0.40    0.50
  -2  -6 -11   21.60    1.50
  -2  -6 -11   21.60    1.60
   2   6  11   18.90    1.40
   2   6  11   18.90    1.30
   2   6  11   21.20    1.60
  -3  -6 -11    1.30    0.70
  -3  -6 -11   -0.30    0.60
   3   6  11    0.40    0.50
   3   6  11    0.30    0.40
   3   6  11    0.10    0.60
  -4  -6 -11    7.10    0.90
  -4  -6 -11    8.00    1.00
   4   6  11    5.50    0.80
   4   6  11    6.00    0.80
   4   6  11    6.60    0.90
  -5  -6 -11    1.00    0.60
  -5  -6 -11   -1.10    0.90
   5   6  11    0.70    0.40
   5   6  11   -0.10    0.70
  -1  -7 -11    1.00    0.50
   1   7  11   -0.70    0.50
  -2  -7 -11    0.00    0.50
  -2  -7 -11    0.80    0.60
  -2  -7 -11    0.20    0.70
   2   7  11   -0.20    0.60
   2   7  11    0.20    0.30
  -3  -7 -11    4.20    0.70
  -3  -7 -11    5.40    0.80
  -3  -7 -11    3.90    0.80
   3   7  11    3.50    0.60
  -4  -7 -11    1.00    0.60
  -4  -7 -11    0.40    0.50
  -4  -7 -11    0.40    0.50
   4   7  11    0.10    0.40
   1   3  12    0.40    0.50
   1   3  12    0.30    0.50
   1   3  12    0.10    0.40

_computing_structure_solution     'SHELXT 2014/4 (Sheldrick, 2014)'
;
_shelx_hkl_checksum              1422
loop_
_space_group_symop_operation_xyz
'x, y, z'
'-x, -y, -z'
loop_
_atom_site_label
_atom_site_type_symbol
_atom_site_fract_x
_atom_site_fract_y
_atom_site_fract_z
_atom_site_U_iso_or_equiv
_atom_site_adp_type
_atom_site_occupancy
_atom_site_site_symmetry_order
_atom_site_calc_flag
_atom_site_refinement_flags_posn
_atom_site_refinement_flags_adp
B1 B 0.9181(3) 0.2482(3) 0.7987(3) 0.0436(6) Uani 1 1 d . .
H1 H 1.034(3) 0.161(3) 0.839(2) 0.050(6) Uiso 1 1 d . .
C1 C 0.8530(2) 0.1978(2) 0.6789(2) 0.0389(5) Uani 1 1 d . .
C2 C 0.7900(3) 0.0467(2) 0.5772(2) 0.0420(5) Uani 1 1 d . .
C3 C 0.7694(3) -0.0752(3) 0.5434(3) 0.0534(6) Uani 1 1 d . .
H3A H 0.798569 -0.171014 0.603728 0.064 Uiso 1 1 calc R U
C4 C 0.7040(4) -0.0464(4) 0.4167(3) 0.0645(7) Uani 1 1 d . .
H4A H 0.688848 -0.125256 0.388874 0.077 Uiso 1 1 calc R U
C5 C 0.6594(4) 0.0947(4) 0.3284(3) 0.0697(8) Uani 1 1 d . .
H5A H 0.613107 0.108748 0.243352 0.084 Uiso 1 1 calc R U
C6 C 0.6804(3) 0.2155(3) 0.3605(2) 0.0601(7) Uani 1 1 d . .
H6A H 0.649946 0.311152 0.299972 0.072 Uiso 1 1 calc R U
C7 C 0.7496(3) 0.1876(3) 0.4885(2) 0.0437(5) Uani 1 1 d . .
C8 C 0.8999(3) -0.0641(3) 0.8157(3) 0.0548(6) Uani 1 1 d . .
H8A H 0.887082 -0.153059 0.799587 0.082 Uiso 1 1 calc R U
H8B H 1.018316 -0.082776 0.832549 0.082 Uiso 1 1 calc R U
H8C H 0.826827 -0.038586 0.896408 0.082 Uiso 1 1 calc R U
C9 C 0.7650(4) 0.4373(3) 0.4930(3) 0.0621(7) Uani 1 1 d . .
H9A H 0.717274 0.465626 0.402695 0.093 Uiso 1 1 calc R U
H9B H 0.687043 0.495684 0.554149 0.093 Uiso 1 1 calc R U
H9C H 0.874343 0.455871 0.481441 0.093 Uiso 1 1 calc R U
C10 C 0.8976(3) 0.4848(3) 0.8190(3) 0.0592(6) Uani 1 1 d . .
C11 C 0.8013(4) 0.4241(4) 0.9474(3) 0.0703(8) Uani 1 1 d . .
H11A H 0.691982 0.499466 0.962515 0.084 Uiso 1 1 calc R U
H11B H 0.868016 0.396450 1.029337 0.084 Uiso 1 1 calc R U
C12 C 0.7700(3) 0.2877(3) 0.9261(2) 0.0485(5) Uani 1 1 d . .
H12A H 0.791831 0.205220 1.011315 0.058 Uiso 1 1 calc R U
C13 C 0.5964(3) 0.3212(3) 0.8790(2) 0.0467(5) Uani 1 1 d . .
C14 C 0.3817(4) 0.2213(4) 0.8645(4) 0.0897(11) Uani 1 1 d . .
H14A H 0.350739 0.130190 0.897855 0.135 Uiso 1 1 calc R U
H14B H 0.292826 0.302253 0.895360 0.135 Uiso 1 1 calc R U
H14C H 0.394029 0.245372 0.763172 0.135 Uiso 1 1 calc R U
N1 N 0.8516(2) 0.05795(19) 0.69441(17) 0.0405(4) Uani 1 1 d . .
N2 N 0.7896(2) 0.2790(2) 0.55441(18) 0.0449(4) Uani 1 1 d . .
O1 O 0.9603(2) 0.38941(19) 0.73978(18) 0.0586(5) Uani 1 1 d . .
O2 O 0.9244(4) 0.6034(2) 0.7918(3) 0.0942(8) Uani 1 1 d . .
O3 O 0.5165(2) 0.4352(2) 0.8071(2) 0.0731(6) Uani 1 1 d . .
O4 O 0.5428(2) 0.2002(2) 0.91982(19) 0.0616(5) Uani 1 1 d . .
loop_
_atom_site_aniso_label
_atom_site_aniso_U_11
_atom_site_aniso_U_22
_atom_site_aniso_U_33
_atom_site_aniso_U_23
_atom_site_aniso_U_13
_atom_site_aniso_U_12
B1 0.0436(12) 0.0432(13) 0.0505(13) -0.0181(11) 0.0011(10) -0.0182(10)
C1 0.0377(10) 0.0393(11) 0.0419(10) -0.0146(9) 0.0054(8) -0.0143(8)
C2 0.0391(10) 0.0496(12) 0.0417(10) -0.0194(10) 0.0059(8) -0.0164(8)
C3 0.0548(13) 0.0544(14) 0.0604(14) -0.0259(12) 0.0087(10) -0.0245(10)
C4 0.0740(17) 0.084(2) 0.0580(14) -0.0372(15) 0.0079(12) -0.0424(14)
C5 0.0754(18) 0.103(2) 0.0483(13) -0.0308(16) -0.0005(12) -0.0418(16)
C6 0.0628(15) 0.0758(18) 0.0414(12) -0.0115(12) -0.0006(10) -0.0241(12)
C7 0.0428(11) 0.0528(13) 0.0395(10) -0.0167(10) 0.0052(8) -0.0190(9)
C8 0.0702(15) 0.0407(12) 0.0544(13) -0.0103(11) -0.0105(11) -0.0166(11)
C9 0.0805(17) 0.0445(13) 0.0592(14) -0.0007(12) -0.0027(12) -0.0266(12)
C10 0.0703(16) 0.0448(13) 0.0741(16) -0.0187(12) -0.0124(12) -0.0260(11)
C11 0.0722(17) 0.087(2) 0.0780(17) -0.0537(16) 0.0136(13) -0.0395(15)
C12 0.0517(12) 0.0589(14) 0.0438(11) -0.0178(10) 0.0015(9) -0.0262(10)
C13 0.0455(11) 0.0555(14) 0.0444(11) -0.0217(11) 0.0088(9) -0.0196(10)
C14 0.0677(18) 0.130(3) 0.103(2) -0.048(2) -0.0030(16) -0.0562(19)
N1 0.0432(9) 0.0388(9) 0.0429(9) -0.0139(8) 0.0005(7) -0.0152(7)
N2 0.0490(10) 0.0410(10) 0.0457(10) -0.0110(8) 0.0062(7) -0.0187(7)
O1 0.0730(11) 0.0581(10) 0.0630(10) -0.0250(8) 0.0131(8) -0.0428(9)
O2 0.136(2) 0.0544(12) 0.1142(18) -0.0197(12) -0.0259(15) -0.0506(13)
O3 0.0595(11) 0.0626(12) 0.0794(13) -0.0073(11) -0.0025(9) -0.0049(9)
O4 0.0557(10) 0.0715(12) 0.0687(11) -0.0190(9) 0.0001(8) -0.0340(8)
loop_
_atom_type_symbol
_atom_type_description
_atom_type_scat_dispersion_real
_atom_type_scat_dispersion_imag
_atom_type_scat_source
C C 0.0181 0.0091 'International Tables Vol C Tables 4.2.6.8 and 6.1.1.4'
H H 0.0000 0.0000 'International Tables Vol C Tables 4.2.6.8 and 6.1.1.4'
B B 0.0090 0.0039 'International Tables Vol C Tables 4.2.6.8 and 6.1.1.4'
N N 0.0311 0.0180 'International Tables Vol C Tables 4.2.6.8 and 6.1.1.4'
O O 0.0492 0.0322 'International Tables Vol C Tables 4.2.6.8 and 6.1.1.4'
loop_
_geom_angle_atom_site_label_1
_geom_angle_atom_site_label_2
_geom_angle_atom_site_label_3
_geom_angle
O1 B1 C1 111.03(18)
O1 B1 C12 103.61(17)
C1 B1 C12 113.70(16)
O1 B1 H1 108.3(13)
C1 B1 H1 108.2(13)
C12 B1 H1 111.9(13)
N1 C1 N2 107.61(17)
N1 C1 B1 122.24(18)
N2 C1 B1 130.13(18)
C7 C2 N1 106.31(18)
C7 C2 C3 122.6(2)
N1 C2 C3 131.1(2)
C4 C3 C2 115.7(2)
C4 C3 H3A 122.1
C2 C3 H3A 122.1
C3 C4 C5 122.3(2)
C3 C4 H4A 118.9
C5 C4 H4A 118.9
C6 C5 C4 122.4(2)
C6 C5 H5A 118.8
C4 C5 H5A 118.8
C5 C6 C7 116.1(2)
C5 C6 H6A 122.0
C7 C6 H6A 122.0
C2 C7 N2 106.72(18)
C2 C7 C6 120.9(2)
N2 C7 C6 132.3(2)
N1 C8 H8A 109.5
N1 C8 H8B 109.5
H8A C8 H8B 109.5
N1 C8 H8C 109.5
H8A C8 H8C 109.5
H8B C8 H8C 109.5
N2 C9 H9A 109.5
N2 C9 H9B 109.5
H9A C9 H9B 109.5
N2 C9 H9C 109.5
H9A C9 H9C 109.5
H9B C9 H9C 109.5
O2 C10 O1 122.5(3)
O2 C10 C11 125.6(3)
O1 C10 C11 111.8(2)
C10 C11 C12 107.63(19)
C10 C11 H11A 110.2
C12 C11 H11A 110.2
C10 C11 H11B 110.2
C12 C11 H11B 110.2
H11A C11 H11B 108.5
C13 C12 C11 112.8(2)
C13 C12 B1 110.38(17)
C11 C12 B1 100.10(17)
C13 C12 H12A 111.0
C11 C12 H12A 111.0
B1 C12 H12A 111.0
O3 C13 O4 122.6(2)
O3 C13 C12 126.0(2)
O4 C13 C12 111.2(2)
O4 C14 H14A 109.5
O4 C14 H14B 109.5
H14A C14 H14B 109.5
O4 C14 H14C 109.5
H14A C14 H14C 109.5
H14B C14 H14C 109.5
C1 N1 C2 110.01(18)
C1 N1 C8 126.29(17)
C2 N1 C8 123.67(18)
C1 N2 C7 109.34(18)
C1 N2 C9 127.4(2)
C7 N2 C9 123.2(2)
C10 O1 B1 112.59(19)
C13 O4 C14 113.8(2)
loop_
_geom_bond_atom_site_label_1
_geom_bond_atom_site_label_2
_geom_bond_distance
B1 O1 1.485(3)
B1 C1 1.630(3)
B1 C12 1.660(3)
B1 H1 1.09(2)
C1 N1 1.341(3)
C1 N2 1.350(3)
C2 C7 1.382(3)
C2 N1 1.388(3)
C2 C3 1.394(3)
C3 C4 1.370(4)
C3 H3A 0.9400
C4 C5 1.383(4)
C4 H4A 0.9400
C5 C6 1.377(4)
C5 H5A 0.9400
C6 C7 1.398(3)
C6 H6A 0.9400
C7 N2 1.390(3)
C8 N1 1.444(3)
C8 H8A 0.9700
C8 H8B 0.9700
C8 H8C 0.9700
C9 N2 1.459(3)
C9 H9A 0.9700
C9 H9B 0.9700
C9 H9C 0.9700
C10 O2 1.208(3)
C10 O1 1.312(3)
C10 C11 1.494(4)
C11 C12 1.519(3)
C11 H11A 0.9800
C11 H11B 0.9800
C12 C13 1.486(3)
C12 H12A 0.9900
C13 O3 1.186(3)
C13 O4 1.345(3)
C14 O4 1.453(3)
C14 H14A 0.9700
C14 H14B 0.9700
C14 H14C 0.9700
