#------------------------------------------------------------------------------
#$Date: 2020-10-19 10:35:42 +0300 (Mon, 19 Oct 2020) $
#$Revision: 258458 $
#$URL: file:///home/coder/svn-repositories/cod/cif/4/12/76/4127681.cif $
#------------------------------------------------------------------------------
#
# This file is available in the Crystallography Open Database (COD),
# http://www.crystallography.net/
#
# All data on this site have been placed in the public domain by the
# contributors.
#
data_4127681
loop_
_publ_author_name
'Touge, Taichiro'
'Sakaguchi, Kazuhiko'
'Tamaki, Nao'
'Nara, Hideki'
'Yokozawa, Tohru'
'Matsumura, Kazuhiko'
'Kayaki, Yoshihito'
_publ_section_title
;
 Multiple Absolute Stereocontrol in Cascade Lactone Formation via Dynamic
 Kinetic Resolution Driven by the Asymmetric Transfer Hydrogenation of
 Keto Acids with Oxo-Tethered Ruthenium Catalysts.
;
_journal_issue                   41
_journal_name_full               'Journal of the American Chemical Society'
_journal_page_first              16354
_journal_page_last               16361
_journal_paper_doi               10.1021/jacs.9b07297
_journal_volume                  141
_journal_year                    2019
_chemical_absolute_configuration ad
_chemical_formula_moiety         'C19 H18 O3'
_chemical_formula_sum            'C19 H18 O3'
_chemical_formula_weight         294.33
_chemical_name_systematic
;
(1R,3aS,9bR)-8-methoxy-1-phenyl-3a,4,5,9b-tetrahydronaphtho[2,1-b]furan-2(1H)-one
;
_space_group_crystal_system      monoclinic
_space_group_IT_number           4
_space_group_name_Hall           'P 2yb'
_space_group_name_H-M_alt        'P 1 21 1'
_symmetry_space_group_name_Hall  'P 2yb'
_symmetry_space_group_name_H-M   'P 1 21 1'
_atom_sites_solution_hydrogens   geom
_atom_sites_solution_primary     dual
_audit_creation_date             2019-02-07
_audit_creation_method
;
Olex2 1.3-ac4
(compiled 2018.11.30 svn.r3537 for Rigaku Oxford Diffraction, GUI svn.r5622)
;
_cell_angle_alpha                90
_cell_angle_beta                 102.401(2)
_cell_angle_gamma                90
_cell_formula_units_Z            2
_cell_length_a                   9.8340(2)
_cell_length_b                   5.85050(10)
_cell_length_c                   12.9552(2)
_cell_measurement_reflns_used    7258
_cell_measurement_temperature    100.00(10)
_cell_measurement_theta_max      75.7670
_cell_measurement_theta_min      3.4810
_cell_volume                     727.97(2)
_computing_cell_refinement       'CrysAlisPro 1.171.40.37a (Rigaku OD, 2019)'
_computing_data_collection       'CrysAlisPro 1.171.40.37a (Rigaku OD, 2019)'
_computing_data_reduction        'CrysAlisPro 1.171.40.37a (Rigaku OD, 2019)'
_computing_molecular_graphics    'Olex2 (Dolomanov et al., 2009)'
_computing_publication_material  'Olex2 (Dolomanov et al., 2009)'
_computing_structure_refinement  'ShelXL (Sheldrick, 2015)'
_computing_structure_solution    'ShelXT (Sheldrick, 2015)'
_diffrn_ambient_environment      N~2~
_diffrn_ambient_temperature      100.00(10)
_diffrn_detector                 'CCD plate'
_diffrn_detector_area_resol_mean 10.0000
_diffrn_detector_type            HyPix
_diffrn_measured_fraction_theta_full 1.000
_diffrn_measured_fraction_theta_max 0.983
_diffrn_measurement_details
;
List of Runs (angles in degrees, time in seconds):

  # Type    Start    End  Width  t~exp~   \w     \q     \k     \f   Frames
--------------------------------------------------------------------------
  1  \w    -26.00  43.00   0.50    0.37    --  -39.63  19.00  60.00  138
  2  \w    -45.00  26.00   0.50    0.37    --   39.63 -19.00  30.00  142
  3  \w     80.00 178.00   0.50    1.48    --  114.32  77.00 133.00  196
  4  \w     77.00 178.00   0.50    1.48    --  114.32  30.00 -60.00  202
  5  \w     85.00 178.00   0.50    1.48    --  114.32  61.00-180.00  186
  6  \w     80.00 178.00   0.50    1.48    --  114.32  77.00-150.00  196
  7  \w     77.00 178.00   0.50    1.48    --  114.32  30.00 -90.00  202
  8  \w     77.00 178.00   0.50    1.48    --  114.32  30.00  90.00  202
  9  \w     60.00 122.00   0.50    0.37    --   39.63 178.00 -90.00  124
 10  \w     60.00 122.00   0.50    0.37    --   39.63 178.00  30.00  124
 11  \w     60.00 122.00   0.50    0.37    --   39.63 178.00  60.00  124
 12  \w    -45.00  26.00   0.50    0.37    --   39.63 -19.00-150.00  142
 13  \w     39.00 106.00   0.50    1.48    --  114.32 -77.00   7.00  134
 14  \w     39.00 106.00   0.50    1.48    --  114.32 -77.00  90.00  134
 15  \w     39.00 106.00   0.50    1.48    --  114.32 -77.00  60.00  134
 16  \w     37.00 117.00   0.50    1.48    --  114.32-125.00   0.00  160
 17  \w     39.00  71.00   0.50    1.48    --  114.32 -61.00-150.00   64
 18  \w     34.00 109.00   0.50    1.48    --  114.32 -94.00-150.00  150
 19  \w     39.00 106.00   0.50    1.48    --  114.32 -77.00 -90.00  134
 20  \w     39.00  71.00   0.50    1.48    --  114.32 -61.00-180.00   64
 21  \w     37.00 117.00   0.50    1.48    --  114.32-125.00  90.00  160
 22  \w     39.00  71.00   0.50    1.48    --  114.32 -61.00 150.00   64
 23  \w    -74.00  36.00   0.50    0.37    --  -39.63  77.00 133.00  220
 24  \w    -51.00 -15.00   0.50    1.48    --  -94.50  45.00  60.00   72
 25  \w    -51.00 -15.00   0.50    1.48    --  -94.50  45.00 -30.00   72
 26  \w   -106.00 -19.00   0.50    1.48    --  -94.50  77.00 133.00  174
 27  \w   -115.00 -12.00   0.50    0.37    --  -39.63 -57.00  60.00  206
 28  \w   -115.00  -5.00   0.50    0.37    --  -39.63 -77.00   7.00  220
 29  \w   -115.00  -5.00   0.50    0.37    --  -39.63 -77.00 120.00  220
 30  \w   -115.00  -5.00   0.50    0.37    --  -39.63 -77.00-120.00  220
 31  \w   -115.00 -12.00   0.50    0.37    --  -39.63 -57.00-120.00  206
 32  \w   -115.00  -5.00   0.50    0.37    --  -39.63 -77.00 150.00  220
 33  \w   -170.00 -60.00   0.50    1.48    --  -94.50 -77.00   7.00  220
 34  \w   -174.00 -65.00   0.50    1.48    --  -94.50 -45.00 -90.00  218
 35  \w   -170.00 -65.00   0.50    1.48    --  -94.50 -61.00  60.00  210
 36  \w   -170.00 -67.00   0.50    1.48    --  -94.50 -77.00 -90.00  206
 37  \w   -174.00 -65.00   0.50    1.48    --  -94.50 -45.00 -60.00  218
 38  \w   -170.00 -60.00   0.50    1.48    --  -94.50 -77.00 150.00  220
 39  \w   -170.00 -60.00   0.50    1.48    --  -94.50 -77.00  60.00  220
 40  \w   -170.00 -60.00   0.50    1.48    --  -94.50 -77.00-150.00  220
 41  \w   -170.00 -60.00   0.50    1.48    --  -94.50 -77.00 120.00  220
;
_diffrn_measurement_device       'four-circle diffractometer'
_diffrn_measurement_device_type  'XtaLAB Synergy, Dualflex, HyPix'
_diffrn_measurement_method       '\w scans'
_diffrn_orient_matrix_type
'CrysAlisPro convention (1999,Acta A55,543-557)'
_diffrn_orient_matrix_UB_11      0.0392571000
_diffrn_orient_matrix_UB_12      -0.0729546000
_diffrn_orient_matrix_UB_13      0.1168685000
_diffrn_orient_matrix_UB_21      0.0774657000
_diffrn_orient_matrix_UB_22      -0.2096882000
_diffrn_orient_matrix_UB_23      -0.0307281000
_diffrn_orient_matrix_UB_31      0.1348460000
_diffrn_orient_matrix_UB_32      0.1416989000
_diffrn_orient_matrix_UB_33      0.0147364000
_diffrn_radiation_monochromator  mirror
_diffrn_radiation_probe          x-ray
_diffrn_radiation_type           CuK\a
_diffrn_radiation_wavelength     1.54184
_diffrn_reflns_av_R_equivalents  0.0451
_diffrn_reflns_av_unetI/netI     0.0268
_diffrn_reflns_Laue_measured_fraction_full 1.000
_diffrn_reflns_Laue_measured_fraction_max 0.983
_diffrn_reflns_limit_h_max       12
_diffrn_reflns_limit_h_min       -11
_diffrn_reflns_limit_k_max       7
_diffrn_reflns_limit_k_min       -7
_diffrn_reflns_limit_l_max       16
_diffrn_reflns_limit_l_min       -16
_diffrn_reflns_number            13484
_diffrn_reflns_point_group_measured_fraction_full 0.998
_diffrn_reflns_point_group_measured_fraction_max 0.962
_diffrn_reflns_theta_full        67.684
_diffrn_reflns_theta_max         76.560
_diffrn_reflns_theta_min         3.493
_diffrn_source                   'micro-focus sealed X-ray tube'
_diffrn_source_type              'PhotonJet (Cu) X-ray Source'
_exptl_absorpt_coefficient_mu    0.723
_exptl_absorpt_correction_T_max  1.000
_exptl_absorpt_correction_T_min  0.790
_exptl_absorpt_correction_type   gaussian
_exptl_absorpt_process_details
;
CrysAlisPro 1.171.40.37a (Rigaku Oxford Diffraction, 2019)
Numerical absorption correction based on gaussian integration over
            a multifaceted crystal model
Empirical absorption correction using spherical harmonics,
 implemented in SCALE3 ABSPACK scaling algorithm.
;
_exptl_crystal_colour            colourless
_exptl_crystal_density_diffrn    1.343
_exptl_crystal_description       prism
_exptl_crystal_F_000             312
_exptl_crystal_size_max          0.159
_exptl_crystal_size_mid          0.071
_exptl_crystal_size_min          0.051
_refine_diff_density_max         0.274
_refine_diff_density_min         -0.296
_refine_diff_density_rms         0.064
_refine_ls_abs_structure_details
;
 Flack x determined using 1221 quotients [(I+)-(I-)]/[(I+)+(I-)]
 (Parsons, Flack and Wagner, Acta Cryst. B69 (2013) 249-259).
;
_refine_ls_abs_structure_Flack   -0.05(8)
_refine_ls_extinction_method     none
_refine_ls_goodness_of_fit_ref   1.063
_refine_ls_hydrogen_treatment    constr
_refine_ls_matrix_type           full
_refine_ls_number_parameters     200
_refine_ls_number_reflns         2959
_refine_ls_number_restraints     1
_refine_ls_restrained_S_all      1.063
_refine_ls_R_factor_all          0.0409
_refine_ls_R_factor_gt           0.0396
_refine_ls_shift/su_max          0.000
_refine_ls_shift/su_mean         0.000
_refine_ls_structure_factor_coef Fsqd
_refine_ls_weighting_details
'w=1/[\s^2^(Fo^2^)+(0.0708P)^2^+0.2001P] where P=(Fo^2^+2Fc^2^)/3'
_refine_ls_weighting_scheme      calc
_refine_ls_wR_factor_gt          0.1060
_refine_ls_wR_factor_ref         0.1082
_reflns_Friedel_coverage         0.775
_reflns_Friedel_fraction_full    0.996
_reflns_Friedel_fraction_max     0.935
_reflns_number_gt                2855
_reflns_number_total             2959
_reflns_threshold_expression     'I > 2\s(I)'
_cod_data_source_file            ja9b07297_si_002.cif
_cod_data_source_block           exp_31
_cod_depositor_comments
;

2020-10-10
Z value and formula fixed to values more according to usual
chemical conventions.                 miguel
;
_cod_original_formula_sum            'C12.67 H12 O2'
_cod_original_formula_weight         196.22
_cod_original_formula_moiety         '0.67(C19 H18 O3)'
_cod_original_formula_units_Z            3
_cod_database_code               4127681
_shelx_shelxl_version_number     2018/3
_shelx_space_group_comment
;
The symmetry employed for this shelxl refinement is uniquely defined
by the following loop, which should always be used as a source of
symmetry information in preference to the above space-group names.
They are only intended as comments.
;
_diffrn_oxdiff_digest_frames
;
017dfa8cf32ece7bf48236a016d48437d2069584692
;
_diffrn_oxdiff_digest_hkl
;
01d8bd68c21b003390214becceb64027926aa9
;
_reflns_odcompleteness_completeness 100.00
_reflns_odcompleteness_iscentric 1
_reflns_odcompleteness_theta     68.13
_olex2_refinement_description
;
1. Fixed Uiso
 At 1.2 times of:
  All C(H) groups, All C(H,H) groups
 At 1.5 times of:
  All C(H,H,H) groups
2.a Ternary CH refined with riding coordinates:
 C009(H009), C00K(H00L), C00L(H00M)
2.b Secondary CH2 refined with riding coordinates:
 C00H(H00A,H00E), C00M(H00N,H00O)
2.c Aromatic/amide H refined with riding coordinates:
 C007(H007), C008(H008), C00B(H00B), C00C(H00C), C00D(H00D), C00F(H00F),
 C00G(H00G), C00J(H00K)
2.d Idealised Me refined as rotating group:
 C00I(H00H,H00I,H00J)
;
_shelx_res_file
;
TITL exp_31_a.res in P2(1)
    exp_31.res
    created by SHELXL-2018/3 at 16:39:38 on 07-Feb-2019
REM Old TITL exp_31 in P2(1)/m
REM SHELXT solution in P2(1): R1 0.088, Rweak 0.031, Alpha 0.002
REM <I/s> 1.647 for 4 systematic absences, Orientation as input
REM Flack x = -0.010 ( 0.085 ) from 1224 Parsons' quotients
REM Formula found by SHELXT: C19 O3
CELL 1.54184 9.834 5.8505 12.9552 90 102.401 90
ZERR 3 0.0002 0.0001 0.0002 0 0.002 0
LATT -1
SYMM -X,0.5+Y,-Z
SFAC C H O
UNIT 38 36 6

L.S. 4 0 0
PLAN  20
BOND
list 4
fmap 2 53
ACTA
REM <olex2.extras>
REM <HklSrc "%.\\exp_31.hkl">
REM </olex2.extras>

WGHT    0.070800    0.200100
FVAR       1.15279
O001  3    0.922560    0.828089    0.478473    11.00000    0.01447    0.02051 =
         0.02238   -0.00264    0.00325   -0.00207
O002  3    1.088238    0.823653    0.384746    11.00000    0.01489    0.02033 =
         0.02996    0.00008    0.00442   -0.00098
O003  3    0.399905    0.194279    0.105971    11.00000    0.01832    0.02662 =
         0.02947   -0.00759    0.00204   -0.00249
C004  1    0.970319    0.783212    0.389705    11.00000    0.01770    0.01239 =
         0.02116    0.00127    0.00325    0.00102
C005  1    0.887202    0.529990    0.224002    11.00000    0.01441    0.01563 =
         0.02298   -0.00057    0.00735   -0.00185
C006  1    0.604670    0.560898    0.315998    11.00000    0.01426    0.01682 =
         0.02095    0.00201    0.00490   -0.00035
C007  1    0.967158    0.333028    0.254515    11.00000    0.01678    0.02152 =
         0.02306    0.00201    0.00347    0.00049
AFIX  43
H007  2    1.009052    0.310224    0.325239    11.00000   -1.20000
AFIX   0
C008  1    0.845216    0.401684    0.042377    11.00000    0.01871    0.02556 =
         0.02064    0.00201    0.00586    0.00049
AFIX  43
H008  2    0.804629    0.425442   -0.028525    11.00000   -1.20000
AFIX   0
C009  1    0.754342    0.590451    0.372794    11.00000    0.01502    0.01473 =
         0.02095    0.00071    0.00363    0.00133
AFIX  13
H009  2    0.790874    0.440916    0.399449    11.00000   -1.20000
AFIX   0
C00A  1    0.498854    0.702398    0.337202    11.00000    0.01581    0.01807 =
         0.02229    0.00324    0.00672    0.00020
C00B  1    0.573699    0.387687    0.239982    11.00000    0.01535    0.01731 =
         0.02341    0.00168    0.00659    0.00056
AFIX  43
H00B  2    0.644471    0.293649    0.227088    11.00000   -1.20000
AFIX   0
C00C  1    0.921768    0.204108    0.073432    11.00000    0.01986    0.02326 =
         0.02595   -0.00386    0.00939   -0.00154
AFIX  43
H00C  2    0.931307    0.094186    0.023616    11.00000   -1.20000
AFIX   0
C00D  1    0.829485    0.563358    0.117370    11.00000    0.01546    0.01890 =
         0.02576    0.00309    0.00548    0.00018
AFIX  43
H00D  2    0.779479    0.696247    0.095899    11.00000   -1.20000
AFIX   0
C00E  1    0.437981    0.355270    0.183665    11.00000    0.01921    0.01961 =
         0.02222   -0.00104    0.00435   -0.00388
C00F  1    0.362439    0.664099    0.280322    11.00000    0.01530    0.02537 =
         0.02619    0.00205    0.00711    0.00212
AFIX  43
H00F  2    0.290814    0.755167    0.293989    11.00000   -1.20000
AFIX   0
C00G  1    0.331592    0.494713    0.204528    11.00000    0.01449    0.02773 =
         0.02855    0.00232    0.00449   -0.00157
AFIX  43
H00G  2    0.240381    0.473569    0.167535    11.00000   -1.20000
AFIX   0
C00H  1    0.529527    0.890371    0.418743    11.00000    0.01644    0.01990 =
         0.02591   -0.00116    0.00677    0.00108
AFIX  23
H00A  2    0.505653    0.837674    0.483600    11.00000   -1.20000
H00E  2    0.471175    1.021220    0.393647    11.00000   -1.20000
AFIX   0
C00I  1    0.503634    0.035167    0.090601    11.00000    0.02308    0.02039 =
         0.02950   -0.00619    0.00616   -0.00118
AFIX 137
H00H  2    0.465325   -0.064741    0.032889    11.00000   -1.50000
H00I  2    0.533912   -0.053348    0.153755    11.00000   -1.50000
H00J  2    0.581487    0.116485    0.074813    11.00000   -1.50000
AFIX   0
C00J  1    0.983963    0.171900    0.179417    11.00000    0.01906    0.02017 =
         0.02991    0.00109    0.00776    0.00315
AFIX  43
H00K  2    1.037121    0.041756    0.200163    11.00000   -1.20000
AFIX   0
C00K  1    0.776592    0.757701    0.465432    11.00000    0.01441    0.01642 =
         0.02269   -0.00026    0.00325   -0.00217
AFIX  13
H00L  2    0.762566    0.680021    0.529353    11.00000   -1.20000
AFIX   0
C00L  1    0.851487    0.690915    0.304709    11.00000    0.01298    0.01450 =
         0.02345    0.00040    0.00365    0.00049
AFIX  13
H00M  2    0.803595    0.822508    0.266406    11.00000   -1.20000
AFIX   0
C00M  1    0.682269    0.965427    0.442635    11.00000    0.01817    0.01571 =
         0.02413   -0.00129    0.00515   -0.00070
AFIX  23
H00N  2    0.701916    1.048140    0.382602    11.00000   -1.20000
H00O  2    0.699944    1.066918    0.503254    11.00000   -1.20000
AFIX   0
HKLF 4




REM  exp_31_a.res in P2(1)
REM wR2 = 0.1082, GooF = S = 1.063, Restrained GooF = 1.063 for all data
REM R1 = 0.0396 for 2855 Fo > 4sig(Fo) and 0.0409 for all 2959 data
REM 200 parameters refined using 1 restraints

END

WGHT      0.0710      0.2001

REM Highest difference peak  0.274,  deepest hole -0.296,  1-sigma level  0.064
Q1    1   0.9554  0.9162  0.5541  11.00000  0.05    0.27
Q2    1   0.8965  0.6211  0.2772  11.00000  0.05    0.27
Q3    1   0.5159  0.7952  0.3836  11.00000  0.05    0.27
Q4    1   0.8564  0.5404  0.1692  11.00000  0.05    0.24
Q5    1   0.8601  0.6871  0.1809  11.00000  0.05    0.23
Q6    1   0.9399  1.0086  0.5005  11.00000  0.05    0.23
Q7    1   0.7629  0.6812  0.4138  11.00000  0.05    0.23
Q8    1   0.3784  0.2994  0.0385  11.00000  0.05    0.22
Q9    1   1.1227  0.9598  0.4529  11.00000  0.05    0.22
Q10   1   0.8989  0.0984 -0.0009  11.00000  0.05    0.22
Q11   1   0.9546  0.2231  0.1266  11.00000  0.05    0.21
Q12   1   0.9575  0.0277  0.1247  11.00000  0.05    0.21
Q13   1   1.1212  0.8270  0.4730  11.00000  0.05    0.21
Q14   1   0.3646  0.2301  0.0258  11.00000  0.05    0.21
Q15   1   1.0172  0.4401  0.3591  11.00000  0.05    0.20
Q16   1   1.0021  0.1495  0.3337  11.00000  0.05    0.19
Q17   1   0.5881  0.4703  0.2784  11.00000  0.05    0.19
Q18   1   0.4245  0.2815  0.1531  11.00000  0.05    0.19
Q19   1   0.4273  0.1736  0.1802  11.00000  0.05    0.19
Q20   1   0.9578  0.2304  0.2024  11.00000  0.05    0.19
;
_shelx_res_checksum              55344
_shelx_hkl_file
;
   0   0   1  815.43   30.23
   0   0   1  783.63   30.29
   0   0   2  269.61   10.90
   0   0   2  278.68   10.75
   0   0   2  272.31   10.89
   0   0   2  298.93   10.54
   0   0   3   84.68    4.76
   0   0  -3   94.02    4.89
   0   0   3   86.87    4.46
   0   0   3   93.31    4.90
   0   0   3   92.61    4.21
   0   0   4   84.38    4.30
   0   0  -4   80.81    5.05
   0   0   4   81.17    5.04
   0   0   4   77.90    5.13
   0   0   5   38.13    3.83
   0   0  -5   37.07    3.69
   0   0   5   32.14    2.90
   0   0   5   39.29    4.00
   0   0   6  329.84   14.08
   0   0   6  271.08   12.06
   0   0   6  302.10   14.18
   0   0  -6  353.65   14.54
   0   0   7  384.04   18.48
   0   0  -7  427.44   18.56
   0   0   7  398.29   18.05
   0   0  -8   -0.36    1.24
   0   0   8    0.63    1.50
   0   0  -8   -0.32    2.34
   0   0   8    0.88    2.38
   0   0  -9   -1.16    2.74
   0   0   9    0.47    1.64
   0   0  -9    0.17    1.39
   0   0 -10  149.13   11.62
   0   0  10  158.02    7.06
   0   0 -10  152.76    7.14
   0   0 -10  133.67   10.69
   0   0  10  165.69    7.39
   0   0 -11   13.68    2.31
   0   0  11   17.77    2.57
   0   0 -11   13.42    1.89
   0   0  11   18.71    2.69
   0   0 -12   22.57    2.29
   0   0  12   29.79    3.06
   0   0 -12   27.13    2.83
   0   0 -12   28.70    2.45
   0   0  12   29.75    2.97
   0   0 -13   11.50    1.62
   0   0 -13   16.09    2.31
   0   0  13   17.41    2.46
   0   0  13   16.35    2.40
   0   0 -13   16.14    1.93
   0   0  14  219.87    9.30
   0   0 -14  233.36    9.37
   0   0 -14  226.52    8.82
   0   0  14  231.66    9.30
   0   0 -15    4.03    1.20
   0   0  15    3.64    1.44
   0  -1   0    0.41    1.32
   0  -1   0   -0.21    0.93
   0   1   0    0.04    0.90
   0   1   0    0.30    1.09
   0   1   0   -0.17    1.39
   0   1   0   -0.17    0.80
   0  -1  -1 2301.47   77.02
   0   1  -1 2258.78   76.45
   0  -1  -1 2236.35   76.47
   0  -1  -1 2126.83   76.99
   0   1  -1 2284.63   76.57
   0   1   1 2191.06   76.67
   0  -1   1 2263.33   76.95
   0  -1   1 2256.74   76.94
   0   1   1 2136.45   77.77
   0  -1   2 9785.07  332.11
   0   1   2 9633.09  331.55
   0   1  -2 9811.61  332.05
   0   1  -2 9999.00  333.15
   0  -1   2 9898.12  332.09
   0  -1  -2 9766.44  332.12
   0  -1   2 9880.73  332.10
   0   1  -2 9701.55  331.48
   0   1   2 9430.07  332.77
   0  -1   3 4458.53  144.27
   0  -1   3 4212.93  144.44
   0   1  -3 4189.66  144.69
   0   1  -3 4209.04  145.66
   0   1   3 4297.89  145.89
   0  -1   3 4213.89  144.45
   0  -1  -3 4116.76  144.70
   0  -1   3 4285.66  144.52
   0   1   3 3830.40  144.79
   0   1   4  243.50   11.40
   0  -1   4  305.36   11.42
   0   1   4  278.71   12.85
   0  -1   4  280.94   11.66
   0   1  -4  274.20   11.83
   0  -1   4  270.39   11.41
   0  -1  -4  280.09   11.86
   0  -1   4  278.26   11.37
   0   1  -5  164.68    8.66
   0  -1  -5  163.96    8.59
   0  -1   5  187.26    8.38
   0  -1   5  167.12    8.43
   0   1   5  149.52    7.88
   0   1   5  167.18    9.52
   0  -1   5  178.74    8.21
   0  -1   6  497.12   20.63
   0  -1   6  518.71   20.22
   0   1  -6  500.47   20.89
   0  -1   6  532.50   19.24
   0  -1  -6  507.83   20.95
   0  -1   6  531.82   20.44
   0   1   6  480.40   21.58
   0  -1   7   63.16    5.45
   0   1   7   61.73    6.40
   0  -1   7   65.93    5.92
   0  -1   7   56.97    5.27
   0  -1  -7   65.38    5.89
   0   1  -7   69.17    5.98
   0  -1  -8   12.77    1.79
   0   1  -8   13.96    3.90
   0  -1   8   11.75    2.95
   0   1  -8   15.82    1.81
   0  -1   8   12.91    1.90
   0  -1   8   12.24    3.37
   0   1   8   15.65    3.94
   0   1  -8   14.72    1.84
   0   1   8   15.00    2.11
   0   1  -8   14.69    1.75
   0  -1  -8   15.10    3.68
   0  -1   9  101.84    4.95
   0   1  -9   92.09    4.72
   0   1   9   92.22    4.86
   0   1   9   79.48    4.72
   0   1  -9   86.08    8.05
   0  -1   9   68.92    7.53
   0   1  -9   88.03    4.48
   0  -1  -9   90.81    8.17
   0   1   9   76.28    8.01
   0  -1  -9   92.67    4.70
   0   1 -10  119.21    9.79
   0  -1 -10  138.04    6.33
   0   1 -10  139.07    6.36
   0   1  10  135.50    6.29
   0   1 -10  116.18   10.29
   0  -1 -10  125.00   10.55
   0  -1  10  136.48    6.48
   0   1  10  115.36    6.23
   0  -1 -10  123.52    5.70
   0   1 -10  133.53    5.96
   0  -1 -10  116.79    9.72
   0  -1  10  133.94    6.50
   0   1  10  137.34    6.53
   0  -1  10  128.45    6.18
   0   1  11  295.13   12.59
   0  -1  11  297.59   12.28
   0  -1 -11  308.28   12.48
   0  -1 -11  314.73   11.91
   0  -1 -11  325.50   12.29
   0   1  11  307.23   12.38
   0  -1  11  302.47   12.54
   0   1 -11  309.07   12.06
   0  -1  11  317.05   12.76
   0   1 -11  304.17   12.47
   0  -1  12  190.67    8.65
   0  -1 -12  193.07    7.86
   0   1 -12  176.27    7.96
   0  -1  12  182.56    8.40
   0  -1 -12  192.76    8.17
   0  -1 -12  199.24    8.51
   0   1 -12  189.05    8.42
   0   1  12  196.84    8.61
   0  -1  12  189.07    8.31
   0   1  12  190.74    8.37
   0  -1 -13   32.60    2.85
   0   1  13   33.08    2.98
   0   1 -13   34.35    2.90
   0  -1 -13   32.51    2.38
   0  -1 -13   27.37    2.50
   0   1  13   29.93    2.93
   0  -1  13   32.18    2.92
   0  -1  13   32.72    3.06
   0  -1  13   33.89    2.94
   0  -1 -14    1.92    1.44
   0  -1  14    2.47    1.68
   0  -1  14    0.86    1.11
   0  -1  14    1.72    1.55
   0   1  14    3.15    1.54
   0  -1 -14    3.77    1.13
   0   1 -14    2.47    1.45
   0   1  14    1.06    1.65
   0  -1  15   54.90    3.00
   0   1  15   59.99    3.07
   0   2   0  494.63   17.36
   0   2   0  471.18   17.93
   0   2   0  466.19   18.86
   0  -2   0  478.18   19.14
   0   2   0  512.62   18.83
   0  -2   0  492.86   18.60
   0   2   0  469.37   18.18
   0   2  -1 1364.24   47.13
   0   2   1 1322.78   47.55
   0  -2   1 1337.38   47.63
   0  -2  -1 1364.75   47.71
   0   2  -1 1298.25   47.06
   0  -2   1 1224.27   48.44
   0   2  -1 1352.58   46.82
   0   2   1 1417.89   47.97
   0   2   1 1317.86   47.25
   0   2  -1 1444.42   48.22
   0  -2  -1 1376.36   47.88
   0  -2  -1 1310.92   47.88
   0   2  -1 1290.67   48.57
   0  -2   1 1365.83   47.75
   0  -2  -2  399.99   16.16
   0   2  -2  444.15   15.52
   0  -2   2  442.13   16.33
   0   2  -2  378.71   14.99
   0   2   2  426.39   17.73
   0   2   2  418.92   15.56
   0  -2  -2  399.88   14.95
   0   2   2  473.45   16.72
   0   2  -2  464.50   16.99
   0   2   2  440.82   16.21
   0   2  -2  419.54   17.60
   0  -2   2  425.70   16.27
   0  -2  -2  459.08   16.45
   0   2  -2  395.19   14.90
   0  -2  -2  379.16   15.03
   0  -2   3  327.02   13.22
   0  -2   3  346.19   13.29
   0  -2   3  334.80   13.05
   0   2   3  345.06   13.49
   0   2  -3  295.90   12.46
   0   2  -3  328.37   12.09
   0   2   3  282.43   11.62
   0   2   3  355.84   13.56
   0  -2  -3  304.02   12.47
   0   2   3  330.61   14.57
   0  -2  -4  735.88   28.70
   0   2  -4  741.65   28.73
   0  -2   4  801.69   29.13
   0  -2   4  776.74   29.14
   0   2   4  769.06   31.53
   0  -2   4  787.01   28.91
   0   2   4  717.82   30.00
   0  -2   4  835.44   28.76
   0  -2  -5 1545.61   57.64
   0  -2   5 1633.83   57.67
   0   2  -5 1543.12   57.64
   0  -2   5 1577.92   57.66
   0  -2   5 1695.60   57.78
   0  -2   5 1682.52   57.25
   0   2   5 1656.26   60.70
   0   2   5 1454.88   58.21
   0   2   6  131.18    9.64
   0   2   6  111.71    7.62
   0   2  -6  114.08    7.68
   0  -2   6  126.11    7.30
   0  -2   6  116.29    7.37
   0  -2  -6  125.02    7.73
   0  -2   6  132.37    7.60
   0  -2   6  117.56    7.46
   0  -2  -7    5.89    2.44
   0  -2   7    1.05    2.23
   0   2  -7    1.72    2.36
   0  -2  -7    1.51    1.18
   0  -2   7    1.78    2.01
   0   2   7    1.54    1.53
   0   2  -7    2.80    1.43
   0   2  -7    3.75    1.51
   0   2   7    0.49    1.41
   0  -2   7    2.05    2.06
   0   2   7    0.42    3.08
   0   2   8   54.08    7.74
   0   2  -8   66.49    6.72
   0   2  -8   69.62    4.07
   0   2   8   72.34    4.28
   0  -2  -8   64.58    6.30
   0  -2  -8   70.02    3.75
   0  -2   8   65.73    6.46
   0   2  -8   60.98    6.10
   0  -2   8   69.80    3.96
   0   2  -8   81.10    4.29
   0  -2  -8   71.32    3.93
   0   2   8   71.74    4.18
   0  -2   8   59.13    6.38
   0  -2  -8   64.42    6.49
   0   2  -8   75.94    3.84
   0  -2   9  355.69   13.27
   0  -2   9  288.93   17.15
   0  -2  -9  297.91   17.29
   0   2  -9  331.45   12.96
   0  -2  -9  335.99   12.93
   0   2   9  330.50   13.24
   0   2  -9  357.69   13.01
   0   2  -9  340.07   13.15
   0  -2  -9  316.84   16.97
   0   2   9  280.85   18.68
   0   2   9  324.70   16.44
   0   2  -9  341.69   13.26
   0   2  -9  288.28   17.47
   0   2  -9  283.60   16.69
   0   2   9  323.22   13.36
   0  -2 -10  116.12    5.67
   0   2 -10  122.02    5.68
   0  -2  10  123.45    6.08
   0   2 -10  113.11    5.85
   0   2 -10  110.73    5.76
   0   2  10  116.11    5.71
   0   2 -10  107.19    5.66
   0  -2 -10  116.29    5.28
   0   2  10  105.63    5.85
   0   2  10  115.49    6.01
   0  -2  10  119.19    6.16
   0  -2 -11   96.32    4.49
   0   2  11   86.55    4.78
   0   2  11   90.68    5.10
   0   2 -11   87.83    4.87
   0   2 -11   87.42    4.83
   0  -2  11   92.41    5.22
   0   2  11   75.84    4.95
   0  -2 -11   88.83    4.80
   0   2 -11   90.90    4.86
   0  -2  11   82.14    4.66
   0  -2  11   91.18    5.30
   0  -2 -12   16.78    2.16
   0  -2  12   17.97    2.63
   0   2  12   15.99    2.39
   0   2 -12   18.34    2.25
   0   2  12   14.72    2.27
   0  -2  12   16.65    2.24
   0  -2  12   17.33    2.65
   0  -2 -12   16.88    2.16
   0  -2  13   14.90    2.25
   0  -2  13   15.08    2.23
   0  -2  13   14.13    1.97
   0   2 -13   11.83    1.86
   0   2  13   15.21    2.05
   0   2  13   15.24    1.90
   0  -2 -13   13.31    1.77
   0  -2 -13   14.74    1.91
   0   2  13   15.77    2.16
   0  -2  14   80.62    4.23
   0  -2  14   91.09    4.22
   0   2  14   91.56    3.99
   0  -2  14   93.20    3.97
   0  -2 -14   83.83    3.91
   0   2  14   81.37    4.05
   0   3   0   -0.58    1.53
   0   3   0    0.46    1.49
   0  -3   0   -0.42    1.87
   0   3   0   -0.21    1.77
   0   3   0    0.25    1.35
   0  -3   0    0.18    1.62
   0  -3  -1    6.35    2.17
   0  -3  -1    5.12    1.98
   0  -3   1   10.84    2.83
   0   3   1    7.39    1.98
   0   3   1    7.12    2.11
   0   3   1    5.20    1.93
   0   3  -1    7.29    2.12
   0  -3  -1    8.81    2.36
   0   3  -1    7.45    2.61
   0   3  -1    7.14    1.82
   0  -3   1    7.45    2.11
   0   3   1    6.43    1.83
   0   3  -2   73.75    5.63
   0  -3  -2   86.70    5.74
   0   3   2   87.65    5.74
   0  -3   2   59.93    6.04
   0   3   2   76.64    5.03
   0  -3  -2   85.03    5.52
   0   3   2   84.47    5.69
   0  -3   2   76.21    5.26
   0   3  -2   70.72    6.25
   0   3  -2   72.75    4.59
   0  -3  -2   69.73    5.07
   0  -3   2   90.47    5.67
   0   3  -3  776.55   30.17
   0   3  -3  765.43   28.31
   0  -3   3  743.74   28.83
   0  -3   3  749.97   29.26
   0  -3   3  676.67   30.90
   0  -3   3  750.22   29.15
   0   3   3  780.78   29.62
   0  -3  -3  790.94   29.43
   0   3  -3  713.15   27.69
   0   3   3  751.38   29.02
   0   3   3  808.24   29.99
   0   3  -4  427.21   18.93
   0  -3   4  394.25   17.72
   0  -3  -4  431.09   18.47
   0   3   4  413.21   17.93
   0  -3   4  398.44   17.71
   0  -3   4  412.28   17.48
   0  -3  -4  416.08   17.89
   0   3   5   65.33    3.93
   0  -3   5   62.61    5.39
   0   3  -5   61.55    3.69
   0  -3   5   63.19    5.25
   0  -3  -5   68.73    5.46
   0   3   5   64.80    5.81
   0  -3  -5   61.85    3.30
   0  -3  -5   68.04    5.83
   0   3   5   66.39    5.83
   0  -3   5   55.50    4.75
   0  -3   5   55.62    5.22
   0   3  -5   60.76    6.00
   0   3  -5   61.50    3.80
   0   3   5   51.15    3.31
   0  -3   6  144.64    8.76
   0  -3  -6  172.41    9.50
   0   3   6  161.44    9.97
   0   3  -6  130.40    9.79
   0   3   6  136.15    6.59
   0  -3   6  160.85    6.53
   0  -3  -6  152.98    9.74
   0  -3   6  135.85    9.07
   0  -3  -6  153.25    6.57
   0  -3   6  141.83    9.02
   0   3   6  158.03    7.20
   0  -3   6  137.60    9.19
   0   3   6  157.16    9.91
   0  -3   7   78.39    6.96
   0  -3  -7   83.41    6.94
   0   3  -7   99.63    5.08
   0   3   7   89.75    7.55
   0   3   7   89.37    4.83
   0  -3   7   82.19    7.33
   0  -3   7   78.91    7.01
   0  -3  -7   97.58    4.78
   0   3  -7   91.76    5.06
   0   3   7   91.13    5.18
   0   3   7   80.39    7.53
   0  -3  -7   88.09    7.45
   0  -3  -8   73.96    7.26
   0  -3   8   81.93    5.04
   0   3   8   91.98    5.12
   0   3   8   82.40    7.90
   0   3  -8   88.55    4.92
   0  -3   8   69.87    7.36
   0   3   8   85.68    4.58
   0  -3  -8   80.67    4.21
   0   3   8   85.54    4.80
   0   3  -8   85.88    5.03
   0  -3  -8   87.52    4.70
   0  -3   8   74.66    7.16
   0   3   8   88.52    7.69
   0  -3   9   41.95    3.69
   0   3   9   39.53    3.43
   0  -3  -9   43.52    3.28
   0   3  -9   38.70    3.39
   0   3  -9   46.53    3.66
   0  -3  -9   43.54    2.86
   0   3   9   41.39    3.27
   0   3   9   42.35    3.52
   0   3  10   81.69    4.82
   0  -3  10   76.76    5.03
   0  -3 -10   85.44    4.64
   0   3 -10   84.28    4.81
   0   3  10   77.11    4.66
   0   3 -10   82.68    4.90
   0   3  10   86.12    4.89
   0   3 -11  248.00    9.99
   0   3  11  237.65    9.91
   0   3  11  224.71    9.80
   0   3 -11  246.34   10.07
   0  -3  11  239.65   10.28
   0  -3 -11  253.48    9.91
   0  -3  12  123.92    5.92
   0   3 -12  115.02    5.64
   0  -3 -12  125.65    5.62
   0   3 -12  112.73    5.67
   0  -3 -12  122.25    5.50
   0   3  12  122.33    5.57
   0   3 -13   33.18    2.36
   0   3  13   34.11    2.88
   0  -3 -13   34.73    2.28
   0  -3  13   38.23    2.74
   0   3  13   42.21    2.54
   0   3 -13   34.34    2.38
   0   3  14    8.65    1.12
   0  -3  14   10.99    1.48
   0  -4   0   47.19    2.74
   0   4   0   45.54    4.52
   0  -4   0   49.44    5.05
   0   4   0   42.64    4.80
   0   4   0   47.63    3.20
   0   4   0   57.37    3.54
   0  -4   0   47.98    4.77
   0   4  -1  280.83   13.50
   0   4   1  315.33   14.62
   0   4   1  332.38   15.23
   0  -4   1  284.80   11.29
   0   4   1  296.97   11.87
   0   4  -1  312.00   11.97
   0  -4  -1  306.09   14.95
   0  -4  -1  290.91   11.26
   0  -4  -1  304.17   14.54
   0   4  -1  305.36   15.03
   0   4   1  305.64   12.01
   0  -4   1  302.33   14.74
   0   4   1  287.69   12.05
   0   4  -1  290.99   11.68
   0  -4   2   22.95    3.51
   0   4  -2   20.90    2.09
   0   4   2   22.84    2.42
   0   4  -2   19.94    2.09
   0  -4  -2   21.27    3.64
   0   4   2   21.83    2.31
   0   4   2   21.66    2.50
   0   4   2   21.38    3.47
   0  -4   2   21.18    1.85
   0   4   2   20.06    3.49
   0  -4  -2   21.10    3.49
   0   4  -2   20.33    3.64
   0  -4   2   23.65    3.73
   0   4  -2   22.79    2.26
   0  -4  -2   22.69    1.95
   0   4  -2   21.67    2.19
   0   4  -3   25.77    2.41
   0  -4   3   20.42    1.89
   0  -4   3   26.79    3.80
   0  -4  -3   26.83    2.18
   0   4  -3   23.29    2.39
   0   4   3   27.11    3.83
   0   4   3   24.32    3.45
   0   4   3   22.00    2.67
   0   4   3   25.86    4.03
   0   4   3   27.53    2.67
   0   4   3   23.65    2.43
   0   4  -3   22.10    2.42
   0   4  -3   24.82    4.01
   0  -4   3   24.21    3.77
   0  -4  -3   26.93    3.87
   0  -4  -4   20.85    3.53
   0   4  -4   18.90    2.44
   0   4   4   20.43    2.35
   0   4   4   21.40    2.75
   0   4   4   21.13    2.53
   0   4  -4   17.25    2.13
   0   4  -4   21.34    3.99
   0   4  -4   19.11    2.45
   0   4   4   18.69    3.65
   0   4   4   18.23    3.29
   0  -4  -4   22.53    2.08
   0  -4   4   20.75    3.71
   0  -4   4   18.77    3.50
   0   4  -5   78.56    4.41
   0   4   5   85.05    7.21
   0   4   5   86.36    4.71
   0  -4  -5   76.93    7.29
   0  -4   5   79.09    7.12
   0   4  -5   94.41    4.96
   0  -4   5   79.49    7.07
   0  -4  -5   91.38    4.49
   0   4  -5   78.10    7.71
   0  -4   5   70.19    8.51
   0  -4   5   88.86    4.42
   0   4   5   90.85    5.32
   0  -4  -5   94.26    7.24
   0   4   5   78.60    4.16
   0  -4  -5   92.95    4.57
   0   4  -5   82.86    4.93
   0   4  -6    1.13    1.76
   0  -4  -6    3.71    2.25
   0  -4  -6    2.67    2.36
   0   4   6    1.88    1.90
   0   4   6    0.34    2.35
   0   4   6    2.47    1.40
   0  -4   6    1.20    3.52
   0  -4  -6    2.72    1.56
   0  -4   6    4.72    2.42
   0  -4  -6    1.86    1.27
   0   4  -6    1.65    2.23
   0   4   6    2.57    1.30
   0   4  -6    1.79    1.93
   0  -4   6    0.69    2.39
   0  -4   6    1.00    1.48
   0  -4  -6    1.67    1.35
   0   4  -7  149.05    7.20
   0  -4  -7  160.27    6.86
   0  -4  -7  155.16    6.88
   0  -4   7  128.09    7.05
   0  -4  -7  150.21    6.53
   0  -4   7  154.19    6.85
   0   4   7  133.17    6.53
   0   4  -7  152.02    7.39
   0   4   7  153.53    7.49
   0  -4  -8  449.65   16.52
   0  -4  -8  432.33   15.97
   0  -4   8  426.27   16.76
   0  -4  -8  445.18   16.47
   0   4   8  439.22   17.08
   0   4   8  379.78   16.27
   0  -4   8  446.20   16.49
   0   4   8  419.19   15.87
   0   4   9  163.97    7.43
   0   4  -9  155.80    7.28
   0  -4   9  140.85    7.24
   0  -4   9  156.16    7.03
   0   4   9  132.41    6.77
   0  -4  -9  156.85    6.97
   0  -4   9  137.28    6.94
   0   4  -9  160.27    7.46
   0  -4  -9  158.73    6.95
   0  -4 -10   38.72    2.88
   0  -4  10   33.74    2.89
   0   4 -10   36.27    3.24
   0   4  10   36.26    2.96
   0   4 -10   35.85    3.10
   0  -4  10   38.16    3.35
   0   4  10   33.10    2.75
   0  -4  10   35.67    3.01
   0   4  11    6.51    1.44
   0  -4  11    0.11    0.89
   0  -4  11    6.96    1.98
   0   4 -11    6.38    1.72
   0   4 -11    6.86    1.67
   0  -4 -11    6.46    1.39
   0  -4  12   27.98    2.44
   0   4  12   24.38    2.39
   0   4 -12   26.33    2.15
   0  -4 -12   28.68    2.00
   0   4 -12   28.24    2.17
   0  -4 -12   26.81    1.93
   0   4  12   29.05    2.16
   0   4  13  116.46    4.34
   0  -4  13  116.41    4.62
   0   5   0    4.77    1.63
   0   5   0    3.04    1.92
   0  -5   0    7.46    2.15
   0   5   0    5.51    2.17
   0  -5   0    0.84    1.39
   0  -5   1  152.28    7.72
   0   5   1  170.68    7.28
   0   5  -1  177.42    7.98
   0  -5   1  161.26    7.61
   0  -5  -1  151.72    7.47
   0   5   1  186.23    8.15
   0  -5   1  164.01    7.21
   0  -5  -1  174.52    7.20
   0   5   1  160.87    7.14
   0   5  -1  170.53    7.27
   0  -5  -1  169.59    7.38
   0   5   1  183.84    8.00
   0   5   2   48.97    3.69
   0  -5   2   47.49    3.01
   0   5  -2   46.12    3.20
   0   5   2   50.20    3.09
   0  -5   2   41.46    3.59
   0  -5  -2   47.02    3.07
   0   5   2   52.64    3.75
   0   5  -2   54.51    3.72
   0  -5   3  496.38   18.37
   0   5   3  479.66   19.55
   0   5  -3  501.92   18.66
   0   5  -3  480.86   18.73
   0   5   3  517.50   19.52
   0   5   3  492.41   18.48
   0   5  -3  498.82   19.04
   0   5   3  522.08   19.37
   0  -5  -3  511.31   18.67
   0   5  -4   82.87    4.96
   0   5   4   89.45    5.53
   0   5   4   90.04    4.51
   0   5   4   93.03    5.11
   0   5   4   98.23    5.48
   0   5  -4   93.96    4.91
   0  -5  -4   92.04    4.75
   0  -5  -4   90.49    4.67
   0   5  -4   86.00    4.73
   0   5  -4   86.63    5.01
   0   5   5    1.62    1.58
   0  -5   5    1.00    1.46
   0   5   5    2.45    1.98
   0   5  -5    1.47    1.29
   0   5   5    0.15    1.99
   0  -5  -5    0.19    1.35
   0   5   5    1.81    1.52
   0  -5  -5    3.25    1.65
   0   5  -5    2.48    1.83
   0   5  -5    1.85    1.64
   0   5  -5    2.75    1.83
   0   5   5    3.13    1.32
   0   5   6   18.89    2.24
   0   5  -6   18.35    2.23
   0  -5   6   20.68    2.29
   0  -5  -6   20.35    2.14
   0   5  -6   17.51    2.53
   0   5   6   18.88    2.10
   0   5  -6   18.23    2.59
   0  -5  -6   19.87    2.16
   0  -5   6   15.73    2.73
   0   5  -7   83.30    4.75
   0   5   7   73.50    3.97
   0  -5  -7   75.00    3.90
   0  -5   7   79.41    4.30
   0   5   7   73.99    3.98
   0   5  -7   73.89    4.21
   0   5   7   79.71    4.24
   0  -5  -7   88.00    4.38
   0   5   7   83.54    4.84
   0   5  -7   79.56    4.68
   0   5   8   22.42    2.05
   0   5  -8   24.08    2.56
   0   5   8   20.53    2.43
   0   5  -8   19.84    2.10
   0  -5  -8   22.36    2.04
   0   5   8   21.28    2.34
   0   5  -8   21.30    2.53
   0  -5  -8   22.15    2.06
   0  -5   8   21.49    2.60
   0   5   8   19.13    1.94
   0  -5   8   18.36    2.19
   0  -5  -9   60.03    3.22
   0  -5  -9   69.43    3.51
   0  -5   9   66.97    3.92
   0   5   9   54.26    3.42
   0   5  -9   74.56    4.00
   0   5  -9   69.25    4.02
   0  -5   9   65.39    3.77
   0   5   9   65.83    3.26
   0  -5   9   73.00    3.82
   0   5   9   70.80    3.67
   0   5   9   79.66    4.07
   0  -5  -9   68.35    3.60
   0   5  -9   69.86    3.48
   0  -5 -10  164.77    6.57
   0   5 -10  160.54    6.83
   0  -5  10  158.37    6.69
   0   5  10  173.34    6.58
   0  -5 -10  148.20    6.36
   0  -5  10  157.78    6.60
   0   5  10  172.15    6.80
   0   5 -10  156.67    6.28
   0  -5  10  165.16    6.70
   0  -5  11   43.37    2.43
   0   5  11   48.08    2.39
   0   6   0  420.63   15.37
   0  -6   0  378.48   15.44
   0  -6   0  423.68   15.40
   0  -6   1  212.66    8.27
   0   6   1  159.75    7.46
   0   6   1  183.34    8.21
   0   6  -1  250.70    8.73
   0  -6  -1  154.14    7.52
   0   6  -1  202.43    7.85
   0  -6  -1  167.88    7.61
   0  -6   1  184.32    7.62
   0   6  -2  179.04    7.42
   0   6  -2  184.41    7.80
   0  -6   2  177.72    7.21
   0   6  -2  173.29    7.21
   0   6   2  167.54    7.17
   0  -6   2  164.92    7.71
   0  -6  -2  169.65    7.36
   0  -6  -2  157.84    7.22
   0  -6   2  165.19    7.53
   0   6   2  183.71    7.91
   0   6   2  185.65    7.90
   0  -6   3   52.45    3.76
   0   6   3   59.92    3.79
   0   6  -3   57.41    3.24
   0  -6  -3   56.98    3.33
   0  -6   3   53.15    3.16
   0   6  -3   54.66    3.43
   0   6   3   60.60    3.19
   0   6   3   58.90    3.65
   0  -6   3   51.32    3.69
   0  -6  -3   49.96    3.17
   0   6   4   30.50    2.68
   0  -6  -4   23.58    2.09
   0  -6  -4   25.75    2.18
   0   6  -4   25.81    2.18
   0  -6   4   29.09    2.88
   0   6  -4   29.13    2.36
   0  -6   4   26.92    2.22
   0   6   4   29.38    2.47
   0  -6   4   27.19    2.86
   0   6  -5   90.36    4.24
   0  -6  -5   89.50    4.11
   0  -6   5   96.02    4.91
   0  -6   5   89.56    4.34
   0   6   5   90.18    4.43
   0   6   5   94.99    4.36
   0  -6  -5   89.44    4.39
   0  -6   5   82.53    4.92
   0  -6  -5   87.68    4.32
   0   6   5  100.77    4.94
   0  -6  -6    6.17    1.25
   0  -6  -6    7.14    1.26
   0  -6  -6    6.95    1.15
   0   6  -6    8.06    1.30
   0  -6   6    6.59    1.86
   0   6   6    6.69    1.41
   0  -6   6    5.75    1.38
   0  -6   6    8.90    1.97
   0  -6  -7   22.27    1.75
   0  -6   7   21.04    1.84
   0   6   7   23.28    1.75
   0  -6   7   22.79    2.21
   0  -6   7   21.07    2.36
   0  -6  -7   18.21    1.61
   0   6  -7   26.67    1.63
   0  -6   8   32.34    2.52
   0   6   8   33.73    1.78
   0   6  -8   27.89    1.60
   0  -6   9   74.40    3.14
   0  -6   9   66.10    3.36
   0  -7   0    1.62    1.10
   0   7   0    1.09    0.81
   0  -7   1   12.77    1.44
   0   7  -1   14.62    1.24
   0   7   1   14.61    1.41
   0  -7  -1   13.55    1.30
   0   7   2   84.06    3.31
   0   7  -2   78.03    3.19
   0  -7   2   65.07    3.14
   0  -7   2   69.44    3.33
   0  -7  -2   68.50    3.05
   0   7  -3   36.27    1.83
   0  -7   3   28.51    1.83
   0   7   4   44.83    2.11
   0   7  -4   39.44    1.99
  -1   0  16   59.05    2.79
   1   0 -15   81.68    4.23
  -1   0  15   95.13    4.30
   1   0 -14   96.41    4.93
   1   0 -14   94.78    4.56
  -1   0  14   97.03    4.91
  -1   0  14   88.99    4.75
   1   0 -13  132.58    6.35
  -1   0  13  137.26    6.35
  -1   0  13  117.90    6.17
   1   0 -13  126.73    5.87
  -1   0  12   -0.79    2.01
  -1   0  12    1.65    1.92
   1   0 -12   -0.08    1.46
   1   0 -12   -0.38    1.14
   1   0 -11    4.19    1.73
  -1   0  11    3.55    2.00
   1   0 -11    3.51    1.49
   1   0 -11    1.82    1.22
  -1   0  11    2.48    1.87
  -1   0  10   50.35    3.51
  -1   0  10   42.11    6.07
   1   0 -10   37.75    5.85
   1   0 -10   42.23    2.86
  -1   0  10   38.14    3.37
   1   0 -10   40.43    6.26
   1   0 -10   54.11    3.42
   1   0  -9 1268.24   48.80
  -1   0   9 1263.30   43.87
   1   0  -9 1208.71   43.83
  -1   0   9 1186.38   49.00
  -1   0   9 1275.17   44.28
   1   0  -9 1215.45   49.23
  -1   0   8  662.76   23.71
   1   0  -8  682.68   27.73
  -1   0   8  704.93   28.53
   1   0  -8  634.05   23.68
   1   0  -8  663.72   28.22
  -1   0   7  399.95   17.65
   1   0  -7  436.27   19.22
  -1   0   7  449.40   19.41
  -1   0   6  175.64    9.61
  -1   0   6  177.92    8.90
   1   0  -6  171.15    9.48
  -1   0   5   42.10    4.19
  -1   0   5   53.46    4.11
  -1   0   5   49.79    4.54
   1   0  -5   59.43    4.50
  -1   0   4   91.55    5.36
   1   0  -4   83.16    5.08
  -1   0   4   80.48    4.76
  -1   0   3  763.72   30.75
  -1   0   3  826.48   30.04
   1   0  -3  941.44   31.23
  -1   0   3  982.88   31.13
   1   0  -2 2368.62   70.05
   1   0  -2 2234.49   69.80
  -1   0   2 2040.20   69.82
  -1   0   2 1868.85   68.84
  -1   0   1 2291.94   82.97
  -1   0   1 2184.22   82.81
  -1   0   0   11.02    1.22
   1   0   0   14.66    1.24
  -1   0   0   14.31    0.81
   1   0   0   14.02    1.37
   1   0   0   10.86    0.90
  -1   0   0    9.76    0.91
   1   0   0   12.40    0.95
  -1   0  -1  390.25   15.16
   1   0   1  440.93   15.79
   1   0   1  398.57   14.74
   1   0   2   19.63    1.37
  -1   0  -2   23.94    2.22
   1   0   2   19.16    2.11
   1   0   2   17.47    1.65
  -1   0  -2   17.97    1.97
  -1   0  -3  614.52   22.36
  -1   0  -3  587.68   21.97
   1   0   3  586.31   21.61
   1   0   4  285.11   11.93
  -1   0  -4  308.91   12.77
   1   0   5 1250.47   46.08
  -1   0  -5 1319.74   47.10
  -1   0  -6   29.99    3.95
   1   0   6   26.31    3.40
   1   0   7    1.92    1.92
   1   0   7    0.59    2.54
  -1   0  -7    1.42    2.11
   1   0   8   22.82    2.31
  -1   0  -8   27.25    2.35
   1   0   8   26.24    2.52
   1   0   8   24.78    4.69
  -1   0  -8   29.58    4.58
  -1   0  -9  117.52    9.86
   1   0   9  122.73    6.19
  -1   0  -9  129.81    6.09
   1   0   9  139.78    6.42
   1   0  10    0.68    1.96
   1   0  10    0.84    1.90
  -1   0 -10    1.91    1.62
  -1   0 -10    1.37    2.64
  -1   0 -11   18.82    2.51
   1   0  11   15.19    2.77
   1   0  11   16.24    2.61
   1   0  12  404.16   15.99
   1   0  12  404.43   15.67
  -1   0 -12  404.82   15.78
  -1   0 -13  105.87    5.16
   1   0  13  107.98    5.17
   1   0  13   96.54    5.22
   1   0  14    0.70    1.65
  -1   0 -14    2.14    0.92
   1   0  14    1.76    1.57
  -1   0 -14    1.06    1.41
   1   0  15    5.48    1.32
   1  -1 -15   25.10    1.82
   1   1 -15   27.64    2.10
  -1  -1  15   31.71    2.22
   1  -1 -15   27.29    2.09
  -1   1  15   31.24    2.22
  -1  -1  14   12.79    2.00
   1  -1 -14   13.30    1.66
   1  -1 -14   10.15    1.49
  -1   1  14   12.55    2.12
  -1   1  14   12.32    1.82
   1   1 -14   11.78    1.97
  -1  -1  14   15.99    2.15
  -1  -1  14   12.36    1.95
   1  -1 -14   14.12    2.00
   1  -1 -13   33.08    2.54
  -1   1  13   40.54    3.05
   1   1 -13   27.34    2.76
  -1  -1  13   29.39    2.91
   1  -1 -13   28.52    2.40
  -1  -1  13   28.95    2.92
   1   1 -13   30.01    2.69
   1  -1 -13   32.44    2.86
  -1   1  13   28.44    2.78
  -1  -1  13   37.14    2.90
   1  -1 -12  135.34    6.19
   1   1 -12  126.99    6.23
   1  -1 -12  142.73    6.67
   1   1 -12  139.08    6.66
  -1   1  12  129.83    6.55
   1  -1 -12  131.42    6.10
  -1  -1  12  142.96    6.55
  -1  -1  12  129.95    6.64
  -1  -1  12  130.98    6.67
  -1   1  12  146.87    6.62
  -1   1  11  786.61   27.67
  -1  -1  11  759.77   27.86
   1  -1 -11  778.92   27.48
  -1   1  11  745.56   27.74
   1   1 -11  771.51   27.36
   1  -1 -11  779.09   27.22
  -1   1  11  761.42   28.01
   1  -1 -11  754.30   27.77
  -1  -1  11  753.60   27.53
  -1  -1  11  761.11   27.84
   1   1 -11  767.60   27.81
  -1   1  11  656.51   27.69
  -1  -1  10   99.88    5.11
  -1   1  10   92.81    5.02
   1  -1 -10   75.46    8.61
   1   1 -10   76.87    8.04
  -1   1  10   98.26    4.99
   1   1 -10   93.41    4.80
  -1  -1  10   93.65    4.92
   1   1 -10   95.02    5.01
   1  -1 -10   87.54    8.43
   1  -1 -10   94.35    4.55
  -1   1  10   77.70    8.91
  -1   1  10   91.97    5.27
   1   1 -10   72.84    8.41
   1  -1 -10  102.32    5.12
   1   1 -10   95.23    4.73
  -1   1  10   87.58    4.98
   1  -1 -10  100.88    4.83
   1   1  -9  261.84   14.95
   1   1  -9  264.85   10.91
  -1   1   9  239.32   15.88
  -1   1   9  261.80   11.28
   1  -1  -9  284.16   15.09
  -1  -1   9  290.96   11.02
   1  -1  -9  261.98   15.24
   1   1  -9  274.86   10.81
  -1  -1   9  228.40   14.44
   1   1  -9  283.90   10.81
  -1   1   9  273.92   10.94
   1   1  -9  269.49   15.71
   1  -1  -9  279.43   10.77
   1  -1  -9  270.46   10.93
   1  -1  -8  265.03   10.29
  -1   1   8  252.24   10.34
   1   1  -8  269.25   10.32
   1  -1  -8  253.19   10.32
   1   1  -8  264.18   13.93
  -1   1   8  254.38   15.10
   1   1  -8  256.77   10.35
   1  -1  -8  281.45   14.55
  -1   1   8  270.59   10.94
  -1  -1   8  284.46   10.43
   1  -1  -8  255.91   13.78
   1   1  -8  263.01   14.34
   1   1  -8  268.28   10.35
  -1  -1   8  228.85   13.54
  -1  -1   8  259.84   13.87
  -1  -1   7  722.32   28.53
   1  -1  -7  759.93   29.70
   1  -1  -7  746.11   30.09
  -1  -1   7  678.39   29.27
  -1  -1   7  772.52   28.61
   1   1  -7  774.95   30.27
  -1   1   7  628.40   28.47
  -1   1   7  806.43   31.71
  -1  -1   7  810.19   29.94
   1   1  -7  753.08   29.76
  -1  -1   6  285.16   13.23
   1  -1  -6  298.07   13.73
  -1  -1   6  291.74   12.46
   1  -1  -6  296.80   13.32
   1   1  -6  284.30   13.26
  -1   1   6  259.80   12.96
  -1  -1   6  293.36   13.36
   1   1  -6  288.61   13.66
  -1   1   6  303.89   14.86
  -1  -1   6  301.06   12.73
   1   1  -5  575.54   23.44
  -1   1   5  624.22   24.92
  -1   1   5  562.63   23.40
  -1  -1   5  592.08   22.37
  -1  -1   5  591.18   23.01
   1  -1  -5  592.99   23.50
  -1  -1   5  655.46   23.36
  -1  -1   4  715.86   26.47
  -1  -1   4  691.89   26.01
   1   1  -4  704.94   26.93
   1   1  -4  757.51   26.81
   1  -1  -4  720.12   26.73
  -1  -1   4  707.60   26.04
  -1  -1   4  780.92   26.86
  -1   1   4  688.59   27.26
   1  -1  -4  719.46   26.99
  -1  -1   3 3019.24  101.98
  -1  -1   3 3161.52  102.37
  -1   1   3 3201.27  102.47
  -1   1   3 2986.33  103.27
   1   1  -3 2771.42  102.36
  -1  -1   3 2951.68  101.78
  -1  -1   3 2823.77  101.80
   1   1  -3 2926.32  102.24
   1  -1  -3 2879.28  102.45
  -1   1   3 2994.95  103.73
   1  -1  -3 2967.52  102.28
   1  -1  -2  192.55    8.50
  -1  -1   2  190.42    7.79
  -1  -1   2  177.07    7.59
  -1  -1   2  201.07    7.62
   1  -1  -2  206.30    7.68
   1   1  -2  186.07    8.03
   1  -1  -2  207.51    7.92
   1  -1  -2  200.23    8.12
   1   1  -2  192.43    7.85
  -1   1   2  202.27    9.25
  -1   1   2  230.87    8.50
   1  -1  -2  208.80    7.96
   1   1  -2  190.96    7.87
   1   1  -1  450.15   14.63
   1  -1  -1  440.11   15.45
  -1   1   1  429.28   15.44
   1  -1  -1  450.40   14.41
   1  -1  -1  452.59   14.62
   1   1  -1  434.57   14.39
  -1  -1   1  424.69   14.40
  -1   1   1  448.21   15.66
  -1  -1   1  423.43   14.57
   1   1  -1  418.23   14.34
   1  -1  -1  445.68   14.35
  -1   1   1  472.65   15.27
   1   1  -1  429.14   14.54
   1   1   0  932.41   31.79
  -1   1   0  896.98   32.39
  -1   1   0  916.92   31.21
  -1  -1   0  894.11   31.98
   1  -1   0  937.72   33.14
  -1   1   0 1024.16   33.12
   1  -1   0  920.00   31.92
  -1  -1   0  801.74   31.46
   1   1   0  978.93   32.03
   1  -1   0 1013.96   32.08
   1   1   0  894.21   31.88
   1   1   1 1042.16   36.71
   1  -1   1 1060.94   37.05
  -1   1  -1 1053.69   36.85
  -1   1  -1 1130.08   38.02
  -1   1  -1 1066.24   37.52
  -1  -1  -1 1018.91   36.74
  -1  -1  -2  637.10   23.88
   1  -1   2  674.03   24.02
  -1   1  -2  660.64   24.00
   1  -1   2  657.46   23.89
  -1   1  -2  672.27   24.90
   1  -1   2  654.43   23.92
   1   1   2  651.87   23.84
   1   1   3 1569.94   60.13
   1  -1   3 1644.58   59.55
   1  -1   3 1770.04   58.44
   1  -1   3 1714.96   59.45
   1  -1   3 1762.62   59.53
  -1  -1  -3 1585.92   59.45
  -1   1  -3 1672.86   60.46
  -1   1  -3 1690.16   59.57
  -1   1  -4  575.90   22.84
   1  -1   4  573.30   22.76
   1  -1   4  594.98   21.67
   1  -1   4  643.05   22.95
  -1   1  -4  557.96   23.44
   1  -1   4  597.13   22.73
   1   1   4  598.55   23.47
  -1  -1  -4  589.88   22.87
   1   1   5  444.35   19.01
   1  -1   5  428.60   17.13
   1  -1   5  446.10   18.33
  -1   1  -5  433.57   18.99
   1  -1   5  478.55   18.65
  -1   1  -5  450.27   18.58
  -1  -1  -5  439.95   18.52
   1  -1   6  137.40    7.86
  -1  -1  -6  129.57    7.83
   1  -1   6  127.68    7.65
  -1   1  -6  116.18    7.62
   1   1   6  116.24    7.85
   1  -1   7  359.86   17.51
   1   1   7  349.82   17.48
  -1  -1  -7  397.16   17.91
  -1   1  -7  391.44   17.87
   1   1   7  373.39   14.24
  -1   1  -8  206.09    8.23
  -1   1  -8  193.05    8.18
   1  -1   8  184.31   12.12
   1  -1   8  181.08    8.06
  -1   1  -8  213.72   12.48
  -1  -1  -8  200.27    8.22
   1   1   8  204.38    8.55
  -1  -1  -8  223.71   12.56
  -1   1  -9   42.17    3.06
  -1  -1  -9   32.34    5.33
  -1   1  -9   38.24    5.72
   1   1   9   43.22    3.42
   1  -1   9   34.18    5.46
   1  -1   9   37.18    2.92
  -1  -1  -9   35.94    2.93
   1  -1   9   41.97    3.33
  -1   1 -10  173.85   13.25
   1   1  10  212.25    9.22
   1   1  10  200.96    8.80
   1  -1  10  209.19    9.01
   1  -1  10  204.62    8.76
   1  -1  10  213.66    9.21
  -1  -1 -10  177.01   13.22
   1  -1  10  174.45    8.60
  -1  -1 -10  215.11    8.92
  -1   1 -10  219.52    8.95
  -1   1 -10  216.93    8.52
   1   1  11  331.16   12.97
   1  -1  11  328.93   13.33
  -1   1 -11  324.73   13.02
   1   1  11  318.79   13.27
   1  -1  11  310.78   12.81
  -1  -1 -11  329.26   13.02
   1  -1  11  318.38   13.01
  -1   1 -11  327.35   12.56
   1   1  12   75.01    4.56
   1  -1  12   70.07    4.30
   1  -1  12   73.55    4.27
  -1   1 -12   69.40    4.25
  -1  -1 -12   65.59    4.01
   1   1  12   68.02    4.24
  -1  -1 -12   67.35    4.17
   1  -1  12   68.09    4.52
  -1  -1 -13   29.17    2.45
   1  -1  13   34.79    2.88
   1  -1  13   28.60    2.86
   1  -1  13   33.82    2.69
   1   1  13   32.81    2.94
  -1  -1 -13   33.66    2.75
  -1   1 -13   32.94    2.77
   1   1  13   35.07    2.94
   1  -1  14  192.14    7.48
   1   1  14  196.49    7.53
  -1   1 -14  180.32    7.46
  -1  -1 -14  176.96    7.44
   1   1  14  181.07    7.53
   1  -1  14  183.45    7.60
  -1  -1 -14  160.57    7.10
   1  -1  15   83.68    3.62
   1   1  15   76.61    3.59
  -1  -2  15    3.42    1.09
  -1   2  15   -0.03    0.46
   1   2 -14   -0.48    1.17
  -1  -2  14   -0.29    1.54
   1  -2 -14    0.35    0.96
  -1  -2  14   -1.83    1.49
   1  -2 -14   -0.40    1.05
  -1  -2  14    0.07    1.37
   1  -2 -14   -0.12    1.18
  -1   2  14   -1.97    1.51
  -1   2  14   -0.28    1.21
  -1  -2  13   48.87    3.45
  -1  -2  13   55.99    3.72
   1  -2 -13   50.87    3.05
  -1  -2  13   49.92    3.24
   1  -2 -13   49.68    3.24
  -1   2  13   52.11    3.30
   1  -2 -13   39.69    2.80
   1   2 -13   42.56    3.12
   1  -2 -13   53.15    3.17
   1  -2 -12  104.94    4.83
  -1  -2  12   94.52    5.02
   1  -2 -12   97.65    5.13
  -1   2  12  104.19    5.17
  -1  -2  12   93.00    5.50
   1   2 -12   94.36    5.07
  -1   2  12   91.60    5.18
   1   2 -12   92.73    5.11
   1  -2 -12   95.48    5.09
  -1   2  12   97.48    5.19
  -1   2  12   92.49    5.29
  -1  -2  12  103.88    5.42
   1   2 -12  107.62    5.18
   1   2 -11   15.71    2.25
   1   2 -11   15.55    2.23
   1  -2 -11   15.45    1.94
  -1   2  11   15.22    2.35
   1   2 -11   11.88    2.12
  -1   2  11   16.30    2.37
  -1  -2  11   17.11    2.71
   1  -2 -11   15.57    2.20
   1  -2 -11   18.17    2.27
  -1   2  11   12.88    2.31
  -1  -2  11   13.12    2.23
  -1  -2  11   12.94    2.37
  -1   2  11   14.26    2.30
   1   2 -11   16.89    2.35
  -1  -2  10  171.52    7.50
   1   2 -10  160.03    7.37
   1   2 -10  151.88    7.28
  -1   2  10  154.96    7.11
  -1   2  10  154.66    7.27
  -1   2  10  157.09    7.67
   1   2 -10  130.04   11.20
   1  -2 -10  168.01    7.37
   1  -2 -10  162.33    7.24
   1   2 -10  139.10   10.84
  -1   2  10  152.03    7.30
   1   2 -10  156.23    7.23
   1  -2 -10  168.64    6.91
   1   2 -10  171.96    7.26
  -1  -2   9  254.08   10.01
   1  -2  -9  236.28    9.77
  -1   2   9  256.19   10.61
  -1   2   9  235.83    9.91
   1   2  -9  253.00   10.08
   1  -2  -9  234.67   14.49
   1   2  -9  201.62   14.13
   1   2  -9  245.07    9.86
   1   2  -9  198.52   13.35
   1   2  -9  252.66   10.15
   1  -2  -9  240.42   13.83
  -1   2   9  240.52   16.48
   1  -2  -9  213.51   12.54
  -1  -2   9  197.55   13.18
  -1   2   8  197.44    8.69
   1  -2  -8  189.47   11.69
  -1   2   8  184.16    8.03
   1   2  -8  190.66    7.94
   1   2  -8  200.37    8.25
   1   2  -8  196.13   11.52
   1   2  -8  180.20   11.84
  -1  -2   8  204.53    8.12
  -1  -2   8  168.50   11.01
   1  -2  -8  189.58   11.23
   1  -2  -8  177.76   10.56
  -1  -2   8  171.33   10.81
   1  -2  -8  189.43    7.91
  -1   2   8  201.32   13.91
   1   2  -8  204.73    8.33
  -1  -2   8  163.35   11.01
   1  -2  -7  365.34   16.44
   1   2  -7  353.37   13.57
  -1  -2   7  349.18   15.81
  -1  -2   7  357.90   16.48
  -1   2   7  321.80   16.75
  -1  -2   7  347.75   15.66
   1   2  -7  345.81   16.30
  -1  -2   7  358.41   13.26
  -1  -2   7  315.16   15.96
   1  -2  -7  350.32   15.93
  -1   2   7  361.62   19.45
   1   2  -7  347.20   16.82
   1   2  -7  354.01   13.49
  -1   2   7  370.79   14.10
   1  -2  -7  351.23   16.78
  -1  -2   6  142.46    7.70
  -1  -2   6  139.35    7.93
  -1  -2   6  134.13    7.52
   1   2  -6  136.36    8.41
   1  -2  -6  138.08    8.26
  -1   2   6  151.21   10.60
   1   2  -6  132.43    7.95
  -1   2   6  129.10    8.89
  -1  -2   6  149.48    8.25
   1  -2  -6  140.31    7.89
   1  -2  -6  136.83    7.96
   1  -2  -5 2419.59   81.82
  -1  -2   5 2300.99   81.90
  -1  -2   5 2348.90   82.08
   1  -2  -5 2329.89   82.58
  -1   2   5 2268.33   84.16
   1  -2  -5 2266.61   82.16
   1   2  -5 2240.89   82.47
  -1  -2   5 2380.59   82.11
  -1  -2   5 2500.56   82.53
   1   2  -5 2244.07   82.16
   1  -2  -5 2305.63   82.37
   1  -2  -4    2.90    1.46
  -1   2   4    7.00    1.72
  -1  -2   4    4.70    1.75
   1  -2  -4    4.39    1.90
   1   2  -4    7.81    1.79
  -1  -2   4    4.43    1.57
  -1   2   4    8.04    2.97
  -1  -2   4    5.84    1.73
  -1   2   4    5.85    3.37
  -1  -2   4    5.40    1.98
   1  -2  -4    6.52    1.64
   1   2  -4    5.36    1.91
   1  -2  -4    6.71    1.73
   1  -2  -3 1057.24   36.79
  -1  -2   3 1013.95   36.79
  -1   2   3 1046.34   39.61
  -1  -2   3  994.14   36.40
  -1   2   3 1028.17   39.16
   1   2  -3 1025.05   36.59
   1   2  -3  953.37   36.25
  -1   2   3 1044.71   37.11
   1  -2  -3  995.01   36.32
   1  -2  -3 1064.75   37.26
  -1  -2   3 1030.90   36.97
  -1   2   3 1111.69   37.76
   1  -2  -3  985.38   37.68
   1   2  -2   99.14    5.07
  -1  -2   2   90.52    4.95
   1  -2  -2   91.46    4.32
   1  -2  -2   94.39    4.91
  -1   2   2   99.53    5.51
   1   2  -2   87.14    4.21
  -1   2   2   94.36    4.78
  -1   2   2   89.95    5.33
   1   2  -2   95.53    4.90
  -1   2   2  101.88    6.87
   1   2  -2   94.86    5.24
   1  -2  -2   94.43    5.22
  -1  -2   2   89.99    5.08
   1  -2  -2   86.32    5.57
   1  -2  -1  149.41    7.88
   1   2  -1  134.98    5.53
  -1   2   1  153.90    7.62
  -1   2   1  146.49    6.22
   1   2  -1  149.31    7.02
   1   2  -1  157.99    6.72
  -1   2   1  138.53    8.29
  -1  -2   1  131.54    6.94
   1  -2  -1  158.10    5.85
   1  -2  -1  153.12    6.84
  -1  -2   1  145.29    7.00
   1   2  -1  146.95    6.81
  -1  -2   1  155.57    7.05
   1   2  -1  158.59    7.02
  -1   2   0 1344.79   45.91
   1   2   0 1337.85   46.39
  -1   2   0 1289.62   45.27
   1   2   0 1326.08   47.00
  -1  -2   0 1334.91   47.17
  -1  -2   0 1241.49   46.63
   1   2   0 1352.61   46.92
  -1   2   0 1332.87   45.34
  -1  -2   0 1365.54   47.26
   1  -2   0 1380.86   48.65
   1   2   0 1332.24   47.01
  -1   2   0 1370.71   48.24
   1  -2   0 1333.41   46.87
  -1   2   0 1336.52   48.70
   1   2   1 1364.89   48.42
  -1  -2  -1 1423.33   48.71
  -1   2  -1 1409.55   49.99
  -1  -2  -1 1338.71   47.03
  -1   2  -1 1380.80   47.08
  -1   2  -1 1346.66   49.75
  -1  -2  -1 1229.37   47.37
   1   2   1 1415.07   48.34
   1  -2   1 1333.23   50.07
   1  -2   1 1406.12   48.57
  -1  -2  -1 1435.69   48.76
  -1   2  -1 1383.43   47.51
  -1   2  -2  569.44   20.71
   1  -2   2  587.27   21.77
  -1  -2  -2  583.40   21.87
   1   2   2  571.22   21.71
   1   2   2  573.61   21.37
  -1  -2  -2  545.31   20.62
  -1   2  -2  550.19   20.10
   1   2   2  576.67   21.79
   1  -2   3  495.84   19.19
   1   2   3  508.31   19.59
   1   2   3  493.62   19.39
  -1   2  -3  477.59   18.66
  -1  -2  -3  453.93   18.53
   1  -2   3  497.35   19.36
   1  -2   3  486.03   19.23
   1  -2   4  159.61    8.21
   1   2   4  156.00    8.11
  -1  -2  -4  143.65    7.69
   1  -2   4  161.94    8.16
  -1   2  -4  146.60    7.74
  -1   2  -4  145.62    9.25
   1  -2   4  153.86    7.05
   1  -2   4  156.36    8.04
  -1   2  -5   89.41    7.58
   1  -2   5   93.95    5.51
   1  -2   5  101.64    6.48
  -1  -2  -5  102.55    6.46
   1  -2   5   98.34    6.38
   1   2   5  101.03    6.39
  -1   2  -5   89.02    6.35
   1  -2   5  103.63    6.67
  -1   2  -6  129.89    5.91
   1  -2   6  132.75    8.25
   1  -2   6  148.65    8.69
  -1   2  -6  129.32    8.38
   1   2   6  125.96    5.92
   1   2   6  132.90    7.94
   1  -2   6  139.43    5.73
  -1   2  -6  129.54    6.00
   1  -2   6  129.69    8.30
  -1  -2  -6  125.70    8.14
  -1   2  -7  113.27    5.49
  -1  -2  -7  104.05    8.01
   1   2   7  109.86    5.47
   1  -2   7  100.95    7.95
  -1   2  -7  102.44    8.07
   1   2   7  122.52    8.58
   1   2   7  128.71    7.86
   1   2   7  118.41    5.66
   1  -2   7  116.37    8.50
  -1   2  -7  111.89    5.19
  -1   2  -7  119.69    5.67
   1  -2   7  117.61    5.33
  -1  -2  -8  291.72   15.28
   1   2   8  281.93   14.00
   1   2   8  276.62   11.32
   1   2   8  261.25   11.04
  -1   2  -8  268.47   10.82
  -1   2  -8  254.07   14.97
  -1   2  -8  287.51   11.16
   1  -2   8  258.56   14.89
  -1  -2  -8  268.99   10.80
  -1   2  -8  282.28   11.25
   1  -2   8  288.41   11.15
   1  -2   8  253.53   15.08
   1   2   8  285.12   15.26
  -1  -2  -9  169.46    7.36
   1   2   9  138.16    7.45
  -1   2  -9  172.58    7.70
  -1  -2  -9  147.37   11.12
  -1   2  -9  161.78   11.59
  -1   2  -9  171.95    7.40
   1  -2   9  135.72   11.07
   1   2   9  173.08    7.90
  -1  -2  -9  186.30    7.63
   1   2   9  172.20   11.71
   1  -2   9  176.92    7.94
  -1   2  -9  176.63    7.59
   1   2   9  161.34    7.35
   1  -2  10    4.02    2.22
   1  -2  10    2.80    1.78
  -1  -2 -10    4.50    1.69
  -1  -2 -10    4.10    1.62
  -1   2 -10    4.72    1.85
   1   2  10    3.18    1.77
   1   2  10    5.95    2.27
  -1   2 -10    5.44    1.77
   1   2  10    4.03    1.88
  -1   2 -10    3.72    1.64
   1  -2  11   25.09    3.05
   1   2  11   25.20    2.70
   1  -2  11   25.38    2.65
  -1   2 -11   29.38    2.61
  -1   2 -11   25.09    2.56
   1   2  11   25.34    3.05
  -1   2 -11   24.36    2.58
  -1  -2 -11   24.87    2.51
   1   2  12   14.85    2.21
   1  -2  12   18.63    2.60
   1  -2  12   16.04    2.21
  -1  -2 -12   14.97    2.05
   1   2  12   17.59    2.53
  -1   2 -12   18.94    2.16
   1   2  12   18.77    2.11
  -1   2 -13  127.46    6.20
   1   2  13  156.77    6.67
   1   2  13  150.69    6.02
   1  -2  13  155.62    6.64
   1  -2  13  147.25    6.27
  -1  -2 -13  132.82    6.22
   1   2  13  149.72    6.33
  -1  -2 -13  152.18    6.36
   1  -2  14  120.99    5.51
   1  -2  14  126.81    5.35
   1  -2  14  131.07    5.18
   1   2  14  125.44    5.19
  -1  -2 -14  124.90    5.24
  -1   3  14   30.60    1.96
   1   3 -13    9.86    1.57
  -1   3  13   11.10    2.05
   1  -3 -13   10.38    1.36
   1  -3 -13   12.55    1.39
   1   3 -13   10.97    1.64
  -1   3  13   12.13    1.77
  -1  -3  13   11.33    1.86
  -1  -3  12    3.74    2.09
   1   3 -12    3.73    1.60
  -1  -3  12    2.85    1.84
   1  -3 -12    3.52    1.26
   1  -3 -12    2.34    1.39
   1   3 -12    1.73    1.54
  -1   3  12    1.89    1.49
   1  -3 -11   34.61    2.85
  -1   3  11   29.52    2.94
   1  -3 -11   32.19    2.48
  -1  -3  11   31.10    3.27
  -1  -3  11   31.74    3.05
   1   3 -11   32.31    2.99
   1  -3 -11   30.48    2.59
   1   3 -11   28.30    2.90
   1   3 -10  233.28   10.14
   1  -3 -10  238.94   10.01
   1   3 -10  238.18   10.11
   1  -3 -10  243.52    9.49
  -1  -3  10  228.68   10.26
  -1  -3  10  226.79    9.97
  -1   3  10  224.99   10.28
  -1   3   9   35.01    3.05
   1   3  -9   40.18    3.44
  -1  -3   9   42.42    3.30
  -1   3   9   43.66    3.76
   1  -3  -9   46.31    3.25
   1   3  -9   38.57    3.46
  -1  -3   9   35.12    3.43
   1  -3  -9   43.37    2.96
  -1  -3   8  132.18    6.61
  -1  -3   8  139.13    6.26
   1   3  -8  131.11    6.58
   1  -3  -8  145.21    6.34
  -1  -3   8  105.47    8.76
  -1   3   8  122.94    6.10
  -1   3   8  128.59    9.75
   1   3  -8  132.49    6.53
  -1   3   8  135.35    6.91
   1  -3  -8  124.27    9.12
   1  -3  -8  130.80    5.95
  -1   3   7   22.79    2.69
   1   3  -7   22.16    2.60
  -1  -3   7   23.43    2.25
  -1  -3   7   24.47    3.81
  -1  -3   7   18.63    3.66
   1  -3  -7   23.71    3.71
  -1   3   7   26.24    4.71
   1   3  -7   16.11    3.73
  -1   3   7   22.39    3.99
   1  -3  -7   26.12    2.30
   1  -3  -6  220.73   11.34
   1  -3  -6  243.87    9.33
  -1  -3   6  220.95   11.89
  -1  -3   6  219.12   11.70
  -1   3   6  243.14   12.58
  -1  -3   6  246.39   12.12
  -1   3   6  216.24    9.35
   1   3  -6  218.12   12.07
  -1  -3   6  242.36    9.16
   1   3  -6  226.20    9.50
   1  -3  -6  238.74   12.39
   1   3  -6  193.95   12.45
  -1   3   6  200.89   13.40
  -1  -3   5   81.74    6.04
  -1  -3   5   82.13    6.08
  -1  -3   5   68.99    5.72
   1  -3  -5   90.71    4.14
   1  -3  -5   87.87    5.85
   1   3  -5   79.60    4.06
  -1   3   5   87.84    7.96
   1   3  -5   84.71    4.42
   1   3  -5   85.48    4.49
   1   3  -5   84.01    6.32
   1  -3  -5   88.15    6.44
  -1   3   5   77.72    6.13
  -1   3   5   82.92    4.38
   1   3  -5   71.92    6.46
   1   3  -4  147.84    8.09
  -1   3   4  143.60   10.34
   1   3  -4  131.70    8.45
  -1  -3   4  138.11    7.48
   1  -3  -4  152.92    8.51
  -1   3   4  141.60    6.52
   1  -3  -4  139.63    5.92
  -1  -3   4  134.47    7.79
   1  -3  -4  149.76    7.91
  -1   3   4  143.08    7.96
  -1  -3   4  146.16    8.12
  -1  -3   3  167.83   10.74
   1   3  -3  206.03   10.47
   1   3  -3  197.48    9.58
   1  -3  -3  211.75   10.39
  -1   3   3  201.06    9.50
   1   3  -3  195.24    9.37
   1  -3  -3  200.75   10.52
  -1   3   3  203.06   12.28
   1  -3  -3  207.94    9.84
  -1  -3   3  194.32    9.89
  -1  -3   3  201.08    9.89
  -1   3   3  211.17   10.63
  -1  -3   3  205.87    9.39
  -1  -3   2   55.13    4.56
   1   3  -2   62.71    4.84
   1  -3  -2   69.30    5.36
   1   3  -2   61.00    4.42
  -1   3   2   57.52    4.87
   1   3  -2   57.99    4.26
  -1   3   2   72.95    5.27
  -1  -3   2   48.50    4.99
  -1   3   2   57.37    3.99
   1  -3  -2   67.95    4.61
  -1  -3   2   65.25    4.72
   1  -3  -2   67.21    4.94
  -1   3   1  435.21   20.35
   1  -3  -1  426.58   18.88
  -1   3   1  466.69   18.69
   1   3  -1  422.87   17.55
   1   3  -1  424.51   17.89
  -1  -3   1  430.64   17.94
  -1   3   1  404.77   16.51
   1   3  -1  442.13   17.68
  -1   3   1  436.07   17.68
  -1   3   1  438.53   18.78
  -1  -3   1  437.07   18.01
   1  -3  -1  440.78   17.69
  -1  -3   0   66.81    4.92
  -1   3   0   72.01    5.34
  -1   3   0   63.67    5.78
  -1   3   0   57.67    3.67
   1  -3   0   66.48    5.93
   1  -3   0   73.43    5.06
   1   3   0   67.35    4.79
   1   3   0   66.74    4.82
  -1   3   0   62.74    4.34
   1  -3   0   64.79    4.59
   1   3   0   64.18    4.66
  -1  -3   0   69.88    5.02
   1   3   1  368.48   15.60
   1  -3   1  360.53   15.51
   1   3   1  367.68   15.85
  -1   3  -1  390.29   16.63
  -1   3  -1  337.88   14.50
   1  -3   1  357.41   17.45
   1   3   1  380.87   15.70
  -1  -3  -1  380.34   16.15
   1  -3   1  385.48   15.97
  -1   3  -1  362.91   17.25
   1   3   2  835.40   33.08
   1   3   2  876.15   33.59
   1   3   2  833.59   32.92
  -1   3  -2  829.95   35.30
  -1   3  -2  917.30   34.38
   1  -3   2  891.63   33.44
  -1  -3  -2  927.97   33.84
  -1  -3  -2  892.86   33.89
   1  -3   2  854.85   35.71
  -1   3  -3  460.63   19.58
   1  -3   3  425.40   18.28
  -1   3  -3  383.26   20.05
  -1  -3  -3  446.91   18.85
  -1  -3  -3  431.75   18.85
   1   3   3  407.77   18.30
   1  -3   3  457.74   18.74
   1  -3   3  449.31   18.45
   1  -3   3  379.27   20.32
  -1   3  -4  687.59   30.15
   1  -3   4  717.03   27.51
   1  -3   4  716.36   27.59
  -1   3  -4  726.83   28.93
   1   3   4  683.96   25.03
   1   3   4  590.70   24.39
   1  -3   4  742.16   26.43
   1   3   4  683.70   24.85
  -1   3  -4  670.24   24.72
  -1  -3  -4  761.83   28.23
   1   3   4  727.26   28.07
   1   3   4  713.02   27.91
  -1   3  -4  670.70   24.77
   1  -3   4  728.76   27.86
   1  -3   4  631.17   30.11
  -1  -3  -4  702.32   28.12
   1   3   5   42.45    4.77
   1  -3   5   42.32    4.64
   1  -3   5   45.49    4.79
   1   3   5   39.06    4.84
   1  -3   5   43.35    2.67
  -1  -3  -5   43.98    2.72
   1   3   5   39.56    3.11
   1   3   5   41.32    2.98
   1  -3   5   44.36    4.93
  -1  -3  -5   42.25    4.74
  -1   3  -5   39.95    5.09
  -1  -3  -6   62.44    3.58
  -1  -3  -6   72.65    6.34
   1  -3   6   54.71    5.67
   1   3   6   60.99    3.89
  -1   3  -6   58.76    3.87
   1   3   6   64.37    6.38
   1  -3   6   45.40    5.81
  -1   3  -6   56.48    6.39
   1   3   6   60.58    3.87
   1   3   6   64.20    6.06
   1  -3   6   68.78    6.33
   1  -3   6   68.47    3.57
  -1  -3  -6   61.86    6.14
   1   3   7   28.87    4.27
   1   3   7   31.65    4.94
   1   3   7   29.26    2.98
   1  -3   7   29.66    2.56
  -1   3  -7   27.10    2.90
  -1  -3  -7   24.72    4.21
  -1  -3  -7   30.19    4.40
  -1   3  -7   19.24    4.29
   1  -3   7   23.91    4.17
   1  -3   7   28.45    4.65
  -1  -3  -7   27.09    2.49
  -1   3  -7   24.48    2.69
   1   3   7   27.27    2.75
   1   3   8  152.92    7.09
   1   3   8  164.95    6.77
   1   3   8  161.11    7.59
   1   3   8  167.99    7.56
   1  -3   8  167.08    7.33
   1  -3   8  137.63   10.63
   1  -3   8  158.58    7.63
  -1  -3  -8  154.57    7.29
  -1  -3  -8  136.69   10.09
  -1   3  -8  161.39    7.63
  -1   3  -8  159.71    7.50
   1  -3   8  132.44   11.24
   1   3   9   27.70    3.17
  -1   3  -9   27.51    2.95
  -1   3  -9   25.76    2.98
   1   3   9   25.21    2.67
   1   3   9   29.22    2.76
   1  -3   9   32.35    3.01
  -1  -3  -9   26.66    2.67
   1  -3   9   27.37    3.18
   1   3  10  164.01    7.90
   1   3  10  190.16    8.36
   1  -3  10  168.78    8.25
   1   3  10  187.61    7.90
  -1  -3 -10  181.53    8.01
  -1   3 -10  187.24    8.26
   1  -3  10  174.23    8.08
  -1   3 -10  183.25    8.12
   1   3  11   64.50    3.84
   1  -3  11   68.82    4.24
  -1  -3 -11   66.75    3.88
   1   3  11   68.72    4.33
  -1   3 -11   66.57    4.11
  -1   3 -11   64.35    4.02
   1   3  12   46.93    2.95
   1  -3  12   45.95    3.28
  -1  -3 -12   47.32    2.91
  -1   3 -12   46.12    3.10
   1   3  12   43.87    3.51
  -1   3 -12   44.11    2.94
  -1  -3 -13   13.40    1.37
  -1  -3 -13   14.02    1.45
   1  -3  13   11.71    1.68
   1  -3  13   16.78    1.95
   1   3  13   12.36    1.82
   1   3  13   15.45    1.55
   1  -3  14   14.37    1.34
  -1  -4  13   35.67    2.30
   1   4 -13   32.52    1.88
  -1   4  13   33.31    2.00
   1  -4 -12   22.59    1.61
  -1  -4  12   28.09    2.45
  -1  -4  12   23.30    2.19
   1  -4 -12   24.62    1.83
   1   4 -12   21.25    2.07
   1  -4 -12   21.43    1.85
   1   4 -12   21.35    2.10
  -1   4  12   19.42    2.31
  -1   4  12   22.30    1.90
  -1  -4  11   78.29    4.47
  -1   4  11   92.18    4.86
   1  -4 -11   97.32    4.71
  -1  -4  11   99.56    4.89
  -1   4  11   96.44    4.74
   1  -4 -11  101.01    4.30
   1  -4 -11   90.94    4.51
   1   4 -11   86.85    4.84
  -1   4  11  100.64    5.47
  -1  -4  11   99.58    5.12
   1   4 -11   95.28    4.92
  -1   4  10   15.83    2.14
  -1   4  10   16.82    2.35
   1  -4 -10   16.56    1.99
  -1   4  10   13.44    2.64
   1   4 -10   14.01    2.41
  -1  -4  10   13.72    2.52
  -1  -4  10   15.92    2.35
   1  -4 -10   16.48    1.86
   1  -4 -10   18.32    2.12
   1   4 -10   14.89    2.27
  -1  -4   9    4.78    2.23
  -1   4   9    6.66    2.36
   1  -4  -9    6.47    1.73
  -1   4   9    5.46    1.73
   1   4  -9    6.56    2.01
   1  -4  -9    6.56    1.67
  -1   4   9    6.17    2.02
   1   4  -8  761.23   27.58
   1  -4  -8  801.30   27.97
  -1  -4   8  728.35   28.14
  -1   4   8  761.97   29.06
   1   4  -8  743.93   28.23
  -1   4   8  761.08   28.69
  -1   4   8  759.77   27.75
   1  -4  -8  787.46   27.59
   1   4  -7   43.05    3.31
  -1   4   7   45.48    3.95
   1  -4  -7   45.57    3.22
  -1  -4   7   41.07    3.47
   1  -4  -7   41.04    3.10
   1   4  -7   43.87    3.67
   1   4  -7   43.33    3.53
   1  -4  -7   49.38    3.22
  -1   4   7   43.62    3.05
  -1   4   7   42.08    3.21
  -1   4   6   14.82    2.14
   1  -4  -6   16.71    2.23
  -1  -4   6   18.25    3.71
  -1   4   6   13.95    2.50
   1   4  -6   14.65    2.39
   1   4  -6   14.70    2.37
   1  -4  -6   21.39    3.84
  -1  -4   6   13.12    3.28
  -1   4   6   15.29    1.85
   1  -4  -6   16.23    2.00
   1  -4  -6   15.17    1.99
   1   4  -6   13.00    2.29
   1   4  -6   16.44    3.71
   1   4  -5   53.58    5.89
   1   4  -5   65.43    4.12
   1  -4  -5   66.69    3.67
  -1   4   5   67.47    4.36
   1  -4  -5   63.29    3.61
   1   4  -5   65.60    3.99
  -1  -4   5   54.83    5.64
   1  -4  -5   58.96    3.71
   1   4  -5   55.22    3.61
  -1   4   5   70.20    4.19
  -1  -4   5   60.94    5.96
   1  -4  -5   47.28    5.00
  -1   4   5   65.50    4.39
  -1   4   5   68.77    6.70
   1  -4  -5   67.64    6.43
  -1  -4   5   58.52    5.90
  -1   4   4   33.61    4.75
  -1   4   4   37.66    3.17
   1   4  -4   33.03    2.85
   1  -4  -4   39.38    2.62
  -1  -4   4   35.66    4.55
   1  -4  -4   44.12    5.09
   1   4  -4   34.25    2.93
  -1   4   4   40.35    3.13
   1   4  -4   33.05    4.47
   1  -4  -4   37.02    2.62
  -1  -4   4   30.82    4.18
   1   4  -4   30.51    2.66
  -1   4   4   34.82    3.12
   1  -4  -4   38.89    4.24
  -1   4   3   15.34    3.19
  -1   4   3   13.26    2.15
   1  -4  -3   19.08    1.77
   1   4  -3   19.42    3.34
   1  -4  -3   17.18    1.82
   1  -4  -3   15.53    3.10
  -1  -4   3   16.78    3.21
   1  -4  -3   11.72    2.70
   1   4  -3   15.02    1.99
   1   4  -3   13.80    1.91
  -1   4   3   15.85    2.20
  -1   4   3   16.85    2.23
  -1   4   3   14.39    3.21
  -1  -4   3   16.96    3.24
   1   4  -3   12.11    1.88
  -1  -4   2   16.25    3.05
  -1   4   2   19.75    3.38
  -1   4   2   16.32    2.13
  -1  -4   2   11.92    1.57
  -1  -4   2   13.20    2.97
   1   4  -2   13.89    2.74
  -1   4   2   20.68    3.53
   1   4  -2   13.24    2.83
  -1   4   2   14.55    2.17
  -1   4   2   14.56    2.09
   1  -4  -2   15.89    1.70
   1   4  -2   13.36    1.95
   1  -4  -2   17.62    2.89
   1  -4  -1  595.93   24.77
  -1   4   1  594.67   22.41
   1   4  -1  613.49   24.81
  -1  -4   1  606.11   25.35
  -1  -4   1  579.31   25.11
   1  -4  -1  613.54   21.72
   1   4  -1  592.37   22.16
  -1   4   1  656.64   26.28
  -1   4   1  598.11   22.46
   1   4  -1  609.39   25.21
  -1   4   1  582.12   22.12
  -1   4   1  622.86   24.80
  -1   4   0  378.37   17.83
   1   4   0  380.09   17.04
   1   4   0  373.04   16.97
  -1   4   0  364.01   14.10
  -1   4   0  383.68   18.66
   1   4   0  351.84   14.46
   1  -4   0  351.98   17.09
  -1  -4   0  377.66   17.46
  -1   4   0  397.63   14.58
  -1   4   0  360.53   16.04
   1   4   0  355.10   14.22
   1  -4   0  369.27   16.72
   1  -4   0  369.13   13.72
   1   4   0  359.33   14.28
   1  -4   0  370.94   13.81
   1   4   1  105.98    7.40
   1  -4   1  115.28    5.19
   1   4   1  115.96    8.04
   1   4   1  112.43    7.74
  -1   4  -1  121.06    5.47
  -1   4  -1  127.32    5.85
   1   4   1  117.97    5.75
   1  -4   1  114.91    5.14
   1   4   1  114.11    5.74
   1   4   1  116.44    5.94
  -1   4  -1  121.35    8.57
  -1  -4  -1  118.27    8.31
   1  -4   1   99.24    8.72
  -1   4  -1  126.54    5.67
   1  -4   1  121.32    8.09
   1  -4   1  116.02    7.72
  -1   4  -1  125.35    9.74
  -1   4  -2  126.25    9.03
   1   4   2  119.36    8.06
  -1   4  -2  121.65    5.86
  -1  -4  -2  132.58    8.96
  -1   4  -2  121.36   10.05
  -1   4  -2  126.50    5.99
   1  -4   2  120.19    5.40
   1   4   2  131.09    8.72
   1   4   2  129.15    6.01
   1  -4   2  124.32    8.42
   1  -4   2  123.31    5.36
  -1   4  -2  122.79    5.93
   1   4   2  128.30    6.31
   1   4   2  132.28    6.21
  -1  -4  -2  119.07    8.48
   1   4   2  116.00    8.05
   1  -4   2  100.33    9.36
  -1  -4  -2  127.21    5.52
  -1  -4  -3    8.77    2.96
  -1   4  -3    6.44    1.88
  -1   4  -3    5.02    1.55
   1  -4   3    5.29    1.24
   1   4   3    6.87    1.93
   1   4   3    4.80    2.35
  -1  -4  -3    7.06    1.43
   1   4   3    6.22    2.62
   1  -4   3    3.67    2.18
   1  -4   3    5.79    3.77
   1   4   3    5.47    1.57
  -1  -4  -3    7.19    2.77
   1  -4   3    6.61    2.74
  -1   4  -3    6.28    1.91
  -1   4  -3    7.25    2.84
   1  -4   4    7.80    2.86
  -1   4  -4    8.96    2.98
   1  -4   4    5.76    2.67
   1   4   4   11.35    3.17
   1   4   4    4.87    1.47
   1   4   4    5.63    1.83
   1   4   4    5.80    1.97
   1  -4   4    7.59    4.01
  -1   4  -4    7.91    2.04
   1  -4   4    6.53    2.50
  -1  -4  -4    7.58    2.69
   1  -4   4    7.29    1.49
  -1   4  -4    9.24    1.98
   1  -4   4    7.43    1.37
  -1  -4  -4    8.80    2.99
  -1  -4  -4    6.91    1.53
  -1   4  -4    6.16    1.49
   1   4   5  101.35    8.56
   1   4   5  114.32    5.37
   1   4   5  114.20    5.61
   1   4   5  118.95    9.24
   1  -4   5  109.76    8.83
   1  -4   5  104.26    8.33
  -1  -4  -5  121.94    5.65
   1  -4   5   83.32   10.29
   1  -4   5  121.50    5.47
   1   4   5  130.65    6.37
  -1  -4  -5  114.81    8.75
  -1   4  -5  102.36    9.28
  -1   4  -5  119.50    6.08
   1   4   5  122.89    6.53
  -1   4  -5  126.59    6.24
   1  -4   5  108.82    8.72
  -1   4  -6  384.11   15.50
   1  -4   6  388.94   14.86
  -1  -4  -6  403.93   15.00
  -1   4  -6  385.29   15.62
   1   4   6  395.99   16.14
   1   4   6  382.30   14.96
   1   4   6  385.38   15.65
  -1  -4  -6  404.14   15.16
   1  -4   6  377.05   15.34
  -1  -4  -7   51.50    3.35
   1  -4   7   49.48    3.42
   1   4   7   51.15    3.23
   1  -4   7   47.24    3.78
   1   4   7   44.28    3.26
  -1  -4  -7   49.77    3.44
   1   4   7   52.41    3.88
  -1   4  -7   54.34    4.07
   1   4   7   56.43    3.66
   1   4   7   55.42    4.33
   1  -4   7   46.50    3.78
   1   4   8  171.69    7.80
  -1  -4  -8  173.35    7.37
   1   4   8  144.32    7.09
   1  -4   8  163.80    7.71
   1  -4   8  160.74    7.36
   1   4   8  157.71    6.90
   1   4   8  175.67    7.45
  -1  -4  -8  168.15    7.47
  -1   4  -8  164.58    7.78
   1  -4   8  152.95    7.45
   1   4   8  166.30    8.41
   1   4   9   87.96    4.36
   1   4   9   82.28    4.57
  -1  -4  -9   93.45    4.77
   1  -4   9   88.24    5.13
   1  -4   9   93.12    4.90
  -1   4  -9   90.50    5.22
   1   4   9   94.24    4.99
   1  -4   9   80.62    4.73
  -1   4  -9   97.81    5.17
   1   4   9   88.76    5.55
  -1  -4  -9   87.69    4.72
   1  -4  10    4.42    1.54
   1   4  10    5.61    1.43
   1   4  10    4.52    1.82
  -1   4 -10    5.59    1.80
  -1  -4 -10    3.41    1.40
  -1  -4 -10    4.13    1.42
  -1   4 -10    6.58    1.89
   1  -4  10    4.49    2.00
   1  -4  10    4.31    1.76
   1   4  11   48.61    2.83
  -1   4 -11   35.40    2.76
   1  -4  11   40.08    3.03
  -1   4 -11   36.33    2.80
  -1  -4 -11   39.31    2.54
   1   4  11   38.28    3.12
   1  -4  11   38.55    2.83
  -1  -4 -11   39.88    2.57
   1  -4  12    5.54    1.48
   1   4  12    3.54    1.25
   1  -4  13    8.77    1.07
   1   5 -11    8.50    1.06
  -1   5  11   10.69    1.31
  -1  -5  11    9.24    1.35
   1   5 -11    8.09    0.99
  -1  -5  11    7.38    1.19
   1   5 -10  128.16    5.39
  -1   5  10  138.13    6.27
   1  -5 -10  140.36    5.63
  -1   5  10  141.44    5.60
   1   5 -10  127.44    5.83
  -1   5  10  112.10    5.52
   1  -5 -10  129.81    5.53
   1   5 -10  128.83    5.90
  -1   5  10  133.71    5.93
   1  -5 -10  131.80    5.22
  -1  -5  10  129.94    5.73
   1   5 -10  143.44    5.56
  -1  -5  10  132.89    5.81
   1   5  -9   23.76    2.48
   1   5  -9   26.24    2.54
  -1  -5   9   23.48    2.61
  -1   5   9   31.58    2.69
   1   5  -9   24.32    2.15
   1   5  -9   26.52    2.26
   1  -5  -9   25.02    2.16
   1  -5  -9   26.51    1.97
  -1   5   9   25.72    2.75
  -1   5   9   24.25    2.14
  -1   5   9   26.49    2.29
  -1  -5   9   30.09    2.52
   1  -5  -9   26.40    2.18
   1  -5  -8   33.48    2.58
  -1   5   8   37.66    3.36
   1   5  -8   35.91    2.89
   1  -5  -8   35.71    2.40
  -1   5   8   33.47    2.54
   1   5  -8   36.24    2.74
   1   5  -8   31.47    2.60
   1  -5  -8   37.06    2.69
  -1   5   8   32.53    2.33
  -1  -5   8   33.53    2.79
  -1   5   8   34.12    2.69
   1   5  -8   31.60    3.02
   1  -5  -8   35.30    2.47
   1  -5  -7   62.41    3.55
  -1  -5   7   57.89    3.57
   1   5  -7   52.32    3.54
   1  -5  -7   55.04    3.33
   1   5  -7   54.93    3.80
   1  -5  -7   54.68    3.36
  -1   5   7   50.78    3.23
   1   5  -7   49.97    3.33
   1   5  -7   48.20    3.67
  -1   5   7   53.06    3.43
  -1   5   7   54.84    4.17
   1   5  -7   55.57    3.55
  -1   5   7   51.36    3.33
   1  -5  -7   54.28    3.28
  -1   5   6   96.82    4.77
   1   5  -6   94.97    4.83
   1   5  -6  103.64    5.10
   1  -5  -6  103.37    5.05
   1   5  -6   90.17    5.23
  -1   5   6   96.69    5.22
  -1  -5   6  101.34    5.04
   1  -5  -6   98.53    4.88
   1  -5  -6   97.69    4.90
  -1   5   6   90.08    4.70
  -1   5   6   99.13    5.81
   1   5  -6   93.35    5.37
   1   5  -6  104.94    5.18
  -1   5   6   99.33    5.71
   1  -5  -6   94.41    4.84
  -1   5   5    7.85    1.47
   1   5  -5    8.03    1.99
   1   5  -5    8.90    2.04
   1   5  -5   11.53    2.03
   1  -5  -5    8.81    1.72
   1   5  -5    6.58    1.67
  -1   5   5    8.80    2.33
  -1  -5   5    7.83    1.87
   1  -5  -5    9.74    1.78
   1   5  -5   11.14    1.89
  -1   5   5    9.48    1.57
  -1   5   5    9.11    1.98
  -1   5   5    9.78    2.26
   1  -5  -5   10.29    1.96
  -1   5   4    3.56    1.95
   1   5  -4    3.37    1.68
   1  -5  -4    3.53    1.86
   1   5  -4    4.32    1.59
   1  -5  -4    5.73    1.69
   1   5  -4    2.05    1.58
  -1   5   4    4.28    1.28
   1   5  -4    4.52    1.76
   1  -5  -4    4.29    1.52
  -1   5   4    4.86    2.06
   1  -5  -4    4.62    1.62
  -1   5   4    3.61    1.29
  -1   5   4    3.24    1.99
   1   5  -4    4.57    1.67
   1   5  -3  162.86    7.43
  -1   5   3  157.02    7.59
  -1   5   3  173.26    7.87
   1  -5  -3  148.66    7.11
   1   5  -3  166.12    7.17
  -1   5   3  155.76    6.76
   1  -5  -3  155.05    6.99
  -1   5   3  154.21    7.75
  -1  -5   2   49.12    3.11
  -1   5   2   48.76    3.64
   1   5  -2   53.99    3.72
   1   5  -2   54.29    3.46
   1  -5  -2   55.68    3.29
   1  -5  -2   54.07    3.34
   1  -5  -2   45.11    3.48
  -1   5   2   52.76    3.16
   1  -5  -1    8.97    2.03
   1  -5  -1   10.15    1.74
  -1  -5   1   26.80    2.81
  -1   5   1   10.26    2.22
  -1  -5   1   11.89    1.84
   1  -5  -1    8.97    1.60
  -1   5   1    8.02    1.90
   1   5  -1   24.59    2.30
  -1   5   1    8.28    1.54
   1  -5   0  244.32    9.89
  -1   5   0  252.97   10.33
  -1   5   0  241.33    9.83
  -1  -5   0  238.53   10.04
   1   5   0  281.88   10.90
   1  -5   0  238.61   10.58
   1   5   0  248.20   10.08
   1   5   0  241.21   10.00
   1  -5   0  249.38   10.04
   1   5   0  246.42   10.62
  -1   5   0  264.02   10.86
   1   5   1   64.49    3.74
   1   5   1   66.71    4.28
  -1   5  -1   66.83    3.94
  -1   5  -1   75.22    4.48
   1   5   1   68.55    4.35
   1  -5   1   65.61    3.70
  -1   5  -1   66.60    3.76
   1   5   1   62.40    3.73
   1  -5   1   73.71    4.73
   1  -5   1   62.48    3.60
   1  -5   1   69.55    4.39
   1  -5   2  222.93    9.67
  -1   5  -2  217.80    9.56
   1   5   2  235.83    9.78
   1   5   2  232.16    9.94
   1  -5   2  223.91    9.02
   1  -5   2  208.73    9.79
   1   5   2  218.65    9.09
  -1   5  -2  214.76    8.99
   1  -5   3  183.29    7.59
  -1   5  -3  189.79    8.16
   1   5   3  195.11    8.68
   1  -5   3  184.68    8.43
   1   5   3  183.36    8.78
  -1  -5  -3  189.03    7.85
   1   5   3  196.12    8.37
   1   5   3  169.91    7.66
  -1   5  -3  181.73    7.75
  -1   5  -3  170.31    8.03
   1  -5   3  179.33    7.60
  -1   5  -3  174.36    8.11
   1  -5   4   51.25    3.14
  -1   5  -4   50.96    3.31
  -1   5  -4   48.67    3.69
   1  -5   4   42.92    3.78
   1  -5   4   50.00    3.05
  -1  -5  -4   52.66    3.36
  -1   5  -4   45.77    3.19
   1   5   4   51.23    3.15
   1   5   4   48.58    3.41
  -1   5  -4   51.62    3.74
   1   5   4   46.41    3.93
   1  -5   5   49.71    3.97
   1  -5   5   50.38    3.28
   1   5   5   59.45    4.09
  -1   5  -5   52.61    3.91
  -1   5  -5   48.87    3.84
  -1  -5  -5   55.41    3.47
   1   5   5   53.04    3.42
  -1   5  -5   46.63    3.21
  -1   5  -5   51.95    3.32
   1   5   5   53.27    3.42
   1   5   5   57.15    4.37
   1   5   6   71.90    4.20
   1  -5   6   77.60    4.14
   1   5   6   78.35    5.14
  -1   5  -6   73.11    4.62
  -1   5  -6   73.10    4.60
   1   5   6   84.11    4.83
   1   5   6   69.55    3.96
  -1   5  -6   70.92    3.99
  -1  -5  -6   82.62    4.24
   1   5   7  211.96    8.73
   1  -5   7  206.19    9.12
  -1   5  -7  205.42    9.12
   1   5   7  226.60    9.39
   1  -5   7  198.47    8.61
  -1   5  -7  216.51    9.25
   1   5   7  219.47    9.77
  -1   5  -7  207.81    8.47
  -1  -5  -7  220.92    8.83
   1   5   7  205.36    8.48
  -1   5  -8   21.27    2.40
   1   5   8   21.78    2.70
   1  -5   8   19.72    2.29
  -1   5  -8   25.01    2.52
   1  -5   8   19.49    2.49
   1  -5   8   19.30    2.13
   1   5   8   23.09    2.28
   1   5   8   22.32    2.37
  -1  -5  -8   19.55    1.97
   1   5   8   22.68    2.03
   1  -5   9   26.70    2.37
   1   5   9   27.11    2.65
   1  -5   9   24.95    2.29
  -1   5  -9   25.51    2.40
  -1  -5  -9   25.15    2.05
   1   5   9   29.73    2.29
   1   5   9   27.39    1.94
   1  -5   9   22.93    2.15
   1   5   9   32.65    2.35
   1   5  10    2.64    1.27
   1  -5  10    2.33    1.09
  -1  -5 -10    3.23    0.91
   1   5  10    3.89    1.29
   1  -5  10    4.00    1.36
   1   5  11   12.64    1.23
   1  -5  11    9.79    1.18
  -1  -6   9    0.52    1.01
  -1  -6   9    0.56    1.05
  -1  -6   8   17.00    1.95
  -1   6   8   15.88    1.28
   1   6  -8   16.77    1.37
   1  -6  -8   16.97    1.21
  -1  -6   7   11.59    1.57
   1  -6  -7   10.81    1.27
  -1  -6   7   13.94    2.04
   1  -6  -7   12.81    1.33
  -1   6   7   14.67    1.71
   1  -6  -7   12.16    1.39
   1   6  -7    9.54    1.41
  -1   6   7   10.93    1.35
  -1  -6   7    8.72    1.89
  -1   6   6   10.44    1.73
  -1  -6   6    9.62    1.61
  -1   6   6   10.99    1.46
  -1  -6   6    8.87    1.98
  -1  -6   6   10.40    2.05
   1  -6  -6    9.24    1.36
   1   6  -6    7.93    1.44
  -1   6   6    9.14    1.49
   1  -6  -6    7.69    1.39
   1  -6  -6   10.53    1.42
  -1   6   5    1.42    1.29
  -1  -6   5    1.36    1.63
  -1  -6   5    1.51    1.36
  -1   6   5    1.55    1.46
   1  -6  -5    1.14    1.12
   1  -6  -5    1.46    1.32
  -1  -6   5    1.52    1.88
   1  -6  -5    1.60    1.11
   1   6  -5    1.19    1.28
  -1  -6   4   13.95    1.83
   1  -6  -4   13.38    1.87
   1   6  -4   14.36    1.87
  -1  -6   4   11.68    2.28
  -1   6   4   15.42    2.06
   1  -6  -4   16.57    1.79
  -1   6   4   11.99    1.94
  -1  -6   4   10.30    2.03
   1   6  -3   27.06    2.36
  -1  -6   3   26.03    2.60
   1   6  -3   26.71    2.48
   1   6  -3   27.16    2.33
  -1   6   3   28.52    2.72
   1  -6  -3   28.75    2.47
  -1   6   3   25.19    2.00
   1  -6  -3   25.41    2.17
  -1  -6   3   26.86    2.71
  -1   6   3   30.86    2.70
   1  -6  -3   26.27    2.24
  -1   6   2   15.88    2.02
   1   6  -2   14.69    2.08
  -1  -6   2   16.69    2.19
   1  -6  -2   11.40    2.05
   1  -6  -2   15.76    1.90
   1  -6  -2   13.48    1.93
  -1  -6   2   14.03    1.64
  -1   6   2   14.74    2.24
   1  -6  -2   17.53    1.83
   1   6  -2   15.97    1.95
   1   6  -2   16.76    1.93
  -1   6   2   14.26    1.65
  -1  -6   2   11.72    2.01
  -1   6   1    1.23    1.60
  -1   6   1    0.90    1.14
   1  -6  -1    0.70    1.25
   1  -6  -1    3.02    1.56
   1   6   0  199.90    8.12
   1   6   0  186.93    7.54
  -1   6   0  176.07    7.93
  -1   6   0  164.52    7.24
  -1  -6   0  184.93    7.48
   1  -6   0  172.82    7.37
   1  -6   0  153.20    7.59
   1  -6   1  395.34   14.63
   1  -6   1  364.02   14.92
   1   6   1  400.69   15.05
  -1   6  -1  393.22   15.01
   1  -6   1  382.94   14.44
   1   6   1  376.96   14.44
  -1  -6  -1  377.24   14.53
  -1   6  -1  379.46   14.42
  -1   6  -2    9.08    1.71
   1   6   2    9.22    1.77
   1  -6   2   10.08    1.53
  -1   6  -2   10.14    1.65
  -1  -6  -2    6.95    1.54
   1   6   2    8.27    1.53
   1  -6   2    8.06    2.08
   1  -6   2    8.61    1.41
   1  -6   2    9.10    2.04
  -1  -6  -2    8.52    1.66
   1  -6   3   79.86    3.95
   1  -6   3   84.59    4.59
   1  -6   3   70.79    3.83
   1   6   3   92.99    4.78
  -1  -6  -3   85.61    4.28
   1  -6   3   80.96    4.76
  -1   6  -3   78.77    4.27
   1   6   3   85.69    4.09
  -1   6  -3   80.54    3.91
   1   6   3   84.61    4.43
   1   6   4  192.59    7.92
   1  -6   4  183.76    7.68
   1   6   4  199.64    8.03
  -1   6  -4  185.25    7.89
  -1  -6  -4  197.81    8.08
   1  -6   4  191.79    8.39
   1   6   4  225.86    8.75
  -1   6  -4  198.25    7.67
   1  -6   4  195.51    8.70
   1  -6   5    9.67    1.41
   1   6   5    9.55    1.61
   1  -6   5   11.66    2.05
   1  -6   5   10.79    2.10
   1  -6   6   17.17    1.67
   1  -6   6   20.85    2.28
   1   6   6   26.97    2.25
  -1   6  -6   20.55    1.94
   1   6   6   21.66    1.83
  -1  -6  -6   20.79    1.83
   1  -6   6   22.35    2.48
   1   6   7    1.02    1.06
   1   6   7    0.54    1.09
  -1  -6  -7    0.82    0.82
   1  -6   7    0.68    1.42
   1   6   8    6.33    0.97
   1  -6   8    6.48    1.20
   1   7  -5    4.71    0.66
  -1   7   4   59.56    2.54
   1   7  -4   57.79    2.52
   1  -7  -3   50.71    2.36
  -1  -7   3   45.03    2.42
   1   7  -3   54.50    2.45
  -1   7   3   52.82    2.48
  -1  -7   2   15.55    1.34
   1   7  -2   16.56    1.30
   1  -7  -2   15.77    1.38
   1  -7  -1    7.03    1.19
   1   7  -1   21.90    1.44
  -1  -7   1   17.44    1.38
  -1   7   0   72.79    3.12
   1  -7   0   69.60    3.37
   1  -7   0   67.73    3.21
   1   7   0   82.70    3.33
   1   7   0   78.62    3.24
   1  -7   1   24.19    1.86
   1  -7   1   18.42    1.63
   1   7   1   21.66    1.56
  -1   7  -1   24.27    1.46
   1  -7   2  108.59    4.65
  -1   7  -2  111.02    4.35
   1   7   2  116.70    4.49
   1  -7   2  107.53    4.59
   1  -7   3  122.14    5.09
   1   7   3  136.11    4.94
   1  -7   3  130.48    5.11
  -1   7  -3  117.62    4.76
   1  -7   4   15.01    1.28
  -2   0  16   34.39    2.04
  -2   0  15    2.02    1.51
   2   0 -15    1.57    1.17
   2   0 -15    0.97    1.29
  -2   0  14    2.67    1.88
   2   0 -14    3.24    1.54
   2   0 -14    4.43    1.57
   2   0 -13    0.16    1.48
  -2   0  13    1.22    2.09
   2   0 -13    0.32    1.74
  -2   0  13   -0.09    1.60
  -2   0  12  358.59   13.76
   2   0 -12  359.78   13.98
  -2   0  12  330.06   13.58
  -2   0  12  329.62   13.52
   2   0 -12  363.02   13.40
  -2   0  12  332.67   13.96
  -2   0  11  321.14   12.78
   2   0 -11  340.58   12.48
  -2   0  11  327.47   12.80
   2   0 -11  341.65   13.10
  -2   0  11  333.67   13.38
  -2   0  10  215.82    8.80
   2   0 -10  202.58    8.90
   2   0 -10  206.92   13.36
   2   0 -10  205.63   13.94
  -2   0  10  177.17   13.50
   2   0 -10  201.74    8.29
  -2   0  10  218.89    9.41
   2   0  -9   15.73    3.79
   2   0  -9   17.71    1.74
   2   0  -9   22.15    4.12
  -2   0   9   17.28    2.09
   2   0  -9   26.91    2.20
  -2   0   9   16.26    4.47
  -2   0   9   16.65    2.51
   2   0  -8  111.08    8.26
  -2   0   8  105.13    8.58
   2   0  -8  104.93    4.95
  -2   0   8  103.18    5.52
   2   0  -8  103.78    7.71
  -2   0   8  100.27    7.67
  -2   0   7  369.84   16.86
   2   0  -7  367.58   16.87
  -2   0   7  361.56   17.53
   2   0  -7  370.64   17.30
   2   0  -6   14.24    3.19
  -2   0   6   12.37    3.01
   2   0  -6   13.30    2.81
  -2   0   6   12.78    3.49
  -2   0   5  141.99    7.64
   2   0  -5  131.89    7.19
   2   0  -5  118.76    7.27
   2   0  -4  661.23   26.35
  -2   0   4  728.01   27.10
   2   0  -4  675.25   26.72
  -2   0   3    1.52    1.99
   2   0  -3   -0.24    1.95
   2   0  -3    2.25    1.63
   2   0  -2 7103.98  238.08
  -2   0   2 6788.53  238.68
  -2   0   2 6500.09  238.43
  -2   0   1 2550.26   82.34
  -2   0   1 2270.40   81.16
  -2   0   1 2357.02   81.81
   2   0  -1 2147.00   81.67
   2   0  -1 2726.13   82.13
   2   0  -1 2581.18   82.55
   2   0   0 4376.43  154.95
  -2   0   0 4093.56  155.33
   2   0   0 5318.21  156.40
  -2   0   0 4348.11  154.74
  -2   0   0 4700.22  155.77
   2   0   0 5202.90  155.81
  -2   0  -1 3630.37  104.27
   2   0   1 3334.05  104.43
  -2   0  -1 2758.02  103.88
   2   0   1 3218.76  104.90
  -2   0  -1 2989.54  102.65
   2   0   1 3066.26  103.33
   2   0   1 3014.90  103.22
   2   0   1 2951.74  103.38
  -2   0  -1 2760.96  103.14
  -2   0  -2 1270.33   42.93
   2   0   2 1220.28   41.62
   2   0   2 1179.03   42.00
   2   0   2 1185.83   42.30
  -2   0  -2 1135.16   42.56
   2   0   3    1.53    1.94
   2   0   3    2.02    0.93
  -2   0  -3    1.05    1.57
  -2   0  -3   -0.14    1.71
  -2   0  -4    5.64    2.18
   2   0   4    5.25    2.21
  -2   0  -4    6.79    1.90
   2   0   4    5.30    1.15
  -2   0  -5  464.12   18.87
   2   0   5  410.24   16.63
  -2   0  -5  444.03   17.90
   2   0   5  465.65   18.80
  -2   0  -6  275.41   13.46
   2   0   6  254.73   13.34
  -2   0  -7   22.86    3.92
   2   0   7   17.26    2.12
  -2   0  -7   18.79    1.96
   2   0   7   17.07    3.90
  -2   0  -8   63.02    6.63
   2   0   8   55.43    3.71
   2   0   8   61.93    6.82
  -2   0  -8   67.39    3.72
  -2   0  -9   22.79    4.83
   2   0   9   27.52    2.85
  -2   0  -9   31.74    2.81
   2   0   9   32.47    2.87
   2   0  10   -0.49    1.95
  -2   0 -10    0.31    1.74
   2   0  11  175.18    8.24
   2   0  11  168.20    7.90
  -2   0 -11  181.48    7.99
   2   0  12  521.76   20.30
   2   0  12  535.54   20.05
  -2   0 -12  546.35   20.16
  -2   0 -13    2.11    1.15
   2   0  13    3.78    1.96
  -2   0 -13    3.45    1.51
   2   0  13    3.99    1.85
   2   0  14  198.84    8.40
   2   0  14  222.09    8.40
  -2   0 -14  208.51    8.37
   2   0  15   29.39    1.83
  -2  -1  16    4.39    0.95
  -2   1  16    2.68    0.90
   2  -1 -15   53.95    2.28
  -2   1  15   59.41    2.59
  -2  -1  15   60.18    2.58
   2  -1 -15   50.77    2.51
   2   1 -15   51.78    2.51
  -2  -1  14   15.77    1.99
  -2  -1  14   18.11    2.29
   2  -1 -14   17.61    1.96
   2   1 -14   13.77    2.00
   2  -1 -14   17.56    2.17
  -2   1  14   18.10    2.29
  -2  -1  14   16.78    2.13
   2  -1 -14   13.93    1.55
   2   1 -14   14.07    2.14
  -2  -1  13   44.91    3.40
   2   1 -13   47.46    3.25
  -2  -1  13   51.75    3.44
   2   1 -13   46.50    3.49
   2  -1 -13   48.64    3.15
  -2   1  13   55.91    3.56
  -2   1  13   44.17    3.36
   2  -1 -13   48.10    3.51
  -2  -1  13   45.13    3.57
   2  -1 -13   37.00    2.79
   2   1 -12  267.76   10.59
  -2  -1  12  251.77   10.74
   2  -1 -12  271.68   10.46
  -2   1  12  223.16   10.79
   2  -1 -12  262.10   10.46
  -2  -1  12  262.20   11.01
   2  -1 -12  259.99   10.72
  -2  -1  12  265.68   10.75
  -2   1  12  271.08   10.82
   2  -1 -12  270.01   11.02
   2   1 -12  273.23   11.04
  -2   1  12  247.30   11.10
   2  -1 -11  100.47    5.21
   2   1 -11  101.74    5.24
  -2   1  11   93.05    5.10
  -2   1  11   93.32    5.55
  -2   1  11   85.62    4.99
   2  -1 -11   80.06    4.86
  -2  -1  11   92.45    5.11
  -2  -1  11   93.48    5.05
   2  -1 -11   96.37    4.80
  -2  -1  11   89.03    5.31
   2   1 -11   95.83    4.87
   2  -1 -11   96.16    4.69
   2   1 -11   88.12    4.87
  -2   1  10  112.99    5.63
   2  -1 -10  103.13    9.96
   2   1 -10   88.08    9.57
   2  -1 -10   92.00    8.85
   2  -1 -10  111.21    5.64
   2  -1 -10  121.41    5.39
  -2  -1  10  114.41    6.08
  -2   1  10  123.18    6.30
   2   1 -10  108.53    9.48
   2  -1 -10  107.05    5.17
  -2   1  10   99.16   10.37
   2   1 -10  112.55    5.53
   2  -1 -10  109.95    5.41
  -2  -1  10  110.19    5.51
  -2  -1  10  111.44    5.54
   2   1 -10  114.38    5.39
  -2   1  10  117.79    5.65
  -2  -1  10   83.48    9.02
   2   1 -10  112.52    5.49
   2   1 -10  117.69    5.75
   2  -1  -9   31.29    2.40
   2   1  -9   29.99    5.39
   2  -1  -9   32.89    5.27
   2   1  -9   31.16    2.59
  -2  -1   9   30.25    2.56
  -2   1   9   33.35    3.23
   2  -1  -9   35.26    2.62
   2  -1  -9   25.14    4.29
  -2   1   9   26.44    5.44
  -2  -1   9   25.20    5.12
   2   1  -9   24.75    4.48
   2   1  -9   35.38    2.64
   2   1  -9   32.04    2.58
  -2  -1   8  101.63    7.57
  -2  -1   8  113.89    5.00
  -2   1   8   81.72    7.37
   2  -1  -8  110.28    4.94
   2   1  -8  108.79    5.12
   2   1  -8  104.78    5.07
   2   1  -8  103.03    7.94
  -2   1   8  111.41    5.81
   2   1  -8  111.19    8.59
   2  -1  -8  103.10    7.98
   2  -1  -8  108.01    5.11
  -2  -1   8  105.94    8.38
   2  -1  -8  114.68    8.55
  -2   1   8  114.83    9.75
   2   1  -8  113.52    5.12
  -2  -1   7  114.83    7.39
  -2  -1   7  106.88    7.68
   2  -1  -7  113.74    7.85
  -2  -1   7   89.80    6.90
   2  -1  -7  120.54    7.68
   2   1  -7  110.38    7.55
  -2   1   7  110.72    8.77
  -2   1   7   82.37    7.09
   2   1  -7  109.10    7.78
  -2  -1   6  866.54   30.58
   2   1  -6  774.81   30.88
   2  -1  -6  763.69   30.83
   2   1  -6  775.96   30.49
   2  -1  -6  790.90   30.49
  -2  -1   6  709.30   29.73
  -2   1   6  766.58   31.03
  -2  -1   6  861.94   31.08
  -2  -1   6  772.52   28.77
  -2   1   5 1761.44   63.29
  -2  -1   5 1569.17   61.51
  -2  -1   5 2002.84   62.70
   2   1  -5 1663.53   62.54
   2  -1  -5 1705.96   62.63
  -2   1   5 1767.22   64.04
   2   1  -5 1713.39   62.24
  -2  -1   5 1878.07   62.67
  -2  -1   5 1714.90   60.68
   2  -1  -5 1742.22   62.25
  -2  -1   4 1070.33   39.72
   2   1  -4 1124.02   40.89
  -2   1   4 1188.90   41.87
   2  -1  -4 1115.58   40.88
   2   1  -4 1142.85   40.59
   2  -1  -4 1160.92   40.60
  -2   1   4 1195.96   42.25
  -2  -1   4 1104.18   39.23
   2  -1  -4 1124.64   38.78
   2  -1  -4 1117.21   39.43
  -2  -1   4 1071.19   39.07
  -2   1   3 2252.56   77.39
  -2   1   3 2376.90   76.19
   2  -1  -3 2218.21   74.62
   2   1  -3 2175.17   76.07
   2  -1  -3 2190.14   76.10
   2  -1  -3 2214.39   74.89
   2  -1  -3 2108.10   76.56
  -2  -1   3 1955.66   74.96
  -2   1   3 2392.38   76.71
  -2  -1   3 2153.55   75.09
   2  -1  -3 2188.72   75.22
  -2  -1   3 2307.29   76.18
  -2  -1   3 2077.45   74.73
   2   1  -3 2244.53   76.00
  -2   1   2 3390.27  114.32
   2  -1  -2 3525.18  112.05
  -2   1   2 3591.60  113.98
  -2   1   2 3603.10  113.25
  -2  -1   2 3057.44  111.89
   2   1  -2 3254.89  113.21
  -2  -1   2 3060.85  112.41
   2   1  -2 3338.66  113.12
  -2   1   2 3325.51  114.03
   2  -1  -2 3479.19  112.52
  -2  -1   2 2858.40  111.98
   2  -1  -2 3500.69  112.03
   2  -1  -2 3345.90  113.23
  -2   1   1 3370.27  100.43
  -2  -1   1 2676.74   98.35
   2  -1  -1 3106.56   99.44
   2   1  -1 2496.32   97.82
  -2   1   1 3192.93   99.24
  -2  -1   1 2855.93   98.73
   2   1  -1 2817.68   99.19
   2  -1  -1 3217.02   98.46
   2   1  -1 3091.26   99.19
  -2   1   1 3106.08   99.66
   2  -1  -1 3038.50   98.65
  -2   1   0 1569.46   56.93
   2  -1   0 1657.22   56.64
   2   1   0 1521.28   56.34
  -2   1   0 1605.18   56.11
  -2   1   0 1552.19   55.92
   2  -1   0 1573.45   55.63
   2   1   0 1590.55   56.02
   2  -1   0 1566.49   55.77
  -2   1  -1  518.26   19.19
  -2  -1  -1  467.91   18.86
  -2  -1  -1  450.96   18.15
   2   1   1  521.12   18.96
  -2   1  -1  545.27   20.19
   2  -1   1  513.55   19.94
   2   1   1  480.42   19.44
   2  -1   1  536.66   18.98
   2  -1   1  518.06   19.02
   2   1   1  507.78   19.05
  -2   1  -2  529.44   18.39
  -2  -1  -2  490.57   18.20
  -2   1  -2  498.55   17.81
   2   1   2  514.46   18.20
   2  -1   2  475.43   16.52
   2  -1   2  461.65   16.16
   2   1   2  523.59   17.95
  -2   1  -2  536.00   19.42
  -2  -1  -2  422.14   16.47
  -2   1  -3 1015.37   36.53
  -2   1  -3  978.90   37.29
   2   1   3  992.97   36.31
  -2  -1  -3  969.97   36.42
   2   1   3 1007.78   35.84
   2   1   4  934.69   33.91
   2   1   4  967.89   34.81
  -2  -1  -4  892.26   34.81
  -2   1  -4  930.27   34.95
   2  -1   4  930.86   35.27
  -2   1  -4  923.26   35.68
  -2   1  -5  157.90    8.97
  -2  -1  -5  164.60    9.12
  -2   1  -5  152.22    9.30
   2   1   5  162.34    7.89
   2   1   5  173.78    8.96
   2  -1   5  172.51    9.32
  -2  -1  -6    4.20    2.18
   2  -1   6    1.78    2.50
  -2   1  -6    7.65    2.45
   2  -1   6    4.70    2.54
   2   1   6    4.09    2.33
  -2   1  -6    5.85    2.51
   2   1   6    3.19    1.60
  -2  -1  -7   94.39    7.62
   2   1   7   99.11    7.35
   2   1   7   90.05    4.99
  -2   1  -7   98.73    4.72
   2  -1   7  101.48    4.81
  -2  -1  -7  101.49    4.72
   2  -1   7   97.27    4.74
   2   1   7   94.29    4.95
   2  -1   7   96.60    7.88
   2  -1   7   93.27    4.65
  -2   1  -7   89.75    7.65
  -2   1  -7   99.03    4.76
   2   1   8    9.58    2.14
   2  -1   8   10.13    3.65
  -2   1  -8    5.65    3.34
  -2  -1  -8    8.22    3.29
   2   1   8    7.95    2.79
   2  -1   8    7.39    1.66
  -2   1  -8    8.45    1.63
   2  -1   8    8.84    1.99
  -2  -1  -8    7.69    1.68
   2  -1   9   25.00    2.87
   2   1   9   29.98    4.66
  -2  -1  -9   25.74    2.55
   2  -1   9   25.40    2.61
   2   1   9   26.74    3.02
  -2   1  -9   32.69    5.27
   2  -1   9   25.38    2.71
   2  -1   9   30.92    5.48
  -2  -1  -9   24.72    4.86
  -2   1  -9   24.65    2.56
   2  -1   9   24.93    2.65
   2   1   9   27.74    2.71
   2  -1  10   72.30    4.60
   2   1  10   73.74    4.47
   2   1  10   84.15    4.99
   2  -1  10   75.39    4.75
   2  -1  10   76.60    4.45
  -2   1 -10   78.74    4.51
   2  -1  10   64.32    4.42
  -2  -1 -10   85.06    4.57
   2  -1  11  129.61    6.47
  -2   1 -11  136.06    6.49
   2   1  11  138.64    6.92
   2   1  11  144.23    6.55
   2  -1  11  136.88    6.45
  -2  -1 -11  138.25    6.50
   2  -1  12   84.23    4.74
  -2  -1 -12   91.52    4.64
   2   1  12   96.54    5.24
   2  -1  12   89.75    4.86
  -2   1 -12   84.10    4.78
  -2  -1 -12   91.96    4.84
   2   1  12   95.14    4.96
   2   1  13   46.27    3.14
   2  -1  13   44.21    3.08
  -2   1 -13   40.39    2.97
  -2  -1 -13   42.33    2.99
   2   1  13   48.93    3.28
  -2  -1 -13   39.17    2.75
   2   1  14   65.19    3.55
   2  -1  14   71.01    3.44
   2   1  14   75.81    3.53
  -2   1 -14   62.93    3.34
  -2  -1 -14   59.35    3.13
  -2  -1 -14   63.73    3.37
  -2   2  15   10.47    1.06
   2  -2 -15   12.01    1.18
  -2  -2  15   13.56    1.50
   2   2 -14   34.38    2.51
   2  -2 -14   37.42    2.57
   2  -2 -14   40.82    2.51
  -2  -2  14   33.05    2.61
  -2  -2  14   41.73    2.62
   2  -2 -14   37.74    2.39
  -2  -2  14   40.27    2.97
  -2   2  14   43.32    2.65
   2  -2 -13  107.85    5.23
  -2  -2  13  110.37    5.29
  -2  -2  13  106.04    5.45
   2  -2 -13  121.23    5.25
  -2   2  13  104.39    5.52
   2  -2 -13  106.47    5.38
  -2   2  13  119.95    5.38
   2   2 -13  109.34    5.45
  -2  -2  13  115.48    5.82
   2   2 -12    0.37    1.51
   2  -2 -12    0.62    1.38
   2  -2 -12    0.08    1.43
  -2  -2  12   -0.81    1.88
  -2   2  12    1.60    1.80
  -2   2  12    0.87    1.71
  -2  -2  12    1.24    2.08
   2   2 -12    1.68    1.53
  -2  -2  12   -1.21    1.79
   2  -2 -12    0.92    1.36
   2  -2 -12    0.87    1.61
   2  -2 -12    0.85    1.08
   2   2 -12    0.89    1.68
  -2   2  12    1.91    1.71
  -2   2  11   13.05    2.44
   2   2 -11   10.29    2.04
  -2   2  11   10.33    2.19
  -2   2  11    8.89    2.05
   2  -2 -11   11.02    1.83
   2   2 -11    7.38    1.94
  -2  -2  11   10.07    2.23
  -2  -2  11    9.52    2.07
   2  -2 -11    9.17    2.01
   2   2 -11    7.05    1.95
   2   2 -11   10.52    2.04
   2  -2 -11   13.09    1.91
   2  -2 -11    9.46    1.84
  -2   2  10   78.60    4.49
   2  -2 -10   77.03    4.39
   2  -2 -10   90.20    4.58
  -2  -2  10   83.10    4.62
  -2   2  10   87.09    4.66
   2  -2 -10   83.33    4.52
  -2   2  10   83.33    5.18
   2   2 -10   78.66    4.55
   2   2 -10   82.67    4.68
   2   2 -10   75.39    4.47
   2  -2 -10   82.00    4.29
   2   2 -10   79.76    4.70
   2   2 -10   66.23    7.65
   2  -2  -9  124.84   10.36
   2  -2  -9  124.02    9.78
   2   2  -9  143.93    6.65
   2  -2  -9  131.57    6.29
   2  -2  -9  152.28    6.46
  -2  -2   9  146.64    6.40
   2   2  -9  112.83    9.76
   2   2  -9  141.47    6.42
   2   2  -9  119.54   10.51
   2   2  -9  137.82    6.56
  -2   2   9  144.31    7.24
  -2  -2   9  107.50    9.57
  -2   2   9  144.79   12.57
  -2  -2   8  304.20   15.71
  -2   2   8  304.80   17.20
  -2   2   8  349.52   13.78
   2  -2  -8  338.47   16.66
   2  -2  -8  337.90   17.20
   2   2  -8  308.17   16.51
   2   2  -8  331.92   12.81
   2   2  -8  341.37   13.06
   2  -2  -8  353.10   12.94
   2   2  -8  339.24   13.09
   2   2  -8  308.15   17.08
   2  -2  -8  320.90   12.74
  -2  -2   8  293.96   16.45
  -2   2   8  312.70   19.17
   2  -2  -8  315.52   15.06
  -2  -2   8  346.04   12.75
   2   2  -7  815.16   33.39
  -2   2   7  896.18   30.91
   2  -2  -7  854.76   34.10
   2   2  -7  794.55   33.84
  -2  -2   7  858.24   29.79
  -2  -2   7  914.64   34.17
   2  -2  -7  822.51   33.41
   2   2  -7  828.96   30.17
   2   2  -7  825.04   30.08
   2  -2  -7  857.36   32.35
  -2   2   7  767.88   34.61
  -2  -2   7  801.99   33.39
  -2   2   6 1168.98   46.20
  -2   2   6 1204.23   44.16
   2   2  -6 1123.96   44.02
   2  -2  -6 1199.97   43.41
  -2  -2   6 1192.35   43.04
  -2  -2   6 1201.21   44.43
   2  -2  -6 1170.04   44.55
   2   2  -6 1128.15   44.50
   2  -2  -6 1192.72   44.20
  -2  -2   5   90.46    5.59
   2  -2  -5  103.57    5.88
   2   2  -5   93.68    6.09
   2  -2  -5   95.67    5.18
  -2  -2   5   93.68    5.33
  -2   2   5  118.32    6.86
  -2  -2   5  108.09    6.56
  -2   2   5  104.00    8.35
  -2   2   5  109.98    7.94
  -2  -2   5  105.98    5.76
   2  -2  -5   94.95    6.01
  -2   2   4  998.53   38.87
  -2   2   4 1044.59   37.32
   2  -2  -4  966.10   36.16
  -2  -2   4  958.62   35.35
   2   2  -4  924.70   36.08
   2  -2  -4 1009.28   37.67
  -2  -2   4 1035.63   36.79
  -2   2   4 1047.08   37.10
   2  -2  -4  982.42   35.36
  -2  -2   4  935.33   35.47
   2  -2  -4 1032.63   36.25
  -2  -2   4  980.04   35.89
   2   2  -4 1034.48   36.76
  -2   2   4  967.51   39.09
   2  -2  -3  106.99    5.03
  -2   2   3  106.93    6.33
   2  -2  -3  101.94    5.39
  -2  -2   3   93.41    5.00
   2   2  -3   90.99    5.30
   2   2  -3   98.63    5.57
   2  -2  -3   96.46    6.46
   2   2  -3  111.91    5.98
  -2   2   3  110.55    6.11
   2   2  -3   96.94    5.39
   2  -2  -3  101.74    5.48
  -2  -2   3   89.19    4.59
  -2   2   3   97.31    7.18
  -2  -2   3   99.93    5.38
  -2   2   2   27.80    3.99
   2  -2  -2   32.08    2.71
  -2   2   2   24.74    3.21
  -2   2   2   31.55    3.07
   2   2  -2   24.77    2.35
   2   2  -2   24.04    2.44
   2   2  -2   24.62    2.75
  -2  -2   2   19.89    1.90
   2  -2  -2   29.42    3.68
  -2   2   2   24.30    3.79
   2   2  -2   28.42    2.95
   2  -2  -2   26.18    2.59
  -2  -2   2   23.86    2.39
   2  -2  -2   30.19    2.36
  -2  -2   2   29.66    2.76
  -2   2   1  400.92   17.24
  -2   2   1  396.61   16.54
   2  -2  -1  384.75   14.82
   2  -2  -1  417.55   15.40
  -2   2   1  426.07   16.03
   2   2  -1  402.16   15.77
  -2   2   1  362.87   13.78
   2   2  -1  388.60   15.42
   2   2  -1  426.59   15.44
   2   2  -1  386.11   14.81
   2  -2  -1  405.65   17.03
   2   2  -1  359.79   14.58
   2  -2  -1  435.73   15.28
  -2  -2   1  376.71   15.10
  -2  -2   1  408.30   15.57
  -2  -2   1  319.56   14.28
  -2  -2   0 1183.41   46.97
   2   2   0 1417.00   47.97
   2   2   0 1280.44   47.50
   2   2   0 1358.49   48.42
  -2   2   0 1402.67   49.83
  -2   2   0 1480.15   48.97
   2  -2   0 1347.00   47.76
   2  -2   0 1394.04   50.31
   2   2   0 1322.39   47.28
   2  -2   0 1434.26   48.11
  -2   2   0 1365.60   49.84
  -2   2   0 1341.09   47.15
   2  -2   0 1366.71   48.15
  -2  -2   0 1396.22   48.23
  -2  -2   0 1417.06   48.55
  -2   2  -1 2292.72   82.54
  -2  -2  -1 2191.48   80.35
  -2   2  -1 2514.93   82.21
   2   2   1 2300.44   81.40
   2  -2   1 2351.88   83.70
  -2  -2  -1 2440.52   81.60
   2  -2   1 2294.60   81.05
   2   2   1 2246.89   80.36
  -2   2  -1 2393.44   80.54
  -2   2  -2  137.42    6.72
  -2  -2  -2  132.05    6.56
   2  -2   2  126.23    8.68
  -2   2  -2  142.30    7.69
   2   2   2  140.08    7.24
   2  -2   2  134.62    7.04
  -2  -2  -3  226.26   10.78
   2   2   3  243.76   11.27
   2  -2   3  252.89   11.46
  -2   2  -3  245.27   12.95
   2  -2   3  265.22   11.66
  -2   2  -3  246.94   10.99
  -2  -2  -4    1.26    1.85
   2  -2   4    3.56    2.15
  -2   2  -4    3.41    2.76
  -2   2  -4    4.28    2.00
   2   2   4    5.04    2.05
   2   2   4    3.21    2.21
   2  -2   4    2.67    1.90
   2  -2   4    3.78    1.99
  -2   2  -5  425.41   19.11
  -2   2  -5  407.96   20.70
   2  -2   5  455.07   19.66
  -2  -2  -5  430.94   19.06
   2   2   5  459.52   19.72
   2   2   5  442.43   18.81
   2  -2   5  461.21   19.41
   2  -2   5  480.29   19.88
  -2   2  -6  418.58   19.18
  -2  -2  -6  439.80   19.29
   2   2   6  467.62   19.85
  -2   2  -6  420.36   15.95
   2  -2   6  443.66   15.72
   2   2   6  401.28   15.99
   2  -2   6  407.16   15.60
   2  -2   6  434.36   19.35
  -2   2  -6  415.19   16.02
   2  -2   6  415.36   15.36
  -2   2  -6  427.52   20.98
   2  -2   6  458.85   19.95
   2   2   6  434.52   18.50
   2  -2   7  504.69   22.65
  -2   2  -7  483.02   22.41
  -2  -2  -7  484.91   22.31
  -2   2  -7  499.99   18.45
   2   2   7  551.57   23.02
  -2  -2  -7  470.93   18.03
  -2   2  -7  492.71   18.55
   2   2   7  481.60   18.61
  -2   2  -7  503.63   18.13
   2   2   7  520.43   21.32
   2  -2   7  453.88   18.10
   2  -2   7  513.81   18.34
   2  -2   7  497.33   23.07
   2  -2   8  199.07    8.40
   2   2   8  219.00   12.87
  -2   2  -8  170.42   12.10
  -2  -2  -8  180.96   12.14
   2  -2   8  190.01   12.60
   2  -2   8  206.96    8.63
   2  -2   8  183.37    8.26
   2   2   8  201.94    8.96
  -2   2  -8  205.01    8.40
   2  -2   8  203.93    8.88
  -2   2  -8  201.44    8.61
  -2  -2  -8  199.89    8.35
  -2   2  -8  205.87    8.79
  -2   2  -9   83.62    4.63
   2  -2   9   72.19    4.43
  -2   2  -9   85.63    4.78
   2  -2   9   79.80    4.93
   2   2   9   74.24    4.52
   2  -2   9   85.57    4.87
  -2   2  -9   84.02    4.52
   2   2   9   89.32    5.07
  -2  -2  -9   78.00    4.36
   2   2   9   80.52    4.40
  -2   2 -10   42.08    3.39
  -2  -2 -10   44.66    3.31
   2   2  10   49.76    3.87
   2  -2  10   44.42    3.76
  -2  -2 -10   40.28    3.12
   2   2  10   42.62    3.15
  -2   2 -10   47.02    3.30
   2  -2  10   40.24    3.24
  -2   2 -10   46.79    3.29
   2  -2  10   41.89    3.56
   2   2  10   46.15    3.41
   2  -2  11   10.05    2.09
   2  -2  11   13.01    2.40
   2   2  11   13.82    2.58
   2  -2  11   10.84    2.37
  -2  -2 -11   10.35    1.88
   2   2  11   11.06    2.18
  -2   2 -11   10.18    1.89
  -2  -2 -11   11.87    1.96
   2   2  11   11.47    1.97
   2  -2  12   14.03    2.04
   2  -2  12   15.37    2.25
   2   2  12   13.82    2.06
  -2   2 -12   10.38    1.73
   2   2  12   16.20    2.39
  -2  -2 -12   14.06    1.87
   2  -2  12   15.36    2.24
  -2  -2 -12   13.58    1.79
   2   2  12   13.56    1.80
   2  -2  13   35.54    2.41
   2  -2  13   33.99    2.52
   2  -2  13   32.58    2.64
   2   2  13   36.98    2.50
   2   2  13   38.13    2.75
  -2   2 -13   33.00    2.26
  -2  -2 -13   28.77    2.21
   2  -3 -14   23.91    1.68
  -2   3  14   28.85    1.94
   2  -3 -13    7.23    1.43
  -2   3  13    6.79    1.74
  -2  -3  13    7.39    1.64
   2   3 -13    9.24    1.57
   2  -3 -13    6.21    1.34
  -2   3  13    8.06    1.55
  -2  -3  13    5.91    1.99
   2  -3 -13    5.89    1.11
   2   3 -12   16.29    2.11
   2  -3 -12   13.18    1.63
  -2  -3  12   14.50    2.21
   2   3 -12   14.62    2.15
  -2   3  12   18.48    2.29
  -2   3  12   14.40    2.19
   2  -3 -12   18.65    2.00
  -2  -3  12   12.99    2.49
   2  -3 -12   17.24    1.97
   2   3 -12   17.47    2.21
  -2   3  11   33.25    3.19
  -2  -3  11   29.29    3.22
   2  -3 -11   29.00    2.53
   2   3 -11   31.13    2.96
  -2   3  11   28.33    2.84
   2   3 -11   27.68    2.73
   2  -3 -11   31.61    2.55
   2   3 -11   35.61    3.07
  -2  -3  11   31.77    2.92
   2   3 -10   44.75    3.69
  -2   3  10   52.82    4.13
  -2  -3  10   46.22    3.54
   2   3 -10   45.85    3.67
  -2   3  10   48.39    3.51
  -2  -3  10   41.26    3.83
   2  -3 -10   52.13    3.27
   2  -3 -10   49.71    3.26
   2  -3 -10   49.62    3.21
   2  -3  -9  201.05    8.30
   2  -3  -9  185.59    7.99
   2  -3  -9  186.96    7.97
   2   3  -9  178.96    8.35
  -2  -3   9  176.32    8.55
   2   3  -9  181.90    8.51
   2  -3  -9  185.42    7.87
  -2   3   9  179.65    8.85
  -2  -3   9  190.35    8.16
   2  -3  -8  442.11   15.92
   2   3  -8  427.37   16.24
  -2  -3   8  367.47   19.24
  -2   3   8  415.62   20.08
   2  -3  -8  421.69   15.56
  -2   3   8  414.33   23.97
   2  -3  -8  425.73   15.69
   2   3  -8  426.91   20.49
   2  -3  -8  382.61   18.89
   2  -3  -8  419.82   15.62
  -2  -3   8  337.28   19.53
  -2  -3   8  439.94   15.75
   2   3  -8  409.52   15.55
   2   3  -8  316.19   19.00
  -2   3   8  384.25   15.81
   2  -3  -7  159.64    7.11
  -2  -3   7  178.23    7.09
   2   3  -7  133.46    9.81
  -2   3   7  148.62    7.29
  -2   3   7  156.45   10.19
  -2  -3   7  143.78   10.08
   2   3  -7  166.12   10.64
  -2   3   7  156.70   12.01
   2  -3  -7  155.99    9.71
   2  -3  -7  176.96    7.09
  -2   3   6  514.99   19.26
   2   3  -6  509.36   22.28
  -2   3   6  512.76   19.59
  -2   3   6  527.98   22.03
   2   3  -6  424.70   21.55
   2   3  -6  517.82   19.15
  -2   3   6  504.13   26.05
   2  -3  -6  532.24   21.98
   2  -3  -6  524.16   18.72
  -2   3   6  507.75   24.94
   2   3  -6  506.24   18.98
   2  -3  -6  504.13   18.77
  -2  -3   6  519.18   22.30
  -2  -3   6  475.97   21.17
  -2   3   5   48.27    3.37
   2   3  -5   42.75    2.80
   2   3  -5   35.80    4.28
   2   3  -5   39.89    3.04
   2   3  -5   46.01    3.09
  -2   3   5   48.31    4.49
  -2   3   5   45.88    3.22
   2  -3  -5   49.93    2.85
  -2   3   5   45.70    6.30
  -2   3   5   45.16    6.68
   2   3  -5   41.32    4.68
  -2  -3   5   49.97    4.84
  -2  -3   5   40.63    4.17
   2  -3  -5   51.79    4.64
   2  -3  -5   48.14    3.91
  -2   3   4   71.66    7.45
   2   3  -4   59.94    3.35
  -2   3   4   65.90    3.83
  -2   3   4   63.49    3.80
   2  -3  -4   66.74    5.96
   2   3  -4   51.78    4.79
   2  -3  -4   67.80    3.34
  -2   3   4   61.65    4.62
   2  -3  -4   70.47    4.68
  -2   3   4   63.80    3.71
   2  -3  -4   69.61    5.20
  -2  -3   4   55.18    4.58
  -2  -3   4   61.72    4.97
   2   3  -4   53.66    5.15
  -2   3   4   72.60    5.65
  -2   3   3  214.37   10.22
  -2   3   3  261.74   12.57
  -2   3   3  248.09   12.17
   2  -3  -3  252.02   10.98
   2   3  -3  231.84   11.25
  -2  -3   3  229.25   11.07
   2   3  -3  254.21   11.56
   2   3  -3  242.29   11.36
   2  -3  -3  251.40   12.80
   2  -3  -3  246.20   11.63
  -2  -3   3  241.28   11.51
  -2   3   2   11.16    3.83
   2  -3  -2   11.82    2.91
  -2   3   2   13.87    2.81
  -2   3   2   12.19    3.02
   2  -3  -2   11.32    2.08
   2   3  -2    9.59    2.09
  -2  -3   2    9.86    2.17
   2   3  -2   12.29    2.54
   2   3  -2   11.87    2.38
   2  -3  -2   15.13    2.52
  -2  -3   2   12.12    2.43
  -2   3   1   50.00    6.06
   2   3  -1   58.05    4.81
  -2   3   1   63.34    5.08
   2   3  -1   53.01    4.17
   2   3  -1   56.98    4.61
   2  -3  -1   52.23    5.48
  -2   3   1   52.56    5.47
  -2  -3   1   59.21    4.68
   2  -3  -1   62.09    4.59
  -2  -3   1   56.09    4.69
   2  -3  -1   54.01    4.11
   2   3  -1   55.53    4.29
   2   3   0  101.13    6.64
  -2   3   0  117.49    7.25
  -2   3   0  108.41    5.85
   2   3   0  106.86    6.75
   2   3   0  106.29    6.03
  -2   3   0  108.03    8.00
   2   3   0  103.57    6.00
   2  -3   0  106.71    8.09
  -2   3   0  107.54    8.27
  -2  -3   0  110.34    6.89
   2  -3   0  111.40    6.69
  -2  -3   0  116.66    7.07
   2  -3   0  105.73    6.25
   2   3   1  632.05   25.07
  -2   3  -1  682.73   27.07
  -2  -3  -1  703.16   26.71
   2  -3   1  658.19   28.61
  -2   3  -1  658.43   28.29
   2   3   1  628.25   26.05
  -2  -3  -1  719.84   26.87
   2  -3   1  618.84   25.58
  -2   3  -2  605.25   26.56
  -2   3  -2  616.15   25.13
  -2  -3  -2  620.23   24.69
   2  -3   2  569.78   26.75
   2   3   2  588.20   24.27
  -2  -3  -2  599.47   24.64
   2  -3   2  555.52   23.68
   2   3   3 2108.29   73.67
   2  -3   3 2138.53   73.40
   2   3   3 1972.24   70.07
  -2   3  -3 1992.30   75.94
  -2   3  -3 2197.36   74.78
   2   3   3 2127.90   73.53
   2  -3   3 2076.65   73.48
  -2   3  -3 1946.08   70.10
  -2  -3  -3 2182.54   74.11
   2  -3   3 1968.85   69.50
  -2   3  -3 2021.37   70.17
   2  -3   3 1988.79   76.76
  -2   3  -4  131.00    6.25
   2   3   4  140.23    6.46
   2  -3   4  134.62    5.54
   2   3   4  120.78    8.55
   2   3   4  136.61    8.66
  -2   3  -4  147.91    9.55
   2   3   4  129.45    6.06
   2  -3   4  133.11    8.73
   2  -3   4  130.42    5.62
   2  -3   4  131.82    8.51
  -2  -3  -4  152.98    9.37
   2  -3   4  128.62    5.53
  -2  -3  -4  145.73    9.18
   2   3   4  117.15    5.98
   2  -3   4  122.88   10.67
   2  -3   5  144.42   12.84
  -2   3  -5  161.29   12.51
  -2   3  -5  173.08    7.75
  -2   3  -5  195.48   11.84
   2  -3   5  175.46    7.18
   2   3   5  185.76    7.73
   2  -3   5  168.48    7.02
   2  -3   5  185.86   10.80
  -2  -3  -5  175.79    7.35
  -2  -3  -5  184.55   11.18
   2   3   5  168.08    7.71
   2  -3   5  185.66   10.73
   2   3   5  189.27   11.25
   2  -3   5  172.10    7.19
   2  -3   5  148.19   10.45
   2   3   5  174.32   10.47
   2  -3   6   23.89    5.66
   2  -3   6   30.53    2.49
   2  -3   6   30.69    4.61
   2  -3   6   25.31    2.22
  -2   3  -6   32.80    3.00
  -2   3  -6   25.45    4.58
  -2  -3  -6   28.82    2.43
   2   3   6   29.49    2.96
   2  -3   6   25.34    2.08
  -2   3  -6   30.00    2.87
   2   3   6   31.36    4.45
   2   3   6   27.71    4.56
   2   3   6   26.39    2.58
  -2  -3  -6   27.33    4.50
   2  -3   6   23.32    4.28
   2  -3   6   26.51    4.44
   2  -3   7  378.40   24.84
   2   3   7  448.72   16.54
   2   3   7  456.96   17.51
   2  -3   7  449.60   17.41
   2  -3   7  458.23   16.91
   2   3   7  389.87   16.68
   2   3   7  466.18   17.15
   2  -3   7  432.32   16.93
   2   3   7  458.90   21.00
   2  -3   7  424.10   16.69
  -2   3  -7  463.41   17.53
   2  -3   7  423.66   21.37
   2   3   7  465.48   16.93
  -2  -3  -7  474.61   17.06
  -2   3  -7  459.18   17.40
   2  -3   7  487.16   22.71
   2  -3   8   87.69    5.38
   2  -3   8   84.14    4.83
   2   3   8   88.87    4.87
   2   3   8  103.41    5.63
  -2  -3  -8  101.30    5.02
   2  -3   8   93.54    4.99
   2   3   8   77.13    4.77
  -2   3  -8   98.49    5.34
   2   3   8   94.72    4.63
   2   3   8  102.10    5.01
  -2   3  -8   91.74    5.38
   2   3   9  349.94   14.37
   2  -3   9  344.94   13.90
   2  -3   9  339.10   14.22
  -2  -3  -9  362.13   13.84
   2   3   9  346.86   13.35
  -2   3  -9  357.35   14.09
  -2   3  -9  352.24   14.24
   2   3   9  360.08   13.74
   2   3  10   13.39    2.19
   2   3  10   17.54    2.67
   2  -3  10   14.95    2.39
  -2  -3 -10   17.78    2.11
  -2   3 -10   14.65    2.23
  -2   3 -10   20.23    2.55
  -2   3 -11   60.04    3.63
   2   3  11   61.39    4.13
   2   3  11   60.40    3.99
   2  -3  11   54.49    3.78
   2   3  11   67.35    3.61
  -2   3 -11   56.38    3.73
  -2  -3 -11   59.53    3.52
   2   3  12   49.68    3.38
   2  -3  12   55.17    3.38
  -2   3 -12   44.82    2.93
  -2  -3 -12   47.55    2.86
   2   3  12   57.28    2.97
   2  -3  12   46.74    3.10
   2  -3  13    5.91    1.41
   2   3  13    4.79    1.04
   2  -4 -13   14.37    1.21
  -2  -4  13   18.21    1.79
   2   4 -13   17.13    1.46
   2   4 -12   24.66    2.21
  -2   4  12   25.33    2.45
   2   4 -12   18.47    2.11
   2  -4 -12   26.23    1.88
  -2  -4  12   24.89    2.24
   2  -4 -12   25.30    1.99
   2  -4 -12   22.82    1.78
  -2  -4  12   32.63    2.61
  -2   4  12   27.57    2.25
   2   4 -11    7.61    1.84
   2  -4 -11   11.39    1.61
  -2   4  11    8.34    1.82
  -2   4  11    8.79    2.08
  -2  -4  11    7.35    2.11
   2   4 -11    8.61    1.76
   2  -4 -11    7.92    1.52
   2   4 -11    8.50    1.86
  -2   4  11    7.65    1.69
   2  -4 -11    7.08    1.39
  -2  -4  11    9.43    1.84
  -2   4  10    4.55    1.95
   2   4 -10    3.02    1.88
   2  -4 -10    2.92    1.54
  -2  -4  10    2.41    2.04
   2  -4 -10    2.99    1.46
  -2  -4  10    2.60    1.71
   2   4 -10    4.02    1.95
  -2   4  10    0.62    1.50
   2  -4 -10    3.53    1.36
  -2   4  10    3.48    2.04
  -2   4   9  258.77   11.91
  -2  -4   9  274.04   11.09
   2  -4  -9  268.56   10.69
  -2  -4   9  271.68   11.39
   2   4  -9  266.55   10.84
   2  -4  -9  288.27   11.16
  -2   4   9  266.24   10.96
   2  -4  -9  271.75   10.98
   2  -4  -9  269.87   10.75
   2  -4  -8  248.07   10.10
  -2   4   8  247.78   11.23
  -2   4   8  237.91   10.38
   2   4  -8  251.39   10.77
   2   4  -8  252.13   10.28
   2  -4  -8  272.77   10.50
  -2   4   8  251.59   10.23
   2  -4  -8  241.62    9.77
   2  -4  -8  249.51   10.08
   2   4  -8  241.08   10.66
  -2  -4   8  262.15   10.38
  -2  -4   8  236.49   10.54
  -2   4   7   14.05    1.92
   2   4  -7   15.28    2.60
   2  -4  -7   13.36    2.09
  -2   4   7   13.96    2.58
  -2   4   7   15.90    2.74
  -2  -4   7   12.91    2.14
   2   4  -7   16.33    2.50
   2   4  -7   12.44    2.37
   2  -4  -7   12.82    2.09
  -2   4   7   14.31    2.24
   2  -4  -7   13.35    1.94
  -2   4   6   76.33    4.67
  -2   4   6   75.03    4.89
   2   4  -6   77.71    4.50
  -2  -4   6   64.22    6.60
  -2   4   6   74.79    4.07
   2  -4  -6   76.09    4.27
   2   4  -6   74.02    4.58
   2  -4  -6   78.74    4.18
   2  -4  -6   79.91    4.27
  -2   4   6   75.86    4.90
   2  -4  -6   74.40    4.23
   2  -4  -6   71.55    6.57
   2   4  -6   77.04    4.52
  -2  -4   6   70.73    6.59
   2  -4  -5   81.72    4.45
  -2   4   5   78.84    4.83
   2  -4  -5   79.03    4.39
  -2   4   5   75.71    9.12
   2  -4  -5   81.82    4.31
  -2  -4   5   72.08    6.54
  -2   4   5   79.97    7.33
   2   4  -5   79.68    4.37
  -2   4   5   83.58    4.21
   2   4  -5   78.07    4.49
  -2   4   5   80.42    4.90
   2   4  -5   82.06    4.55
   2  -4  -5   82.57    4.28
   2  -4  -5   79.87    6.82
  -2   4   5   85.41    5.00
  -2  -4   5   80.37    7.13
   2   4  -5   79.02    4.60
  -2   4   4  993.37   43.58
   2   4  -4  982.08   35.21
   2   4  -4  945.87   35.08
   2   4  -4  974.76   35.02
  -2   4   4  993.83   35.67
  -2   4   4 1008.99   35.78
   2  -4  -4 1000.29   38.99
  -2   4   4 1068.31   39.88
   2  -4  -4  996.46   34.93
  -2  -4   4  946.84   38.49
  -2   4   4  966.36   35.63
   2  -4  -4  968.60   34.89
  -2  -4   4 1094.47   39.98
   2  -4  -4  946.69   37.47
   2  -4  -3  283.26   10.93
  -2   4   3  305.81   14.64
   2   4  -3  291.04   11.29
   2  -4  -3  290.32   10.92
   2  -4  -3  290.38   10.94
   2   4  -3  251.45   13.42
   2   4  -3  266.88   10.97
  -2   4   3  268.30   11.50
  -2  -4   3  272.91   14.10
  -2   4   3  264.64   11.37
   2  -4  -3  288.04   14.27
  -2  -4   3  274.88   13.89
   2  -4  -3  270.68   13.28
  -2   4   2    5.75    1.71
  -2   4   2    7.14    2.34
   2  -4  -2    8.27    2.87
   2   4  -2    5.85    2.16
   2  -4  -2    4.96    1.28
  -2   4   2    4.40    1.53
  -2   4   2    4.93    1.71
   2  -4  -2    7.38    1.36
   2  -4  -2    7.04    2.30
  -2  -4   2    8.64    2.45
  -2  -4   2    7.66    2.66
   2  -4  -2    3.47    1.86
  -2   4   1    9.06    3.19
  -2   4   1   12.10    1.69
   2   4  -1   13.92    2.04
  -2  -4   1   11.18    2.83
  -2   4   1   11.61    2.10
   2   4  -1   12.02    2.83
   2   4  -1   12.17    1.91
  -2   4   1   10.06    1.86
   2  -4  -1    8.85    2.97
  -2   4   1   11.10    2.34
   2  -4  -1    8.99    1.44
   2  -4  -1   10.29    2.65
  -2  -4   1   13.41    3.02
   2  -4  -1   10.67    2.48
   2  -4   0   92.93    8.51
   2   4   0  109.85    5.49
  -2   4   0  111.35    5.53
  -2   4   0  111.66    9.25
   2   4   0  114.89    5.46
   2   4   0  108.74    7.74
   2  -4   0  112.42    4.98
   2  -4   0  105.83    4.94
  -2   4   0  102.20    5.23
   2   4   0   94.55    7.47
  -2  -4   0  107.37    7.95
   2  -4   0  111.06    7.76
  -2  -4   0  119.06    8.20
   2  -4   0  104.47    7.23
   2   4   1  457.34   20.48
  -2   4  -1  448.57   22.64
  -2   4  -1  445.40   16.71
   2   4   1  450.57   16.81
   2  -4   1  416.95   22.02
   2  -4   1  430.52   16.31
  -2   4  -1  455.55   16.88
   2  -4   1  442.93   16.34
   2   4   1  427.65   17.10
  -2  -4  -1  458.89   20.78
  -2   4  -1  428.73   16.89
  -2  -4  -1  472.70   20.75
   2   4   1  443.14   20.04
   2  -4   1  449.72   19.67
   2   4   2   42.78    3.03
  -2   4  -2   44.11    6.31
   2  -4   2   38.31    6.20
  -2   4  -2   43.03    3.35
   2   4   2   44.80    5.24
  -2   4  -2   43.98    3.13
   2  -4   2   44.31    5.28
   2   4   2   48.02    3.37
   2  -4   2   46.70    2.78
   2  -4   2   46.26    2.79
   2   4   2   46.37    3.53
   2   4   2   42.46    5.14
  -2  -4  -2   49.31    5.67
   2  -4   2   38.83    4.84
  -2   4  -2   44.43    3.32
   2  -4   2   42.11    4.81
   2   4   3  187.98    8.52
   2   4   3  171.87   11.19
   2  -4   3  184.77   11.28
   2   4   3  192.20    8.33
   2   4   3  175.05    7.76
   2  -4   3  169.52   11.00
  -2   4  -3  163.68   13.03
   2  -4   3  169.88   13.63
   2  -4   3  178.51    7.31
  -2   4  -3  188.10    8.22
   2  -4   3  176.08    7.50
   2  -4   3  177.67    7.49
  -2  -4  -3  193.63   11.81
  -2  -4  -3  187.74    7.64
  -2   4  -3  187.39    8.26
  -2  -4  -3  185.65   11.81
  -2   4  -3  176.73    7.82
   2  -4   3  183.82   10.97
   2   4   4  376.92   14.90
  -2   4  -4  375.96   14.56
  -2   4  -4  303.63   20.20
   2  -4   4  359.10   13.57
  -2   4  -4  375.46   19.47
   2  -4   4  323.49   21.36
   2   4   4  383.67   14.58
  -2  -4  -4  383.62   14.00
  -2   4  -4  366.89   14.50
   2  -4   4  358.15   18.20
   2   4   4  363.64   18.46
   2  -4   4  360.10   18.10
   2   4   4  338.91   13.52
   2  -4   4  350.10   13.67
   2   4   4  358.99   13.74
   2   4   4  348.93   13.83
   2  -4   4  362.90   13.65
  -2  -4  -4  390.05   19.23
  -2  -4  -4  385.01   18.87
   2   4   4  378.03   18.59
   2  -4   5   51.30    3.93
   2  -4   5   53.35    3.20
   2  -4   5   52.99    3.28
   2   4   5   56.14    3.39
   2  -4   5   51.68    3.27
   2   4   5   61.23    3.99
  -2   4  -5   55.62    4.10
   2   4   5   55.30    3.32
   2  -4   5   46.93    3.78
  -2   4  -5   61.11    4.16
   2   4   5   64.11    3.73
   2  -4   5   57.54    6.34
   2   4   5   57.53    4.26
   2   4   6   71.64    4.07
   2  -4   6   73.85    4.71
   2  -4   6   78.29    4.77
   2  -4   6   76.99    4.18
   2   4   6   70.96    4.04
   2   4   6   82.26    4.76
   2   4   6   79.37    4.46
   2   4   6   90.49    5.37
  -2   4  -6   78.29    4.94
   2  -4   7  172.79    7.74
   2  -4   7  180.32    8.27
   2   4   7  178.33    8.76
   2   4   7  182.33    8.15
  -2  -4  -7  175.73    7.70
   2   4   7  182.59    7.61
  -2   4  -7  179.95    8.33
   2   4   7  183.75    7.95
   2  -4   7  174.72    8.05
   2  -4   8   22.80    2.64
  -2  -4  -8   25.19    2.37
  -2   4  -8   27.52    2.92
   2  -4   8   23.73    2.53
   2   4   8   27.59    2.59
  -2   4  -8   28.20    3.03
   2   4   8   26.22    2.39
   2  -4   8   23.18    2.96
   2   4   8   25.51    3.08
   2  -4   9   61.66    3.79
   2  -4   9   57.36    3.62
   2   4   9   62.70    3.47
  -2  -4  -9   65.61    3.70
   2  -4   9   65.03    4.19
  -2  -4  -9   52.71    3.55
   2   4   9   62.34    4.31
  -2   4  -9   67.88    4.24
  -2   4  -9   63.02    4.01
   2  -4  10   48.22    3.38
  -2  -4 -10   59.47    3.27
   2  -4  10   57.15    3.74
   2   4  10   65.80    3.52
   2   4  10   54.94    3.82
  -2   4 -10   55.03    3.60
  -2  -4 -10   52.11    3.16
  -2   4 -10   57.34    3.58
   2   4  10   56.72    3.05
  -2   4 -11   19.49    1.94
  -2  -4 -11   17.02    1.52
  -2   4 -11   14.40    1.72
   2  -4  11   19.29    2.13
   2   4  11   14.14    1.90
  -2  -4 -11   14.59    1.54
   2  -4  11   17.72    1.80
   2   4  11   19.99    1.88
   2   4  12   60.07    2.76
   2  -4  12   54.64    2.96
  -2  -5  11   64.59    3.29
   2   5 -11   70.49    3.18
  -2   5  11   64.04    3.19
   2   5 -11   72.77    3.12
  -2   5  11   76.65    3.19
   2  -5 -11   65.13    2.96
   2   5 -10   46.72    3.19
  -2   5  10   57.46    3.06
   2   5 -10   50.70    2.97
  -2   5  10   55.01    3.53
  -2   5  10   53.78    3.33
  -2  -5  10   52.98    3.33
   2  -5 -10   51.92    2.94
   2   5 -10   53.92    3.29
  -2  -5  10   58.13    3.30
  -2   5  10   58.24    2.98
   2  -5 -10   58.18    2.81
   2   5 -10   57.29    3.06
  -2  -5   9   86.22    4.38
  -2   5   9   84.38    4.79
  -2   5   9   86.21    4.16
   2   5  -9   78.36    4.46
   2   5  -9   78.50    4.09
   2   5  -9   90.12    4.31
   2   5  -9   81.57    4.18
   2   5  -9   72.73    4.32
  -2   5   9   81.31    4.02
   2  -5  -9   85.19    3.97
   2  -5  -9   83.47    4.20
   2   5  -8  243.30    9.65
  -2   5   8  239.54   10.18
   2   5  -8  220.95    9.74
  -2   5   8  232.33    9.53
   2   5  -8  231.10    9.84
   2   5  -8  233.71    9.44
   2  -5  -8  223.73    9.05
  -2  -5   8  247.82    9.71
   2  -5  -8  230.85    9.50
   2   5  -8  239.57    9.44
   2  -5  -8  238.91    9.55
  -2   5   8  242.58    9.47
  -2   5   8  234.13    9.30
  -2   5   8  238.93   10.34
   2  -5  -8  234.12    9.32
   2   5  -7   38.86    2.93
  -2   5   7   37.72    3.38
   2  -5  -7   38.64    2.81
   2   5  -7   36.67    3.12
   2   5  -7   33.62    3.04
  -2   5   7   39.40    3.38
   2  -5  -7   40.48    2.87
   2  -5  -7   36.94    2.78
  -2   5   7   40.16    2.76
   2   5  -7   35.66    3.12
   2  -5  -7   35.86    2.51
   2   5  -7   43.17    3.09
  -2   5   7   34.14    2.64
  -2   5   7   36.39    2.97
   2  -5  -7   33.69    2.59
  -2   5   6   20.58    2.54
   2  -5  -6   20.45    2.36
  -2   5   6   20.65    2.80
   2   5  -6   20.09    2.74
  -2   5   6   22.51    2.79
   2   5  -6   19.57    2.45
   2   5  -6   18.20    2.51
  -2   5   6   21.35    2.17
   2  -5  -6   22.71    2.12
   2  -5  -6   23.36    2.30
   2   5  -6   17.01    2.40
   2  -5  -6   21.16    2.17
   2   5  -6   18.89    2.31
   2  -5  -6   20.77    2.18
   2  -5  -5   58.21    3.50
  -2   5   5   55.99    4.01
   2  -5  -5   61.52    3.69
  -2   5   5   54.16    4.03
   2   5  -5   52.22    3.81
   2  -5  -5   59.83    3.42
   2   5  -5   48.71    3.56
  -2   5   5   53.08    3.94
   2   5  -5   57.67    3.72
   2  -5  -5   57.18    3.49
   2   5  -5   52.44    3.48
   2   5  -5   47.53    3.63
   2  -5  -5   50.96    3.45
  -2   5   5   58.63    3.37
   2  -5  -4  135.42    6.73
  -2   5   4  161.31    7.56
  -2   5   4  140.30    7.26
   2   5  -4  148.24    7.02
  -2   5   4  152.59    6.53
   2  -5  -4  151.30    6.61
   2  -5  -4  149.52    6.61
  -2   5   4  150.97    7.31
   2  -5  -4  146.91    6.68
   2   5  -4  146.17    6.61
   2  -5  -4  145.91    6.87
   2   5  -4  148.29    6.87
  -2   5   3  438.69   16.98
   2   5  -3  440.86   16.96
   2   5  -3  428.45   16.56
   2  -5  -3  443.27   16.48
  -2   5   3  440.87   16.25
   2  -5  -3  450.88   16.52
   2   5  -3  422.38   16.27
  -2   5   3  429.14   17.21
   2  -5  -3  419.56   16.77
  -2   5   2  750.76   26.42
  -2   5   2  692.90   25.74
  -2  -5   2  691.79   25.14
   2   5  -2  685.67   25.16
   2  -5  -2  714.46   25.40
  -2   5   2  685.08   25.02
   2   5  -2  695.63   25.46
   2  -5  -2  696.02   25.85
  -2   5   2  693.68   25.10
   2   5  -1  255.77   10.33
   2  -5  -1  241.73    9.72
  -2   5   1  257.97   10.63
  -2  -5   1  234.39    9.64
   2   5  -1  230.84    9.75
   2  -5  -1  247.73    9.80
  -2   5   1  240.12    9.51
  -2   5   1  231.31    9.88
   2  -5  -1  246.36   10.38
  -2   5   1  229.80    9.43
   2   5  -1  227.39    9.48
   2  -5   0    7.33    1.70
  -2   5   0   14.79    2.45
   2   5   0    2.36    1.64
   2  -5   0    4.18    1.49
   2   5   0    0.64    1.42
   2   5   0    0.61    1.52
   2  -5   0   21.44    2.70
   2  -5   0   23.84    3.06
   2   5   1   38.15    3.29
   2   5   1   34.18    3.04
   2  -5   1   35.28    3.18
  -2   5  -1   36.15    3.13
   2  -5   1   34.61    2.60
   2  -5   1   35.90    2.60
   2   5   1   33.30    2.56
   2  -5   1   36.30    3.38
   2   5   2   72.09    3.95
   2  -5   2   77.59    4.10
  -2   5  -2   81.03    4.56
   2  -5   2   75.62    4.66
   2   5   2   85.13    4.52
   2  -5   2   77.48    4.97
  -2   5  -2   76.33    4.55
   2  -5   2   77.99    4.11
   2  -5   3   75.69    4.86
   2   5   3   87.20    5.03
   2  -5   3   75.43    3.92
  -2   5  -3   75.35    4.35
   2   5   3   80.95    4.44
   2  -5   3   83.67    4.14
   2  -5   3   79.70    4.16
   2   5   3   74.51    4.01
   2   5   3   76.95    4.16
  -2   5  -3   78.01    4.74
  -2   5  -3   68.57    4.50
   2   5   3   86.09    5.18
   2  -5   3   78.93    5.09
   2   5   4   74.09    4.16
   2  -5   4   72.85    4.73
   2   5   4   84.21    5.12
   2  -5   4   72.05    3.89
  -2   5  -4   68.45    4.62
  -2   5  -4   73.96    4.62
  -2   5  -4   70.00    4.06
   2   5   4   83.49    4.83
   2  -5   4   77.03    3.98
   2   5   4   74.88    3.91
   2   5   4   79.78    4.19
   2   5   4   78.18    4.09
  -2  -5  -5  253.24   10.03
   2  -5   5  240.62    9.67
   2   5   5  278.57   10.82
   2  -5   5  226.25    9.63
   2   5   5  257.60   11.06
  -2   5  -5  253.89   10.62
   2   5   5  239.62    9.85
  -2   5  -5  241.28   10.47
   2   5   5  241.92    9.61
   2   5   5  253.64   10.01
   2   5   6  115.08    6.32
  -2   5  -6  118.64    5.98
   2   5   6  114.36    5.37
   2  -5   6  116.79    5.93
   2  -5   6  103.67    5.27
  -2   5  -6  122.06    6.04
   2   5   6  126.75    6.05
   2   5   6  115.60    5.53
  -2  -5  -6  118.47    5.51
   2  -5   7   15.43    2.17
   2   5   7   13.61    2.34
   2   5   7   12.36    1.84
  -2   5  -7   15.26    2.32
   2   5   7   18.10    2.12
  -2   5  -7   16.50    2.25
  -2  -5  -7   14.32    1.85
   2   5   7   13.83    2.12
   2  -5   7   14.94    2.23
   2  -5   7    9.99    1.70
  -2  -5  -8    2.57    1.20
   2   5   8    4.85    1.69
   2  -5   8    3.08    1.31
   2   5   8    3.22    1.37
   2   5   8    3.65    1.25
   2  -5   8    3.04    1.66
   2   5   8    3.64    1.67
  -2   5  -8    0.53    1.58
   2  -5   8    3.54    1.61
   2  -5   9   15.14    1.61
   2   5   9   13.96    1.89
   2   5   9   16.70    1.82
  -2   5  -9   14.49    1.78
   2   5   9   15.88    1.54
   2  -5   9   13.86    1.78
  -2  -5  -9   12.99    1.45
   2  -5   9   11.86    1.86
   2  -5  10   21.41    1.70
   2   5  10   22.47    1.71
   2   6  -9   82.70    3.36
   2   6  -9   84.58    3.37
  -2  -6   9   78.75    3.77
  -2  -6   8   87.32    4.16
   2   6  -8   80.11    3.40
   2   6  -8   82.47    3.66
   2  -6  -8   85.03    3.51
  -2  -6   8   84.42    4.15
  -2  -6   7   75.45    4.13
   2  -6  -7   75.68    3.59
  -2  -6   7   74.21    3.80
   2  -6  -7   82.56    3.51
   2  -6  -7   74.76    3.39
  -2   6   7   74.78    3.34
   2   6  -7   80.43    3.65
   2   6  -7   68.87    3.34
  -2  -6   7   71.48    4.04
  -2   6   7   79.63    4.00
  -2  -6   6   77.34    3.54
   2   6  -6   81.91    2.94
  -2  -6   6   91.99    3.24
   2  -6  -6   79.74    2.69
   2   6  -6   73.48    2.50
   2  -6  -6   88.18    2.96
   2  -6  -6   74.08    2.45
  -2   6   6   82.76    3.37
  -2  -6   6   70.64    3.30
  -2   6   6   81.27    3.17
   2  -6  -6   84.84    2.85
   2   6  -5   29.28    2.25
   2  -6  -5   27.56    2.07
  -2  -6   5   29.55    2.75
  -2   6   5   32.26    2.55
  -2  -6   5   25.74    2.27
   2  -6  -5   26.32    2.19
   2  -6  -5   23.82    2.05
   2   6  -5   23.29    1.93
  -2   6   5   28.33    2.45
   2  -6  -5   24.61    1.97
  -2  -6   5   24.27    2.39
  -2   6   4    6.77    1.69
  -2  -6   4    3.83    1.85
   2  -6  -4    3.94    1.60
  -2  -6   4    3.21    1.54
   2   6  -4    2.85    1.27
  -2   6   4    4.15    1.47
   2  -6  -4    5.87    1.35
   2  -6  -4    2.81    1.22
   2   6  -4    4.53    1.44
   2   6  -4    4.05    1.55
   2  -6  -4    3.44    1.25
  -2  -6   4    3.21    1.53
   2  -6  -3  104.86    5.13
   2   6  -3  115.56    5.13
  -2  -6   3   97.39    5.22
  -2   6   3  106.87    4.63
   2   6  -3  101.79    4.70
   2  -6  -3  116.60    5.05
  -2   6   3  109.82    5.25
   2  -6  -3  102.37    5.05
   2  -6  -2   63.25    3.79
   2   6  -2   67.69    3.44
  -2   6   2   58.25    3.59
   2   6  -2   74.11    3.81
   2  -6  -2   67.89    3.57
   2  -6  -2   64.99    3.53
  -2   6   2   63.71    3.25
  -2   6   2   61.83    4.00
   2  -6  -2   58.65    3.73
  -2   6   1  154.38    7.27
   2  -6  -1  156.53    6.69
  -2  -6   1  161.31    6.68
  -2   6   1  147.60    6.42
   2  -6  -1  149.06    6.69
   2  -6  -1  146.47    7.03
   2  -6   0  294.97   11.42
   2   6   0  310.18   11.96
  -2   6   0  313.18   12.07
  -2   6   0  293.87   11.25
   2  -6   0  289.31   11.37
  -2  -6   0  286.67   11.44
   2  -6   0  289.96   11.44
   2  -6   0  301.08   11.98
   2   6   1   95.29    4.66
  -2   6  -1  102.76    4.61
   2  -6   1   96.55    4.89
   2   6   1   89.20    4.93
  -2   6  -1   99.90    5.06
  -2  -6  -1   95.63    4.75
   2  -6   1   99.62    4.68
   2  -6   1  106.33    5.40
   2  -6   2   40.57    3.09
  -2   6  -2   42.82    2.93
   2  -6   2   40.87    2.67
  -2  -6  -2   42.55    2.90
   2   6   2   46.80    2.89
   2   6   2   48.00    3.08
   2   6   2   46.19    2.82
  -2   6  -2   43.27    2.71
   2  -6   2   41.70    3.31
  -2  -6  -3  213.47    8.99
   2  -6   3  226.02    8.76
   2  -6   3  228.37    9.27
   2   6   3  229.42    8.87
  -2   6  -3  213.87    8.85
   2  -6   3  216.13    9.56
   2   6   3  229.45    8.95
  -2  -6  -4    3.03    1.26
   2  -6   4    2.25    1.67
   2  -6   4    3.87    1.10
   2  -6   4    1.58    1.70
  -2  -6  -5    1.67    1.11
   2   6   5    2.50    1.33
  -2   6  -5    0.75    1.25
   2  -6   5    1.74    1.47
   2  -6   6   10.24    1.69
   2   6   6   11.79    1.48
   2   6   7    6.53    1.14
   2  -6   7    5.19    1.39
   2   6   8   65.20    2.67
   2  -6   8   63.74    2.78
   2  -6   8   58.49    2.93
  -2   7   4   22.24    1.39
   2  -7  -4   23.79    1.36
   2  -7  -3   14.19    1.25
   2  -7  -2   48.27    2.29
   2  -7  -2   40.10    2.07
   2  -7  -1   13.64    1.42
   2  -7  -1   13.55    1.28
   2  -7   0   38.05    1.78
   2  -7   0   37.76    1.68
   2   7   1   15.31    1.20
   2  -7   1   13.93    1.36
   2  -7   1   16.44    1.50
   2  -7   2   52.06    2.57
   2  -7   2   46.01    2.50
   2   7   2   52.58    2.35
   2   7   3   16.00    1.16
   2  -7   3   14.32    1.31
  -3   0  16   59.92    2.87
   3   0 -15    2.75    1.32
  -3   0  15    3.70    1.55
   3   0 -15    4.61    1.42
   3   0 -14    8.49    1.80
  -3   0  14   14.13    2.28
   3   0 -14   14.13    2.07
   3   0 -13   29.46    2.92
   3   0 -13   30.36    2.64
  -3   0  13   28.90    2.93
  -3   0  13   28.71    2.69
  -3   0  13   29.46    3.01
   3   0 -12  274.23   11.29
  -3   0  12  297.15   11.70
  -3   0  12  278.53   12.19
   3   0 -12  288.30   11.88
   3   0 -11  569.91   21.08
   3   0 -11  533.83   20.79
  -3   0  11  572.16   20.77
   3   0 -11  529.92   20.42
  -3   0  11  576.29   21.64
   3   0 -10   78.09    7.98
   3   0 -10   73.46    4.42
   3   0 -10   80.10    4.66
  -3   0  10   88.47    5.23
  -3   0  10   79.85    8.90
  -3   0  10   83.38    4.62
   3   0  -9   46.03    6.21
  -3   0   9   51.59    6.23
   3   0  -9   63.28    6.62
  -3   0   9   59.78    7.36
  -3   0   9   63.94    4.30
   3   0  -9   61.96    3.77
  -3   0   8   31.56    4.88
   3   0  -8   36.15    5.39
   3   0  -8   45.52    5.27
  -3   0   8   47.79    6.26
  -3   0   8   45.65    3.49
   3   0  -8   41.28    2.92
  -3   0   7  126.50    8.67
   3   0  -7  117.84    8.41
   3   0  -7  109.12    7.84
  -3   0   6    3.63    2.55
   3   0  -6    0.23    1.98
  -3   0   5  311.09   13.74
   3   0  -5  269.09   11.86
  -3   0   5  286.23   13.57
   3   0  -5  261.90   12.76
   3   0  -4   46.59    3.98
   3   0  -4   46.18    3.53
  -3   0   4   50.72    4.55
  -3   0   3  226.28   10.78
  -3   0   3  215.46   10.31
   3   0  -3  237.53   10.65
   3   0  -3  236.11    9.74
  -3   0   2 1378.77   52.71
   3   0  -2 1431.35   51.69
  -3   0   2 1393.13   52.24
   3   0  -2 1529.68   52.20
  -3   0   1 1125.67   33.44
  -3   0   1 1100.03   33.70
  -3   0   1  806.83   31.17
   3   0  -1  924.74   33.49
  -3   0   1  989.36   32.33
   3   0  -1 1014.79   32.73
   3   0  -1  759.69   32.08
  -3   0   0  190.19    8.68
   3   0   0  198.28    7.40
  -3   0   0  181.77    8.00
   3   0   0  178.63    8.22
   3   0   0  206.59    8.35
  -3   0   0  191.40    7.38
   3   0   0  201.71    7.75
  -3   0  -1   27.99    2.43
  -3   0  -1   33.54    3.17
   3   0   1   33.92    2.52
   3   0   1   34.21    3.18
   3   0   1   33.74    3.84
   3   0   1   34.07    2.53
  -3   0  -1   33.98    1.87
   3   0   2  245.94    9.51
   3   0   2  225.98    9.98
  -3   0  -2  253.07   10.36
  -3   0  -2  225.13    9.87
   3   0   2  228.29    9.02
   3   0   2  247.83    8.86
   3   0   2  232.65   11.06
   3   0   3 1601.14   57.66
  -3   0  -3 1668.29   59.13
  -3   0  -3 1556.71   58.49
   3   0   3 1687.37   58.48
   3   0   3 1670.03   57.12
   3   0   4  389.84   15.75
  -3   0  -4  402.54   17.21
  -3   0  -4  378.78   16.34
   3   0   4  394.16   16.64
  -3   0  -5 1407.94   53.41
   3   0   5 1454.55   53.22
   3   0   5 1431.25   51.80
   3   0   6   10.87    2.49
   3   0   6   11.87    1.85
   3   0   6   10.93    3.35
   3   0   6   11.66    1.58
  -3   0  -6   13.05    3.46
   3   0   6   10.32    1.69
  -3   0  -7  193.93   12.04
   3   0   7  179.68    7.88
   3   0   7  192.73   10.44
   3   0   7  174.60   11.88
   3   0   7  200.10    8.25
   3   0   7  195.09    8.25
  -3   0  -8   12.43    3.80
  -3   0  -8    9.61    1.90
   3   0   8    8.01    2.02
   3   0   8    8.48    2.00
   3   0   8    8.73    1.67
   3   0   8    7.14    3.97
   3   0   9   45.87    3.70
  -3   0  -9   50.67    3.53
   3   0   9   47.46    3.54
   3   0   9   49.44    3.74
   3   0  10  120.43    6.11
   3   0  10  111.70    6.29
   3   0  10  129.39    6.43
  -3   0 -10  121.75    6.11
   3   0  11    1.09    2.06
  -3   0 -11    1.56    1.71
   3   0  11    0.12    2.02
   3   0  12  292.96   11.64
   3   0  12  292.64   11.82
  -3   0 -12  286.65   11.65
  -3   0 -13   42.39    2.66
  -3   0 -13   46.72    3.01
   3   0  13   50.57    3.14
   3   0  14    0.47    1.20
  -3   1  16   21.84    1.46
   3  -1 -16   19.40    1.39
   3  -1 -15   29.22    2.09
  -3   1  15   28.52    2.20
  -3  -1  15   25.04    2.00
  -3  -1  15   32.77    2.27
   3  -1 -15   25.29    2.15
   3   1 -15   25.44    2.19
  -3   1  14   27.54    2.60
   3  -1 -14   28.92    2.60
  -3  -1  14   30.20    2.63
   3   1 -14   24.10    2.44
   3  -1 -14   28.29    2.38
  -3  -1  14   25.53    2.53
  -3   1  14   24.89    2.40
   3   1 -14   28.16    2.59
   3  -1 -13  274.03   10.69
  -3  -1  13  263.75   10.39
   3  -1 -13  223.37    9.77
  -3  -1  13  249.18   10.57
  -3   1  13  244.94   10.76
   3   1 -13  256.53   10.28
   3  -1 -13  276.58   10.21
  -3  -1  13  227.82   10.48
   3   1 -13  251.97   10.55
  -3   1  13  274.39   10.48
  -3  -1  12   -0.28    1.90
  -3  -1  12    0.13    1.79
   3  -1 -12    2.18    1.62
  -3   1  12   -0.56    1.85
  -3  -1  12    0.19    1.64
  -3   1  12    0.48    1.51
   3  -1 -12    0.39    1.21
  -3   1  12   -0.48    2.00
   3  -1 -12    1.68    1.84
   3   1 -12    0.23    1.85
   3  -1 -12    2.01    1.51
  -3  -1  11  101.64    5.51
  -3   1  11  113.55    5.67
  -3  -1  11  105.28    6.12
  -3   1  11  119.62    6.55
   3  -1 -11  112.19    5.84
   3  -1 -11  104.35    5.32
  -3   1  11  120.96    5.85
   3  -1 -11  115.81    5.74
  -3  -1  11  111.91    5.69
   3   1 -11  126.63    6.06
   3  -1 -11  117.02    5.43
   3  -1 -10   98.04    5.27
  -3  -1  10  102.51    5.76
   3   1 -10   85.67    7.96
   3  -1 -10   92.85    4.79
  -3  -1  10   94.21    4.99
  -3   1  10  101.98    5.13
   3  -1 -10   98.58    8.93
   3   1 -10  104.62    9.20
   3   1 -10  106.56    5.16
  -3   1  10   98.27    5.22
  -3   1  10  104.88    6.01
   3  -1 -10  100.55    4.88
   3   1 -10  106.90    5.25
  -3  -1  10   91.36    9.21
   3   1 -10  107.24    5.42
  -3  -1  10   98.44    5.18
  -3   1  10   88.69    9.86
   3  -1 -10  102.15    5.10
  -3   1   9   85.92    5.17
  -3  -1   9   88.04    8.10
  -3  -1   9  106.46    5.03
  -3   1   9   91.86    8.43
  -3   1   9   95.09    8.37
  -3   1   9  119.65    6.16
   3   1  -9  115.17    5.27
   3   1  -9   92.94    8.43
   3  -1  -9  106.70    4.93
   3  -1  -9  103.93    8.65
   3   1  -9  116.22    5.30
   3  -1  -9  107.00    5.32
   3   1  -9  109.54    5.36
  -3  -1   9   75.06    8.47
  -3   1   9   97.33    9.82
  -3   1   8   22.43    2.40
  -3  -1   8   28.43    4.41
  -3   1   8   22.84    4.41
   3   1  -8   29.63    2.46
  -3  -1   8   28.40    2.19
   3   1  -8   31.10    2.46
  -3   1   8   26.67    2.96
   3   1  -8   28.83    4.42
   3  -1  -8   28.66    2.19
   3  -1  -8   29.22    2.46
   3   1  -8   26.54    2.42
   3  -1  -8   30.16    4.59
  -3  -1   8   29.27    4.99
  -3   1   8   35.53    5.96
  -3  -1   7   54.62    5.72
  -3   1   7   51.52    5.95
   3  -1  -7   68.70    5.89
   3   1  -7   55.49    5.54
  -3  -1   7   65.95    6.18
  -3  -1   6  770.50   29.40
  -3   1   6  740.77   30.15
   3  -1  -6  706.90   28.84
   3   1  -6  715.99   28.93
   3  -1  -6  703.63   27.04
  -3   1   6  748.38   30.80
  -3  -1   5   31.63    3.73
  -3   1   5   34.10    4.50
  -3   1   5   38.20    4.16
   3  -1  -5   32.50    3.60
   3  -1  -5   30.37    2.75
  -3   1   5   32.78    4.81
   3  -1  -5   22.64    2.14
   3   1  -5   33.07    3.77
   3   1  -4  202.51    9.81
  -3   1   4  226.85   10.54
   3  -1  -4  204.80    9.77
  -3  -1   4  217.47    9.90
  -3   1   4  216.19   10.97
   3  -1  -4  200.43    8.01
   3  -1  -4  210.97    8.50
  -3  -1   4  179.48    7.81
  -3   1   3  255.08   11.77
  -3   1   3  271.90   11.86
  -3   1   3  279.87   10.74
   3  -1  -3  253.19   11.17
  -3  -1   3  225.25    9.40
  -3   1   3  277.07   12.41
   3   1  -3  266.55   10.93
   3  -1  -3  266.99    9.82
  -3  -1   3  256.14   10.92
   3   1  -3  250.52   11.16
   3  -1  -3  247.59    9.48
   3  -1  -3  231.16    8.65
   3  -1  -2  776.81   28.30
  -3   1   2  803.31   27.51
   3  -1  -2  876.32   26.99
   3   1  -2  755.36   28.24
  -3   1   2  840.99   29.34
  -3  -1   2  779.93   27.68
  -3   1   2  825.62   28.54
   3   1  -2  796.54   27.85
   3  -1  -2  813.06   26.73
  -3  -1   2  684.76   26.69
   3  -1  -2  805.52   26.36
  -3   1   1  725.84   22.36
   3   1  -1  539.57   20.60
  -3   1   1  521.82   21.51
   3  -1  -1  522.88   21.54
   3   1  -1  496.96   20.49
   3   1  -1  485.62   20.98
   3  -1  -1  654.58   19.95
   3   1  -1  488.77   20.34
  -3   1   1  696.01   21.17
   3  -1  -1  522.96   21.28
   3  -1  -1  592.74   19.95
  -3  -1   1  433.74   19.31
  -3   1   1  531.84   20.20
   3   1   0  182.70    8.73
  -3  -1   0  175.31    8.43
  -3   1   0  191.13    8.53
   3  -1   0  196.27    9.83
   3  -1   0  211.76    8.52
   3   1   0  174.63    9.35
   3   1   0  174.87    8.64
  -3   1   0  217.59   10.08
   3   1   0  175.68    8.52
   3  -1   0  209.17   10.13
  -3   1   0  213.97    8.43
   3  -1   0  194.54    8.37
   3   1   1  509.49   20.29
  -3   1  -1  554.21   20.83
   3   1   1  482.35   21.16
  -3  -1  -1  452.88   19.65
  -3   1  -1  584.21   21.92
   3   1   1  531.51   20.21
  -3  -1  -1  479.78   20.31
   3  -1   1  550.12   21.86
   3  -1   1  537.05   20.32
  -3   1  -1  680.65   21.14
  -3   1  -1  530.17   20.31
   3  -1   1  564.46   22.10
   3  -1   1  566.70   20.59
   3  -1   2  316.13   14.17
  -3   1  -2  306.91   12.04
  -3   1  -2  337.68   13.01
  -3  -1  -2  312.93   12.82
   3   1   2  322.35   12.27
  -3  -1  -2  254.90   11.18
  -3   1  -2  310.26   13.69
   3   1   2  304.88   12.45
   3  -1   2  331.53   12.58
   3   1   2  241.81   10.68
   3  -1   2  318.52   12.80
   3  -1   2  318.03   13.02
  -3   1  -3  615.19   23.48
  -3   1  -3  564.97   24.00
   3   1   3  588.23   22.87
   3   1   3  603.49   22.39
  -3  -1  -3  597.86   23.41
   3  -1   3  642.98   23.15
   3  -1   3  579.75   23.71
   3   1   4   22.38    2.59
  -3   1  -4   23.97    3.43
  -3   1  -4   15.04    3.22
  -3  -1  -4   24.17    3.42
   3   1   4   21.50    3.09
   3  -1   4   24.89    3.36
  -3   1  -5  308.20   15.49
   3  -1   5  331.58   15.02
   3   1   5  324.71   14.59
  -3  -1  -5  317.70   15.18
  -3   1  -5  303.28   15.03
   3   1   5  308.96   13.37
   3  -1   6  100.70    4.60
  -3   1  -6   83.76    7.23
  -3  -1  -6   91.89    7.38
  -3   1  -6   82.95    7.32
   3   1   6   90.21    6.77
  -3   1  -6   88.88    4.55
   3  -1   6   81.87    6.98
   3  -1   6   87.94    4.24
   3   1   6   97.34    4.79
   3  -1   6   93.15    4.51
   3  -1   6   84.79    4.46
   3  -1   7   84.66    4.33
  -3   1  -7   84.53    7.77
  -3  -1  -7   80.62    7.56
   3  -1   7   89.84    7.82
   3  -1   7   91.55    4.72
  -3   1  -7   85.97    4.63
   3   1   7   97.15    5.02
  -3   1  -7  100.49    4.70
   3  -1   7   81.86    4.60
  -3  -1  -7   88.99    4.58
   3   1   7   91.11    7.20
   3  -1   7   95.92    4.78
   3  -1   8  145.90   11.12
   3   1   8  143.26   10.06
  -3   1  -8  143.33   11.07
  -3  -1  -8  139.10   10.88
   3  -1   8  156.25    7.13
   3   1   8  143.95    7.35
   3   1   8  165.89    7.45
   3  -1   8  153.27    6.69
   3  -1   8  154.11    7.16
  -3   1  -8  161.84    7.06
  -3  -1  -8  156.19    7.02
   3  -1   9  297.80   12.22
   3   1   9  289.77   12.22
   3  -1   9  315.78   12.44
   3  -1   9  291.74   12.39
   3  -1   9  316.64   12.56
  -3  -1  -9  309.86   12.30
  -3   1  -9  317.72   12.35
   3  -1  10  281.20   11.18
   3  -1  10  249.63   11.19
   3  -1  10  269.40   11.30
   3  -1  10  264.00   11.03
   3   1  10  267.96   11.10
  -3   1 -10  277.71   11.14
  -3  -1 -10  268.70   11.09
   3   1  11  130.90    6.19
  -3   1 -11  127.55    6.06
   3  -1  11  125.07    6.09
   3  -1  11  110.04    6.10
   3  -1  11  124.77    6.26
   3  -1  11  116.58    5.92
  -3  -1 -11  128.88    6.10
   3  -1  12   12.00    2.16
   3   1  12   12.29    2.23
  -3  -1 -12   12.41    1.94
   3  -1  12   12.46    1.77
  -3   1 -12   13.23    1.95
   3  -1  12   12.20    2.15
   3  -1  13    9.13    1.76
   3   1  13    9.25    1.74
   3   1  13    7.78    1.69
  -3  -1 -13    8.28    1.32
  -3   1 -13    4.86    1.06
  -3   1 -13    9.14    1.49
   3  -1  13    7.92    1.65
  -3  -1 -13    8.81    1.46
   3  -1  14   13.97    1.46
   3   1  14   16.08    1.54
   3  -2 -15   20.03    1.45
  -3  -2  15   17.99    1.65
  -3   2  15   17.12    1.29
   3  -2 -14    8.68    1.51
  -3  -2  14    9.24    1.66
  -3   2  14   10.14    1.64
   3  -2 -14    7.37    1.21
  -3  -2  14    9.61    1.91
   3   2 -14    7.55    1.52
   3  -2 -14    8.31    1.54
  -3   2  14    8.81    1.54
  -3   2  13   13.31    2.15
  -3   2  13   10.98    2.02
   3  -2 -13   12.71    1.82
  -3  -2  13    7.61    1.92
  -3   2  13   12.18    2.07
  -3  -2  13   11.98    1.95
   3   2 -13    9.62    1.95
   3  -2 -13   12.39    1.68
  -3  -2  13   11.91    2.41
   3  -2 -13   10.97    1.92
   3  -2 -13   11.88    1.83
  -3  -2  12   12.25    2.31
   3  -2 -12   10.74    1.76
   3  -2 -12   16.25    2.01
   3  -2 -12   12.54    2.13
  -3  -2  12   12.03    2.16
  -3  -2  12   10.66    1.99
  -3   2  12   13.48    2.23
  -3   2  12   12.57    2.37
   3   2 -12   11.08    2.04
  -3   2  12   12.83    2.14
   3   2 -12   11.85    2.14
   3  -2 -12   11.85    1.97
   3  -2 -11   32.83    2.95
  -3   2  11   30.71    2.86
  -3  -2  11   29.35    3.17
  -3  -2  11   29.65    2.82
  -3   2  11   32.58    3.43
   3   2 -11   32.63    2.98
   3  -2 -11   41.65    2.92
  -3   2  11   32.90    2.98
   3  -2 -11   27.36    2.34
   3  -2 -11   31.05    2.77
   3   2 -11   31.82    3.01
   3  -2 -11   35.33    2.73
  -3  -2  11   29.71    2.83
   3   2 -11   32.04    3.06
   3  -2 -10  156.77    7.19
   3   2 -10  150.86    7.38
  -3   2  10  159.20    8.14
  -3  -2  10  157.42    7.11
   3   2 -10  159.38    7.43
   3  -2 -10  172.31    7.24
  -3   2  10  167.48    7.30
   3  -2 -10  156.00    6.83
   3   2 -10  162.66    7.27
  -3   2  10  151.21    7.12
   3  -2 -10  166.17    7.36
   3   2 -10  157.67    7.35
   3  -2 -10  160.50    6.98
  -3  -2   9   96.10    8.24
  -3   2   9   97.63    5.40
   3   2  -9  108.92    5.51
   3   2  -9   98.35    8.61
  -3   2   9  111.84    6.20
   3   2  -9   77.74    7.90
   3  -2  -9  102.76    8.66
  -3  -2   9   86.33    8.78
   3  -2  -9  120.29    5.32
  -3  -2   9  109.17    5.13
  -3   2   9   83.05    8.86
  -3   2   9  101.48    5.14
   3   2  -9  103.38    5.22
   3   2  -9  109.77    5.53
   3  -2  -9  112.14    4.99
   3  -2  -9  107.04    5.21
   3  -2  -9  104.67    5.28
   3   2  -9  105.00    5.35
  -3   2   9   84.28   10.10
   3  -2  -9  100.86    4.99
  -3  -2   8  250.16   14.23
  -3   2   8  235.38   15.58
  -3  -2   8  282.37   10.56
   3   2  -8  241.75   14.42
   3   2  -8  280.50   11.06
   3  -2  -8  270.36   14.62
   3  -2  -8  278.30   10.75
   3   2  -8  283.17   11.04
   3  -2  -8  270.59   10.47
   3  -2  -8  262.82   10.70
   3   2  -8  269.70   10.78
   3   2  -8  287.04   14.94
  -3  -2   8  271.70   15.15
  -3   2   8  247.38   10.98
  -3  -2   7   98.18    7.73
  -3   2   7  110.53    9.31
  -3  -2   7  111.92    4.82
   3  -2  -7  104.26    7.68
   3   2  -7   97.77    7.70
   3   2  -7  109.67    5.22
  -3   2   7  104.54    5.79
   3   2  -7  110.82    8.10
   3  -2  -7  107.32    5.01
  -3   2   7  111.35    5.50
   3  -2  -7  108.40    4.80
   3   2  -7  102.24    5.20
   3   2  -7  101.78    4.99
  -3  -2   7  111.32    8.24
  -3   2   7   97.38    9.60
  -3   2   7  102.24    7.92
  -3   2   6  451.23   22.51
  -3   2   6  536.88   21.68
   3   2  -6  487.94   20.58
   3   2  -6  450.57   20.22
   3  -2  -6  460.42   17.23
   3   2  -6  465.03   17.47
  -3   2   6  456.70   23.07
  -3   2   6  489.00   18.15
   3  -2  -6  474.09   20.34
  -3  -2   6  503.26   20.81
   3  -2  -6  457.69   18.85
  -3   2   5  656.02   28.31
  -3   2   5  692.11   27.11
   3   2  -5  667.26   26.11
   3   2  -5  634.41   25.87
   3  -2  -5  655.87   25.94
  -3   2   5  685.65   28.84
   3  -2  -5  640.00   24.61
  -3  -2   5  610.29   24.27
  -3   2   4  151.79    8.82
   3  -2  -4  150.90    7.95
  -3   2   4  151.10    7.98
   3   2  -4  115.35    6.55
   3  -2  -4  154.01    8.92
   3   2  -4  142.46    7.99
   3   2  -4  143.00    7.86
  -3  -2   4  160.82    8.17
  -3   2   4  157.37    9.86
   3  -2  -4  140.35    6.98
   3  -2  -4  137.49    6.06
  -3  -2   4  139.88    6.90
  -3   2   3   47.45    5.18
  -3   2   3   59.16    5.04
  -3   2   3   57.22    4.23
   3   2  -3   56.25    4.44
   3   2  -3   31.72    2.81
   3   2  -3   45.00    4.04
   3  -2  -3   51.46    4.13
   3  -2  -3   46.02    4.71
  -3   2   3   49.75    5.22
   3  -2  -3   56.09    3.59
  -3  -2   3   41.19    2.94
  -3  -2   3   48.51    3.51
   3  -2  -3   48.81    2.91
  -3   2   2   83.06    6.54
   3   2  -2   81.96    5.21
  -3   2   2   87.30    6.16
  -3   2   2   89.29    5.32
   3   2  -2   61.22    3.54
   3   2  -2   80.97    5.23
   3  -2  -2   81.61    6.13
   3  -2  -2   78.19    5.18
   3   2  -2   78.51    5.18
  -3   2   2   79.31    5.95
  -3  -2   2   66.74    4.12
   3  -2  -2   82.44    4.62
  -3  -2   2   81.86    4.86
   3  -2  -2   84.35    4.21
  -3   2   1 1313.82   48.14
  -3   2   1 1311.65   47.77
   3   2  -1 1133.25   43.93
  -3   2   1 1344.37   46.49
   3  -2  -1 1443.79   46.87
   3   2  -1 1256.59   46.09
   3   2  -1 1355.45   46.20
   3  -2  -1 1324.52   48.25
   3  -2  -1 1342.70   45.20
  -3   2   1 1230.89   46.50
  -3  -2   1 1233.11   45.38
   3  -2  -1 1301.82   45.59
  -3  -2   1 1349.50   46.19
  -3   2   0  107.19    7.19
  -3  -2   0   82.88    5.20
  -3   2   0  106.67    6.27
   3   2   0  104.44    6.04
   3   2   0  100.74    6.01
   3   2   0   95.55    6.03
  -3   2   0   99.98    5.44
  -3  -2   0  101.93    5.76
   3  -2   0  111.86    6.61
   3  -2   0  115.18    5.97
  -3  -2   0  104.04    6.16
   3  -2   0  110.03    7.78
   3  -2   0  111.03    5.64
  -3   2  -1  113.21    7.41
  -3   2  -1  119.80    6.40
  -3  -2  -1  112.51    6.26
  -3   2  -1  125.67    7.14
   3   2   1  126.07    6.86
   3   2   1  113.77    6.83
   3  -2   1  122.35    8.58
  -3  -2  -1  124.59    6.78
   3  -2   1  127.15    6.83
   3  -2   1  121.65    6.53
  -3   2  -2   49.59    4.07
  -3  -2  -2   40.43    3.76
  -3   2  -2   52.89    5.46
  -3   2  -2   54.80    4.73
   3   2   2   54.07    4.27
  -3   2  -2   35.61    4.09
   3  -2   2   52.19    4.21
   3   2   2   51.95    4.45
   3  -2   2   43.00    4.06
  -3   2  -3   12.89    2.54
  -3  -2  -3   14.07    2.59
  -3   2  -3   11.64    3.28
   3  -2   3   15.85    2.92
  -3   2  -3   13.73    2.90
   3   2   3   15.84    2.94
   3   2   3   15.66    2.74
  -3   2  -4   93.42    6.61
  -3  -2  -4   88.52    6.36
  -3   2  -4   97.85    8.09
   3   2   4   97.64    6.86
   3   2   4  103.98    6.52
  -3   2  -4   94.48    4.77
   3  -2   4  101.63    7.22
   3   2   5    2.47    1.90
  -3   2  -5   -1.07    2.36
  -3  -2  -5    1.83    1.96
   3  -2   5    2.38    1.04
   3   2   5    1.96    2.21
   3  -2   5    1.68    1.23
  -3   2  -5    1.69    1.49
   3  -2   5    0.47    2.99
  -3   2  -5    7.47    3.04
   3  -2   5    1.37    1.17
  -3   2  -5    3.06    1.39
  -3   2  -6  235.91    9.62
  -3   2  -6  207.60   12.51
  -3  -2  -6  220.04   12.58
   3  -2   6  234.36   12.99
  -3   2  -6  207.42   13.85
  -3  -2  -6  218.12    9.05
  -3   2  -6  220.80    9.08
   3   2   6  235.20   12.92
   3  -2   6  235.09    9.19
   3  -2   6  237.75    9.03
  -3   2  -6  233.60    9.52
   3  -2   6  215.54    9.25
   3   2   6  236.15   11.86
   3  -2   6  229.47   13.35
   3   2   7  205.76   12.65
   3  -2   7  216.72    8.57
  -3   2  -7  205.82   12.85
  -3  -2  -7  195.20   12.51
  -3   2  -7  209.51    8.70
   3  -2   7  213.64    8.85
  -3   2  -7  211.35    9.17
   3  -2   7  211.75   13.16
   3  -2   7  201.03    8.90
  -3   2  -7  223.95    9.12
  -3  -2  -7  206.76    8.68
  -3   2  -8  284.99   11.49
   3  -2   8  294.59   11.32
  -3   2  -8  271.90   11.02
   3   2   8  266.02   11.05
   3  -2   8  278.71   11.25
   3  -2   8  294.02   11.65
   3  -2   8  252.27   11.13
  -3  -2  -8  266.27   10.99
   3   2   8  284.24   10.83
   3   2   8  276.78   10.91
  -3   2  -8  279.42   11.29
   3  -2   9  508.18   19.96
  -3   2  -9  522.40   20.02
   3  -2   9  533.00   20.28
   3   2   9  564.89   20.88
  -3   2  -9  558.15   20.48
   3   2   9  537.89   20.14
   3  -2   9  564.43   20.67
  -3   2  -9  569.49   20.30
   3  -2   9  526.37   20.30
  -3  -2  -9  519.62   20.02
   3   2   9  533.66   19.87
   3   2   9  546.49   19.80
   3  -2  10    6.41    2.01
   3   2  10    7.67    2.11
  -3  -2 -10    6.27    1.73
  -3   2 -10    5.68    1.71
   3  -2  10    5.29    2.01
   3   2  10    4.75    2.26
   3  -2  10    7.08    1.97
  -3   2 -10    4.52    1.79
   3   2  10    7.24    1.79
   3  -2  10    6.60    2.17
   3  -2  11   10.98    2.02
   3   2  11   10.06    2.07
  -3  -2 -11   11.70    1.81
   3  -2  11   10.68    2.15
   3   2  11   13.91    2.45
  -3   2 -11   10.49    1.76
   3  -2  11   10.77    2.16
  -3  -2 -11    9.69    1.73
   3   2  11   12.71    1.78
   3  -2  11    7.84    1.89
   3   2  12    4.69    1.69
   3  -2  12    4.35    1.63
   3   2  12    5.57    1.86
   3  -2  12    4.38    1.66
   3  -2  12    3.19    1.55
  -3  -2 -12    5.57    1.36
  -3   2 -12    2.11    1.25
  -3  -2 -12    2.20    1.28
   3  -2  13   46.85    2.55
   3   2  13   50.28    2.64
   3   2  13   52.25    3.01
  -3  -2 -13   45.42    2.61
   3  -2  13   50.78    2.71
   3   3 -14   35.15    2.08
   3  -3 -14   41.58    2.24
   3   3 -13   34.89    2.68
  -3  -3  13   38.73    3.10
   3  -3 -13   41.47    2.55
  -3   3  13   36.91    2.82
  -3   3  13   38.79    3.03
   3  -3 -13   37.06    2.38
  -3  -3  13   36.23    2.65
   3  -3 -13   40.90    2.52
  -3   3  13   37.91    2.69
   3   3 -13   39.72    2.59
   3   3 -12   10.85    1.99
  -3  -3  12   10.37    1.91
   3   3 -12   13.98    2.08
   3  -3 -12   13.34    1.82
  -3  -3  12   10.90    2.39
  -3   3  12    9.85    1.94
   3  -3 -12   12.93    1.83
   3  -3 -12    8.90    1.40
   3   3 -12   10.99    2.03
  -3   3  12   12.75    2.11
   3  -3 -12   10.93    1.75
  -3   3  11   80.63    5.05
  -3   3  11   76.73    4.43
   3  -3 -11   82.22    4.18
  -3  -3  11   80.15    4.41
  -3  -3  11   61.28    4.44
   3   3 -11   80.94    4.71
   3  -3 -11   83.66    4.41
   3   3 -11   73.89    4.56
   3  -3 -11   76.72    4.05
  -3  -3  11   68.50    4.86
   3  -3 -11   80.66    4.29
  -3   3  10   -0.15    2.02
   3  -3 -10    0.58    1.51
  -3  -3  10    0.94    1.67
   3   3 -10   -0.57    1.90
  -3   3  10    0.96    1.58
   3  -3 -10   -0.58    1.24
   3   3 -10   -0.33    1.81
   3  -3 -10    0.63    1.38
  -3  -3   9  205.33    8.55
   3   3  -9  200.60    9.03
  -3   3   9  205.54    8.62
   3   3  -9  204.72    8.94
   3  -3  -9  201.16    8.40
   3   3  -9  189.91    8.39
   3  -3  -9  199.91    8.59
  -3   3   9  195.48    8.83
   3  -3  -9  201.02    8.42
  -3  -3   8  743.15   26.35
  -3   3   8  645.02   33.28
   3  -3  -8  720.03   26.44
   3   3  -8  742.52   26.96
  -3   3   8  754.87   27.63
   3   3  -8  778.33   31.92
   3  -3  -8  757.04   26.39
  -3   3   8  733.27   26.44
  -3  -3   8  658.47   31.38
  -3   3   8  745.57   36.01
  -3   3   8  731.65   27.02
  -3  -3   8  623.57   30.50
   3  -3  -8  725.17   26.31
   3   3  -8  708.53   26.29
  -3   3   7  287.52   18.40
  -3   3   7  310.24   13.15
   3   3  -7  311.02   16.34
  -3  -3   7  320.19   12.10
   3  -3  -7  313.91   12.30
   3   3  -7  305.15   12.50
   3  -3  -7  321.86   12.16
  -3  -3   7  297.40   16.28
  -3   3   7  325.34   20.01
  -3   3   7  304.82   12.85
  -3   3   6  420.21   22.72
   3   3  -6  443.16   19.98
  -3   3   6  419.53   16.61
   3  -3  -6  427.03   15.85
   3  -3  -6  427.26   16.01
  -3  -3   6  430.49   19.79
   3   3  -6  424.67   16.29
  -3   3   6  417.58   16.77
   3   3  -6  416.98   16.14
   3  -3  -6  431.65   15.54
  -3   3   6  432.95   23.35
   3  -3  -6  418.72   18.44
  -3   3   5  281.17   16.82
   3   3  -5  281.79   13.95
   3   3  -5  273.21   10.86
  -3   3   5  266.28   11.20
   3  -3  -5  265.46   10.58
   3  -3  -5  271.66   10.48
   3  -3  -5  274.24   10.26
   3   3  -5  275.98   10.75
  -3   3   5  254.91   16.32
  -3  -3   5  266.03   13.65
   3  -3  -5  261.97   12.77
  -3   3   5  272.94   11.02
  -3  -3   5  239.50   12.40
  -3   3   5  285.37   11.33
   3   3  -4  579.81   23.19
  -3   3   4  558.20   24.10
  -3   3   4  594.97   23.67
  -3   3   4  543.33   20.22
   3  -3  -4  543.83   24.40
   3   3  -4  528.19   20.02
  -3   3   4  538.15   20.37
   3  -3  -4  538.97   19.86
   3  -3  -4  579.68   19.67
   3   3  -4  537.66   19.90
   3  -3  -4  544.14   19.76
  -3   3   4  524.20   25.56
   3  -3  -4  581.93   22.51
   3   3  -4  533.21   20.01
  -3  -3   4  520.08   22.07
  -3   3   3   96.24    8.71
  -3   3   3   91.92    7.46
  -3   3   3   90.89    6.67
  -3   3   3   99.20    5.01
   3   3  -3   93.27    6.58
   3   3  -3  101.02    6.77
   3  -3  -3   94.55    4.38
   3  -3  -3   87.63    7.37
   3  -3  -3  101.93    6.32
  -3  -3   3   87.36    6.19
   3  -3  -3   93.63    5.47
  -3   3   2  220.43   13.21
  -3   3   2  213.73   12.08
  -3   3   2  220.58   11.07
   3   3  -2  216.10   10.48
  -3   3   2  195.23    8.53
   3   3  -2  200.92   10.57
   3   3  -2  202.91    8.22
   3  -3  -2  195.69   11.81
  -3  -3   2  187.05    9.77
   3  -3  -2  215.37   10.30
  -3  -3   2  199.03   10.42
   3  -3  -2  203.73    9.55
  -3   3   1   13.66    3.76
  -3   3   1   15.86    2.87
   3   3  -1   10.66    2.78
   3   3  -1    9.67    2.50
   3  -3  -1   12.55    3.45
   3   3  -1   13.04    2.76
  -3   3   1    8.08    2.96
  -3  -3   1   14.27    2.62
   3  -3  -1   12.30    2.41
   3  -3  -1   12.47    1.41
  -3  -3   1   11.89    2.60
   3  -3  -1   13.68    2.28
   3   3   0  108.91    7.44
  -3   3   0  112.99    8.79
   3   3   0  117.28    6.95
  -3   3   0  112.76    8.66
  -3   3   0  118.23    7.65
   3  -3   0  111.49    4.89
   3  -3   0  109.14    8.79
  -3  -3   0  113.33    7.31
   3  -3   0  123.62    7.26
  -3  -3   0  120.25    7.66
   3  -3   0  108.56    6.59
  -3   3  -1  269.89   14.97
  -3   3  -1  299.38   15.82
  -3   3  -1  306.03   14.47
  -3   3  -1  278.74   11.13
   3   3   1  289.83   11.08
   3  -3   1  274.14   10.64
   3  -3   1  266.73   15.70
  -3  -3  -1  307.22   14.14
   3  -3   1  288.22   13.59
  -3  -3  -1  319.27   14.58
   3  -3   1  284.95   13.16
   3  -3   1  274.65   10.69
   3   3   1  281.90   13.90
   3  -3   2   20.33    4.85
  -3   3  -2   18.36    4.13
   3  -3   2   22.55    1.77
  -3   3  -2   26.13    3.81
   3   3   2   21.88    3.70
   3  -3   2   19.62    1.75
   3   3   2   18.33    3.22
  -3   3  -2   19.74    2.24
   3   3   2   20.80    2.06
  -3   3  -2   21.65    2.34
   3  -3   2   20.00    1.75
  -3  -3  -2   22.05    3.67
   3  -3   2   23.13    3.45
  -3  -3  -2   19.09    3.65
   3  -3   2   20.03    3.19
   3   3   3  263.48   10.65
   3   3   3  271.56   13.98
  -3   3  -3  260.59   10.65
   3   3   3  271.69   13.55
  -3   3  -3  269.01   14.30
   3  -3   3  258.43   13.20
   3   3   3  251.13   10.33
   3  -3   3  266.31   10.04
   3  -3   3  279.48   13.62
   3  -3   3  252.63   10.06
  -3  -3  -3  271.18   14.04
   3  -3   3  244.75   10.01
   3  -3   3  264.18   16.46
  -3  -3  -3  298.36   14.53
   3   3   4   76.40    4.44
  -3   3  -4   61.07    7.67
  -3   3  -4   68.31    6.86
   3   3   4   90.32    6.96
  -3   3  -4   80.58    4.47
   3   3   4   71.73    4.08
   3  -3   4   78.50    3.76
   3  -3   4   63.68    3.75
  -3  -3  -4   77.27    7.09
   3  -3   4   79.93    3.83
   3  -3   4   80.57    3.97
   3  -3   4   86.87    6.98
   3  -3   4   70.16    6.50
   3  -3   4   76.49    8.83
   3   3   5  217.59   12.33
   3   3   5  213.74    9.43
   3  -3   5  208.24    8.82
  -3   3  -5  196.54   14.37
  -3   3  -5  185.95   13.48
   3  -3   5  212.39    8.65
   3   3   5  218.61    9.00
   3   3   5  236.73    9.68
  -3   3  -5  219.13    9.42
   3  -3   5  220.55    8.71
   3  -3   5  222.84   12.81
  -3  -3  -5  222.89   13.30
   3  -3   5  219.77   13.05
   3  -3   5  191.09   15.38
  -3   3  -6   50.00    3.77
   3  -3   6   57.08    6.31
  -3   3  -6   35.43    6.37
   3  -3   6   44.57    3.31
  -3   3  -6   34.65    5.89
   3  -3   6   40.44    2.97
   3   3   6   53.01    3.92
   3  -3   6   40.75    3.53
  -3  -3  -6   45.90    3.10
   3   3   6   44.73    2.98
   3  -3   6   43.80    2.91
  -3   3  -6   46.84    3.64
   3   3   6   46.95    3.19
   3  -3   6   47.68    3.14
   3   3   6   46.72    5.33
   3   3   6   46.34    3.26
   3   3   6   54.12    3.84
  -3  -3  -6   56.20    6.23
   3  -3   6   45.94    7.75
   3   3   6   44.85    5.85
   3  -3   7  307.91   12.32
   3  -3   7  299.61   11.96
   3  -3   7  289.37   12.27
   3  -3   7  312.65   12.27
   3   3   7  303.85   13.01
   3  -3   7  316.71   12.89
   3   3   7  303.50   12.01
  -3   3  -7  307.63   12.80
  -3   3  -7  318.97   13.00
   3   3   7  316.24   12.32
  -3  -3  -7  325.58   12.31
   3   3   7  340.00   13.28
  -3   3  -8   90.13    5.15
   3   3   8   82.27    4.62
   3   3   8   82.22    4.36
   3  -3   8   80.67    4.65
   3  -3   8   86.84    5.16
  -3  -3  -8   89.07    4.60
   3   3   8   96.21    5.50
  -3   3  -8   83.51    4.93
   3  -3   8   84.03    4.65
   3   3   8   87.12    5.28
   3   3   9   38.98    3.48
   3   3   9   40.54    3.07
  -3   3  -9   39.08    3.38
   3   3   9   36.30    3.58
  -3  -3  -9   38.84    2.92
   3  -3   9   32.58    3.04
   3   3   9   38.34    2.80
  -3   3  -9   38.96    3.24
   3  -3   9   39.33    3.05
   3   3  10   16.18    2.66
  -3   3 -10   15.58    2.22
   3  -3  10   11.60    2.04
  -3  -3 -10   10.79    1.83
  -3   3 -10   15.67    2.06
   3   3  10   15.36    1.91
   3   3  10   16.78    2.13
   3   3  10   15.24    2.30
   3   3  11   22.55    2.26
  -3  -3 -11   18.53    1.95
   3  -3  11   19.86    2.20
  -3   3 -11   22.17    2.09
   3   3  11   27.66    2.19
  -3   3 -11   22.05    2.18
   3  -3  11   26.66    2.61
  -3  -3 -12    8.77    1.20
   3  -3  12    9.76    1.65
   3   3  12   10.07    1.37
   3  -3  13   18.59    1.38
   3   4 -13    7.53    1.03
   3  -4 -13    7.21    1.07
   3   4 -13    7.20    1.16
  -3  -4  13    8.84    1.47
  -3  -4  12   22.63    2.06
  -3   4  12   29.43    2.62
  -3  -4  12   32.17    2.45
   3  -4 -12   34.56    2.05
  -3   4  12   36.74    2.63
  -3  -4  12   41.99    2.88
  -3   4  12   34.53    2.44
   3   4 -12   37.50    2.34
   3  -4 -12   41.69    2.28
   3   4 -12   32.46    2.52
   3   4 -12   38.13    2.49
  -3   4  11  282.36   11.72
  -3  -4  11  280.34   11.41
   3   4 -11  286.55   11.37
   3   4 -11  290.54   10.92
   3  -4 -11  279.75   10.82
  -3   4  11  278.64   11.57
  -3  -4  11  286.44   11.17
   3  -4 -11  272.75   10.78
   3  -4 -11  301.14   11.15
   3  -4 -11  274.99   10.83
  -3  -4  10  139.91    6.59
   3  -4 -10  141.04    6.41
  -3   4  10  143.91    7.25
   3   4 -10  147.78    6.57
   3  -4 -10  149.08    6.65
   3  -4 -10  147.67    6.39
  -3  -4  10  153.67    7.05
   3  -4 -10  143.84    6.36
  -3   4   9   44.59    3.91
  -3   4   9   50.33    3.54
  -3  -4   9   54.94    3.55
   3  -4  -9   53.91    3.32
  -3  -4   9   47.23    3.86
   3   4  -9   50.84    3.66
   3  -4  -9   52.73    3.32
   3   4  -9   40.38    3.65
  -3   4   9   49.55    3.92
   3  -4  -9   59.97    3.57
   3  -4  -9   54.06    3.35
  -3   4   8  120.95    6.52
  -3   4   8  120.16    6.45
  -3   4   8  117.70    6.05
  -3  -4   8  119.94    5.73
   3   4  -8  111.30    5.85
   3  -4  -8  115.01    5.73
  -3  -4   8  104.39    6.00
  -3   4   8  123.08    5.72
   3   4  -8  116.23    6.18
   3   4  -8  104.95    6.03
   3  -4  -8  123.28    5.68
   3  -4  -8  114.72    5.65
   3  -4  -8  114.04    5.56
  -3  -4   7   21.70    2.41
   3  -4  -7   20.35    2.36
  -3   4   7   17.66    2.59
  -3   4   7   20.92    2.89
   3  -4  -7   19.01    2.25
   3   4  -7   19.62    2.64
   3   4  -7   22.05    2.88
  -3   4   7   19.50    2.75
   3  -4  -7   18.04    2.25
   3   4  -7   21.47    2.66
   3  -4  -7   18.60    1.83
  -3   4   7   22.65    2.29
   3  -4  -7   21.44    2.24
   3  -4  -6  601.05   22.93
  -3   4   6  645.08   23.89
  -3   4   6  618.62   23.73
   3   4  -6  627.07   23.11
  -3   4   6  611.74   23.80
   3  -4  -6  624.03   23.09
   3  -4  -6  638.03   22.66
   3   4  -6  617.61   23.39
   3   4  -6  621.79   23.21
  -3   4   6  634.99   22.96
   3   4  -6  640.49   23.12
   3  -4  -6  619.48   23.11
   3   4  -6  631.82   23.08
  -3   4   5  574.62   22.20
  -3   4   5  595.68   30.29
   3  -4  -5  579.35   21.56
  -3   4   5  579.22   21.41
  -3   4   5  578.12   22.13
   3   4  -5  580.30   21.61
   3   4  -5  596.33   21.57
   3  -4  -5  600.33   21.28
   3   4  -5  580.95   21.76
   3   4  -5  586.25   21.61
  -3  -4   5  601.93   26.32
   3  -4  -5  572.61   21.69
   3  -4  -5  580.92   25.00
  -3   4   5  592.90   22.42
  -3  -4   5  556.01   24.94
  -3   4   4   21.08    5.43
   3  -4  -4   23.31    4.41
   3  -4  -4   24.40    2.14
  -3   4   4   28.19    4.24
  -3   4   4   21.63    2.54
  -3   4   4   25.12    2.59
   3  -4  -4   24.88    2.23
   3   4  -4   23.58    2.34
   3  -4  -4   24.57    2.09
   3   4  -4   19.68    2.32
  -3   4   4   24.99    2.20
   3   4  -4   22.78    2.29
   3   4  -4   26.52    2.47
   3  -4  -4   23.49    2.52
  -3  -4   4   23.08    4.22
   3  -4  -4   22.28    3.56
   3   4  -4   25.88    2.62
  -3  -4   4   23.81    3.80
  -3   4   3  566.81   28.76
  -3   4   3  575.88   25.27
   3  -4  -3  556.89   26.05
  -3   4   3  561.08   21.23
   3  -4  -3  579.25   20.77
   3   4  -3  534.15   20.70
  -3   4   3  548.00   21.08
   3  -4  -3  594.73   20.66
   3  -4  -3  560.12   20.68
  -3   4   3  571.63   21.59
   3  -4  -3  582.36   24.36
  -3  -4   3  559.01   24.36
   3  -4  -2   59.41    6.62
  -3   4   2   48.15    7.12
   3  -4  -2   58.95    3.41
  -3   4   2   63.11    6.81
  -3   4   2   65.74    6.37
  -3   4   2   62.45    4.09
   3   4  -2   62.68    3.84
   3   4  -2   56.14    5.73
  -3   4   2   67.68    3.94
  -3   4   2   58.91    3.62
   3  -4  -2   64.27    3.52
   3  -4  -2   65.92    3.45
   3  -4  -2   68.63    5.90
  -3  -4   2   53.08    5.67
   3  -4  -2   65.04    5.27
  -3   4   1  151.88    7.12
  -3   4   1  141.15   11.03
  -3   4   1  164.45   10.35
   3   4  -1  149.28    6.84
  -3   4   1  155.56    6.86
   3   4  -1  144.64    9.68
   3  -4  -1  136.28   10.70
   3  -4  -1  152.36    6.47
  -3  -4   1  138.57    9.24
   3  -4  -1  145.53    9.24
  -3  -4   1  162.30   10.14
   3  -4  -1  135.85    8.59
   3  -4  -1  149.27    6.47
   3   4   0   35.92    2.91
   3  -4   0   23.62    4.98
  -3   4   0   37.44    5.85
  -3   4   0   30.20    4.63
  -3   4   0   32.58    2.80
   3   4   0   32.60    2.63
   3   4   0   28.64    4.41
   3  -4   0   33.89    2.39
  -3   4   0   35.69    2.96
   3  -4   0   32.14    2.37
   3  -4   0   29.90    2.36
  -3  -4   0   28.65    4.26
   3  -4   0   24.88    3.86
   3  -4   0   27.58    3.69
  -3  -4   0   30.32    4.42
   3   4   0   32.15    4.57
  -3   4  -1   87.23    4.66
  -3   4  -1   76.16    8.37
  -3   4  -1   84.92    7.62
  -3   4  -1   76.02    4.47
   3   4   1   84.93    4.41
   3   4   1   79.99    4.77
   3   4   1   83.72    7.28
   3  -4   1   82.26    4.14
   3   4   1   91.04    4.78
   3  -4   1   84.66    4.20
  -3   4  -1   84.31    4.75
   3  -4   1   75.54    8.41
   3  -4   1   82.52    4.15
  -3  -4  -1   83.57    7.29
   3  -4   1   81.10    6.87
   3   4   1   74.95    7.12
  -3  -4  -1   80.75    7.36
   3  -4   1   72.50    6.32
  -3   4  -2   20.07    4.69
   3  -4   2   17.52    4.77
  -3   4  -2   21.39    4.12
  -3   4  -2   20.33    2.18
   3  -4   2   22.08    2.57
   3   4   2   19.70    2.55
   3   4   2   19.04    2.07
   3   4   2   22.38    4.35
   3  -4   2   23.57    2.05
   3   4   2   22.40    2.47
  -3   4  -2   23.11    2.65
   3  -4   2   20.79    2.00
   3  -4   2   22.05    3.97
  -3   4  -2   19.78    2.57
  -3  -4  -2   28.51    4.57
   3  -4   2   21.50    3.84
  -3  -4  -2   23.66    4.43
   3  -4   2   19.33    3.57
  -3   4  -3  164.92    7.53
   3   4   3  159.74   11.13
   3  -4   3  143.07   12.78
  -3   4  -3  133.34   11.99
   3   4   3  151.23    6.69
  -3   4  -3  146.54   11.11
   3   4   3  163.22    7.65
   3  -4   3  160.33    6.86
   3   4   3  157.90   10.80
  -3   4  -3  155.32    7.44
   3   4   3  165.40    7.43
   3  -4   3  172.62   11.02
   3  -4   3  157.60    6.75
  -3   4  -3  156.13    6.92
   3   4   3  149.40    6.67
   3   4   3  164.09    6.78
   3   4   3  144.19    6.85
  -3  -4  -3  164.24   11.34
  -3  -4  -3  158.38   11.22
   3  -4   3  147.82   10.12
   3  -4   4   38.04    3.39
  -3   4  -4   45.68    3.61
   3  -4   4   43.90    3.57
   3   4   4   41.56    3.53
   3  -4   4   46.01    3.07
   3   4   4   39.91    3.32
   3  -4   4   46.18    2.92
   3   4   4   41.46    2.97
   3   4   4   46.68    2.97
   3   4   4   42.87    3.25
  -3   4  -4   43.35    3.58
   3  -4   5   36.63    2.79
   3  -4   5   47.01    3.59
  -3   4  -5   47.92    3.88
   3   4   5   44.18    3.72
   3  -4   5   38.29    3.45
   3   4   5   47.03    3.40
   3  -4   5   46.03    2.91
   3   4   5   40.78    3.00
   3   4   5   44.18    3.11
   3  -4   5   45.97    3.07
   3   4   5   43.76    3.26
   3  -4   6  116.92    5.95
   3   4   6  115.29    5.45
   3  -4   6  120.09    6.10
   3   4   6  120.75    6.39
   3  -4   6  100.14    5.28
  -3   4  -6  114.23    6.20
   3   4   6  121.07    5.82
   3  -4   6  113.41    5.38
   3   4   6  119.41    5.52
   3  -4   6  105.76    5.54
   3   4   6  116.87    5.74
   3  -4   7    5.86    2.16
   3   4   7    1.88    1.76
   3  -4   7    6.21    1.52
   3   4   7    2.31    1.44
   3  -4   7    3.92    1.89
   3   4   7    2.17    1.72
   3  -4   7    3.24    1.50
  -3   4  -7    3.99    2.03
   3  -4   8   46.21    3.22
   3   4   8   44.95    3.71
  -3   4  -8   44.53    3.62
   3   4   8   50.02    3.12
   3  -4   8   49.39    3.69
  -3   4  -8   54.20    3.66
   3  -4   8   41.03    3.07
   3  -4   9   35.00    2.43
   3   4   9   33.54    3.00
   3  -4   9   43.21    3.29
   3  -4   9   34.87    2.68
  -3   4  -9   39.05    3.09
  -3  -4  -9   34.50    2.45
   3   4   9   40.26    2.62
  -3   4  -9   41.11    3.05
  -3  -4  -9   36.26    2.60
   3   4   9   41.22    2.92
   3   4  10   14.92    1.59
  -3   4 -10   14.77    1.87
   3  -4  10   12.57    1.60
  -3  -4 -10   11.25    1.32
   3  -4  10   13.93    2.03
  -3   4 -10   14.86    1.81
  -3  -4 -10   10.84    1.46
   3   4  10   14.32    1.85
   3   4  10    8.97    1.60
   3  -4  11   53.68    3.05
   3   4  11   59.55    2.87
   3  -4  12    9.12    1.01
  -3   5  11  176.58    6.84
  -3  -5  11  177.22    6.95
   3   5 -11  181.38    6.81
   3   5 -11  186.05    6.74
  -3   5  11  163.67    6.58
   3  -5 -11  175.82    6.65
   3  -5 -10    0.29    0.93
   3  -5 -10    1.06    1.06
  -3   5  10    0.65    1.24
   3   5 -10    1.05    1.40
  -3  -5  10    0.26    1.27
   3   5 -10    0.91    1.18
  -3   5  10    1.78    1.25
   3   5 -10    0.46    1.18
   3   5 -10    0.70    1.26
  -3   5  10   -0.06    1.10
   3  -5 -10    0.16    0.87
  -3   5  10    1.90    1.20
   3  -5  -9  112.22    5.12
  -3   5   9  107.48    5.52
  -3   5   9  116.99    5.09
  -3  -5   9  120.30    5.33
   3  -5  -9  107.43    4.97
   3   5  -9  111.61    5.12
  -3   5   9  114.14    5.58
   3   5  -9  116.47    5.21
   3   5  -9   94.77    5.21
   3   5  -9  119.41    5.14
   3  -5  -9  108.77    4.82
  -3   5   9  106.73    4.82
   3  -5  -9  109.20    4.92
   3   5  -9  104.10    5.35
  -3   5   8   47.25    3.43
  -3   5   8   40.50    3.34
  -3  -5   8   47.71    3.16
   3   5  -8   46.37    3.23
  -3   5   8   47.07    2.90
  -3   5   8   42.00    3.03
   3   5  -8   44.51    3.11
   3   5  -8   43.41    3.20
   3   5  -8   35.67    3.04
   3  -5  -8   46.78    3.00
   3  -5  -8   41.88    2.74
  -3   5   8   40.50    2.70
   3  -5  -8   41.50    2.84
   3   5  -8   42.08    2.96
  -3   5   7    1.46    1.67
   3  -5  -7    2.29    1.60
  -3  -5   7    0.26    1.56
  -3   5   7    2.19    1.71
   3   5  -7    0.43    2.09
   3   5  -7    0.27    1.67
   3   5  -7   -0.18    1.47
   3  -5  -7    2.25    1.09
   3  -5  -7    0.86    1.36
   3   5  -7    0.97    1.63
  -3   5   7    0.87    1.33
   3   5  -7    1.51    1.62
  -3   5   7    0.89    1.62
   3  -5  -7    1.22    1.34
   3  -5  -6   30.24    2.70
   3   5  -6   26.49    2.64
   3   5  -6   32.99    3.12
  -3   5   6   31.27    2.98
  -3   5   6   27.65    2.97
  -3  -5   6   28.78    2.72
  -3   5   6   34.62    3.08
   3  -5  -6   33.25    2.59
  -3   5   6   34.81    2.61
   3   5  -6   25.68    2.76
   3  -5  -6   33.39    2.33
   3   5  -6   19.18    2.54
   3  -5  -6   31.26    2.62
   3  -5  -6   29.49    2.50
  -3   5   5  176.79    8.26
   3  -5  -5  169.00    7.52
   3   5  -5  172.12    7.72
  -3   5   5  182.45    7.45
   3  -5  -5  181.59    7.55
  -3   5   5  170.96    8.05
   3   5  -5  143.22    7.48
  -3   5   5  177.33    8.05
   3  -5  -5  182.74    7.38
   3  -5  -5  175.86    7.53
   3   5  -5  167.03    7.47
   3  -5  -5  166.01    7.58
   3  -5  -4   75.34    4.41
  -3   5   4   79.59    4.63
   3  -5  -4   82.50    4.27
   3  -5  -4   82.78    4.18
  -3   5   4   80.90    4.16
   3   5  -4   76.35    4.28
   3  -5  -4   76.62    4.21
   3  -5  -4   72.44    4.41
   3  -5  -3  233.68   10.16
  -3   5   3  258.23   10.79
   3   5  -3  240.73    9.75
  -3   5   3  226.49    9.97
   3  -5  -3  237.95    9.80
   3  -5  -3  243.53    9.75
   3  -5  -3  238.56    9.69
  -3   5   3  241.87    9.68
  -3   5   2  383.14   14.31
   3   5  -2  390.92   14.50
   3   5  -2  408.41   15.00
  -3   5   2  382.24   15.30
  -3   5   2  348.44   14.45
   3  -5  -2  365.98   14.89
   3   5  -2  371.24   14.33
   3  -5  -2  366.41   14.42
   3   5  -1   61.87    3.91
  -3   5   1   69.03    4.36
   3  -5  -1   70.27    3.96
   3   5  -1   54.48    3.56
  -3   5   1   58.61    3.49
   3   5  -1   51.21    3.42
   3  -5  -1   57.49    3.55
   3   5  -1   48.80    3.35
   3  -5  -1   80.99    4.60
   3  -5   0   27.28    2.68
   3   5   0   22.18    2.42
   3  -5   0   21.67    2.20
   3   5   0   18.41    2.16
  -3   5   0   20.91    2.13
   3   5   0   18.98    2.07
   3  -5   0   22.71    2.24
   3   5   0   20.17    2.24
  -3   5   0   24.89    2.76
   3  -5   0   27.90    2.99
   3   5   1    1.41    1.29
   3  -5   1    1.89    1.90
   3   5   1    3.37    1.49
  -3   5  -1    3.95    1.89
   3  -5   1    2.22    1.33
  -3   5  -1    2.19    1.34
   3  -5   1    3.58    1.38
   3   5   1    2.99    1.62
  -3   5  -1    4.44    1.78
   3  -5   2  207.86    8.92
  -3   5  -2  204.16    8.63
   3   5   2  197.48    8.51
  -3   5  -2  187.49    8.64
   3   5   2  224.20    9.25
   3  -5   2  208.15    8.41
   3   5   2  200.78    8.29
  -3   5  -2  191.17    8.24
  -3   5  -2  208.25    8.94
   3   5   2  197.54    8.22
   3   5   2  198.05    8.31
   3  -5   2  194.18    8.29
   3   5   2  189.65    8.21
   3   5   3   83.86    4.51
   3  -5   3   90.21    5.04
   3   5   3   79.80    4.33
  -3   5  -3   80.47    4.86
   3   5   3   91.78    5.08
   3   5   3   81.57    4.35
   3   5   3   88.80    4.40
   3  -5   3   88.50    4.43
  -3   5  -3   85.76    4.97
   3   5   3   84.29    4.33
   3  -5   3   86.19    4.38
  -3   5  -3   73.81    4.18
   3  -5   3   87.39    5.24
   3   5   4  135.21    6.28
   3  -5   4  118.85    6.16
  -3   5  -4  127.25    6.22
  -3   5  -4  115.33    6.11
   3  -5   4  121.51    5.52
   3   5   4  123.24    6.39
  -3   5  -4  102.49    5.34
   3   5   4  116.19    5.46
   3  -5   4  126.37    5.64
   3   5   4  117.25    5.69
   3  -5   4  127.02    6.48
   3   5   5    3.43    1.60
   3   5   5    3.24    1.88
   3   5   5    4.41    1.68
  -3   5  -5    5.54    1.90
  -3   5  -5    1.42    1.79
   3  -5   5    3.88    1.31
   3   5   5    4.79    1.90
   3  -5   5    3.13    2.01
   3  -5   6   64.97    3.95
   3   5   6   66.62    4.29
  -3   5  -6   69.01    4.20
   3  -5   6   62.71    3.89
   3   5   6   63.65    3.85
   3   5   6   67.70    3.67
  -3   5  -6   64.62    4.09
   3   5   6   70.71    3.92
   3  -5   6   61.84    4.26
   3  -5   7   19.21    2.15
   3   5   7   17.93    2.22
   3   5   7   20.38    1.97
   3  -5   7   19.41    2.21
  -3   5  -7   17.71    2.20
  -3  -5  -7   14.83    1.76
  -3   5  -7   18.71    2.27
   3   5   7   18.01    2.17
   3  -5   7   17.34    2.29
  -3   5  -8   15.00    1.87
   3  -5   8   13.17    1.64
   3   5   8   12.25    1.69
  -3  -5  -8   11.43    1.39
   3   5   8   15.49    1.64
   3  -5   8   15.27    1.85
   3  -5   8    9.20    1.69
   3   5   8   15.46    1.85
   3   5   9   22.84    1.72
   3  -5   9   21.89    1.71
  -3   5  -9   20.57    1.64
   3   5   9   20.71    1.45
  -3  -6   9   88.48    3.85
   3   6  -9   81.44    3.46
   3  -6  -9   90.37    3.40
  -3  -6   8   84.88    3.74
   3   6  -8   85.32    3.23
   3   6  -8   80.69    3.01
   3   6  -8   76.92    3.00
   3  -6  -8   85.12    3.09
  -3  -6   7    3.80    1.25
   3   6  -7    4.10    1.20
   3  -6  -7    3.60    1.11
   3  -6  -7    3.04    0.97
  -3  -6   7    3.79    1.68
  -3   6   7    4.40    1.21
   3   6  -7    3.91    1.10
  -3   6   7    3.89    1.00
   3   6  -7    2.52    0.96
   3  -6  -7    3.46    0.89
   3   6  -6    5.77    1.39
   3  -6  -6    4.23    1.33
  -3  -6   6    2.44    1.35
  -3  -6   6    4.81    1.83
  -3   6   6    6.36    1.40
  -3   6   6    5.47    1.32
   3  -6  -6    3.91    1.02
  -3   6   6    4.42    1.07
   3   6  -6    3.37    1.26
   3  -6  -6    4.58    1.14
   3   6  -6    5.07    1.17
   3  -6  -6    3.72    1.07
   3  -6  -5   55.46    3.13
   3  -6  -5   52.99    3.03
  -3  -6   5   53.11    3.54
  -3   6   5   57.61    3.50
   3  -6  -5   53.56    2.93
  -3   6   5   52.19    3.23
   3   6  -5   58.23    3.21
  -3   6   5   58.21    2.95
   3   6  -5   55.08    3.00
   3   6  -5   56.98    3.08
   3  -6  -5   56.67    3.06
   3  -6  -4   51.32    3.11
  -3  -6   4   40.98    3.22
   3   6  -4   48.47    2.94
  -3   6   4   48.53    3.04
   3   6  -4   55.66    3.11
  -3   6   4   51.02    2.77
   3  -6  -4   55.10    2.93
   3   6  -4   47.46    2.84
   3  -6  -4   51.83    2.97
   3  -6  -4   51.06    3.02
   3  -6  -3   34.96    2.69
  -3   6   3   38.17    2.95
   3  -6  -3   35.62    2.67
   3  -6  -3   35.04    2.43
  -3   6   3   35.29    2.27
   3  -6  -3   36.70    2.45
   3   6  -3   35.22    2.44
   3   6  -3   33.90    2.45
  -3   6   2   21.16    2.31
  -3   6   2   16.53    1.60
   3   6  -2   23.07    2.05
   3  -6  -2   19.15    1.87
   3   6  -2   22.44    2.00
   3  -6  -2   20.14    2.21
   3   6  -1   88.85    3.59
  -3   6   1   32.40    2.97
   3  -6  -1   32.07    2.69
   3  -6  -1   36.98    2.71
   3   6  -1   80.22    3.64
   3   6  -1   78.32    3.46
   3  -6  -1   37.82    3.12
   3  -6   0  365.41   13.76
  -3   6   0  372.28   14.19
  -3  -6   0  346.49   13.70
   3  -6   0  368.24   13.79
   3   6   0  364.61   13.55
   3   6   0  355.54   13.53
   3  -6   0  375.96   13.82
   3   6   0  380.95   13.80
   3  -6   0  379.10   14.35
   3  -6   1   80.43    4.11
  -3   6  -1   74.60    4.03
   3   6   1   77.05    3.80
  -3  -6  -1   69.21    3.89
   3  -6   1   76.44    3.86
   3   6   1   72.72    3.68
   3  -6   1   75.50    3.89
   3   6   1   80.43    3.86
   3  -6   1   80.94    4.49
   3  -6   2   22.16    2.28
  -3   6  -2   17.44    1.82
  -3  -6  -2   19.67    2.02
   3  -6   2   23.25    1.91
   3   6   2   20.92    2.00
   3   6   2   17.06    1.82
   3   6   2   22.84    1.92
   3  -6   2   20.70    2.44
   3  -6   3   48.07    3.10
  -3  -6  -3   48.18    2.95
   3   6   3   47.11    2.80
   3   6   3   43.87    2.61
   3  -6   3   46.19    2.67
   3  -6   4   19.22    1.62
   3  -6   4   22.47    2.14
  -3   6  -4   17.88    1.51
  -3   6  -4   16.52    1.78
  -3  -6  -4   15.04    1.72
   3   6   4   22.87    1.91
   3  -6   5   59.81    3.19
   3  -6   5   63.04    3.41
   3   6   6   60.21    2.82
   3  -6   6   52.36    3.06
   3  -6   7   24.83    1.59
   3   6   7   27.33    1.59
   3  -7  -4    3.14    0.66
   3   7  -3   31.88    1.58
   3  -7  -3   30.12    1.67
   3  -7  -2   14.80    1.26
   3  -7  -2   12.71    1.13
   3  -7  -1   68.01    2.99
   3  -7   0   34.05    1.90
   3  -7   1   51.01    2.47
   3  -7   2   14.65    1.16
   3  -7   2   13.86    1.18
  -4   0  16    6.65    1.11
  -4   0  15   11.22    1.76
   4   0 -15   10.31    1.62
   4   0 -15   11.80    1.55
   4   0 -14    9.06    1.85
  -4   0  14    5.84    1.93
  -4   0  14    5.47    1.64
  -4   0  14    6.54    1.53
  -4   0  13   64.80    4.03
  -4   0  13   60.32    4.29
   4   0 -13   59.78    4.03
   4   0 -12   49.85    3.82
  -4   0  12   56.18    3.89
  -4   0  12   48.69    4.24
  -4   0  11  382.95   15.85
   4   0 -11  374.00   14.58
   4   0 -11  371.02   14.94
   4   0 -11  389.53   15.23
  -4   0  11  391.07   14.94
  -4   0  10   20.31    4.54
   4   0 -10   18.16    4.24
  -4   0  10   20.83    3.08
   4   0 -10   17.63    3.88
   4   0 -10   21.15    2.19
   4   0 -10   19.38    2.22
   4   0 -10   20.95    2.53
  -4   0  10   20.29    5.58
  -4   0   9   43.75    6.21
   4   0  -9   43.87    5.96
  -4   0   9   53.15    4.09
   4   0  -9   47.96    5.25
  -4   0   9   42.33    6.77
   4   0  -9   45.21    3.36
   4   0  -8  119.08    5.27
   4   0  -8  107.38    8.68
   4   0  -8  103.40    7.45
  -4   0   8   92.52    8.86
   4   0  -8  113.22    5.46
  -4   0   7  129.84    9.91
   4   0  -7  140.58    8.11
   4   0  -7  130.94    6.03
  -4   0   7  141.70   10.08
   4   0  -7  141.56    9.23
  -4   0   6  141.51    9.42
   4   0  -6  124.83    8.31
   4   0  -6  117.36    7.23
  -4   0   6  139.09    9.21
   4   0  -5  143.75    8.90
   4   0  -5  157.42    8.09
  -4   0   5  167.65    9.64
  -4   0   4   40.80    4.60
   4   0  -4   35.98    4.13
   4   0  -4   36.35    3.46
  -4   0   4   32.51    4.16
  -4   0   3  309.54   14.84
   4   0  -3  324.73   14.74
   4   0  -3  309.45   12.98
  -4   0   3  301.97   13.67
  -4   0   2   -0.74    2.11
   4   0  -2    0.14    1.39
  -4   0   2   -0.20    1.90
   4   0  -2    1.44    2.34
   4   0  -2    0.25    1.84
  -4   0   2    1.97    1.94
  -4   0   1  242.68    9.85
   4   0  -1  181.48    9.91
  -4   0   1  232.72   10.25
   4   0  -1  161.66    7.44
   4   0  -1  161.00    8.45
   4   0  -1  207.31    8.91
  -4   0   1  205.90    8.53
  -4   0   0   49.13    4.09
  -4   0   0   63.00    4.81
   4   0   0   57.19    3.64
   4   0   0   59.19    5.33
   4   0   0   57.01    3.29
   4   0   0   48.73    3.95
  -4   0   0   41.62    3.15
  -4   0  -1  822.25   34.77
   4   0   1 1009.13   35.01
  -4   0  -1 1136.83   36.95
   4   0   1  956.14   37.69
  -4   0  -1 1062.75   36.84
   4   0   1  903.71   35.74
   4   0   1 1000.69   34.85
  -4   0  -2  698.69   27.56
  -4   0  -2  695.93   27.40
   4   0   2  719.68   26.37
   4   0   2  702.97   25.99
   4   0   2  684.40   28.71
   4   0   2  676.74   27.19
  -4   0  -3   18.88    3.44
  -4   0  -3   19.55    3.14
   4   0   3   18.33    2.41
   4   0   3   20.46    2.94
   4   0   3   19.31    3.19
  -4   0  -4  641.58   25.11
   4   0   4  573.01   22.66
   4   0   4  624.63   24.08
  -4   0  -5  419.93   19.56
   4   0   5  400.93   16.05
   4   0   5  450.37   15.79
   4   0   5  414.25   15.54
   4   0   5  427.92   19.11
  -4   0  -6    1.44    2.63
   4   0   6   -1.33    2.75
   4   0   6    1.21    1.62
   4   0   6    1.60    1.33
   4   0   6    1.04    1.90
  -4   0  -7   11.93    3.95
   4   0   7   11.52    1.92
   4   0   7   12.08    2.18
   4   0   7   11.37    2.14
   4   0   7   14.20    3.85
   4   0   8   15.22    2.17
   4   0   8   15.78    2.42
   4   0   8   13.91    4.25
  -4   0  -8   14.67    4.31
   4   0   8   13.10    2.45
   4   0   8   13.75    2.08
   4   0   8   13.75    2.37
  -4   0  -8   13.81    2.20
   4   0   9    8.33    2.29
  -4   0  -9    8.60    2.13
   4   0   9    9.22    2.40
   4   0   9    8.47    2.27
   4   0   9    7.82    1.94
   4   0  10  337.69   13.16
   4   0  10  297.40   13.36
   4   0  10  328.58   13.23
  -4   0 -10  339.74   13.20
   4   0  11   20.21    2.67
   4   0  11   17.80    2.51
  -4   0 -11   21.10    2.38
   4   0  12  202.58    8.50
  -4   0 -12  210.71    8.56
   4   0  12  203.92    8.56
  -4   0 -13    9.48    1.39
   4   0  13    9.79    1.64
   4  -1 -16    5.37    0.85
   4  -1 -15    0.47    1.06
  -4  -1  15   -0.56    1.31
  -4   1  15    0.40    1.29
   4  -1 -15   -0.83    1.20
  -4  -1  15    0.45    1.19
   4   1 -15    0.36    1.16
   4  -1 -14    1.89    1.38
  -4  -1  14    3.04    1.73
  -4   1  14    3.26    1.76
  -4   1  14    0.48    1.44
  -4  -1  14    1.23    1.40
  -4  -1  14    1.26    1.64
   4  -1 -14    3.09    1.60
   4   1 -14    2.11    1.57
  -4   1  13   -0.26    1.92
  -4  -1  13    1.32    1.78
  -4   1  13    0.63    1.71
   4  -1 -13    1.12    1.71
   4   1 -13    2.59    1.83
  -4  -1  13    1.03    1.96
  -4  -1  12   98.65    5.19
  -4   1  12   99.60    5.23
   4  -1 -12   90.81    5.19
   4   1 -12   93.05    5.08
   4  -1 -12  106.77    5.52
   4   1 -12  104.17    5.51
  -4   1  12  103.58    6.03
  -4  -1  12   96.44    5.78
  -4   1  11  124.78    7.11
   4   1 -11  129.42    6.12
   4   1 -11  134.79    6.21
   4  -1 -11  115.88    6.22
   4  -1 -11  115.14    5.72
  -4  -1  11  135.22    6.29
  -4  -1  11  122.80    6.86
   4   1 -11  130.89    6.49
  -4   1  11  137.27    6.37
   4  -1 -11  131.65    6.49
  -4  -1  10   57.79    7.18
  -4   1  10   89.30    5.49
   4   1 -10   82.11    4.49
   4  -1 -10   69.37    7.59
   4   1 -10   72.94    7.92
   4  -1 -10   89.66    4.76
   4   1 -10   77.01    7.51
   4  -1 -10   78.38    4.07
  -4   1  10   66.78    4.47
  -4  -1  10   70.88    4.94
   4  -1 -10   77.56    4.33
   4   1 -10   82.99    4.36
   4   1 -10   77.55    4.64
   4  -1 -10   73.55    4.12
  -4  -1  10   58.84    7.84
  -4   1  10   72.64    9.35
  -4   1  10   75.93    4.47
  -4  -1  10   79.35    4.51
  -4  -1   9   52.26    6.46
  -4   1   9   43.42    6.18
  -4   1   9   58.46    6.86
   4   1  -9   47.33    6.21
   4   1  -9   50.20    3.34
   4   1  -9   51.00    5.81
   4  -1  -9   45.52    2.91
   4  -1  -9   39.08    5.60
   4  -1  -9   51.93    3.51
   4   1  -9   50.59    3.53
  -4  -1   9   43.63    6.42
  -4   1   9   42.70    3.52
   4  -1  -8   22.58    4.21
  -4  -1   8   26.97    4.84
  -4   1   8   21.54    4.66
  -4   1   8   36.17    5.17
   4   1  -8   25.71    4.49
   4   1  -8   27.35    2.51
   4   1  -8   27.35    4.34
   4  -1  -8   27.09    2.11
   4   1  -8   28.58    2.53
   4  -1  -8   33.86    2.69
   4   1  -8   29.06    2.59
  -4   1   8   28.84    3.21
  -4  -1   8   28.88    5.26
  -4   1   8   34.08    6.03
  -4   1   8   24.39    2.70
  -4  -1   7  131.60    9.32
  -4   1   7  114.27    9.40
  -4   1   7  114.92    8.96
   4  -1  -7  110.91    8.44
   4   1  -7  118.53    8.67
   4   1  -7  119.43    5.50
   4  -1  -7  116.16    6.90
   4   1  -7  120.15    8.03
  -4   1   7  134.18    6.35
   4   1  -7  120.15    5.51
   4  -1  -7  115.89    5.51
   4   1  -7  115.79    5.49
  -4   1   7  125.51   10.13
  -4  -1   6  230.60   12.11
  -4   1   6  223.59   12.33
   4  -1  -6  214.63   11.57
   4  -1  -6  203.24    9.60
   4   1  -6  188.93   10.53
  -4   1   6  205.23   12.52
   4   1  -6  186.04   11.17
  -4  -1   6  219.54   11.83
  -4   1   6  201.86   12.50
  -4   1   5   19.67    3.79
   4   1  -5   21.70    3.60
   4  -1  -5   20.40    3.41
   4  -1  -5   22.40    2.62
  -4  -1   5   24.74    3.71
  -4   1   5   25.23    4.52
  -4  -1   4  573.29   21.98
  -4   1   4  507.06   22.54
  -4   1   4  525.62   22.21
   4   1  -4  468.85   21.19
   4  -1  -4  513.42   21.45
   4  -1  -4  491.24   19.33
  -4  -1   4  534.42   21.25
  -4   1   4  505.35   21.94
  -4  -1   3 1102.52   38.59
  -4   1   3  971.58   38.96
  -4   1   3  998.25   38.33
   4   1  -3  987.36   38.38
   4  -1  -3  951.02   38.13
  -4   1   3 1080.28   36.94
   4  -1  -3 1065.44   36.41
  -4  -1   3 1017.07   37.56
   4  -1  -3 1043.78   38.57
   4  -1  -3  959.40   35.44
  -4   1   2 1129.59   36.83
  -4   1   2 1022.27   36.54
  -4   1   2  975.27   33.99
   4  -1  -2 1007.19   33.88
   4  -1  -2 1006.01   35.90
   4   1  -2  822.15   35.29
   4   1  -2  905.91   34.63
  -4  -1   2  879.29   34.26
  -4   1   2 1080.37   35.47
   4  -1  -2  978.35   33.30
   4  -1  -2  985.48   35.98
  -4  -1   2  729.78   33.12
  -4  -1   2  957.65   35.30
  -4   1   1 1253.27   38.96
   4   1  -1  938.82   37.24
  -4   1   1 1115.14   39.19
  -4   1   1  973.28   36.52
   4   1  -1  812.23   36.88
   4  -1  -1 1151.08   39.40
   4   1  -1  816.91   37.89
   4  -1  -1 1099.09   38.84
  -4  -1   1  900.94   36.58
  -4   1   1 1155.17   37.28
   4  -1  -1 1057.01   36.43
   4  -1  -1 1160.59   36.67
  -4  -1   1  965.96   37.40
  -4  -1   0 2231.49   74.89
  -4   1   0 2719.17   76.34
   4   1   0 1933.46   74.81
  -4  -1   0 1746.26   74.70
  -4   1   0 2574.67   77.48
  -4   1   0 2095.02   74.43
   4   1   0 1930.55   74.75
   4  -1   0 2366.86   77.48
   4   1   0 1888.08   76.26
   4  -1   0 2404.27   77.16
  -4  -1   0 2154.28   74.30
   4  -1   0 2011.39   74.52
   4   1   0 2063.08   75.15
   4  -1   0 2269.10   75.38
  -4  -1  -1  422.15   15.41
  -4   1  -1  458.54   16.41
  -4   1  -1  371.62   16.60
  -4  -1  -1  356.16   16.24
  -4  -1  -1  318.86   15.35
  -4   1  -1  421.88   17.73
  -4   1  -1  385.31   15.63
   4  -1   1  434.36   18.07
   4  -1   1  378.67   17.67
   4   1   1  384.50   15.78
   4   1   1  358.06   17.25
   4   1   1  365.80   15.82
   4  -1   1  388.90   15.72
   4  -1   1  357.57   15.67
   4  -1   1  397.82   16.26
  -4   1  -2  117.59    7.13
  -4  -1  -2  111.63    7.08
  -4   1  -2  101.87    7.51
  -4   1  -2  110.00    6.47
   4   1   2  127.13    6.85
   4  -1   2  113.46    6.53
   4  -1   2  117.34    8.21
   4   1   2  117.46    6.44
   4  -1   2  116.08    7.14
  -4   1  -3  741.56   29.91
  -4  -1  -3  740.12   29.96
   4   1   3  728.59   29.11
  -4   1  -3  734.77   30.76
   4   1   3  782.21   28.71
   4  -1   3  790.59   29.38
   4  -1   3  750.01   31.57
   4  -1   4  157.42    8.78
  -4   1  -4  160.77    9.35
  -4  -1  -4  143.04    9.08
  -4   1  -4  147.65    9.63
   4   1   4  150.14    7.72
   4   1   4  151.28    8.44
   4   1   4  137.51    6.20
   4   1   5  352.58   13.40
   4  -1   5  343.24   18.61
  -4  -1  -5  346.30   17.06
   4  -1   5  372.08   16.93
  -4   1  -5  345.92   17.50
   4  -1   5  345.01   13.95
   4   1   5  331.80   13.69
   4   1   5  378.32   16.34
   4   1   5  332.28   13.38
  -4   1  -5  375.10   17.42
  -4   1  -5  336.16   13.29
   4  -1   5  351.40   13.10
  -4   1  -5  347.27   13.19
   4  -1   5  354.44   13.33
   4   1   5  335.28   13.30
  -4   1  -6   -0.72    3.04
  -4  -1  -6   -1.44    3.11
   4   1   6    2.18    2.01
   4  -1   6   -0.09    1.56
   4   1   6    1.23    1.74
   4  -1   6    2.32    2.92
   4  -1   6    0.97    1.52
   4   1   6    0.49    1.71
  -4   1  -6    0.98    1.46
   4  -1   6    1.29    1.19
   4  -1   6   -0.67    2.54
   4  -1   6    0.44    1.38
   4   1   7   25.10    4.08
  -4   1  -7   27.15    2.63
  -4   1  -7   33.65    5.35
  -4  -1  -7   33.13    5.35
   4  -1   7   25.61    2.42
   4  -1   7   28.08    2.74
   4   1   7   26.74    2.92
   4  -1   7   30.11    2.71
   4   1   7   26.16    2.92
   4  -1   7   31.94    5.86
   4  -1   7   35.03    5.33
   4  -1   8  169.48    7.89
   4  -1   8  174.03    7.72
   4   1   8  173.28    7.98
   4   1   8  159.09    7.62
   4  -1   8  170.36    7.79
   4   1   8  171.10    7.36
   4  -1   8  158.13    7.38
   4  -1   8  159.83    7.60
  -4   1  -8  179.44    7.70
  -4  -1  -8  182.73    7.74
  -4  -1  -9  302.00   11.78
   4  -1   9  277.70   11.91
   4  -1   9  283.61   11.71
   4   1   9  300.31   12.10
   4  -1   9  272.86   11.62
   4   1   9  284.48   11.74
   4  -1   9  292.80   11.74
   4   1   9  290.66   11.36
   4  -1   9  260.82   11.32
  -4   1  -9  304.33   11.79
   4  -1  10  151.65    6.98
   4  -1  10  139.91    7.12
   4  -1  10  142.96    6.90
   4   1  10  155.19    7.25
   4   1  10  156.53    7.05
   4  -1  10  142.93    6.81
  -4   1 -10  151.61    6.91
   4   1  10  138.05    6.45
  -4  -1 -10  148.97    6.89
  -4  -1 -11   44.32    3.05
   4  -1  11   35.98    3.22
   4  -1  11   38.31    3.15
   4   1  11   44.69    3.34
   4  -1  11   41.87    3.25
   4   1  11   44.29    3.33
   4  -1  11   39.14    2.90
  -4   1 -11   47.29    3.10
   4  -1  12   12.20    1.84
   4   1  12   13.38    1.98
  -4  -1 -12   13.46    1.78
  -4   1 -12   13.44    1.77
   4  -1  12   12.94    2.00
   4   1  12   12.14    1.99
   4  -1  13    1.56    1.26
   4   1  13    1.51    1.30
   4   2 -15   39.88    2.14
  -4  -2  15   41.37    2.44
   4  -2 -15   37.84    2.22
  -4  -2  14   37.78    2.93
  -4   2  14   40.01    2.47
   4   2 -14   37.96    2.48
  -4   2  14   36.21    2.72
  -4  -2  14   41.90    2.52
   4  -2 -14   41.39    2.55
   4  -2 -14   34.31    2.46
   4  -2 -13   33.74    2.74
   4   2 -13   35.47    2.78
  -4   2  13   37.74    3.13
  -4  -2  13   28.92    2.86
  -4   2  13   36.21    2.71
   4  -2 -13   33.14    2.34
  -4  -2  13   40.59    2.78
  -4   2  13   36.45    2.71
   4  -2 -13   33.81    2.82
   4  -2 -13   33.58    2.67
  -4  -2  12    2.51    1.82
   4   2 -12    0.52    1.63
   4  -2 -12    1.29    1.50
   4  -2 -12   -0.58    1.57
   4   2 -12    2.45    1.61
  -4   2  12    1.05    1.76
  -4   2  12    2.09    1.98
   4  -2 -12    0.56    1.25
  -4  -2  12   -0.08    1.78
  -4   2  12   -0.36    1.49
   4   2 -12    0.40    1.63
   4  -2 -12    1.36    1.41
  -4   2  11  193.75    9.35
  -4   2  11  191.26    8.36
  -4  -2  11  176.07    8.05
   4  -2 -11  205.56    8.27
   4   2 -11  198.31    8.61
   4   2 -11  195.54    8.43
  -4  -2  11  190.85    8.25
   4  -2 -11  181.60    8.35
  -4   2  11  200.35    8.33
   4   2 -11  191.83    8.53
   4  -2 -11  202.67    8.58
  -4  -2  11  180.68    8.90
   4  -2 -10  183.09    7.89
  -4  -2  10  168.83    7.43
  -4   2  10  160.41    7.88
   4   2 -10  172.74    7.94
   4  -2 -10  182.48    7.61
  -4   2  10  180.86    7.65
   4   2 -10  174.55    8.03
   4   2 -10  175.88    7.76
   4  -2 -10  165.57    7.65
   4   2 -10  176.93    7.90
  -4  -2  10  167.63    7.56
  -4   2  10  167.06    7.59
  -4  -2   9  135.25   10.89
  -4   2   9  150.04   12.45
  -4   2   9  174.70    7.24
  -4  -2   9  157.39    6.98
   4   2  -9  148.59   11.46
   4  -2  -9  165.04   11.69
   4   2  -9  172.65    7.69
  -4   2   9  171.22    8.39
   4   2  -9  162.12   11.42
   4  -2  -9  180.28    7.31
   4   2  -9  171.18    7.67
   4  -2  -9  161.31    6.81
   4   2  -9  164.06    7.26
   4  -2  -9  171.20    7.31
   4  -2  -9  162.43    7.37
   4   2  -9  168.17    7.47
  -4  -2   9  151.75   11.90
  -4   2   9  147.46    7.61
  -4   2   9  158.43   13.91
  -4   2   9  155.93    7.17
   4  -2  -9  168.26    7.08
   4   2  -9  153.65    7.03
  -4  -2   8    1.90    2.83
  -4   2   8    5.49    3.82
  -4   2   8    4.10    2.14
  -4  -2   8    4.78    1.39
   4   2  -8    2.79    1.69
  -4   2   8    2.86    1.72
   4   2  -8    2.71    2.76
   4   2  -8    4.06    1.79
   4  -2  -8    3.75    1.35
   4   2  -8    1.91    2.45
   4  -2  -8    4.47    2.75
   4  -2  -8    3.36    1.10
   4  -2  -8    5.28    1.58
   4   2  -8    4.49    1.71
  -4  -2   8    0.40    3.27
  -4   2   8    6.88    4.43
  -4  -2   7   13.89    3.50
  -4   2   7   11.63    4.00
  -4   2   7   16.57    3.93
  -4   2   7   12.56    2.24
  -4  -2   7   13.71    1.61
   4   2  -7   13.58    3.42
   4   2  -7   12.50    2.00
  -4   2   7   13.98    2.37
   4   2  -7   14.55    3.67
   4  -2  -7   16.74    1.81
   4  -2  -7   12.59    3.18
   4  -2  -7   12.40    1.47
   4  -2  -7   14.13    1.85
   4   2  -7   13.94    1.88
  -4   2   7   15.43    4.97
  -4  -2   6   59.91    5.99
  -4   2   6   55.10    6.93
  -4   2   6   67.12    6.64
   4  -2  -6   52.97    5.57
   4   2  -6   55.77    5.75
  -4   2   6   65.84    4.09
   4   2  -6   52.10    5.60
  -4   2   6   66.79    4.06
   4  -2  -6   62.18    3.32
   4   2  -6   58.93    3.54
   4  -2  -6   58.09    3.07
  -4   2   6   54.65    7.10
   4  -2  -5  343.26   13.07
  -4   2   5  367.28   17.72
   4   2  -5  372.04   16.41
   4  -2  -5  356.47   16.41
   4   2  -5  345.05   16.38
   4   2  -5  338.42   13.24
  -4  -2   5  381.13   16.54
  -4   2   5  351.96   18.27
  -4   2   4  166.30   11.22
  -4   2   4  186.50   10.91
  -4   2   4  199.99    9.70
   4  -2  -4  182.88   10.00
   4  -2  -4  182.59   10.75
   4   2  -4  173.10    9.93
   4   2  -4  180.56    9.84
  -4  -2   4  180.18    9.77
  -4   2   4  184.31   11.19
   4  -2  -4  170.69    8.12
  -4   2   3  141.65    9.63
   4  -2  -3  161.20    8.87
  -4   2   3  153.79    9.44
  -4   2   3  159.48    8.17
   4   2  -3  151.49    8.41
   4   2  -3  137.23    8.39
   4  -2  -3  134.84    8.99
  -4  -2   3  146.57    8.14
  -4   2   3  126.02    8.73
   4  -2  -3  144.43    7.01
  -4  -2   3  127.90    7.01
  -4   2   2 1192.63   47.24
  -4   2   2 1216.29   47.01
  -4   2   2 1273.11   45.24
   4  -2  -2 1284.23   46.35
   4   2  -2 1207.25   45.92
   4   2  -2 1243.86   45.44
  -4   2   2 1083.62   45.53
   4  -2  -2 1247.00   44.29
  -4  -2   2 1187.77   44.57
   4  -2  -2 1274.87   43.70
  -4   2   1  506.78   22.67
  -4   2   1  537.17   21.13
   4   2  -1  530.23   21.58
   4   2  -1  493.90   21.18
   4  -2  -1  583.95   22.62
   4   2  -1  501.97   21.71
   4   2  -1  523.76   21.24
  -4  -2   1  467.03   19.91
   4  -2  -1  543.34   20.50
  -4  -2   1  529.62   21.03
   4  -2  -1  534.77   20.13
  -4   2   0   50.56    5.20
  -4   2   0   46.36    4.07
  -4  -2   0   38.74    3.90
   4   2   0   51.06    4.61
  -4   2   0   58.46    4.52
   4   2   0   47.81    4.35
   4   2   0   42.12    4.70
   4  -2   0   51.99    5.16
  -4  -2   0   44.89    3.99
   4  -2   0   54.40    4.17
   4  -2   0   59.25    4.19
   4   2   0   48.18    4.49
  -4   2  -1   17.20    3.16
   4   2   1   18.37    3.07
  -4   2  -1   16.67    2.84
  -4  -2  -1   14.62    2.59
  -4   2  -1   16.27    3.81
   4  -2   1   18.97    4.11
  -4   2  -1   18.39    2.91
   4   2   1   19.47    3.00
   4  -2   1   20.23    2.84
   4  -2   1   17.86    2.78
  -4   2  -2  204.33   10.45
  -4  -2  -2  195.22   10.34
  -4   2  -2  195.23   12.19
  -4   2  -2  213.34   11.08
   4   2   2  218.77   11.06
   4   2   2  204.47   10.46
   4  -2   2  214.30   10.71
   4  -2   2  201.14   12.94
   4  -2   2  201.50   10.67
   4  -2   2  196.03   10.69
  -4   2  -3   44.90    4.61
  -4  -2  -3   42.90    4.53
   4   2   3   45.68    4.39
  -4   2  -3   40.40    5.60
  -4   2  -3   42.88    3.03
  -4   2  -3   44.50    4.89
   4   2   3   53.04    5.06
   4  -2   3   35.28    5.86
   4   2   3   42.06    2.96
   4  -2   3   46.50    4.77
  -4   2  -3   43.75    2.98
   4  -2   3   36.43    2.62
   4  -2   3   45.78    2.68
   4  -2   3   44.47    2.56
   4  -2   3   35.10    4.50
   4  -2   3   45.99    5.03
  -4   2  -4  165.84   10.18
  -4  -2  -4  181.54   10.44
  -4   2  -4  171.93   11.91
  -4   2  -4  188.24   11.04
   4   2   4  156.66    7.59
   4   2   4  203.46   10.99
   4   2   4  181.99    7.73
   4   2   4  191.58   10.00
   4  -2   4  180.82    7.28
  -4   2  -4  171.60    7.62
   4  -2   4  182.32    7.44
  -4   2  -4  169.26    7.67
   4  -2   4  186.88   10.55
   4  -2   4  153.93   12.59
   4  -2   4  173.42   10.97
  -4   2  -5  251.00   14.40
  -4  -2  -5  270.46   14.61
   4   2   5  287.21   11.52
  -4   2  -5  289.49   16.77
  -4   2  -5  266.03   15.22
   4   2   5  302.29   15.08
   4   2   5  291.44   13.88
   4  -2   5  279.85   11.20
   4  -2   5  285.47   10.98
  -4   2  -5  279.87   11.38
  -4   2  -5  279.61   11.47
   4  -2   5  252.06   17.38
   4  -2   5  301.26   15.06
   4  -2   5  283.68   15.52
  -4   2  -6  574.16   26.45
  -4  -2  -6  575.43   26.37
  -4   2  -6  607.56   28.63
   4  -2   6  642.49   27.13
   4   2   6  654.13   26.97
   4  -2   6  578.80   21.77
  -4   2  -6  605.26   22.37
   4   2   6  608.96   22.48
   4  -2   6  574.22   22.12
   4  -2   6  595.90   21.80
  -4   2  -6  616.76   22.30
   4  -2   6  553.32   29.78
  -4   2  -7  490.41   25.71
  -4   2  -7  579.58   21.50
   4  -2   7  618.39   21.50
   4  -2   7  543.31   20.94
   4   2   7  580.97   21.69
   4   2   7  549.30   21.04
   4   2   7  565.38   20.78
   4  -2   7  538.76   26.37
  -4   2  -7  589.51   21.38
   4  -2   7  541.71   20.88
   4  -2   7  565.20   21.30
  -4   2  -7  571.07   20.99
  -4  -2  -7  555.81   20.96
   4   2   7  579.03   20.88
   4  -2   7  599.50   21.59
   4  -2   8   92.04    5.13
   4   2   8  100.25    5.59
  -4   2  -8   95.07    5.25
   4  -2   8   83.64    4.87
   4   2   8   91.41    5.04
   4  -2   8   95.02    5.39
   4  -2   8   85.98    4.91
   4  -2   8   92.02    4.78
   4   2   8   93.56    4.73
  -4   2  -8   96.05    5.11
  -4   2  -8   86.97    4.78
  -4  -2  -8   91.04    4.81
   4   2   8   93.28    4.74
   4   2   9   31.50    2.70
  -4   2  -9   35.20    3.08
   4  -2   9   32.35    3.09
   4  -2   9   28.68    2.83
   4   2   9   36.44    3.47
   4  -2   9   31.23    2.95
   4   2   9   34.80    3.06
   4  -2   9   33.03    3.22
  -4   2  -9   28.76    2.68
  -4  -2  -9   32.89    2.78
   4   2   9   33.80    2.73
   4   2  10   51.05    3.22
   4  -2  10   48.14    3.60
   4  -2  10   52.63    3.46
   4  -2  10   48.99    3.50
  -4   2 -10   51.08    3.29
  -4  -2 -10   52.16    3.29
   4  -2  10   52.61    3.70
   4   2  10   52.05    3.13
   4   2  10   53.14    3.59
   4  -2  11    8.65    1.81
   4  -2  11    6.51    1.70
  -4   2 -11    8.27    1.57
  -4  -2 -11    7.48    1.49
   4  -2  11   10.23    1.93
  -4  -2 -11    8.20    1.52
   4  -2  11    7.78    1.82
   4   2  11    7.01    1.79
   4  -2  12   11.91    1.60
   4  -2  12   10.40    1.52
  -4  -2 -12   10.79    1.35
   4  -2  12   12.52    1.53
   4   2  12   11.50    1.62
   4   3 -14    1.72    1.09
   4  -3 -14    1.36    0.97
  -4  -3  14    0.86    1.38
   4   3 -14    2.24    0.98
   4  -3 -13    0.63    1.16
  -4   3  13    0.98    1.34
   4   3 -13    0.27    1.51
   4  -3 -13    0.23    0.95
  -4  -3  13    0.81    1.75
  -4   3  13    0.25    1.19
  -4   3  13   -0.26    1.29
   4  -3 -13   -0.06    1.04
   4   3 -12   13.18    2.04
   4  -3 -12   11.46    1.80
  -4   3  12   13.91    2.17
  -4  -3  12   11.53    1.79
   4   3 -12   15.19    2.28
  -4  -3  12    9.03    1.97
  -4   3  12   13.96    2.20
   4  -3 -12   13.34    1.70
  -4   3  12   11.34    1.88
  -4  -3  12   12.13    2.41
   4  -3 -12   10.63    1.73
   4  -3 -11   15.91    2.07
  -4   3  11   15.43    2.50
  -4  -3  11   15.47    2.11
   4   3 -11   17.76    2.42
   4  -3 -11   16.52    2.10
  -4   3  11   15.29    2.06
   4  -3 -11   14.69    1.70
   4  -3 -11   15.22    2.12
  -4   3  10  109.50    6.11
  -4   3  10   84.02    5.18
  -4  -3  10   96.45    4.99
   4  -3 -10   96.33    4.74
   4   3 -10   95.67    5.49
   4  -3 -10  108.49    5.27
  -4   3  10  104.02    5.11
   4   3 -10   99.00    5.46
   4  -3 -10  104.97    5.17
   4   3 -10   91.68    4.93
  -4   3   9   48.38    3.78
   4   3  -9   51.23    3.90
  -4   3   9   50.83    3.37
  -4   3   9   63.23    4.46
  -4  -3   9   47.00    3.31
   4  -3  -9   57.64    3.63
   4  -3  -9   57.84    3.28
   4  -3  -9   46.47    3.41
   4   3  -9   46.52    3.46
  -4  -3   8  510.78   18.85
   4  -3  -8  502.09   19.11
  -4   3   8  487.89   19.79
  -4   3   8  525.78   20.25
  -4   3   8  534.10   19.08
   4   3  -8  485.90   19.46
   4  -3  -8  528.98   18.93
  -4   3   8  516.88   19.84
   4   3  -8  494.35   18.97
  -4   3   7   40.09    6.84
  -4  -3   7   55.76    3.25
  -4   3   7   56.05    3.89
   4   3  -7   53.48    3.82
  -4   3   7   50.78    4.09
   4   3  -7   52.71    6.27
  -4   3   7   55.77    3.34
  -4   3   7   53.95    4.04
   4   3  -7   62.62    3.87
   4  -3  -7   59.23    3.27
   4  -3  -7   52.42    3.45
  -4  -3   7   52.55    6.22
  -4   3   7   50.38    7.97
   4   3  -7   52.61    3.52
   4  -3  -7   60.11    3.50
  -4  -3   7   42.13    6.28
  -4   3   6   10.81    4.27
  -4   3   6   13.94    2.41
  -4   3   6   14.78    2.29
   4   3  -6   14.74    3.72
   4   3  -6   16.64    2.29
   4   3  -6   10.51    2.01
   4  -3  -6   13.47    1.70
  -4   3   6   16.55    5.14
  -4   3   5  307.47   16.38
  -4   3   5  289.35   12.06
   4   3  -5  286.84   11.68
   4   3  -5  305.39   15.27
   4  -3  -5  292.68   11.50
   4  -3  -5  302.88   11.08
   4   3  -5  285.83   11.62
   4  -3  -5  296.71   11.34
  -4   3   5  294.65   17.52
  -4   3   4   65.05    7.72
  -4   3   4   70.43    6.92
  -4   3   4   60.02    5.51
  -4   3   4   66.17    4.07
  -4   3   4   58.66    3.69
   4   3  -4   63.84    6.00
   4  -3  -4   61.53    3.42
   4  -3  -4   64.62    3.14
   4   3  -4   56.34    3.41
   4  -3  -4   61.29    3.28
  -4  -3   4   60.73    5.74
  -4   3   4   53.37    6.80
   4  -3  -4   65.31    4.89
   4  -3  -4   49.46    6.20
   4   3  -4   59.10    3.59
  -4   3   3  126.91   10.40
  -4   3   3  113.20    9.01
  -4   3   3  116.20    7.76
  -4   3   3  122.68    5.92
   4   3  -3  107.66    5.26
   4   3  -3  106.23    7.71
   4  -3  -3  119.40    9.00
   4  -3  -3  116.00    5.25
   4  -3  -3  121.17    5.03
   4  -3  -3  115.63    5.12
  -4  -3   3  117.22    8.03
   4  -3  -3  116.86    7.03
  -4  -3   3  105.61    7.10
  -4   3   2    8.73    3.46
   4  -3  -2    9.12    3.34
  -4   3   2    7.42    1.71
  -4   3   2   10.01    3.36
  -4   3   2    8.28    2.42
   4   3  -2    6.55    2.57
   4   3  -2    9.89    2.89
   4  -3  -2    9.80    1.27
   4  -3  -2    7.38    1.40
  -4   3   2    7.73    1.63
   4  -3  -2    7.93    1.30
   4  -3  -2    7.82    2.00
  -4  -3   2    9.50    2.49
  -4   3   1   23.29    4.47
   4  -3  -1   11.59    3.48
  -4   3   1   18.19    3.92
  -4   3   1   21.41    3.40
  -4   3   1   21.18    2.20
   4   3  -1   21.30    1.93
  -4   3   1   16.57    1.99
   4  -3  -1   22.71    1.76
   4   3  -1   22.25    3.54
  -4   3   1   18.87    2.14
   4  -3  -1   20.57    1.90
   4  -3  -1   21.52    3.07
   4  -3  -1   23.61    2.86
  -4  -3   1   20.65    3.46
  -4   3   0   45.82    5.80
   4   3   0   42.44    5.01
  -4   3   0   48.18    5.96
   4  -3   0   42.64    5.80
  -4   3   0   49.96    5.11
  -4   3   0   46.41    3.07
   4   3   0   43.04    2.73
   4   3   0   44.86    4.90
  -4   3   0   52.05    3.23
   4  -3   0   46.23    2.81
   4  -3   0   50.06    2.74
  -4   3   0   50.24    3.26
  -4  -3   0   45.26    4.65
   4  -3   0   44.99    4.47
  -4  -3   0   49.26    5.22
   4  -3   0   48.96    4.35
  -4   3  -1  287.13   16.29
  -4   3  -1  316.44   17.60
  -4   3  -1  326.46   15.95
   4   3   1  315.26   12.01
  -4   3  -1  318.22   12.54
   4  -3   1  311.92   12.07
   4   3   1  327.88   12.35
   4   3   1  311.68   15.52
   4  -3   1  315.96   12.16
  -4   3  -1  293.99   12.44
   4  -3   1  333.14   18.41
  -4  -3  -1  328.19   15.64
   4  -3   1  338.68   15.41
  -4  -3  -1  381.15   16.90
   4  -3   1  336.25   14.98
  -4   3  -2  256.73   13.38
  -4   3  -2  228.77    9.60
   4  -3   2  217.35    9.12
   4  -3   2  215.96    8.96
   4   3   2  231.92   12.51
   4   3   2  237.33    9.31
   4  -3   2  228.36    9.12
   4  -3   2  217.28   15.09
  -4  -3  -2  225.98   12.77
   4  -3   2  230.25   12.49
   4  -3   2  224.64   12.09
  -4   3  -3   40.04    3.27
  -4   3  -3   36.59    5.96
  -4   3  -3   49.74    5.69
   4  -3   3   40.45    6.64
   4   3   3   37.47    4.76
   4   3   3   42.55    2.90
   4  -3   3   44.66    2.78
  -4   3  -3   44.29    3.31
   4  -3   3   45.20    2.93
  -4  -3  -3   51.19    5.71
   4  -3   3   45.91    5.22
  -4  -3  -3   50.19    5.93
   4  -3   3   49.60    5.38
   4   3   3   45.69    5.54
   4  -3   3   37.75    2.85
  -4   3  -4  256.47   16.96
  -4   3  -4  292.60   15.96
   4   3   4  287.69   15.61
   4  -3   4  276.52   10.82
   4   3   4  266.09   14.45
   4   3   4  281.39   10.96
  -4   3  -4  268.61   11.40
   4  -3   4  277.73   11.00
  -4  -3  -4  289.29   15.69
   4  -3   4  245.51   14.95
   4  -3   4  268.79   15.07
  -4   3  -5  308.49   12.61
   4   3   5  291.75   11.68
  -4   3  -5  272.62   18.13
   4  -3   5  306.10   12.11
  -4   3  -5  294.41   17.14
   4   3   5  312.57   16.93
   4   3   5  293.19   15.65
   4  -3   5  300.95   11.81
   4  -3   5  311.07   12.48
  -4   3  -5  292.31   12.41
   4   3   5  312.98   11.83
   4  -3   5  303.41   12.02
   4   3   5  300.86   11.95
  -4  -3  -5  315.02   16.95
   4  -3   5  308.76   17.03
   4  -3   6  233.32    9.87
  -4   3  -6  243.55   10.49
  -4   3  -6  242.00   10.41
   4  -3   6  238.10   10.38
   4  -3   6  231.55   10.01
   4   3   6  236.17    9.66
   4  -3   6  244.23    9.75
   4   3   6  247.35    9.80
   4   3   6  238.83    9.88
   4  -3   7  176.93    7.69
   4  -3   7  170.09    7.62
  -4   3  -7  188.74    8.44
   4  -3   7  183.97    8.40
  -4  -3  -7  184.69    7.70
   4  -3   7  176.00    7.64
   4   3   7  181.18    7.65
  -4   3  -7  188.93    8.34
   4  -3   7  155.49    8.00
   4   3   7  177.51    7.81
   4  -3   8  340.01   13.77
  -4   3  -8  362.13   14.23
   4   3   8  365.40   13.50
   4  -3   8  390.66   14.04
   4  -3   8  313.27   13.40
   4  -3   8  368.65   14.26
  -4  -3  -8  323.98   13.50
   4  -3   8  340.88   13.40
  -4   3  -8  376.72   14.12
   4   3   8  355.24   13.62
   4  -3   9    7.14    1.84
   4  -3   9    4.81    1.62
  -4   3  -9    2.10    1.83
  -4  -3  -9    2.99    1.33
   4   3   9    5.84    1.70
  -4   3  -9    5.68    1.75
   4   3   9    5.58    1.81
   4  -3  10   60.03    3.71
   4  -3  10   55.42    3.45
   4  -3  10   46.35    3.15
  -4   3 -10   59.01    3.56
   4   3  10   58.42    3.19
  -4  -3 -10   49.76    3.17
  -4   3 -10   55.66    3.38
   4   3  10   60.80    3.28
  -4   3 -11   16.48    1.68
   4  -3  11   16.95    1.99
  -4  -3 -11   13.20    1.41
   4   3  11   12.67    1.47
   4   3  11   16.26    1.65
   4  -3  12    8.09    1.23
  -4  -4  13   19.20    1.69
   4   4 -13   16.67    1.35
   4  -4 -13   15.97    1.29
  -4   4  13   14.77    1.34
   4  -4 -12    0.41    1.03
   4   4 -12    0.38    1.36
   4  -4 -12    1.66    0.93
   4   4 -12    1.59    1.20
  -4  -4  12    1.16    1.52
  -4   4  12   -0.17    1.07
   4  -4 -12    1.43    0.94
  -4   4  11   82.09    4.68
   4  -4 -11   92.93    4.35
  -4  -4  11   88.60    4.40
  -4  -4  11   98.67    4.88
   4   4 -11   94.23    4.74
   4   4 -11   95.52    4.51
  -4   4  11   95.31    4.93
  -4   4  11   92.43    4.43
   4  -4 -11   87.90    4.08
   4  -4 -11   95.69    4.27
  -4  -4  10   92.24    5.07
  -4  -4  10   83.07    4.48
  -4   4  10   77.26    4.49
  -4   4  10   84.59    4.95
   4   4 -10   90.63    4.78
  -4   4  10   92.77    5.17
   4  -4 -10   96.24    4.62
  -4   4  10   89.32    4.58
   4  -4 -10   90.86    4.31
   4  -4 -10   86.29    4.50
   4  -4 -10   93.13    4.44
  -4   4   9  120.05    6.03
  -4   4   9  111.10    6.09
  -4  -4   9  114.99    5.60
   4   4  -9  125.80    6.20
   4   4  -9  117.03    5.90
  -4   4   9  117.34    6.35
  -4   4   9  124.24    5.72
  -4  -4   9  110.68    6.08
   4  -4  -9  125.51    5.79
   4  -4  -9  122.56    5.51
   4  -4  -9  116.22    5.65
   4   4  -9  107.55    5.98
   4   4  -8   11.59    2.24
  -4   4   8    9.51    2.18
  -4   4   8   10.04    2.23
  -4  -4   8    8.69    1.90
   4   4  -8   10.60    2.54
  -4   4   8    9.35    2.37
   4   4  -8    7.52    2.13
   4  -4  -8   10.41    1.91
   4   4  -8    9.32    2.19
   4   4  -8    9.32    2.18
   4  -4  -8   10.77    1.69
   4  -4  -8    8.55    1.83
  -4   4   7  139.72    6.95
  -4  -4   7  144.25    6.47
   4   4  -7  140.72    6.95
  -4   4   7  147.46    7.30
   4  -4  -7  142.49    6.63
   4   4  -7  136.40    6.77
   4  -4  -7  139.00    6.43
   4   4  -7  141.69    6.67
   4  -4  -7  137.59    6.62
  -4   4   7  148.71    7.31
   4   4  -7  137.61    6.63
   4  -4  -6  237.98    9.79
   4  -4  -6  242.71    9.79
  -4   4   6  246.75   10.73
  -4   4   6  232.98   10.23
   4   4  -6  233.75   10.14
  -4   4   6  227.99   10.39
   4  -4  -6  241.89    9.94
   4  -4  -6  243.81    9.38
   4   4  -6  234.73    9.93
   4   4  -6  243.74    9.92
   4  -4  -6  227.04    9.87
   4  -4  -5  390.31   15.22
   4  -4  -5  398.47   15.33
   4   4  -5  383.76   15.41
  -4   4   5  390.98   15.74
  -4   4   5  404.63   15.23
   4  -4  -5  420.24   14.97
   4   4  -5  405.85   15.41
   4  -4  -5  410.01   15.24
   4   4  -5  395.57   15.27
   4   4  -5  388.53   15.23
   4  -4  -5  385.65   15.41
   4   4  -5  404.22   15.42
  -4   4   4   33.36    6.61
   4  -4  -4   38.98    2.99
   4  -4  -4   43.28    6.00
  -4   4   4   41.14    2.84
  -4   4   4   37.60    4.95
  -4   4   4   39.13    3.51
   4   4  -4   34.35    2.89
   4   4  -4   37.01    3.20
  -4   4   4   35.18    2.95
   4  -4  -4   44.71    2.94
   4  -4  -4   42.45    2.64
   4   4  -4   39.27    3.03
   4   4  -4   31.64    2.81
   4  -4  -4   40.02    3.05
   4  -4  -4   40.10    4.41
   4   4  -4   34.85    3.06
  -4   4   3  306.80   20.09
  -4   4   3  341.59   13.21
  -4   4   3  361.91   17.70
  -4   4   3  341.39   14.04
   4   4  -3  335.10   13.15
   4  -4  -3  320.05   18.47
   4   4  -3  344.45   13.32
   4  -4  -3  342.75   13.29
   4   4  -3  347.89   13.27
   4  -4  -3  354.10   13.08
  -4  -4   3  345.49   17.81
   4  -4  -3  339.32   16.41
  -4  -4   3  319.65   16.53
   4   4  -3  343.19   13.33
  -4   4   2  242.39   16.42
   4  -4  -2  237.71    9.64
  -4   4   2  225.28   15.08
  -4   4   2  251.79   13.87
  -4   4   2  243.20   10.34
   4   4  -2  216.53   13.23
   4  -4  -2  221.07   14.59
   4  -4  -2  228.50    9.59
   4   4  -2  244.30    9.64
   4  -4  -2  244.23    9.53
   4  -4  -2  241.48    9.61
  -4   4   2  241.00    9.94
  -4   4   2  237.87    9.63
   4   4  -2  240.23    9.58
   4  -4  -2  243.70   12.85
   4   4  -2  224.70    9.61
  -4  -4   2  233.21   13.25
   4   4  -2  235.23    9.67
  -4   4   1   58.14    7.41
   4  -4  -1   66.84    3.81
  -4   4   1   45.87    5.71
  -4   4   1   55.03    3.87
   4   4  -1   50.23    3.47
   4   4  -1   53.16    5.96
   4  -4  -1   54.01    7.01
   4   4  -1   55.99    3.66
   4  -4  -1   63.24    3.48
   4  -4  -1   58.61    3.33
   4   4  -1   47.55    3.27
  -4   4   1   65.81    4.03
  -4   4   1   58.42    3.44
   4   4  -1   58.14    3.41
   4  -4  -1   56.31    3.34
   4   4  -1   53.21    3.20
   4  -4  -1   68.55    4.08
   4  -4  -1   54.01    5.49
  -4  -4   1   53.89    5.86
  -4   4   0   19.56    2.45
   4  -4   0   25.16    5.22
  -4   4   0   14.75    4.53
  -4   4   0   16.92    3.61
   4  -4   0   19.44    2.36
   4   4   0   15.02    1.95
   4   4   0   16.04    3.67
   4  -4   0   18.78    1.94
  -4   4   0   17.98    2.28
   4  -4   0   17.09    1.99
   4   4   0   13.00    1.82
  -4   4   0   19.05    2.46
  -4   4   0   15.49    1.99
   4   4   0   13.57    1.92
   4  -4   0   18.17    3.47
   4   4   0   18.44    2.36
   4   4   0   15.89    1.72
   4  -4   0   16.10    2.41
  -4  -4   0   18.70    3.87
   4  -4   0   16.88    3.21
   4  -4   1   31.01    2.82
   4  -4   1   31.20    5.87
  -4   4  -1   20.83    5.04
  -4   4  -1   25.76    2.73
  -4   4  -1   26.89    4.43
   4   4   1   26.72    4.77
  -4   4  -1   18.31    2.25
   4   4   1   22.42    2.19
   4   4   1   25.87    2.21
   4  -4   1   24.27    2.26
   4  -4   1   26.59    2.22
   4  -4   1   23.52    2.22
   4  -4   1   31.62    4.81
  -4   4  -1   26.37    2.83
  -4   4  -1   25.72    2.39
   4   4   1   24.23    2.35
   4   4   1   24.09    2.09
   4   4   1   24.29    2.42
   4   4   1   27.15    2.58
   4  -4   1   25.32    2.80
   4  -4   1   27.81    4.28
  -4  -4  -1   30.87    4.89
   4  -4   1   26.46    4.01
  -4   4  -2    6.83    4.00
   4   4   2    6.24    1.73
   4  -4   2    8.61    2.09
   4   4   2    7.86    1.78
   4  -4   2    9.18    1.67
   4  -4   2    8.87    1.62
   4   4   2    8.00    1.74
  -4   4  -2    9.93    2.20
  -4   4  -2    9.85    2.24
   4   4   2   10.83    1.87
  -4   4  -2    9.55    1.77
   4  -4   2    9.75    1.73
   4  -4   2   10.65    3.40
   4   4   2    7.28    1.43
   4   4   2    8.13    1.95
  -4  -4  -2    7.51    3.26
   4  -4   2    9.10    3.11
   4  -4   2    8.76    2.19
  -4  -4  -2   12.32    3.74
   4  -4   2    5.81    2.62
  -4   4  -3  170.91    8.09
   4   4   3  168.46    7.90
  -4   4  -3  173.16    8.11
   4  -4   3  170.63    7.77
   4  -4   3  175.09    7.38
   4   4   3  179.45    7.81
   4  -4   3  164.76    7.35
   4   4   3  160.47    7.21
   4   4   3  168.13    7.33
  -4   4  -3  176.92    7.61
   4  -4   3  165.69    7.47
   4   4   3  175.70    7.26
   4   4   3  168.56    7.53
   4  -4   3  177.65    8.14
  -4   4  -4   37.30    3.50
   4  -4   4   42.06    3.48
   4   4   4   42.75    3.43
   4  -4   4   43.49    3.46
   4   4   4   45.50    3.24
   4  -4   4   45.65    3.01
   4   4   4   40.95    3.05
   4  -4   4   45.13    3.20
   4   4   4   46.15    3.38
   4  -4   4   41.65    3.57
   4  -4   5    3.70    1.86
   4   4   5    3.92    1.77
  -4   4  -5    8.81    2.37
   4   4   5    7.18    1.61
   4  -4   5    4.95    1.54
   4  -4   5    5.83    2.12
   4   4   5    5.06    1.93
   4  -4   5    3.79    1.69
   4   4   5    8.13    2.06
   4  -4   6   97.57    5.24
   4  -4   6  105.26    5.62
   4   4   6  104.73    5.10
   4  -4   6  104.53    5.03
  -4   4  -6  104.82    5.62
   4  -4   6  101.38    5.19
   4  -4   7  100.19    5.03
   4  -4   7   92.58    4.81
   4  -4   7  101.66    5.53
   4  -4   7  115.49    5.37
   4   4   7  113.09    5.07
  -4   4  -7  111.42    5.61
   4  -4   7  101.73    5.14
   4  -4   7   87.56    5.23
   4  -4   8   78.05    3.97
  -4   4  -8   84.60    4.63
   4   4   8   82.49    4.13
   4  -4   8   75.83    4.26
  -4   4  -8   84.37    4.53
   4  -4   8   92.87    4.74
   4   4   8   90.60    4.41
   4  -4   8   64.84    3.97
   4  -4   9    3.22    1.70
   4   4   9    3.07    1.39
  -4   4  -9    1.27    1.37
  -4  -4  -9    1.88    1.01
  -4   4  -9    2.35    1.44
   4   4   9    3.12    1.56
   4  -4  10   20.58    1.94
  -4   4 -10   17.42    1.76
   4   4  10   16.09    1.57
   4   4  11   68.03    2.77
   4  -4  11   57.71    2.89
  -4  -5  11  161.54    6.55
   4   5 -11  170.18    6.32
   4  -5 -11  164.30    6.25
   4  -5 -10  125.50    5.15
  -4  -5  10  121.32    5.42
  -4   5  10  120.27    5.59
   4  -5 -10  125.56    5.30
   4   5 -10  130.76    5.34
   4   5 -10  130.98    5.35
  -4   5  10  136.17    5.38
   4  -5 -10  125.43    5.12
   4  -5 -10  126.44    5.16
   4   5 -10  117.87    5.52
   4  -5  -9   11.72    1.59
  -4   5   9   10.63    1.51
  -4  -5   9   10.43    1.66
   4   5  -9   11.64    2.05
  -4   5   9   11.84    1.83
   4  -5  -9   11.12    1.53
   4   5  -9   10.52    1.69
   4   5  -9   10.14    1.81
  -4   5   9    9.38    1.50
   4   5  -9   11.57    1.73
   4  -5  -9   11.45    1.41
   4  -5  -9   12.98    1.51
  -4   5   8   51.70    3.42
   4   5  -8   49.22    3.39
  -4   5   8   47.19    3.45
   4  -5  -8   54.45    3.20
   4   5  -8   52.69    3.52
  -4   5   8   53.20    3.12
   4   5  -8   50.31    3.28
   4  -5  -8   55.99    3.07
   4   5  -8   51.54    3.25
  -4  -5   8   51.69    3.27
   4  -5  -8   54.64    3.11
   4  -5  -8   57.57    3.16
  -4   5   7   19.60    2.29
  -4  -5   7   28.01    2.45
   4   5  -7   18.87    2.41
   4   5  -7   26.21    2.82
  -4   5   7   20.86    2.43
   4  -5  -7   21.87    2.17
  -4   5   7   27.68    2.29
   4   5  -7   24.58    2.43
   4  -5  -7   23.62    2.11
   4   5  -7   23.25    2.44
  -4   5   7   23.81    2.54
   4  -5  -7   19.31    2.12
  -4  -5   6   24.34    2.47
  -4   5   6   24.41    2.77
  -4   5   6   21.50    2.50
   4  -5  -6   22.47    2.22
   4   5  -6   21.72    2.41
   4  -5  -6   25.40    1.98
  -4   5   6   27.83    2.29
   4   5  -6   18.10    2.36
   4   5  -6   18.99    2.33
   4  -5  -6   22.67    2.30
  -4   5   5  182.47    8.42
   4  -5  -5  195.36    8.25
   4   5  -5  198.50    8.33
  -4   5   5  206.94    8.22
   4   5  -5  185.97    8.18
   4  -5  -5  184.11    8.30
   4  -5  -5  202.54    7.98
   4  -5  -4  119.74    5.85
   4  -5  -4  122.68    5.75
  -4   5   4  116.22    6.38
  -4   5   4  116.62    5.84
   4  -5  -4  121.24    5.53
  -4   5   4  137.50    5.82
   4   5  -4  118.64    5.75
   4  -5  -4  121.70    5.73
   4   5  -4  123.33    5.84
   4   5  -4  121.57    5.63
   4  -5  -4  121.93    6.02
   4  -5  -3  165.87    7.38
  -4   5   3  165.27    7.97
   4   5  -3  172.83    7.30
   4  -5  -3  161.60    7.18
   4  -5  -3  167.40    7.11
   4   5  -3  163.63    7.20
   4  -5  -3  163.57    7.23
   4   5  -3  161.51    7.05
  -4   5   3  170.56    7.20
   4  -5  -3  155.76    7.50
   4  -5  -2  165.88    7.19
  -4   5   2  166.27    7.96
   4  -5  -2  166.40    7.29
   4   5  -2  170.31    7.36
   4  -5  -2  172.44    7.26
  -4   5   2  176.71    7.33
   4   5  -2  165.72    7.28
   4  -5  -2  160.91    7.29
   4   5  -2  162.45    7.13
   4  -5  -2  175.10    7.85
  -4   5   1   14.24    2.28
   4  -5  -1    9.12    1.73
   4   5  -1    9.95    1.89
   4   5  -1   11.05    1.71
  -4   5   1   11.49    1.82
   4   5  -1    8.05    1.95
   4  -5  -1   10.50    1.86
   4   5  -1    8.56    1.66
   4  -5   0   70.10    4.11
  -4   5   0   64.96    4.14
   4   5   0   61.02    3.56
  -4   5   0   63.94    3.75
  -4   5   0   66.43    4.21
   4   5   0   69.79    3.80
   4  -5   0   67.85    3.84
   4   5   0   68.47    3.69
   4  -5   0   71.49    4.42
   4  -5   1   20.47    2.51
  -4   5  -1   22.02    2.27
   4  -5   1   18.34    2.06
   4   5   1   19.03    2.11
  -4   5  -1   19.06    2.09
   4   5   1   19.10    2.20
  -4   5  -1   19.31    2.47
   4  -5   1   21.91    2.19
   4   5   1   18.45    1.96
   4   5   1   17.26    2.18
   4  -5   1   17.32    2.58
  -4   5  -2   42.40    3.30
   4  -5   2   41.23    3.29
  -4   5  -2   41.19    2.89
   4  -5   2   43.80    2.89
   4   5   2   43.97    2.94
   4   5   2   41.61    2.96
   4  -5   2   44.42    3.04
   4   5   2   39.38    2.75
   4   5   2   41.48    3.05
   4  -5   2   46.64    3.61
  -4   5  -2   43.87    3.47
   4  -5   3    8.40    2.09
  -4   5  -3    6.49    1.99
  -4   5  -3    8.94    1.59
   4  -5   3    9.90    1.64
   4   5   3   10.47    1.83
  -4   5  -3    9.29    2.28
   4   5   3    9.18    1.90
   4  -5   3    7.78    1.62
   4   5   3    6.64    1.88
   4  -5   3    7.77    2.18
  -4   5  -4    3.62    1.80
   4  -5   4    2.93    1.30
   4   5   4    3.50    1.63
  -4   5  -4    3.51    1.90
   4   5   4    2.77    1.63
  -4   5  -4    4.27    1.31
   4  -5   4    2.53    1.37
   4   5   4    4.00    1.83
   4  -5   4    5.54    2.04
  -4   5  -5   86.77    4.65
   4  -5   5   93.12    4.57
   4  -5   5   78.50    4.32
   4  -5   5   78.24    4.07
  -4   5  -5   85.55    4.66
   4   5   5   87.69    4.20
  -4   5  -5   76.53    4.04
   4   5   5   86.96    4.42
   4  -5   5   79.66    4.64
   4  -5   5   70.55    4.26
   4  -5   6   20.56    2.15
   4  -5   6   17.43    1.76
  -4   5  -6   18.24    2.19
   4  -5   6   18.48    2.09
   4   5   6   19.14    1.98
  -4   5  -6   19.11    2.28
  -4   5  -6   16.40    1.63
   4   5   6   22.06    2.28
   4  -5   6   18.15    2.20
   4  -5   7    0.78    1.20
  -4   5  -7    1.27    1.28
   4   5   7   -0.32    1.28
   4  -5   7    0.25    1.37
   4   5   7   -0.60    1.49
   4  -5   7   -0.13    1.17
   4  -5   8  169.70    6.62
   4  -5   8  157.34    6.29
  -4   5  -8  155.58    6.69
   4   5   8  172.24    6.49
  -4   5  -8  161.61    6.72
   4   5   8  174.84    6.62
   4  -5   9   63.78    2.96
   4   5   9   72.21    2.93
   4  -6  -8    1.72    0.80
  -4  -6   8    1.68    1.31
  -4   6   8    1.28    0.69
   4   6  -8    0.89    0.80
   4  -6  -8    0.97    0.62
   4  -6  -7    5.41    1.10
  -4  -6   7    5.72    1.59
  -4   6   7    7.06    1.02
   4   6  -7    7.19    1.16
   4   6  -7    2.86    0.69
   4  -6  -7    6.25    0.99
  -4  -6   6   82.66    4.40
  -4   6   6   82.50    4.27
  -4   6   6   99.81    3.98
   4   6  -6   93.36    4.07
   4  -6  -6   92.22    4.00
   4   6  -6   86.18    3.95
   4  -6  -6   91.98    4.02
   4   6  -6   87.20    3.80
  -4  -6   6   78.46    4.12
  -4  -6   5   64.08    3.86
   4  -6  -5   71.62    3.39
  -4  -6   5   69.98    3.74
   4   6  -5   73.75    3.60
  -4   6   5   79.60    3.51
   4   6  -5   70.62    3.53
   4  -6  -5   76.76    3.60
   4   6  -5   75.01    3.43
   4  -6  -5   73.60    3.60
  -4   6   4   37.71    2.78
  -4   6   4   38.70    2.27
   4  -6  -4   35.35    2.24
   4   6  -4   37.08    2.39
   4  -6  -4   36.06    2.33
   4   6  -4   34.43    2.22
   4  -6  -4   38.58    2.50
   4   6  -4   39.49    2.49
   4  -6  -3   13.34    1.52
   4  -6  -3   14.57    1.92
  -4   6   3   12.59    1.87
  -4   6   3   14.71    1.51
   4   6  -3   13.69    1.74
   4  -6  -3   13.68    1.59
   4   6  -3   14.61    1.54
   4  -6  -3   15.24    1.87
   4  -6  -2   59.62    3.37
  -4   6   2   55.99    3.03
  -4   6   2   54.43    3.52
   4  -6  -2   56.56    3.18
   4  -6  -2   59.43    3.16
   4   6  -2   64.17    3.29
   4   6  -2   63.07    3.13
   4  -6  -2   59.54    3.48
   4  -6  -1   27.68    2.41
   4  -6  -1   25.58    1.98
  -4   6   1   26.19    2.30
  -4   6   1   23.93    1.86
   4  -6  -1   21.05    1.96
   4   6  -1   24.39    1.98
   4  -6  -1   29.01    2.44
   4   6  -1   27.80    2.19
   4  -6   0   71.01    3.74
   4  -6   0   60.22    3.43
  -4   6   0   65.96    3.65
   4  -6   0   71.84    3.50
  -4   6   0   60.81    3.22
   4   6   0   68.76    3.30
   4   6   0   68.02    3.48
   4  -6   0   70.31    3.53
   4   6   0   75.35    3.46
   4  -6   1  214.82    4.56
  -4   6  -1  180.79    4.17
   4  -6   1  202.28    4.28
  -4  -6  -1  188.40    4.18
   4   6   1  206.74    3.98
   4   6   1  200.62    4.07
   4  -6   1  196.94    4.31
   4  -6   2  103.26    4.68
  -4  -6  -2   91.34    4.51
   4  -6   2   96.57    4.43
   4   6   2  102.56    4.42
   4   6   2  104.26    4.42
   4  -6   2   94.74    4.48
   4  -6   2  103.10    4.95
  -4  -6  -3    6.62    1.30
   4  -6   3    8.73    1.22
   4  -6   3    8.52    1.60
   4   6   3    5.90    1.35
   4   6   3    6.67    1.40
   4  -6   3    8.39    1.66
   4  -6   4    2.69    1.25
  -4  -6  -4    0.84    0.96
   4  -6   4    1.67    0.90
   4   6   4    2.40    1.16
   4  -6   4    2.08    1.22
   4   6   5   21.76    1.66
   4  -6   5   22.64    1.82
   4  -6   6   32.32    1.79
  -5   0  16    2.24    0.78
   5   0 -15   94.09    4.53
   5   0 -15   90.93    4.50
  -5   0  15  104.57    4.47
   5   0 -15  104.12    4.33
   5   0 -14  134.76    6.15
  -5   0  14  125.34    6.28
  -5   0  14  111.62    5.67
  -5   0  14  148.92    6.12
   5   0 -14  150.22    5.90
  -5   0  13   62.68    4.53
  -5   0  13   79.14    4.35
   5   0 -13   79.14    4.05
   5   0 -13   68.92    4.33
   5   0 -12   -0.08    1.48
  -5   0  12    0.97    2.04
  -5   0  12    0.60    2.11
   5   0 -12   -1.28    1.95
  -5   0  11   19.84    2.67
  -5   0  11   27.61    3.55
   5   0 -11   23.49    2.41
   5   0 -11   26.14    2.92
  -5   0  11   28.97    2.98
   5   0 -10  279.40   11.18
   5   0 -10  281.22   11.48
   5   0 -10  258.75   10.74
  -5   0   9   55.68    7.46
   5   0  -9   43.75    6.81
   5   0  -9   52.80    5.78
   5   0  -9   51.00    3.61
  -5   0   9   63.55    4.54
   5   0  -9   64.55    4.00
  -5   0   9   55.00    7.77
  -5   0   8   75.04    8.23
   5   0  -8   74.58    7.66
  -5   0   8   81.83    5.17
   5   0  -8   75.31    6.51
   5   0  -8   76.14    4.39
  -5   0   8   76.38    8.62
  -5   0   7  990.71   39.64
   5   0  -7  895.51   32.82
   5   0  -7  905.26   37.85
   5   0  -7  951.01   35.80
  -5   0   7  915.68   38.64
   5   0  -6    1.68    2.45
   5   0  -6    1.90    2.14
   5   0  -6    2.99    1.51
  -5   0   6    4.60    3.16
  -5   0   5  765.53   30.54
   5   0  -5  663.82   26.99
   5   0  -5  670.70   28.92
  -5   0   5  710.76   29.18
  -5   0   4  150.55    9.56
  -5   0   4  140.36    9.45
   5   0  -4  132.72    9.05
   5   0  -4  131.12    7.50
  -5   0   4  133.02    8.55
  -5   0   3   11.01    3.44
  -5   0   3   11.44    3.20
   5   0  -3   11.19    3.16
   5   0  -3   11.34    2.57
  -5   0   3   13.83    3.21
  -5   0   2   96.43    6.79
  -5   0   2   82.22    6.58
   5   0  -2   72.23    5.19
   5   0  -2   77.50    6.44
  -5   0   2   76.55    5.32
  -5   0   1  169.88    9.11
  -5   0   1  182.98    9.75
   5   0  -1  151.18    9.66
   5   0  -1  161.34    8.15
   5   0  -1  138.68    6.55
   5   0   0   17.25    2.13
   5   0   0   20.81    4.04
  -5   0   0   17.98    2.94
   5   0   0   18.58    2.71
  -5   0   0   24.22    3.88
  -5   0  -1 1125.35   40.69
   5   0   1 1030.97   38.18
  -5   0  -1 1206.09   41.19
   5   0   1 1038.34   38.45
   5   0   1 1075.49   42.20
   5   0   1  956.12   39.09
  -5   0  -2  879.32   33.47
  -5   0  -2  870.83   33.23
   5   0   2  826.43   31.38
   5   0   2  824.30   34.84
   5   0   2  780.73   32.14
  -5   0  -3   13.54    3.37
   5   0   3   12.10    2.76
   5   0   3   11.75    1.91
   5   0   3   11.47    2.54
  -5   0  -4  116.87    8.62
   5   0   4  114.32    5.75
   5   0   4  114.03    5.23
   5   0   4  106.65    5.14
   5   0   4  101.86    5.15
   5   0   4   95.81    7.35
  -5   0  -5    2.68    3.15
   5   0   5    3.07    1.92
   5   0   5    3.14    1.71
   5   0   5    5.79    1.66
   5   0   5    4.06    2.70
   5   0   5    2.61    1.49
  -5   0  -6   18.31    4.28
   5   0   6   15.01    2.63
   5   0   6   17.50    2.35
   5   0   6   15.97    2.28
   5   0   6   15.89    2.20
   5   0   6    9.15    3.39
   5   0   7    0.41    2.06
   5   0   7    1.25    2.80
   5   0   7    2.62    1.74
   5   0   7    1.66    1.48
   5   0   7    2.45    1.66
   5   0   7    1.59    1.74
   5   0   8    0.11    2.25
   5   0   8    0.32    1.79
   5   0   8    1.17    1.75
  -5   0  -8    0.33    1.86
   5   0   9   25.60    3.13
   5   0   9   23.85    2.76
   5   0   9   32.59    2.99
  -5   0  -9   31.19    2.78
   5   0  10  107.73    5.53
   5   0  10   98.76    5.37
  -5   0 -10  111.35    5.49
   5   0  11    1.35    1.51
  -5   0 -11    3.29    1.38
   5   0  11    3.22    1.94
   5   0  12   18.70    2.03
  -5   0 -12   19.70    1.82
   5   0  13   -0.41    0.80
   5   0  13   -0.32    1.01
  -5  -1  15   34.86    2.15
  -5   1  15   31.19    2.09
  -5  -1  14   41.03    3.20
  -5  -1  14   51.43    3.24
   5  -1 -14   52.98    3.23
  -5  -1  14   50.62    3.12
  -5   1  14   55.77    3.19
   5   1 -14   48.48    2.98
  -5   1  14   44.83    3.26
   5   1 -14   50.38    3.21
  -5  -1  13  207.84    9.71
  -5   1  13  214.05    9.80
   5   1 -13  229.60    9.08
  -5  -1  13  233.38    9.29
  -5   1  13  222.10    9.23
   5  -1 -13  228.91    9.01
   5  -1 -13  215.94    9.41
   5   1 -13  231.46    9.53
  -5  -1  12  126.74    6.09
  -5  -1  12  109.58    6.58
  -5   1  12  121.10    6.81
   5  -1 -12  132.22    6.16
   5   1 -12  123.25    5.91
   5  -1 -12  127.87    6.31
   5   1 -12  132.29    6.41
  -5   1  12  124.19    6.05
   5  -1 -12  120.21    5.74
  -5  -1  11   35.74    3.75
   5  -1 -11   33.51    3.09
   5   1 -11   43.05    3.15
   5  -1 -11   43.11    3.46
   5   1 -11   47.74    3.66
   5  -1 -11   40.17    3.01
  -5  -1  11   44.18    3.42
  -5   1  11   44.99    3.44
  -5   1  11   32.40    3.22
  -5   1  10   34.28    3.31
   5   1 -10   38.61    3.18
  -5   1  10   43.76    4.00
  -5  -1  10   29.08    3.58
   5  -1 -10   33.86    2.59
   5   1 -10   39.81    2.96
   5  -1 -10   43.72    3.44
   5   1 -10   40.21    3.44
   5  -1 -10   36.71    2.84
   5   1 -10   33.79    3.00
  -5  -1   9  116.69   10.47
  -5   1   9  127.17    6.59
  -5   1   9  107.60   10.37
  -5   1   9  128.39   10.98
   5  -1  -9  117.08   10.23
   5   1  -9  112.25   10.26
  -5   1   9  129.56    7.07
   5   1  -9  115.89    9.14
   5  -1  -9  118.04    5.51
   5   1  -9  134.62    6.22
   5  -1  -9  125.28    5.91
   5   1  -9  118.27    5.73
   5  -1  -9  134.60    6.29
   5   1  -9  127.99    6.27
   5  -1  -9  125.18    5.64
  -5   1   9  125.99   11.88
   5   1  -9  121.32    5.92
  -5  -1   8  138.82   11.24
  -5   1   8  121.83   11.09
  -5   1   8  150.12    7.33
  -5   1   8  158.98   12.02
   5  -1  -8  145.74   10.84
   5   1  -8  125.74   10.51
  -5   1   8  164.69    7.67
   5   1  -8  139.68    9.79
   5  -1  -8  144.78    6.21
   5   1  -8  152.72    6.80
   5  -1  -8  145.04    6.75
   5   1  -8  144.72    6.76
  -5  -1   8  125.05   10.96
  -5   1   8  121.71   11.43
  -5  -1   7   43.75    5.93
  -5   1   7   37.73    5.90
  -5   1   7   43.50    6.01
   5  -1  -7   33.31    5.08
   5   1  -7   38.30    5.45
  -5   1   7   45.64    3.61
   5   1  -7   32.47    4.64
   5  -1  -7   39.50    2.49
   5   1  -7   43.42    3.01
   5  -1  -7   41.29    2.98
   5   1  -7   42.76    3.07
  -5  -1   7   33.88    5.37
  -5   1   7   43.40    6.40
  -5   1   6  393.93   15.03
  -5   1   6  434.12   20.15
   5  -1  -6  371.23   18.40
   5   1  -6  375.75   18.53
   5  -1  -6  360.71   15.67
   5   1  -6  385.47   17.37
   5   1  -6  381.93   14.28
   5   1  -6  360.22   14.18
   5  -1  -6  357.16   14.16
  -5  -1   6  378.89   18.49
  -5   1   6  390.14   19.64
  -5  -1   5  404.60   18.55
  -5   1   5  381.28   19.01
   5  -1  -5  384.40   18.15
  -5   1   5  401.26   19.05
   5   1  -5  371.27   14.10
   5  -1  -5  360.21   15.36
   5   1  -5  362.35   16.73
   5   1  -5  360.36   17.91
  -5  -1   5  384.54   17.80
  -5   1   5  365.02   18.41
  -5  -1   4  268.25   13.19
  -5   1   4  230.51   13.20
   5  -1  -4  217.03   10.26
   5   1  -4  227.05   11.53
  -5  -1   4  241.89   12.11
  -5   1   4  239.09   12.64
   5   1  -4  218.35   12.49
   5  -1  -4  229.15   12.63
  -5  -1   3  972.65   37.28
  -5   1   3  945.04   37.89
  -5   1   3 1029.59   38.54
   5  -1  -3 1026.72   38.15
   5  -1  -3 1021.40   37.63
   5   1  -3  825.08   37.02
   5  -1  -3  959.53   34.94
  -5  -1   3  895.15   36.01
  -5   1   3  930.95   36.83
  -5  -1   2 1368.69   51.10
  -5   1   2 1605.03   52.51
  -5  -1   2 1117.39   50.63
  -5   1   2 1712.75   53.71
   5  -1  -2 1574.10   53.12
   5   1  -2 1200.68   51.70
   5  -1  -2 1388.58   51.41
  -5  -1   2 1185.03   49.80
  -5   1   2 1545.78   50.68
  -5  -1   1 1493.04   57.34
  -5   1   1 2003.71   59.26
  -5  -1   1 1175.79   57.04
  -5   1   1 2006.69   60.80
   5  -1  -1 1853.76   60.60
   5   1  -1 1361.54   58.68
   5  -1  -1 1981.29   59.74
  -5  -1   1 1434.53   56.41
  -5  -1   0   98.29    6.35
  -5   1   0  136.91    7.52
  -5  -1   0   83.64    6.64
  -5   1   0  125.47    8.31
   5   1   0   98.83    6.54
   5  -1   0  104.49    6.21
   5  -1   0  121.31    8.75
   5   1   0  101.74    8.06
   5  -1   0  125.39    8.10
  -5   1  -1  493.25   20.75
  -5  -1  -1  432.60   19.97
   5  -1   1  502.77   19.26
   5   1   1  453.35   19.43
  -5   1  -1  490.00   21.57
   5  -1   1  445.98   21.75
   5   1   1  432.06   21.41
   5  -1   1  474.87   21.29
  -5   1  -2  183.44   10.22
  -5  -1  -2  180.91   10.23
  -5   1  -2  173.12   10.87
   5   1   2  173.20    9.04
   5  -1   2  167.38    6.98
   5  -1   2  178.75    9.27
   5  -1   2  158.11   10.61
   5   1   2  179.44    9.41
  -5   1  -3  141.11    9.10
  -5  -1  -3  126.35    8.75
  -5   1  -3  132.43    9.47
   5   1   3  127.94    7.93
   5  -1   3  124.30    6.24
   5   1   3  128.33    6.16
   5   1   3  129.37    7.50
   5   1   3  121.57    5.77
  -5   1  -3  128.30    5.79
   5  -1   3  133.12    5.73
   5  -1   3  108.23    9.28
   5  -1   3  140.85    8.33
   5  -1   4   44.87    3.11
  -5   1  -4   48.08    5.63
  -5  -1  -4   52.73    5.88
  -5   1  -4   47.56    5.94
   5  -1   4   44.51    5.01
   5  -1   4   48.72    3.72
   5   1   4   43.02    3.44
   5   1   4   50.88    4.99
   5   1   4   46.93    3.23
   5   1   4   47.36    3.18
  -5   1  -4   53.87    3.38
   5  -1   4   47.76    3.03
  -5   1  -4   45.79    3.12
   5  -1   4   45.07    6.04
   5  -1   5    1.65    1.89
  -5   1  -5    0.76    2.69
  -5  -1  -5    3.42    2.73
   5  -1   5    4.64    3.07
   5   1   5    1.11    1.99
   5   1   5    3.06    1.72
   5   1   5    2.43    1.75
  -5   1  -5    1.62    1.58
   5  -1   5    0.65    2.50
   5   1   5    1.94    1.90
   5  -1   5    1.41    1.34
   5   1   6   60.63    3.70
   5  -1   6   61.17    4.00
  -5   1  -6   66.87    7.44
  -5  -1  -6   61.36    6.94
   5   1   6   58.06    4.15
   5   1   6   70.70    4.14
  -5   1  -6   59.96    3.87
   5   1   6   61.10    3.99
   5  -1   6   67.19    4.11
   5  -1   6   64.60    3.84
   5  -1   6   53.81    6.49
   5  -1   6   53.50    7.31
   5  -1   6   59.86    3.73
   5  -1   7   12.44    2.20
   5   1   7   13.70    2.26
   5  -1   7    8.75    2.21
   5   1   7    7.61    2.28
   5  -1   7    6.92    1.84
   5   1   7    8.31    2.17
  -5   1  -7    8.75    2.02
   5  -1   7    6.51    1.83
   5  -1   7    8.29    2.12
   5   1   7    5.10    1.80
   5  -1   8   35.16    3.27
   5   1   8   30.28    3.14
   5  -1   8   34.79    3.11
   5  -1   8   29.06    2.80
   5   1   8   34.61    3.20
   5  -1   8   32.89    2.64
   5   1   8   32.22    2.85
   5  -1   8   27.48    2.75
   5  -1   8   31.02    3.00
  -5   1  -8   36.84    3.02
  -5  -1  -8   35.82    2.95
   5   1   9   17.22    2.49
   5  -1   9    9.15    2.32
   5  -1   9    7.55    1.99
   5   1   9   10.61    2.30
   5  -1   9   10.08    1.76
   5  -1   9    8.51    2.03
   5  -1   9    8.71    1.85
   5   1   9    9.83    1.99
  -5   1  -9   16.35    2.10
  -5  -1  -9   14.36    2.01
   5  -1   9   10.84    2.30
   5  -1  10    9.78    2.15
   5  -1  10    7.96    1.85
   5   1  10    9.30    2.10
   5  -1  10    7.98    1.85
   5   1  10    7.55    1.78
  -5   1 -10    8.98    1.86
  -5  -1 -10   10.74    1.87
   5  -1  10    7.32    2.13
   5   1  10    7.05    2.21
   5  -1  11   52.40    3.30
   5  -1  11   64.14    3.58
   5   1  11   54.80    3.51
   5   1  11   65.30    3.64
  -5   1 -11   54.76    3.35
  -5  -1 -11   60.83    3.44
  -5  -1 -12    0.78    0.84
   5  -1  12    1.60    1.39
   5   1  12    2.41    1.42
   5   2 -15    7.77    1.15
  -5  -2  15    7.40    1.29
  -5  -2  14   20.72    1.76
  -5   2  14   16.58    1.86
  -5  -2  14   20.17    2.23
  -5   2  14   17.56    1.69
   5  -2 -13   24.99    2.29
   5   2 -13   21.71    2.21
  -5  -2  13   19.90    2.51
  -5   2  13   23.04    2.10
  -5  -2  13   24.39    2.24
  -5   2  13   27.76    2.27
   5  -2 -13   22.58    2.27
  -5   2  13   22.64    2.52
   5  -2 -13   19.59    1.73
   5  -2 -13   22.96    2.23
   5   2 -13   23.55    2.24
  -5  -2  12  188.71    9.40
  -5   2  12  204.98    8.81
   5  -2 -12  209.25    8.58
  -5  -2  12  226.63    8.87
  -5   2  12  218.10    8.80
   5  -2 -12  218.89    9.05
   5   2 -12  219.47    9.08
   5  -2 -12  208.38    8.98
   5  -2 -12  219.57    8.69
  -5   2  11   71.68    4.69
   5   2 -11   88.61    4.92
  -5  -2  11   72.86    5.20
   5  -2 -11   79.39    4.28
  -5   2  11   91.21    5.55
   5   2 -11   84.29    4.61
   5  -2 -11   90.70    4.72
  -5  -2  11   88.40    4.67
   5  -2 -11   86.75    4.78
   5   2 -11   81.06    4.77
  -5   2  11   78.42    4.53
  -5   2  11   80.83    4.48
   5  -2 -11   89.10    4.43
   5   2 -10  472.92   17.75
  -5   2  10  479.77   18.67
   5  -2 -10  459.00   17.20
  -5   2  10  473.06   17.26
   5   2 -10  459.33   17.32
   5  -2 -10  459.86   17.43
   5  -2 -10  464.43   17.56
   5   2 -10  462.94   17.59
  -5  -2  10  444.46   17.23
  -5   2  10  441.08   17.20
   5  -2 -10  463.15   17.10
  -5   2  10  438.89   17.86
   5   2 -10  437.83   17.01
   5   2  -9    0.63    1.70
   5   2  -9    0.17    1.50
   5  -2  -9    0.47    1.44
  -5   2   9   -0.13    1.83
  -5   2   9    2.19    2.28
   5  -2  -9    0.09    1.28
   5   2  -9    1.22    1.83
  -5   2   9    0.91    1.29
   5  -2  -9    4.58    1.62
   5   2  -9    3.64    1.68
   5   2  -9    0.91    1.94
  -5  -2   8   35.22    5.86
  -5   2   8   46.15    7.22
  -5   2   8   57.68    7.06
   5  -2  -8   44.29    6.01
   5   2  -8   49.71    6.46
   5   2  -8   52.04    3.66
  -5   2   8   55.12    4.23
   5  -2  -8   54.72    3.27
  -5   2   8   52.25    3.14
   5  -2  -8   52.90    3.46
   5   2  -8   49.56    3.51
   5   2  -8   46.13    3.45
  -5   2   8   41.21    7.19
  -5   2   8   51.54    3.98
   5  -2  -8   53.35    3.23
   5   2  -8   49.93    3.30
  -5  -2   7    2.81    2.89
  -5   2   7    3.16    3.33
  -5   2   7    7.55    2.10
  -5   2   7    7.24    3.38
   5   2  -7    3.97    1.71
   5  -2  -7    7.70    3.11
   5   2  -7    9.08    3.19
  -5   2   7    5.36    2.01
   5   2  -7    5.37    3.07
   5  -2  -7    6.17    1.46
   5  -2  -7    5.65    1.62
   5   2  -7    3.54    1.59
  -5  -2   7    1.97    2.95
  -5   2   7    1.08    3.47
  -5   2   6  157.17   11.18
   5  -2  -6  144.74    6.42
   5   2  -6  144.32    6.54
   5  -2  -6  142.09    5.94
   5  -2  -6  147.70   10.19
   5   2  -6  136.16   10.14
  -5   2   6  148.16    7.12
   5   2  -6  143.46    9.73
   5  -2  -6  144.99    6.29
   5  -2  -6  140.09    6.35
  -5  -2   6  138.29    9.93
  -5   2   6  138.97   11.32
   5   2  -6  143.78    6.42
  -5  -2   5   38.14    5.10
  -5   2   5   38.39    6.01
  -5   2   5   35.71    5.40
   5  -2  -5   32.92    2.44
   5   2  -5   32.43    2.53
   5  -2  -5   40.08    4.94
   5   2  -5   34.07    2.75
   5   2  -5   23.87    4.35
  -5   2   5   32.07    2.84
  -5   2   5   39.49    3.18
   5   2  -5   34.36    4.60
   5  -2  -5   34.53    2.40
   5  -2  -5   32.70    2.13
   5  -2  -5   30.34    2.41
   5   2  -5   30.73    2.46
  -5  -2   5   31.70    4.54
  -5   2   5   38.87    5.70
  -5  -2   4  359.97   16.53
  -5   2   4  308.77   17.27
  -5   2   4  324.28   12.78
  -5   2   4  349.49   17.34
  -5   2   4  319.97   14.58
   5  -2  -4  344.29   16.43
   5   2  -4  298.49   12.30
   5   2  -4  321.36   16.24
   5  -2  -4  323.46   12.14
   5  -2  -4  310.43   11.82
   5   2  -4  347.21   15.69
  -5  -2   4  334.09   15.56
  -5   2   4  299.02   16.39
  -5   2   3 1062.43   44.31
  -5   2   3 1119.90   44.35
  -5   2   3 1165.56   41.69
   5  -2  -3 1174.72   43.79
   5   2  -3 1096.57   43.54
   5   2  -3 1120.64   42.42
  -5   2   3 1094.76   39.43
   5  -2  -3 1071.52   38.81
  -5  -2   3 1167.77   42.39
  -5   2   3 1031.92   42.67
  -5  -2   3 1245.70   43.66
  -5   2   2   27.10    4.45
   5  -2  -2   31.37    4.63
  -5   2   2   29.26    4.63
  -5   2   2   31.78    3.52
   5  -2  -2   32.12    4.62
   5   2  -2   30.47    4.14
   5   2  -2   26.06    4.50
  -5  -2   2   35.45    3.91
   5  -2  -2   34.98    3.22
  -5  -2   2   33.49    3.43
  -5  -2   2   41.01    4.56
  -5   2   1  122.26    9.05
   5  -2  -1  126.00    9.28
  -5   2   1  128.53    7.66
   5  -2  -1  135.07    9.41
   5   2  -1  124.66    9.18
   5   2  -1  140.12    8.51
  -5  -2   1  140.16    7.92
   5  -2  -1  139.39    7.54
  -5  -2   1  123.31    7.74
  -5  -2   1  166.38    8.93
  -5   2   0  296.49   15.02
   5  -2   0  291.83   15.98
  -5   2   0  291.91   14.02
  -5  -2   0  245.50   13.37
   5  -2   0  278.55   11.16
  -5   2   0  284.75   15.80
  -5   2   0  305.42   13.87
   5   2   0  303.28   14.49
   5   2   0  304.30   14.25
   5  -2   0  304.78   15.81
   5   2   0  270.05   14.97
   5  -2   0  292.44   11.05
   5  -2   0  293.09   10.99
   5  -2   0  300.92   13.48
   5  -2   0  316.86   13.84
  -5  -2   0  339.31   14.22
  -5   2  -1  186.39   10.29
  -5  -2  -1  160.30    9.93
  -5   2  -1  185.98   12.12
  -5   2  -1  181.42   10.19
   5   2   1  196.14   10.46
   5  -2   1  196.98   10.39
   5  -2   1  183.40    7.66
   5  -2   1  194.24    7.52
   5   2   1  202.65   10.91
  -5   2  -1  180.11    7.91
   5  -2   1  189.40   12.44
   5  -2   1  189.19    7.58
  -5  -2  -1  183.31   10.10
   5  -2   1  194.54   10.19
   5  -2   1  176.66   10.23
  -5   2  -2  217.46   11.42
  -5  -2  -2  191.89   11.05
  -5   2  -2  212.61   13.22
  -5   2  -2  209.34   11.41
   5   2   2  196.44    8.51
   5   2   2  213.33   11.19
   5  -2   2  221.86   11.26
  -5   2  -2  195.62    8.46
   5  -2   2  204.19    8.21
   5  -2   2  193.78   13.37
   5  -2   2  189.88    8.23
   5   2   2  201.80   11.36
   5  -2   2  204.67   11.47
  -5   2  -3   40.56    4.85
  -5  -2  -3   34.25    4.73
  -5   2  -3   43.03    6.11
  -5   2  -3   40.48    4.96
   5  -2   3   40.01    3.43
   5   2   3   39.19    3.17
   5  -2   3   41.14    6.25
   5   2   3   47.53    4.78
   5   2   3   44.24    3.20
  -5   2  -3   43.95    3.30
   5   2   3   52.81    5.63
   5  -2   3   40.70    2.92
   5  -2   3   49.45    2.90
  -5   2  -3   45.14    3.21
   5  -2   3   47.48    5.01
   5  -2   3   50.72    5.57
   5  -2   4   27.59    4.37
  -5   2  -4   26.44    4.21
  -5  -2  -4   35.86    4.72
  -5   2  -4   40.65    5.98
  -5   2  -4   34.74    4.58
   5  -2   4   29.48    3.10
   5   2   4   26.21    2.81
   5  -2   4   31.78    5.86
   5   2   4   35.00    4.76
   5   2   4   25.29    2.78
  -5   2  -4   29.10    2.84
   5   2   4   23.47    3.63
   5  -2   4   28.08    2.41
  -5   2  -4   27.88    2.74
  -5   2  -5  268.07   11.09
  -5   2  -5  232.66   14.48
  -5  -2  -5  256.43   14.84
   5  -2   5  255.13   14.82
  -5   2  -5  254.69   16.63
  -5   2  -5  242.69   14.75
   5   2   5  281.09   11.25
  -5   2  -5  260.30   11.15
   5  -2   5  278.95   10.81
   5   2   5  277.14   10.57
   5  -2   5  265.60   11.02
   5   2   5  266.66   10.63
   5  -2   5  245.08   17.25
   5   2   5  264.05   14.79
   5   2   6  534.01   19.99
   5   2   6  510.64   19.53
  -5   2  -6  513.25   19.88
   5  -2   6  538.37   19.93
   5  -2   6  521.78   19.43
   5   2   6  518.03   19.22
  -5   2  -6  508.47   19.70
   5  -2   6  521.61   19.76
   5   2   6  516.74   19.27
   5  -2   7  151.78    7.23
   5  -2   7  180.58    7.80
   5   2   7  182.32    8.01
   5  -2   7  156.38    7.33
   5   2   7  147.01    7.36
  -5   2  -7  153.06    7.61
   5  -2   7  173.55    7.81
   5   2   7  161.00    7.13
  -5   2  -7  169.33    7.55
   5  -2   7  163.47    7.63
  -5   2  -7  169.84    7.26
  -5  -2  -7  163.21    7.24
   5   2   7  151.35    7.04
   5  -2   8   31.20    2.79
   5  -2   8   38.15    3.36
   5   2   8   39.46    3.49
   5  -2   8   31.63    3.06
   5   2   8   36.37    3.19
  -5   2  -8   34.51    3.20
   5  -2   8   40.95    3.45
   5   2   8   35.29    2.90
  -5   2  -8   36.02    2.87
  -5  -2  -8   34.36    2.86
   5   2   8   38.43    2.84
   5  -2   9  154.36    6.99
   5  -2   9  137.28    6.48
   5   2   9  139.57    6.57
   5   2   9  154.33    7.01
  -5   2  -9  146.96    6.73
   5  -2   9  152.70    6.86
   5   2   9  148.15    6.41
   5  -2   9  130.59    6.35
  -5   2  -9  133.27    6.34
  -5  -2  -9  137.05    6.39
   5   2   9  141.81    6.18
   5  -2  10    3.79    1.71
   5  -2  10    3.22    1.71
   5   2  10    2.96    1.80
   5  -2  10    2.65    1.33
  -5  -2 -10    2.04    1.09
   5   2  10    3.10    1.51
  -5   2 -10    0.75    1.25
  -5  -2 -10    1.65    1.23
   5  -2  10    3.47    1.66
   5   2  10    1.32    1.70
   5  -2  11   29.21    2.06
   5   2  11   34.13    2.18
   5  -2  11   32.31    2.22
   5   2  11   34.46    2.35
  -5  -2 -11   26.77    2.03
   5   2  11   28.16    2.09
   5   3 -14    5.08    1.12
  -5  -3  14    6.02    1.36
   5   3 -14    4.60    0.84
   5   3 -13   11.52    1.77
   5  -3 -13   13.45    1.33
  -5   3  13    8.97    1.40
  -5  -3  13   11.23    1.99
   5   3 -13   10.26    1.46
   5  -3 -13    9.56    1.43
  -5   3  12   84.01    4.79
   5  -3 -12   81.72    4.13
  -5   3  12   79.71    4.24
  -5  -3  12   92.22    4.99
   5   3 -12   93.62    4.55
  -5  -3  12   68.92    4.59
   5   3 -12   91.21    4.31
   5  -3 -12   97.38    4.46
  -5   3  11   21.20    2.33
   5   3 -11   22.79    2.63
   5   3 -11   30.25    2.92
  -5   3  11   30.10    3.05
   5  -3 -11   27.22    2.33
   5  -3 -11   24.77    2.39
   5  -3 -11   25.78    2.28
   5   3 -11   21.61    2.26
  -5   3  11   27.51    2.41
   5   3 -10  166.86    7.81
  -5   3  10  174.75    8.32
  -5   3  10  160.52    7.75
   5  -3 -10  166.71    7.36
  -5   3  10  173.22    7.32
   5  -3 -10  164.58    7.38
   5  -3 -10  165.57    7.14
   5   3 -10  159.88    7.22
  -5  -3   9  204.75    8.48
   5   3  -9  208.57    9.33
  -5   3   9  221.69    9.89
   5  -3  -9  217.81    8.94
  -5   3   9  210.74    8.74
   5  -3  -9  199.44    8.38
   5  -3  -9  211.38    8.91
  -5   3   9  211.83    9.52
   5  -3  -9  205.39    8.60
   5   3  -9  198.84    8.73
  -5  -3   8  398.32   15.29
  -5   3   8  426.14   16.76
   5  -3  -8  417.85   15.81
  -5   3   8  412.52   15.57
  -5   3   8  410.52   16.59
   5  -3  -8  407.80   15.32
   5  -3  -8  413.77   15.76
   5  -3  -8  400.98   15.45
   5   3  -8  408.63   15.65
   5   3  -7    0.79    1.87
   5  -3  -7    2.42    1.58
  -5   3   7    0.43    1.90
  -5  -3   7    2.08    1.30
   5   3  -7    1.88    1.84
  -5   3   7    2.63    1.91
   5  -3  -7    1.12    1.42
  -5   3   7    0.50    1.30
   5  -3  -7    2.18    1.21
   5   3  -7    0.99    1.88
   5  -3  -6    6.66    1.62
   5   3  -6    7.27    1.99
   5   3  -6   12.00    2.11
  -5   3   6    6.28    1.95
   5   3  -6    5.71    3.37
  -5   3   6    7.24    1.52
   5   3  -6    5.86    1.70
   5  -3  -6    6.74    1.37
  -5  -3   6    6.56    3.33
  -5   3   6    6.62    4.07
   5   3  -6    5.61    1.95
  -5   3   5  151.88   12.74
  -5   3   5  167.93   12.06
   5   3  -5  158.94    7.24
  -5   3   5  167.86    7.82
  -5   3   5  156.58    7.33
   5  -3  -5  158.29    6.71
   5   3  -5  151.68   10.47
  -5  -3   5  158.62   10.68
  -5   3   5  132.82   11.50
  -5  -3   5  154.69   11.32
  -5   3   4  158.76   12.84
  -5   3   4  176.20   12.47
  -5   3   4  173.31   10.25
  -5   3   4  177.11    8.06
   5  -3  -4  166.24   11.87
   5   3  -4  172.40    7.49
   5   3  -4  165.12   10.72
   5  -3  -4  173.84    6.93
   5  -3  -4  175.56    7.14
   5  -3  -4  162.88    7.28
  -5  -3   4  155.32   10.49
  -5   3   3  103.78    9.86
  -5   3   3  110.30    9.53
  -5   3   3  115.22    8.05
  -5   3   3  110.73    5.89
   5   3  -3  114.38    8.44
   5  -3  -3  120.51    9.72
   5  -3  -3  112.45    5.41
   5  -3  -3  126.59    5.18
   5  -3  -3  117.78    5.27
  -5  -3   3  124.62    8.52
  -5   3   2  289.05   16.56
  -5   3   2  277.50   16.06
  -5   3   2  280.68   13.92
  -5   3   2  258.81   11.00
  -5   3   2  261.61   10.80
   5   3  -2  279.70   14.14
   5  -3  -2  263.35   15.60
   5  -3  -2  268.39   10.60
   5  -3  -2  277.59   10.34
  -5   3   2  255.73   10.82
   5  -3  -2  262.28   10.39
  -5  -3   2  279.29   14.02
   5  -3  -2  293.73   13.20
  -5  -3   2  253.00   13.30
  -5   3   1   47.92    6.32
  -5   3   1   53.82    6.81
  -5   3   1   46.07    5.10
   5   3  -1   46.66    5.41
  -5   3   1   60.18    3.73
   5  -3  -1   58.40    3.36
   5  -3  -1   64.42    7.17
   5  -3  -1   59.32    3.15
  -5   3   1   58.14    3.68
   5  -3  -1   61.50    3.27
   5  -3  -1   55.57    5.00
  -5  -3   1   54.12    5.56
  -5   3   1   55.63    3.58
  -5   3   0   95.59    8.77
  -5   3   0  110.65    9.73
  -5   3   0  111.37    8.10
   5   3   0  102.51    8.34
  -5   3   0  110.22    5.54
   5   3   0  101.55    8.07
   5  -3   0  114.03    5.05
  -5   3   0  107.40    5.51
   5  -3   0  117.00    5.28
  -5   3   0  104.68    5.28
   5  -3   0  111.89    7.65
  -5  -3   0  113.07    8.53
   5  -3   0  106.40    7.49
  -5   3  -1    1.29    1.93
   5   3   1    0.35    2.41
   5   3   1   -0.64    2.07
  -5   3  -1    3.29    1.81
   5  -3   1    0.83    1.26
   5  -3   1    0.94    2.42
   5  -3   1    1.70    1.99
  -5  -3  -1    1.10    2.34
   5  -3   1   -0.28    2.01
  -5   3  -2    1.57    3.07
   5  -3   2    3.29    3.46
  -5   3  -2    3.15    2.24
   5   3   2    1.86    2.46
   5   3   2    2.99    2.42
  -5   3  -2    4.14    1.91
   5  -3   2    3.02    1.40
   5  -3   2    2.30    1.34
   5  -3   2    6.89    3.07
   5  -3   2    2.21    2.12
  -5  -3  -2    2.38    2.89
   5  -3   2    2.17    2.15
   5   3   3  341.82   18.10
  -5   3  -3  319.12   19.74
   5  -3   3  362.45   13.47
  -5   3  -3  360.03   18.14
   5   3   3  345.06   17.37
   5  -3   3  345.65   13.66
   5  -3   3  321.90   13.26
   5  -3   3  337.28   13.12
   5   3   3  327.12   12.92
  -5   3  -3  333.72   13.69
   5   3   3  360.39   13.09
   5  -3   3  379.33   18.03
   5  -3   3  344.61   13.34
   5  -3   3  313.10   20.33
  -5  -3  -3  329.10   17.66
   5  -3   3  306.26   17.47
  -5  -3  -3  366.92   18.94
   5  -3   3  328.43   17.53
  -5   3  -4  360.17   14.92
   5  -3   4  380.57   14.54
   5  -3   4  387.74   15.00
   5  -3   4  377.99   14.41
   5   3   4  372.08   14.22
   5   3   4  386.45   14.31
   5  -3   4  383.89   14.62
   5   3   4  361.41   14.43
  -5  -3  -4  367.70   19.31
   5  -3   4  335.04   18.96
   5  -3   5  478.44   17.73
  -5   3  -5  458.61   18.33
   5  -3   5  481.42   18.30
   5  -3   5  469.52   17.70
  -5   3  -5  463.61   18.27
   5  -3   5  465.60   17.94
   5   3   5  473.68   17.78
   5  -3   6  378.21   14.26
  -5   3  -6  369.87   15.01
   5  -3   6  369.93   14.40
   5  -3   6  388.16   15.03
   5   3   6  376.18   14.26
  -5   3  -6  375.96   14.94
   5  -3   6  352.16   14.74
   5   3   6  369.68   14.41
   5  -3   7   33.21    2.75
   5  -3   7   33.87    3.35
   5  -3   7   31.15    2.97
  -5   3  -7   32.98    3.20
  -5   3  -7   34.71    3.13
   5   3   7   33.53    2.78
   5  -3   7   31.68    2.95
   5   3   7   29.28    2.79
   5  -3   8  139.33    6.43
  -5   3  -8  130.53    6.44
  -5  -3  -8  116.61    5.70
   5   3   8  144.36    6.07
   5  -3   8  120.28    5.89
  -5   3  -8  144.37    6.40
   5   3   8  138.49    6.09
   5  -3   9   29.66    2.70
  -5   3  -9   33.19    2.75
  -5  -3  -9   29.34    2.18
   5   3   9   30.93    2.46
  -5   3  -9   34.42    2.64
   5   3   9   39.57    2.59
   5  -3  10    5.65    1.46
  -5   3 -10    8.18    1.48
   5  -3  10    5.38    1.28
  -5  -3 -10    4.98    0.99
   5  -3  10    6.04    1.62
   5   3  10   10.73    1.44
   5   3  10    6.21    1.40
   5  -3  11    9.35    1.27
   5   3  11    6.63    0.98
   5  -4 -13    3.18    0.75
   5   4 -13    4.40    0.91
   5   4 -13    3.21    0.72
  -5   4  13    3.06    0.78
   5   4 -12   52.76    2.85
  -5   4  12   48.40    2.97
  -5  -4  12   53.49    3.05
  -5   4  12   51.25    2.75
   5   4 -12   51.85    2.70
   5  -4 -12   50.41    2.66
   5   4 -12   55.00    2.73
  -5   4  11   85.46    4.61
   5  -4 -11   88.27    4.20
  -5  -4  11   95.17    4.63
  -5   4  11   91.78    4.23
   5   4 -11   95.11    4.29
   5  -4 -11   87.47    4.20
   5   4 -11   94.01    4.42
  -5   4  10   51.80    3.44
  -5  -4  10   49.57    3.17
   5   4 -10   57.04    3.64
  -5   4  10   56.40    3.75
  -5   4  10   60.31    3.33
  -5  -4  10   61.14    3.82
   5  -4 -10   52.46    2.95
   5   4 -10   57.86    3.42
   5  -4 -10   56.30    3.29
   5  -4  -9    5.96    1.61
  -5   4   9    4.32    1.73
  -5  -4   9    5.69    1.54
   5   4  -9    4.25    1.90
  -5   4   9    5.77    1.94
  -5  -4   9    3.35    1.96
  -5   4   9    4.90    1.52
   5   4  -9    3.46    1.78
   5  -4  -9    5.25    1.28
   5  -4  -9    5.60    1.54
  -5   4   8  103.84    5.70
  -5  -4   8  103.14    4.95
   5   4  -8   94.45    5.39
  -5   4   8   98.03    5.61
   5  -4  -8  102.93    5.15
  -5   4   8  103.09    5.01
   5  -4  -8   99.73    4.83
   5   4  -8   99.95    5.20
   5  -4  -8  102.82    5.11
   5  -4  -8  101.16    4.90
   5   4  -8   99.94    5.19
   5  -4  -7    7.92    1.81
  -5  -4   7    8.24    1.69
  -5   4   7    9.14    2.33
   5   4  -7    6.78    2.15
   5   4  -7   10.44    2.44
  -5   4   7    8.53    2.09
   5  -4  -7   10.82    1.95
  -5   4   7   11.55    1.83
   5   4  -7    9.71    2.08
   5  -4  -7    9.21    1.62
   5  -4  -7    7.93    1.77
   5  -4  -6   26.49    2.52
   5   4  -6   20.59    2.72
   5   4  -6   24.36    2.91
  -5   4   6   27.18    2.84
   5  -4  -6   27.34    2.50
   5   4  -6   23.75    2.52
  -5   4   6   26.06    2.37
   5  -4  -6   26.18    2.26
   5  -4  -6   23.10    2.50
   5  -4  -5   44.70    3.14
  -5   4   5   45.28    3.82
   5   4  -5   40.88    3.34
  -5   4   5   37.56    3.16
   5  -4  -5   49.25    3.27
   5   4  -5   43.49    3.16
   5  -4  -5   45.04    2.74
  -5   4   5   49.10    3.10
   5   4  -5   47.00    3.55
   5  -4  -5   44.59    2.98
   5   4  -5   43.47    3.45
   5   4  -4   22.31    2.68
   5  -4  -4   20.83    2.39
  -5   4   4   27.41    3.04
   5   4  -4   24.55    2.84
   5  -4  -4   25.03    2.41
   5   4  -4   24.91    2.42
   5  -4  -4   27.37    2.14
   5  -4  -4   28.96    2.33
   5  -4  -4   27.91    2.71
   5  -4  -3   72.45    4.17
   5  -4  -3   70.13    3.96
  -5   4   3   74.77    4.74
   5  -4  -3   73.98    4.22
   5   4  -3   73.64    4.08
   5  -4  -3   82.60    3.98
  -5   4   3   75.78    4.39
   5  -4  -3   77.10    4.09
   5  -4  -3   80.68    4.47
   5   4  -3   72.49    4.34
   5   4  -3   72.44    4.30
   5  -4  -2   70.04    3.91
  -5   4   2   73.83    4.46
   5   4  -2   71.75    4.24
   5  -4  -2   65.73    3.83
   5   4  -2   64.86    3.72
   5  -4  -2   71.52    3.74
  -5   4   2   71.62    4.26
   5   4  -2   60.66    3.48
   5   4  -2   66.90    4.00
   5   4  -2   58.19    3.75
   5  -4  -2   71.39    4.21
   5   4  -2   67.22    3.99
   5  -4  -1   41.82    3.05
  -5   4   1   38.34    3.09
   5   4  -1   33.86    3.07
   5  -4  -1   38.53    2.82
   5   4  -1   33.03    2.57
   5  -4  -1   43.22    2.71
  -5   4   1   33.76    3.11
  -5   4   1   35.50    2.78
   5   4  -1   28.57    2.27
   5   4  -1   30.54    2.76
   5  -4  -1   36.53    3.07
  -5   4   1   38.25    3.06
   5  -4   0   79.95    4.41
  -5   4   0   68.56    4.26
  -5   4   0   74.14    4.53
   5   4   0   73.75    4.39
   5  -4   0   79.45    4.25
   5  -4   0   81.01    4.12
   5   4   0   72.06    3.85
  -5   4   0   75.00    4.64
  -5   4   0   82.58    4.31
   5  -4   0   72.24    4.11
   5   4   0   72.11    3.78
   5   4   0   69.41    4.18
   5  -4   0   87.51    4.75
   5  -4   1  166.21    7.39
  -5   4  -1  160.31    7.52
   5   4   1  160.60    7.10
   5  -4   1  150.29    7.00
   5   4   1  156.55    6.75
  -5   4  -1  151.02    7.50
  -5   4  -1  165.36    7.23
   5   4   1  163.06    6.97
   5  -4   1  155.93    7.02
   5   4   1  151.32    6.63
   5   4   1  164.77    7.18
   5  -4   1  163.68    7.52
   5  -4   2  492.10   19.21
  -5   4  -2  501.95   19.59
   5  -4   2  507.35   18.97
   5   4   2  524.94   18.98
   5  -4   2  485.29   19.02
   5   4   2  492.94   18.72
  -5   4  -2  492.83   19.59
  -5   4  -2  540.04   19.35
   5   4   2  516.10   18.94
   5  -4   2  526.81   19.19
   5   4   2  522.15   19.16
   5  -4   2  528.49   19.57
   5  -4   3  194.29    8.13
   5  -4   3  180.50    8.04
   5  -4   3  181.32    7.65
   5   4   3  174.21    7.48
   5   4   3  175.84    7.62
  -5   4  -3  177.52    7.85
   5  -4   3  169.50    7.73
   5   4   3  169.05    7.76
  -5   4  -3  171.24    8.20
   5  -4   3  171.37    8.05
   5  -4   4   15.34    2.34
  -5   4  -4   15.28    2.59
   5  -4   4   14.80    2.03
   5  -4   4   18.44    2.51
   5   4   4   15.98    2.07
   5   4   4   17.93    2.28
  -5   4  -4   15.01    2.14
   5  -4   4   15.53    2.17
   5   4   4   17.50    2.49
   5  -4   4   15.06    2.31
   5  -4   5   24.68    2.48
  -5   4  -5   26.10    2.85
   5  -4   5   26.69    2.90
   5  -4   5   20.98    2.29
   5   4   5   29.71    2.66
  -5   4  -5   24.90    2.85
   5  -4   5   21.45    2.43
   5  -4   5   19.80    2.43
   5  -4   6   48.32    3.19
   5  -4   6   61.24    3.81
   5  -4   6   38.75    3.09
  -5   4  -6   57.62    3.75
   5  -4   6   50.25    3.36
   5  -4   7  183.58    7.55
   5  -4   7  217.11    8.20
  -5   4  -7  184.63    8.22
   5  -4   7  197.77    8.26
   5  -4   7  183.96    7.70
   5   4   7  190.77    7.77
  -5   4  -7  191.32    8.18
   5  -4   7  160.67    7.92
   5   4   7  191.25    7.93
   5  -4   8   49.79    3.09
   5  -4   8   50.62    3.26
  -5   4  -8   48.65    3.20
   5   4   8   53.45    2.97
  -5   4  -8   44.42    3.03
  -5   4  -8   42.03    2.77
   5   4   8   55.53    3.09
   5  -4   9  150.07    6.07
  -5   4  -9  145.70    6.02
   5   4   9  155.32    5.77
   5   4   9  157.48    5.88
   5  -4  10   62.59    2.88
   5   4  10   66.32    2.72
  -5  -5  11   27.97    1.80
  -5   5  11   25.33    1.49
   5   5 -11   22.58    1.36
   5   5 -10  210.13    7.93
   5  -5 -10  209.61    7.91
  -5   5   9   18.98    1.81
  -5  -5   9   15.78    1.73
  -5   5   9   19.83    1.91
   5  -5  -9   18.25    1.66
   5   5  -9   17.41    1.71
   5   5  -9   19.85    1.85
   5  -5  -9   19.90    1.58
   5  -5  -9   17.79    1.64
   5  -5  -8    4.46    1.38
  -5  -5   8    5.13    1.43
   5  -5  -8    4.38    1.19
  -5   5   8    4.82    1.50
  -5   5   8    3.64    1.38
   5   5  -8    5.24    1.46
   5   5  -8    4.91    1.53
   5  -5  -8    4.66    1.14
   5  -5  -8    5.13    1.35
  -5   5   7   27.02    2.67
  -5  -5   7   26.93    2.41
  -5   5   7   32.62    2.58
   5  -5  -7   32.42    2.39
   5   5  -7   28.43    2.37
   5   5  -7   31.95    2.55
   5  -5  -7   30.21    2.20
   5  -5  -7   28.99    2.37
   5  -5  -7   31.29    2.30
  -5  -5   6   33.43    2.63
   5   5  -6   32.80    2.98
  -5   5   6   30.00    2.53
   5  -5  -6   32.98    2.54
   5   5  -6   33.69    2.63
  -5   5   6   35.44    2.52
   5  -5  -6   31.13    2.09
   5   5  -6   33.72    2.73
   5  -5  -6   35.05    2.48
   5   5  -6   27.21    2.08
   5  -5  -6   37.00    2.66
   5  -5  -6   38.13    2.66
   5  -5  -5   67.37    3.78
  -5   5   5   67.34    4.36
   5  -5  -5   71.87    3.91
   5   5  -5   70.99    3.87
   5  -5  -5   75.61    3.59
  -5   5   5   72.99    3.84
   5   5  -5   70.33    3.91
   5  -5  -5   71.19    3.77
   5   5  -5   60.86    3.45
   5  -5  -5   68.09    3.93
   5  -5  -4   18.03    2.13
  -5   5   4   17.38    2.47
   5  -5  -4   16.25    2.00
   5  -5  -4   15.92    1.75
   5   5  -4   16.61    2.01
  -5   5   4   15.76    1.90
   5   5  -4   13.57    2.14
   5   5  -4   15.65    1.65
   5  -5  -3  146.24    6.44
   5  -5  -3  135.83    6.06
  -5   5   3  147.65    7.05
   5  -5  -3  136.04    6.35
   5   5  -3  143.82    6.30
   5  -5  -3  142.37    6.20
  -5   5   3  157.59    6.50
   5   5  -3  143.12    6.42
   5   5  -3  134.00    6.00
   5  -5  -2    1.78    1.85
  -5   5   2    0.23    1.55
   5  -5  -2   -0.43    1.31
   5   5  -2    4.26    1.54
   5  -5  -2   -0.16    1.24
  -5   5   2    0.33    1.31
   5   5  -2    2.90    1.88
   5  -5  -2    1.28    1.45
   5   5  -2    4.55    1.30
   5  -5  -2    1.89    1.78
   5  -5  -2    2.00    1.49
   5  -5  -1   61.88    3.73
   5  -5  -1   64.86    3.68
  -5   5   1   61.56    3.87
   5  -5  -1   60.54    3.55
   5  -5  -1   58.99    3.44
  -5   5   1   62.50    3.58
  -5   5   1   55.97    3.78
   5   5  -1   54.97    3.53
   5  -5  -1   60.26    3.53
   5   5  -1   58.36    3.26
   5  -5  -1   64.28    3.97
   5  -5   0   20.27    2.35
  -5   5   0   21.34    2.24
   5  -5   0   19.34    2.07
   5   5   0   20.31    1.94
  -5   5   0   19.63    2.13
  -5   5   0   19.44    2.53
   5   5   0   20.08    2.21
   5  -5   0   19.34    2.10
   5   5   0   18.85    1.81
   5   5   0   18.70    2.21
   5  -5   0   22.89    2.64
   5  -5   1  312.75   12.18
   5  -5   1  299.60   11.86
   5  -5   1  314.22   11.91
   5   5   1  294.14   11.59
  -5   5  -1  307.75   11.99
  -5   5  -1  296.73   12.32
   5   5   1  306.71   11.87
   5  -5   1  314.83   12.04
   5   5   1  305.26   11.65
   5   5   1  305.23   11.87
   5  -5   1  306.63   12.40
   5  -5   2   13.53    2.16
   5  -5   2   10.42    1.67
  -5   5  -2   14.26    1.88
   5   5   2   12.87    1.82
  -5   5  -2   14.70    2.33
   5   5   2   12.10    1.99
  -5   5  -2   13.46    2.06
   5  -5   2   13.16    1.83
   5   5   2   13.80    2.14
   5  -5   2   15.08    2.25
  -5   5  -3   28.88    2.67
   5  -5   3   23.36    2.21
   5   5   3   28.57    2.30
  -5   5  -3   26.28    2.27
   5   5   3   26.81    2.47
   5  -5   3   30.11    2.46
   5   5   3   28.24    2.62
  -5   5  -3   30.82    2.77
   5  -5   3   31.43    2.70
  -5   5  -4    1.26    1.50
   5  -5   4    2.14    1.22
   5   5   4    2.57    1.42
  -5   5  -4    1.68    1.60
  -5   5  -4    0.54    1.15
   5   5   4    3.61    1.69
   5  -5   4    0.31    1.28
   5   5   4    1.32    1.67
   5  -5   4    2.01    1.49
   5  -5   5   25.44    2.16
   5  -5   5   22.52    2.16
  -5   5  -5   20.58    2.23
   5  -5   5   20.06    1.87
   5   5   5   26.78    2.17
  -5   5  -5   27.10    2.36
  -5   5  -5   21.85    1.87
   5  -5   5   20.73    2.04
   5   5   5   24.94    2.33
   5  -5   5   23.60    2.15
   5  -5   6    1.71    1.15
   5  -5   6    1.02    1.20
  -5   5  -6    2.45    1.33
   5  -5   6    0.52    1.31
   5  -5   6    0.45    0.91
  -5   5  -6    0.22    0.84
   5  -5   6    1.32    1.06
   5   5   6    1.22    1.44
   5  -5   7   26.92    1.71
   5  -5   7   26.31    1.95
   5   5   7   30.58    1.92
   5   5   7   28.77    2.08
   5   5   8   74.58    3.20
   5   6  -8   12.34    0.97
  -5   6   7   94.92    3.71
   5   6  -7   87.72    3.65
   5   6  -7   91.49    3.70
   5  -6  -7   90.68    3.70
   5  -6  -7   90.73    3.65
  -5  -6   6   13.46    1.67
   5   6  -6   13.43    1.33
  -5   6   6   14.93    1.30
   5   6  -6   14.41    1.42
   5  -6  -6   15.56    1.38
   5  -6  -6   16.48    1.41
  -5  -6   5   41.00    2.74
  -5   6   5   52.09    3.01
  -5   6   5   60.82    2.71
   5   6  -5   56.56    2.74
   5  -6  -5   52.73    2.77
  -5  -6   5   41.68    2.73
   5  -6  -5   55.77    2.70
  -5   6   4   18.27    1.79
  -5  -6   4   14.25    1.61
  -5   6   4   20.08    1.48
   5  -6  -4   17.96    1.35
   5   6  -4   21.52    1.65
   5  -6  -4   20.00    1.54
   5  -6  -4   19.42    1.64
   5  -6  -4   23.00    1.68
   5  -6  -3   40.53    2.46
  -5   6   3   38.70    2.63
   5  -6  -3   35.15    2.24
  -5   6   3   39.88    2.31
   5   6  -3   49.11    2.63
   5  -6  -3   37.85    2.37
   5   6  -3   45.15    2.23
   5  -6  -3   37.28    2.53
   5  -6  -2  161.51    6.57
  -5   6   2  145.61    6.70
   5   6  -2  174.69    6.63
   5  -6  -2  163.10    6.52
   5  -6  -2  152.14    6.55
   5   6  -2  171.35    6.35
  -5   6   2  162.44    6.46
   5  -6  -1   91.10    3.87
   5  -6  -1   77.71    3.56
  -5   6   1   74.63    3.79
   5  -6  -1   81.61    3.70
  -5   6   1   77.83    3.56
   5   6  -1   65.69    3.60
   5  -6  -1   71.77    3.66
   5  -6   0   75.71    3.56
   5  -6   0   73.26    3.46
  -5   6   0   71.81    3.31
   5   6   0   71.65    3.47
   5  -6   0   72.45    3.53
   5  -6   0   80.23    3.82
   5  -6   1   63.59    2.40
   5  -6   1   65.56    2.50
   5  -6   1   62.08    2.38
  -5   6  -1   59.63    2.12
   5   6   1   66.37    2.45
   5  -6   1   66.93    2.55
   5  -6   1   65.77    2.74
   5  -6   2   14.10    1.48
   5  -6   2   11.50    1.29
   5  -6   2   12.62    1.23
   5   6   2   10.81    1.24
   5   6   2   14.75    1.46
   5  -6   2   11.56    1.28
   5  -6   2   11.63    1.46
   5  -6   3   25.83    1.80
   5   6   3   24.81    1.67
   5  -6   3   24.24    1.82
   5  -6   4    6.74    1.06
   5   6   4    7.92    1.05
   5  -6   4    5.89    1.00
   5   6   5   27.78    1.53
  -6   0  15   89.54    3.79
   6   0 -15   80.12    3.60
   6   0 -14   27.88    2.36
  -6   0  14   22.17    2.36
  -6   0  14   30.17    2.40
   6   0 -14   26.78    2.13
   6   0 -14   29.85    2.36
  -6   0  13  625.07   24.88
   6   0 -13  682.42   23.99
  -6   0  13  689.38   24.30
   6   0 -13  657.61   24.50
   6   0 -12    6.72    1.73
  -6   0  12    5.52    1.82
  -6   0  12   11.48    2.38
   6   0 -12   10.58    2.22
  -6   0  11   10.25    2.28
  -6   0  11   15.33    2.92
   6   0 -11   16.61    2.09
   6   0 -11   17.29    2.65
   6   0 -11   15.82    2.30
  -6   0  10  176.30    8.71
   6   0 -10  160.87    7.64
   6   0 -10  163.68    7.16
   6   0 -10  167.63    7.88
   6   0  -9    3.55    1.43
  -6   0   9    6.10    2.32
   6   0  -9    1.52    2.48
   6   0  -9    3.35    2.01
   6   0  -9    4.09    1.59
  -6   0   8  211.74   15.80
  -6   0   8  225.84   15.85
   6   0  -8  221.51   14.99
  -6   0   8  255.10   10.80
   6   0  -8  206.58   12.51
   6   0  -8  241.04   10.00
  -6   0   8  206.40   15.33
   6   0  -7   71.96    8.08
   6   0  -7   82.73    6.79
  -6   0   7  102.78    5.57
   6   0  -7   87.67    4.80
  -6   0   7   83.13    8.84
  -6   0   6    9.91    4.22
  -6   0   6   12.33    3.88
   6   0  -6   10.19    1.88
   6   0  -6    7.92    3.27
   6   0  -6    9.23    2.80
   6   0  -6    7.82    1.85
  -6   0   6    6.14    3.57
  -6   0   5  109.72    9.74
  -6   0   5  108.45    9.29
   6   0  -5  101.33    5.23
   6   0  -5  108.98    8.82
   6   0  -5   92.18    6.88
   6   0  -5  111.23    5.29
  -6   0   5  100.80    8.73
  -6   0   4   45.22    6.31
  -6   0   4   34.53    5.48
   6   0  -4   44.82    3.07
   6   0  -4   38.12    5.44
   6   0  -4   44.01    4.56
   6   0  -4   43.53    3.06
  -6   0   4   36.05    5.31
  -6   0   3   30.48    5.11
  -6   0   3   32.53    5.10
   6   0  -3   31.64    2.59
   6   0  -3   26.07    4.83
   6   0  -3   30.06    3.76
   6   0  -3   28.76    2.49
  -6   0   3   24.98    4.04
  -6   0   2   52.64    5.69
  -6   0   2   56.36    6.07
   6   0  -2   44.38    3.04
   6   0  -2   46.92    5.96
  -6   0   1  194.40   11.21
  -6   0   1  223.39   12.49
   6   0  -1  204.31    8.66
   6   0  -1  204.23   10.45
   6   0  -1  192.89   12.82
  -6   0   0   24.70    4.05
  -6   0   0   24.19    4.46
   6   0   0   26.90    2.56
   6   0   0   23.85    4.81
  -6   0  -1  143.79    9.59
  -6   0  -1  153.36    9.97
   6   0   1  147.82    6.73
   6   0   1  128.75   10.49
   6   0   1  131.09    6.05
  -6   0  -2  206.08   12.02
   6   0   2  198.07    8.63
   6   0   2  202.26    7.91
   6   0   2  185.92    7.92
   6   0   2  174.94    7.80
  -6   0  -3   27.64    4.74
   6   0   3   29.27    2.99
   6   0   3   35.16    2.65
   6   0   3   31.12    2.59
   6   0   3   24.38    2.39
  -6   0  -4   20.75    4.57
   6   0   4   23.89    2.46
  -6   0  -4   23.37    2.50
   6   0   4   21.78    2.90
  -6   0  -5   29.70    5.36
   6   0   5   32.34    3.40
   6   0   5   31.84    2.93
   6   0   5   35.77    3.23
   6   0   5   34.52    2.76
   6   0   5   34.15    2.87
   6   0   5   35.40    3.00
   6   0   6   25.61    3.37
   6   0   6   23.12    2.82
   6   0   6   25.34    2.51
   6   0   6   24.21    2.65
   6   0   6   23.03    2.68
   6   0   6   25.52    2.89
   6   0   7  229.23    9.67
   6   0   7  235.75   10.20
   6   0   7  225.52    9.57
   6   0   7  239.70   10.08
   6   0   7  233.24    9.34
   6   0   7  222.97    9.92
   6   0   8  168.30    8.33
   6   0   8  160.77    7.71
   6   0   8  179.37    8.17
   6   0   8  186.20    7.43
   6   0   9   96.62    5.14
  -6   0  -9  103.24    5.08
   6   0  10  108.82    5.25
  -6   0 -10  123.66    5.31
   6   0  11    0.06    1.22
  -6   0 -11   -0.06    1.14
   6   0  11   -1.33    1.54
   6   0  12    5.70    0.99
   6   0  12    5.66    1.15
  -6  -1  15   14.87    1.39
  -6   1  15   12.33    1.31
  -6  -1  15   11.33    1.28
   6  -1 -15   12.49    1.20
   6  -1 -14  210.93    8.67
   6   1 -14  205.67    8.65
  -6   1  14  197.56    8.84
  -6  -1  14  186.14    8.73
  -6  -1  14  248.54    8.63
  -6   1  14  225.66    8.50
   6  -1 -14  222.79    8.37
   6  -1 -14  219.46    8.66
   6   1 -14  220.95    8.67
   6  -1 -13   56.49    3.59
   6   1 -13   57.96    3.68
  -6  -1  13   53.49    3.88
   6   1 -13   56.30    3.28
  -6  -1  13   60.31    3.59
  -6   1  13   59.41    3.54
   6  -1 -13   58.09    3.20
   6  -1 -13   57.96    3.63
   6   1 -13   52.08    3.57
   6   1 -12   13.36    1.93
   6  -1 -12   15.35    1.94
  -6   1  12    7.94    1.96
  -6  -1  12   15.68    2.46
  -6   1  12   13.59    2.30
  -6  -1  12   11.83    2.55
  -6   1  12   12.69    2.62
   6  -1 -12   19.62    2.31
   6   1 -12   18.01    2.35
  -6   1  11  230.64   11.06
  -6   1  11  280.73   12.04
   6   1 -11  265.37   10.62
   6  -1 -11  271.51   10.97
   6  -1 -11  274.42   11.21
   6   1 -11  278.95   11.25
   6  -1 -11  259.06   10.49
  -6  -1  11  273.89   10.93
  -6   1  11  261.52   10.83
  -6   1  10  123.93    6.91
  -6  -1  10  128.48    7.27
  -6   1  10  150.89    7.61
   6   1 -10  126.08    6.07
   6  -1 -10  133.93    6.36
   6  -1 -10  143.87    6.78
   6   1 -10  139.35    6.73
   6  -1 -10  130.64    5.99
   6   1 -10  130.60    6.28
   6   1 -10  129.04    6.02
   6   1  -9  120.17    5.86
  -6   1   9  128.08    6.94
  -6   1   9  141.88    7.42
   6  -1  -9  129.06    6.13
   6  -1  -9  126.49    6.42
   6   1  -9  135.44    6.56
   6  -1  -9  125.78    5.80
   6   1  -9  132.85    6.20
   6   1  -8   40.31    2.99
  -6  -1   8   34.65    6.67
  -6   1   8   31.03    6.43
  -6   1   8   45.66    3.78
  -6   1   8   40.46    6.60
   6   1  -8   44.74    5.67
   6  -1  -8   36.40    6.35
   6   1  -8   34.87    6.34
  -6   1   8   46.74    3.98
   6  -1  -8   43.51    3.18
   6  -1  -8   52.90    3.53
   6   1  -8   52.29    3.57
   6  -1  -8   46.34    2.87
  -6  -1   8   36.38    6.46
  -6   1   8   55.69    7.81
   6   1  -8   44.07    3.27
  -6   1   7  284.88   17.38
   6  -1  -7  285.43   11.37
   6   1  -7  270.88   11.37
   6  -1  -7  278.37   16.33
   6   1  -7  275.24   16.35
  -6   1   7  298.26   12.04
   6   1  -7  275.80   14.68
   6  -1  -7  258.87   10.55
   6  -1  -7  275.33   11.23
   6   1  -7  282.06   11.28
  -6  -1   7  269.10   16.27
  -6   1   7  256.97   16.95
   6   1  -6   47.56    6.32
  -6  -1   6   67.71    7.67
  -6   1   6   53.83    7.29
  -6   1   6   63.12    7.68
   6  -1  -6   64.25    3.77
   6   1  -6   58.51    3.80
   6  -1  -6   55.99    6.59
  -6   1   6   72.41    4.36
   6   1  -6   63.15    6.24
   6  -1  -6   58.53    3.27
   6  -1  -6   70.68    3.91
   6   1  -6   65.42    3.87
  -6  -1   6   53.89    6.66
  -6   1   6   63.52    7.54
  -6  -1   5   37.65    5.88
  -6   1   5   35.67    6.13
   6  -1  -5   38.37    2.82
   6   1  -5   35.54    2.87
   6  -1  -5   36.75    2.41
   6   1  -5   48.44    6.21
   6  -1  -5   38.00    5.47
  -6   1   5   39.49    3.15
   6   1  -5   39.03    4.83
   6  -1  -5   38.19    2.90
   6   1  -5   40.97    2.95
  -6  -1   5   36.84    5.18
  -6   1   5   37.09    5.46
  -6  -1   4   51.54    6.00
  -6   1   4   47.63    6.39
  -6  -1   4   47.40    5.81
  -6   1   4   46.22    6.24
   6  -1  -4   49.49    3.26
   6   1  -4   39.86    2.98
   6  -1  -4   48.82    6.12
   6   1  -4   46.14    5.95
   6   1  -4   41.68    4.85
   6  -1  -4   43.15    2.66
   6  -1  -4   44.61    3.10
   6   1  -4   40.40    2.95
  -6  -1   4   41.73    5.07
  -6   1   4   44.87    5.50
  -6  -1   3   16.61    3.71
  -6   1   3   15.44    4.04
   6  -1  -3   15.79    3.35
  -6  -1   3   13.54    3.43
  -6   1   3   12.64    3.73
   6  -1  -3   15.38    1.98
   6   1  -3   11.00    1.89
   6  -1  -3   14.29    4.03
   6   1  -3   13.73    3.99
   6   1  -3   13.01    3.07
  -6   1   3   16.36    2.09
   6  -1  -3   15.57    1.56
   6  -1  -3   14.47    1.93
   6   1  -3   11.17    1.89
  -6  -1   3   12.75    3.17
  -6  -1   2 1159.02   48.66
  -6   1   2 1570.83   50.68
  -6  -1   2  962.21   48.18
  -6   1   2 1664.59   52.44
   6  -1  -2 1517.96   45.52
   6   1  -2 1116.58   45.01
   6  -1  -2 1667.27   52.69
   6   1  -2 1124.87   50.13
   6   1  -2 1195.62   48.08
   6  -1  -2 1679.10   50.65
   6  -1  -2 1251.07   44.60
  -6  -1   2 1173.80   47.56
  -6  -1   1   70.28    6.30
  -6   1   1   99.83    7.26
  -6  -1   1   58.59    6.30
  -6   1   1  112.73    8.74
   6  -1  -1  101.29    4.83
   6   1  -1   86.02    4.61
   6  -1  -1   92.51    8.60
   6   1  -1   68.76    7.75
   6  -1  -1   80.19    5.62
   6  -1  -1  111.24    7.88
   6  -1  -1   85.31    4.12
  -6   1   0   16.29    3.65
  -6  -1   0    9.32    3.01
   6  -1   0   14.20    3.32
  -6   1   0   13.92    3.52
   6  -1   0   14.48    2.25
   6  -1   0   16.25    4.47
   6   1   0   10.78    1.96
   6  -1   0   14.11    1.61
   6  -1   0   10.85    1.63
   6   1   0   14.93    4.10
   6  -1   0   11.12    1.46
   6  -1   0   17.17    2.74
  -6   1  -1  150.83    9.78
  -6  -1  -1  119.41    8.91
  -6   1  -1  153.47   10.59
   6  -1   1  148.98    6.82
   6   1   1  140.31    6.61
   6   1   1  140.16    8.52
   6  -1   1  128.03   10.66
   6  -1   1  141.30    6.10
   6  -1   1  142.97    5.99
   6  -1   1  130.59    9.47
   6   1   1  123.31    6.02
   6  -1   1  131.84    5.91
   6  -1   1  136.61    8.01
   6   1   1  128.99   10.53
   6  -1   2   26.57    3.69
  -6   1  -2   27.39    4.48
  -6  -1  -2   32.89    4.77
  -6   1  -2   34.45    5.16
   6  -1   2   30.75    4.87
   6  -1   2   30.98    2.36
   6  -1   2   34.59    3.00
   6   1   2   28.04    2.82
   6   1   2   27.29    3.79
   6   1   2   23.45    2.39
  -6   1  -2   32.62    2.66
   6  -1   2   27.45    2.32
   6  -1   3   17.84    2.62
  -6   1  -3   17.31    4.08
  -6  -1  -3   12.75    3.52
  -6   1  -3   13.59    3.89
   6  -1   3   19.00    4.09
   6  -1   3   15.46    3.31
   6   1   3   13.94    2.03
  -6   1  -3   17.70    2.32
   6   1   3   14.27    2.13
  -6   1  -3   18.40    2.21
   6  -1   3   17.06    2.03
   6   1   3   17.11    2.50
  -6   1  -4  535.89   24.47
  -6  -1  -4  520.19   24.31
   6  -1   4  524.94   19.81
   6   1   4  487.14   19.60
   6   1   4  482.03   18.95
   6   1   4  502.94   18.76
  -6   1  -4  498.59   19.08
   6  -1   4  499.87   22.88
   6  -1   4  506.85   18.88
  -6   1  -4  515.76   18.93
   6  -1   4  499.89   18.99
  -6   1  -5    5.28    3.21
  -6  -1  -5    4.40    3.04
   6  -1   5    5.21    2.30
   6   1   5    4.89    2.09
   6  -1   5    3.08    1.76
   6   1   5    4.04    2.00
   6   1   5    5.56    1.84
  -6   1  -5    4.86    1.89
   6   1   5    3.56    1.65
   6  -1   5    4.21    1.70
   6  -1   5    4.72    1.97
   6  -1   5    3.09    1.73
   6  -1   5    4.28    2.88
   6  -1   5    3.17    2.10
   6   1   5    3.34    2.12
   6  -1   6   53.48    3.80
   6   1   6   44.17    3.69
   6  -1   6   46.50    3.62
   6   1   6   45.94    3.70
   6   1   6   46.31    3.52
  -6   1  -6   48.53    3.63
   6  -1   6   49.51    3.63
   6   1   6   43.40    3.10
   6  -1   6   43.74    3.25
   6   1   6   50.05    3.36
   6  -1   6   42.52    3.36
   6   1   7    7.86    2.06
   6  -1   7    6.34    1.88
   6  -1   7    9.50    2.12
   6  -1   7    6.07    1.91
   6   1   7    8.44    2.00
   6  -1   7    9.12    2.40
   6   1   7    5.51    2.19
   6  -1   8   68.45    4.32
   6   1   8   67.13    4.36
   6   1   8   67.53    4.19
   6  -1   8   66.77    4.07
   6  -1   8   62.31    3.76
   6   1   8   71.33    4.04
   6  -1   8   58.89    4.08
  -6   1  -8   76.14    4.25
  -6  -1  -8   72.09    4.21
   6  -1   9  156.40    6.95
   6  -1   9  145.82    7.11
   6   1   9  152.97    6.96
   6   1   9  152.47    6.84
   6  -1   9  144.88    6.56
   6  -1   9  142.97    6.25
   6   1   9  153.75    6.65
  -6   1  -9  153.91    6.82
  -6  -1  -9  159.61    6.90
   6  -1  10   49.75    3.14
   6  -1  10   51.00    3.28
   6   1  10   53.06    3.34
   6  -1  10   46.15    3.39
   6   1  10   47.39    3.15
  -6   1 -10   49.19    3.11
  -6  -1 -10   56.18    3.20
   6  -1  11   46.75    2.64
   6   1  11   43.15    2.61
   6  -1  11   47.97    2.76
   6   1  11   49.29    2.84
  -6  -1 -11   40.78    2.44
  -6   1 -11   47.86    2.65
  -6  -1 -11   45.66    2.62
   6   2 -14   24.62    1.85
   6  -2 -14   20.04    1.54
   6  -2 -13    0.42    1.17
  -6  -2  13   -0.17    1.48
  -6   2  13    1.80    1.36
   6  -2 -13    1.88    1.15
   6   2 -13    2.88    1.25
  -6  -2  13    0.19    1.44
   6   2 -13    0.27    0.61
   6  -2 -13    2.21    1.29
   6   2 -13    2.41    1.32
   6  -2 -13   -0.14    1.21
  -6   2  12   58.84    3.84
   6  -2 -12   62.64    3.92
   6   2 -12   67.70    4.00
  -6  -2  12   61.80    4.33
  -6   2  12   71.75    4.58
   6   2 -12   66.88    3.52
   6  -2 -12   60.98    3.92
  -6  -2  12   77.28    3.98
  -6   2  12   75.83    3.88
   6  -2 -12   70.58    3.98
   6   2 -12   72.00    4.06
   6  -2 -12   76.84    3.68
  -6   2  11  106.67    5.69
   6  -2 -11  108.38    5.47
   6   2 -11  103.24    5.44
  -6  -2  11   91.03    5.78
  -6   2  11  107.71    6.10
   6  -2 -11  102.79    4.95
  -6   2  11  107.19    5.11
   6  -2 -11  109.38    5.44
   6   2 -11  106.30    5.45
  -6  -2  11  116.52    5.42
  -6   2  11  104.86    5.21
   6  -2 -11  112.07    5.06
   6   2 -11  101.74    5.09
   6   2 -10   10.10    2.09
   6  -2 -10   11.42    1.84
   6  -2 -10    9.70    1.99
   6   2 -10   11.98    2.15
  -6   2  10   11.30    2.37
  -6   2  10   13.97    2.70
   6  -2 -10   14.07    1.80
  -6   2  10   14.39    1.83
   6  -2 -10   11.25    2.08
   6   2 -10   13.58    2.27
   6   2 -10   12.58    2.38
   6  -2  -9   78.03    4.57
   6   2  -9   70.95    4.57
  -6   2   9   75.60    5.04
  -6   2   9   86.74    5.45
   6  -2  -9   78.55    4.17
  -6   2   9   78.50    4.14
   6  -2  -9   77.98    4.35
   6  -2  -9   83.13    4.62
   6   2  -9   81.34    4.64
   6   2  -9   76.95    4.59
   6  -2  -9   77.15    4.12
   6   2  -9   70.19    4.29
   6   2  -8   16.59    2.29
   6  -2  -8   14.63    1.94
   6  -2  -8   18.17    2.25
   6   2  -8   13.07    2.25
  -6   2   8   18.67    2.79
  -6   2   8   18.17    2.72
   6  -2  -8   18.25    2.05
  -6   2   8   15.79    1.81
   6  -2  -8   15.21    2.26
   6   2  -8   17.55    2.38
   6   2  -8   20.24    2.58
   6  -2  -8   13.51    1.96
  -6   2   7   80.40    8.84
   6  -2  -7   85.53    4.57
   6   2  -7   81.29    4.68
   6  -2  -7   75.01    7.93
   6   2  -7   69.66    7.85
  -6   2   7   93.22    5.32
   6  -2  -7   89.39    4.39
  -6   2   7   83.22    4.15
   6   2  -7   77.32    4.21
   6  -2  -7   77.57    4.40
   6  -2  -7   84.31    4.55
   6   2  -7   77.40    4.59
  -6  -2   7   76.83    8.10
  -6   2   7   72.43    8.90
   6  -2  -7   84.92    4.20
   6   2  -7   82.31    4.46
  -6  -2   6   40.99    6.15
  -6   2   6   45.81    7.12
  -6   2   6   44.61    6.60
   6  -2  -6   46.63    3.18
   6   2  -6   39.76    3.27
  -6   2   6   47.68    3.67
   6   2  -6   46.75    6.19
   6  -2  -6   41.35    5.72
  -6   2   6   45.29    3.54
   6  -2  -6   50.78    3.02
   6  -2  -6   44.42    3.16
   6   2  -6   41.35    3.18
  -6  -2   6   40.88    5.89
  -6   2   6   39.73    6.42
  -6  -2   5   16.42    4.12
  -6   2   5   14.35    4.36
  -6   2   5   10.06    3.77
   6  -2  -5   14.61    1.89
   6   2  -5   13.05    2.00
  -6   2   5   16.93    2.37
   6  -2  -5    9.26    3.41
   6   2  -5    9.71    3.63
   6   2  -5   15.80    3.70
   6  -2  -5   14.03    1.74
   6  -2  -5   13.28    1.93
   6   2  -5   13.08    1.95
  -6  -2   5   14.97    3.83
  -6  -2   4  488.40   22.53
  -6   2   4  442.88   23.17
  -6   2   4  475.95   23.44
   6  -2  -4  472.03   17.50
   6   2  -4  445.88   17.44
   6  -2  -4  481.19   22.66
  -6   2   4  478.68   18.00
   6  -2  -4  474.32   22.66
   6   2  -4  488.92   23.00
   6   2  -4  476.61   21.26
   6  -2  -4  480.33   17.28
   6  -2  -4  476.99   16.92
   6  -2  -4  437.89   17.26
   6   2  -4  433.01   17.23
  -6  -2   4  486.36   21.60
  -6  -2   3  685.15   28.11
  -6   2   3  604.51   23.43
  -6   2   3  632.83   28.96
  -6   2   3  645.56   29.23
   6  -2  -3  657.47   23.33
   6   2  -3  607.87   23.23
   6  -2  -3  660.69   28.77
   6   2  -3  604.17   28.28
   6  -2  -3  655.53   28.52
   6   2  -3  634.73   26.92
   6  -2  -3  653.11   22.98
   6  -2  -3  647.71   22.71
  -6  -2   3  668.44   26.99
  -6  -2   2  460.88   21.30
  -6   2   2  434.24   22.09
   6  -2  -2  505.03   17.68
   6   2  -2  427.35   17.37
   6  -2  -2  479.36   23.11
   6   2  -2  432.56   22.17
   6   2  -2  427.65   20.60
   6  -2  -2  435.83   21.92
   6  -2  -2  478.51   17.20
   6  -2  -2  508.43   17.00
  -6   2   2  419.39   17.37
   6  -2  -2  458.72   16.89
  -6  -2   2  458.77   20.28
  -6  -2   1  186.82   11.09
  -6   2   1  165.81   11.67
  -6   2   1  175.83   10.99
  -6  -2   1  139.15   10.01
  -6   2   1  197.03   12.96
   6  -2  -1  202.98    8.46
   6   2  -1  188.48    8.21
   6  -2  -1  183.73   12.49
   6   2  -1  162.92   11.91
   6  -2  -1  174.31   11.95
   6  -2  -1  196.65    7.96
   6  -2  -1  207.44    7.82
   6  -2  -1  190.83    7.69
  -6   2   0  300.94   15.45
  -6  -2   0  285.92   14.99
  -6   2   0  309.12   17.42
   6  -2   0  316.76   12.50
   6   2   0  299.43   12.19
   6   2   0  269.04   16.60
   6  -2   0  315.77   14.82
   6  -2   0  307.55   17.09
   6  -2   0  308.47   11.73
   6  -2   0  309.35   17.35
   6  -2   0  304.87   11.66
  -6  -2   0  294.12   15.00
  -6   2  -1  185.65   11.43
  -6  -2  -1  180.02   11.27
  -6   2  -1  189.83   13.20
   6  -2   1  204.72    8.83
   6   2   1  188.69    8.56
   6   2   1  200.17   11.82
   6  -2   1  213.31   11.25
   6  -2   1  200.26    8.13
  -6   2  -1  194.35    8.53
   6  -2   1  179.73   12.85
   6  -2   1  203.28    8.16
  -6   2  -2  536.14   23.97
  -6  -2  -2  557.99   24.21
  -6   2  -2  559.40   26.71
   6  -2   2  533.53   20.49
   6   2   2  524.20   20.29
  -6   2  -2  529.38   20.20
   6  -2   2  521.29   19.90
   6  -2   2  543.88   19.76
  -6   2  -2  510.59   20.05
   6  -2   2  554.64   26.60
   6  -2   2  536.27   19.79
   6  -2   2  585.03   23.78
   6   2   2  576.58   24.42
  -6   2  -3  299.78   16.54
  -6  -2  -3  297.84   16.49
   6   2   3  307.55   16.54
  -6   2  -3  282.50   18.19
   6  -2   3  328.59   13.28
   6   2   3  316.66   13.04
  -6   2  -3  310.94   12.90
   6   2   3  326.63   12.41
   6   2   3  323.60   12.28
  -6   2  -3  317.59   12.86
   6  -2   3  308.71   18.84
   6  -2   3  323.08   12.63
   6   2   3  322.44   12.45
   6  -2   3  329.70   16.46
   6   2   4   95.15    8.06
  -6   2  -4   84.08    7.80
   6  -2   4   88.19    7.75
   6  -2   4   90.11    4.57
   6  -2   4   86.77    4.79
   6   2   4   86.87    4.85
  -6   2  -4   87.72    9.16
   6  -2   4   93.95    5.58
   6   2   4   92.45    5.29
   6   2   4   82.31    4.94
  -6   2  -4   89.93    5.18
   6   2   4   96.89    4.77
   6  -2   4   97.33    4.85
   6   2   4   94.43    4.64
  -6   2  -4   89.85    5.11
   6   2   4   88.80    4.55
   6  -2   4   79.70    9.20
   6   2   4   91.30    4.74
   6  -2   5  151.98    7.02
   6   2   5  154.07    7.10
   6  -2   5  144.68    7.01
   6   2   5  168.46    7.41
  -6   2  -5  152.04    7.38
   6  -2   5  163.33    7.48
   6   2   5  155.53    6.75
   6   2   5  144.05    7.09
   6  -2   5  147.02    6.94
  -6   2  -5  159.57    7.34
   6   2   5  149.77    6.85
   6  -2   6  320.77   13.05
   6   2   6  333.78   13.17
   6  -2   6  364.49   13.59
   6  -2   6  308.95   13.02
   6   2   6  307.24   13.09
   6   2   6  354.14   13.53
  -6   2  -6  344.61   13.56
   6  -2   6  347.72   13.52
   6   2   6  318.62   12.86
   6  -2   6  329.83   13.14
  -6   2  -6  337.90   13.31
   6  -2   6  318.02   13.33
   6   2   6  329.50   12.85
   6  -2   7   24.42    2.57
   6   2   7   24.78    2.65
   6  -2   7   30.26    2.88
   6  -2   7   32.41    3.09
   6   2   7   28.22    2.97
   6   2   7   30.54    3.08
  -6   2  -7   27.30    2.92
   6  -2   7   30.27    3.00
   6   2   7   26.02    2.64
   6  -2   7   30.42    2.76
  -6   2  -7   25.48    2.47
  -6  -2  -7   24.98    2.48
   6   2   7   28.47    2.56
   6  -2   8   14.44    2.02
   6   2   8   11.54    1.99
   6  -2   8   14.29    2.27
   6   2   8   15.55    2.39
  -6   2  -8   15.75    2.21
   6  -2   8   15.63    2.06
   6   2   8   18.32    2.20
   6  -2   8   15.24    2.31
   6  -2   8   10.33    2.01
  -6   2  -8   12.55    1.85
  -6  -2  -8   12.70    1.86
   6   2   8   15.50    1.95
   6  -2   8   15.35    2.25
   6   2   8   14.24    2.34
   6  -2   9   16.91    1.80
   6   2   9   16.73    1.82
   6  -2   9   14.83    2.16
   6  -2   9   13.26    1.73
   6  -2   9   14.96    2.12
   6  -2   9   11.65    1.78
   6   2   9   14.74    2.01
  -6   2  -9   14.91    1.78
  -6  -2  -9   14.65    1.74
   6  -2   9   13.81    2.04
   6   2   9   14.22    2.17
   6  -2  10  121.79    3.36
   6   2  10  127.99    3.50
   6  -2  10  126.99    3.50
   6   2  10  127.11    3.61
   6  -2  10  115.11    4.04
   6  -2  10  140.16    3.74
  -6  -2 -10  111.13    3.21
   6   2  10  136.18    3.58
   6   3 -14   14.06    1.18
  -6  -3  14   14.34    1.35
   6  -3 -13    3.94    1.03
   6   3 -13    1.85    1.38
  -6   3  13    2.68    0.86
  -6  -3  13    4.71    1.62
   6   3 -13    3.20    0.85
   6  -3 -13    3.91    1.07
   6  -3 -12   12.45    1.50
  -6  -3  12    8.39    1.80
  -6   3  12   11.27    1.84
   6  -3 -12   10.86    1.34
  -6   3  12   10.87    1.42
  -6  -3  12   12.78    2.22
   6   3 -12   10.74    1.50
   6  -3 -12    8.64    1.53
  -6   3  11   17.58    2.20
  -6  -3  11   14.05    2.35
  -6   3  11   19.76    2.45
   6  -3 -11   16.77    1.78
  -6   3  11   16.59    1.83
   6   3 -11   17.11    1.94
   6  -3 -11   18.17    2.07
   6  -3 -11   18.61    1.89
   6   3 -11   17.12    2.11
   6   3 -10   41.00    3.37
  -6   3  10   37.03    3.39
  -6   3  10   39.72    2.81
   6  -3 -10   37.98    2.79
   6   3 -10   39.65    2.84
   6  -3 -10   38.94    2.66
  -6   3  10   39.77    3.35
   6   3 -10   35.30    2.94
  -6   3   9  116.53    6.25
   6   3  -9  117.27    5.83
  -6   3   9  112.62    6.23
   6  -3  -9  109.44    5.45
  -6   3   9  110.57    5.33
   6   3  -9  114.00    5.43
   6  -3  -9  111.36    5.23
   6   3  -9  112.73    5.58
   6   3  -8    8.97    2.14
   6  -3  -8    8.66    1.71
  -6   3   8    9.84    2.37
   6   3  -8    8.50    2.32
  -6   3   8    8.13    2.24
   6  -3  -8    8.60    1.79
  -6   3   8    6.94    1.56
   6   3  -8    7.06    1.79
   6  -3  -8    7.32    1.35
   6  -3  -8    9.74    1.82
   6   3  -7   53.43    3.83
  -6   3   7   52.48    3.95
   6  -3  -7   57.51    3.50
  -6   3   7   52.19    3.25
   6  -3  -7   54.98    3.10
   6   3  -7   47.17    3.35
   6  -3  -7   55.31    3.49
   6   3  -7   52.20    3.68
   6  -3  -7   53.21    3.28
   6   3  -7   50.66    3.64
   6   3  -6  246.53   10.27
  -6   3   6  242.25   10.63
   6  -3  -6  265.63   10.37
  -6   3   6  248.63   10.04
   6  -3  -6  255.55    9.92
   6   3  -6  254.91   10.11
  -6   3   6  250.36   11.21
   6  -3  -6  258.16   10.33
   6   3  -6  235.77   10.25
   6  -3  -6  249.08    9.94
   6  -3  -5  123.05    5.67
  -6   3   5  115.53   10.82
  -6   3   5  133.66    6.85
   6   3  -5  126.43    6.04
   6   3  -5  131.08    6.08
   6  -3  -5  131.95    6.04
  -6   3   5  131.32    5.87
   6   3  -5  130.32    5.87
   6  -3  -5  131.97    5.72
   6   3  -5  112.76    5.91
   6  -3  -5  129.74    6.07
   6   3  -5  126.15    6.05
   6   3  -5  131.73    6.18
   6  -3  -5  128.33    5.78
  -6  -3   4  423.41   21.93
  -6   3   4  388.38   23.47
   6  -3  -4  427.63   16.35
  -6   3   4  440.56   23.32
  -6   3   4  468.19   17.50
   6   3  -4  446.19   21.12
   6   3  -4  421.54   16.34
   6   3  -4  441.25   16.56
   6  -3  -4  467.14   16.17
  -6   3   4  437.41   16.44
   6   3  -4  445.97   16.37
   6  -3  -4  452.27   16.37
   6   3  -4  402.54   16.43
   6  -3  -4  458.10   16.73
  -6  -3   4  431.81   21.03
   6   3  -4  424.10   16.47
   6   3  -4  443.76   16.63
  -6  -3   3   68.23    7.05
  -6   3   3   60.12    7.76
   6  -3  -3   73.08    3.88
  -6   3   3   67.79    7.93
  -6   3   3   70.23    4.34
  -6   3   3   65.98    4.11
   6   3  -3   53.29    6.26
   6   3  -3   64.22    3.94
   6  -3  -3   72.96    3.59
  -6   3   3   70.12    3.79
   6   3  -3   67.74    3.72
   6  -3  -3   71.48    3.69
   6   3  -3   59.32    3.93
  -6  -3   3   70.04    6.57
   6  -3  -3   71.27    3.98
   6   3  -3   65.10    3.86
   6   3  -3   69.17    4.04
  -6  -3   2  161.72   10.88
  -6   3   2  124.27   11.18
   6  -3  -2  153.39    6.77
  -6   3   2  154.84   12.21
  -6   3   2  152.49    7.17
   6  -3  -2  128.63    6.65
  -6   3   2  153.45    7.13
   6  -3  -2  155.43    6.86
   6  -3  -2  161.15    6.57
  -6   3   2  155.66    7.16
  -6   3   2  160.90    6.79
   6   3  -2  156.67    6.60
   6  -3  -2  155.91    6.61
   6   3  -2  146.17    6.79
  -6  -3   2  156.69   10.06
  -6   3   1  228.45   15.09
   6  -3  -1  259.86   10.10
  -6   3   1  215.86   15.33
  -6   3   1  232.11   10.14
   6  -3  -1  227.99   10.02
  -6   3   1  254.00   10.44
   6   3  -1  250.15   10.06
   6  -3  -1  229.73   15.35
   6  -3  -1  248.50   10.06
   6  -3  -1  257.67    9.83
  -6   3   1  235.63   10.32
  -6   3   1  258.29   10.06
   6   3  -1  252.10    9.75
   6  -3  -1  256.29    9.90
   6   3  -1  231.38    9.95
  -6  -3   1  231.04   13.10
   6  -3   0   66.23    4.17
  -6   3   0   75.53    4.43
   6  -3   0   58.23    6.20
   6   3   0   71.90    4.14
   6  -3   0   72.75    4.04
   6  -3   0   61.34    7.72
   6  -3   0   75.81    3.85
  -6   3   0   69.97    4.01
   6   3   0   67.76    3.75
   6  -3   0   75.21    3.93
   6   3   0   65.03    4.04
   6  -3   1  132.04    6.14
  -6   3  -1  120.92   11.08
   6   3   1  120.86    9.38
   6  -3   1  129.53    6.36
  -6   3  -1  122.62    6.40
   6   3   1  133.92    6.17
   6  -3   1  125.66    6.09
   6  -3   1  126.39    9.30
   6  -3   1  127.81    5.89
   6  -3   1  117.86   11.05
   6   3   1  128.82    5.70
   6   3   1  130.00    5.80
  -6   3  -1  133.59    6.16
   6  -3   1  132.68    6.03
  -6  -3  -1  132.09   10.06
   6  -3   2  126.55    5.94
  -6   3  -2  116.15    6.22
   6  -3   2  118.79    6.14
   6   3   2  125.82    5.91
   6  -3   2  117.11    5.88
   6   3   2  121.04    5.54
  -6   3  -2  115.66    6.15
   6   3   2  124.49    5.62
   6  -3   3  485.91   17.82
   6  -3   3  451.17   18.11
   6   3   3  487.24   17.70
   6  -3   3  477.19   17.75
   6   3   3  460.99   17.47
  -6   3  -3  455.40   18.24
   6   3   3  482.65   17.55
   6   3   3  460.86   17.79
   6  -3   4  439.01   16.16
  -6   3  -4  411.68   16.75
   6  -3   4  449.97   16.82
   6   3   4  448.32   16.06
   6  -3   4  431.23   16.28
   6   3   4  406.41   15.95
  -6   3  -4  415.26   16.73
   6   3   4  418.57   15.97
   6  -3   4  417.91   16.42
   6   3   4  413.63   16.22
   6  -3   5  101.07    4.87
  -6   3  -5   94.10    5.52
   6  -3   5  101.06    5.52
   6  -3   5   99.35    5.05
  -6   3  -5   96.77    5.49
   6  -3   5   96.34    5.31
   6   3   5   94.34    5.07
   6  -3   6  175.96    7.40
   6  -3   6  205.03    8.36
  -6   3  -6  174.97    8.25
   6  -3   6  182.15    8.32
   6  -3   6  171.00    7.84
  -6   3  -6  188.07    8.28
   6  -3   6  176.73    8.11
   6   3   6  183.06    7.87
   6  -3   7    4.60    1.76
  -6   3  -7    3.23    1.82
   6  -3   7    5.60    1.53
   6   3   7    4.40    1.73
  -6   3  -7    4.55    1.74
   6  -3   7    4.92    1.72
   6   3   7    2.92    1.73
   6  -3   8   94.94    4.85
  -6   3  -8   96.23    4.88
   6   3   8   95.70    4.55
   6  -3   8   81.38    4.45
  -6   3  -8   94.80    4.68
   6   3   8  103.64    4.57
   6  -3   9   21.95    2.09
   6  -3   9   22.75    2.13
  -6   3  -9   20.42    1.96
   6  -3   9   20.70    1.80
   6   3   9   24.17    1.95
   6   3   9   21.55    1.84
   6  -3  10    9.50    0.93
   6  -3  10    9.71    1.31
   6   3  10    9.64    1.22
  -6   4  12   29.07    1.55
   6   4 -12   27.40    1.45
   6  -4 -12   27.65    1.57
   6  -4 -12   28.38    1.47
   6  -4 -11    6.00    1.14
  -6  -4  11    5.12    1.49
  -6   4  11    5.12    1.31
   6  -4 -11    5.90    1.10
   6   4 -11    4.33    1.10
  -6  -4  11    5.36    1.61
  -6   4  11    6.05    1.15
   6   4 -11    6.32    1.27
   6  -4 -11    5.94    1.22
   6  -4 -10   13.94    1.57
  -6   4  10   10.67    1.77
  -6   4  10   13.29    1.89
   6  -4 -10   17.25    1.70
  -6   4  10   14.88    1.67
   6   4 -10   15.80    1.71
   6   4 -10   16.94    1.82
   6  -4 -10   14.39    1.72
  -6   4   9   39.42    3.10
   6   4  -9   38.04    3.09
  -6   4   9   35.54    2.97
   6  -4  -9   47.09    2.79
  -6   4   9   38.26    2.62
   6   4  -9   36.73    2.66
   6   4  -9   39.78    2.72
   6  -4  -9   33.20    2.27
   6  -4  -9   40.02    2.72
   6  -4  -9   36.07    2.48
   6   4  -9   33.39    2.84
   6   4  -8    7.49    2.07
   6  -4  -8    6.22    1.53
  -6   4   8    5.67    1.92
   6   4  -8    4.75    2.16
  -6   4   8    4.01    1.61
   6   4  -8    5.19    1.52
  -6   4   8    6.65    1.55
   6   4  -8    5.14    1.68
   6  -4  -8    6.29    1.32
   6   4  -7   29.42    2.94
  -6   4   7   24.30    2.54
   6   4  -7   26.80    2.41
  -6   4   7   29.45    2.40
   6   4  -7   30.21    2.60
   6  -4  -7   27.83    2.20
   6  -4  -7   29.95    2.43
  -6   4   6   70.25    4.80
  -6  -4   6   68.63    3.90
   6   4  -6   74.58    4.45
   6  -4  -6   76.42    4.24
   6   4  -6   68.45    4.00
  -6   4   6   85.36    4.21
   6   4  -6   78.89    4.24
   6  -4  -6   74.90    3.97
   6  -4  -6   81.93    4.33
   6   4  -6   79.75    4.54
   6  -4  -6   79.65    4.07
  -6   4   5  134.69    6.98
   6   4  -5  137.21    6.34
   6  -4  -5  126.64    6.21
   6   4  -5  119.79    5.88
  -6   4   5  136.81    6.15
   6   4  -5  137.73    6.19
   6  -4  -5  136.07    6.05
   6  -4  -5  139.93    6.34
   6   4  -5  132.19    6.42
   6  -4  -5  138.13    6.04
  -6   4   4   92.12    5.39
   6  -4  -4   91.76    4.61
   6  -4  -4   89.79    4.48
   6   4  -4   87.86    4.81
   6  -4  -4   91.25    4.80
   6   4  -4   82.10    4.43
   6  -4  -4   99.01    4.46
  -6   4   4   94.74    4.70
  -6   4   4   85.06    4.93
   6   4  -4   88.34    4.68
   6  -4  -4   96.14    4.65
   6  -4  -4   97.60    4.93
   6   4  -4   95.18    5.03
   6  -4  -3  144.24    6.47
   6  -4  -3  143.90    6.49
  -6   4   3  148.74    7.24
   6  -4  -3  147.87    6.75
   6   4  -3  144.20    6.33
   6  -4  -3  154.28    6.41
  -6   4   3  155.02    6.70
  -6   4   3  147.28    6.99
   6   4  -3  140.04    6.53
   6   4  -3  153.71    6.65
   6  -4  -3  144.79    6.54
   6   4  -3  136.68    6.58
   6  -4  -3  152.03    6.87
   6   4  -3  139.65    6.67
   6  -4  -2  107.17    5.19
   6  -4  -2  108.49    5.34
  -6   4   2  105.05    5.67
   6   4  -2  112.61    5.66
   6  -4  -2  102.16    5.37
   6  -4  -2  118.99    5.20
  -6   4   2  113.36    5.76
  -6   4   2  111.99    5.37
   6   4  -2  111.67    5.33
   6  -4  -2  103.99    5.25
   6   4  -2   98.03    5.29
   6  -4  -2  117.16    5.67
   6   4  -2  100.39    5.29
   6  -4  -1   79.55    4.30
  -6   4   1   73.39    4.31
  -6   4   1   71.53    4.39
   6   4  -1   70.51    4.39
   6  -4  -1   67.81    4.06
   6  -4  -1   65.80    3.81
  -6   4   1   75.53    4.62
   6   4  -1   69.89    3.96
   6  -4  -1   73.76    4.03
   6   4  -1   65.29    4.13
   6  -4  -1   75.38    4.35
   6  -4   0  242.22    9.95
  -6   4   0  231.29   10.16
   6   4   0  246.63   10.00
   6  -4   0  238.61    9.91
   6  -4   0  234.42    9.70
  -6   4   0  231.89   10.29
   6   4   0  244.97    9.73
   6   4   0  232.65    9.86
   6  -4   0  247.45   10.07
   6  -4   1  882.60   31.62
   6  -4   1  823.54   31.48
  -6   4  -1  868.05   31.92
   6   4   1  932.23   31.56
   6  -4   1  864.01   31.54
   6   4   1  866.66   31.03
  -6   4  -1  855.42   31.96
   6   4   1  884.63   31.28
   6   4   1  876.14   31.52
   6  -4   1  896.37   31.67
   6  -4   2  146.38    6.94
  -6   4  -2  140.74    7.14
   6   4   2  159.11    6.83
   6  -4   2  147.42    6.81
   6   4   2  145.78    6.45
  -6   4  -2  146.42    7.25
   6  -4   2  151.55    6.87
   6   4   2  158.25    7.00
   6  -4   2  150.70    6.88
   6  -4   3   26.23    2.58
   6  -4   3   29.80    2.90
  -6   4  -3   29.48    2.96
   6   4   3   27.36    2.49
   6  -4   3   23.70    2.38
   6   4   3   24.39    2.36
  -6   4  -3   26.09    2.56
   6  -4   3   26.49    2.52
   6   4   3   25.46    2.75
   6  -4   4    3.07    1.59
  -6   4  -4    5.57    1.87
   6  -4   4    4.01    2.02
   6  -4   4    3.77    1.41
   6   4   4    5.92    1.72
  -6   4  -4    4.78    2.00
  -6   4  -4    3.72    1.67
   6  -4   4    4.28    1.57
   6  -4   5   83.53    4.16
   6  -4   5   85.16    4.61
   6  -4   5   66.94    4.14
   6   4   5   81.38    4.16
  -6   4  -5   80.81    4.59
  -6   4  -5   88.37    4.40
   6  -4   5   84.04    4.41
   6  -4   6  394.74   14.88
   6  -4   6  441.99   15.55
   6  -4   6  401.11   15.46
   6  -4   6  391.01   15.13
  -6   4  -6  413.55   15.53
  -6   4  -6  421.51   15.29
   6  -4   6  391.33   15.37
   6   4   6  412.88   15.27
   6  -4   7   27.36    2.28
   6  -4   7   29.76    2.45
  -6   4  -7   27.44    2.37
   6   4   7   27.92    2.19
   6  -4   7   24.91    2.00
  -6   4  -7   30.33    2.39
  -6   4  -7   26.59    2.10
   6   4   7   30.81    2.37
   6  -4   8  111.59    4.95
   6   4   8  117.33    4.80
  -6   4  -8  101.33    4.68
   6  -4   9   31.13    1.80
   6  -4   9   28.37    1.58
   6   4   9   27.13    1.64
  -6   5  10   72.64    3.16
   6   5 -10   72.96    3.10
   6  -5 -10   71.89    3.13
   6  -5 -10   76.20    3.04
   6  -5  -9    8.52    1.12
   6   5  -9    7.10    1.03
  -6   5   9    8.13    1.21
   6   5  -9    8.90    1.29
   6  -5  -9    8.03    1.15
  -6   5   8   22.09    2.07
   6  -5  -8   20.39    1.76
   6   5  -8   21.91    1.70
  -6   5   8   23.77    1.79
   6  -5  -8   21.36    1.60
   6  -5  -8   22.61    1.83
   6  -5  -8   22.47    1.68
   6  -5  -7   17.03    1.74
   6   5  -7   19.66    1.76
  -6   5   7   18.90    1.73
   6  -5  -7   19.23    1.66
   6  -5  -7   22.76    1.90
   6  -5  -7   20.53    1.74
   6  -5  -6    2.57    1.26
  -6   5   6    1.85    1.53
  -6  -5   6    1.53    1.22
   6  -5  -6    1.74    1.16
   6   5  -6    2.47    1.18
   6  -5  -6    2.80    1.10
  -6   5   5   39.33    3.10
   6  -5  -5   41.19    2.70
   6   5  -5   41.00    2.60
   6  -5  -5   39.54    2.33
   6  -5  -5   39.01    2.55
   6  -5  -5   39.44    2.60
   6  -5  -4   56.39    3.13
  -6   5   4   54.14    3.60
   6  -5  -4   50.51    3.13
   6   5  -4   46.28    2.90
   6  -5  -4   52.94    2.91
   6  -5  -4   55.56    3.13
   6  -5  -4   56.02    3.31
   6  -5  -3   57.37    3.25
   6  -5  -3   50.08    3.04
  -6   5   3   54.92    3.63
   6  -5  -3   56.05    3.33
   6  -5  -3   60.11    3.17
  -6   5   3   63.05    3.39
   6  -5  -3   55.55    3.24
   6  -5  -3   57.91    3.48
   6  -5  -2   83.43    4.14
   6  -5  -2   84.42    4.15
  -6   5   2   76.38    4.42
   6  -5  -2   77.33    4.20
   6  -5  -2   87.50    4.12
  -6   5   2   80.20    4.18
  -6   5   2   77.63    4.40
   6  -5  -2   87.62    4.49
   6  -5  -1  423.83   15.25
   6  -5  -1  415.12   15.39
  -6   5   1  375.85   15.44
   6  -5  -1  408.93   15.43
   6  -5  -1  421.16   15.34
  -6   5   1  427.10   15.47
  -6   5   1  402.17   15.68
   6   5  -1  419.80   15.36
   6  -5  -1  400.85   15.41
   6   5  -1  389.68   15.16
   6  -5  -1  430.36   15.70
   6  -5   0  136.03    5.96
   6  -5   0  141.28    6.25
   6  -5   0  130.12    6.06
   6  -5   0  140.85    6.12
  -6   5   0  144.41    6.22
  -6   5   0  139.07    6.50
   6   5   0  137.67    6.12
   6  -5   0  138.10    6.16
   6   5   0  135.92    6.14
   6  -5   0  152.88    6.47
   6  -5   1   25.46    2.34
   6   5   1   24.57    1.99
  -6   5  -1   26.56    2.21
  -6   5  -1   25.66    2.55
   6   5   1   24.72    2.34
   6  -5   1   25.34    2.20
   6   5   1   24.16    2.44
   6  -5   1   23.58    2.27
   6  -5   2   77.69    3.93
  -6   5  -2   60.98    3.80
   6  -5   2   71.83    3.68
   6   5   2   63.89    3.49
  -6   5  -2   72.04    3.71
  -6   5  -2   71.19    4.07
   6   5   2   70.99    3.76
   6  -5   2   72.87    3.79
   6   5   2   69.87    3.91
   6  -5   2   70.78    3.81
  -6   5  -3   24.16    2.23
   6  -5   3   22.39    1.95
   6   5   3   24.90    1.99
  -6   5  -3   25.80    2.06
  -6   5  -3   21.66    2.28
   6   5   3   26.28    2.26
   6  -5   3   21.83    2.06
   6   5   3   27.12    2.37
   6  -5   3   21.13    1.97
   6  -5   4   27.47    2.09
   6  -5   4   22.30    1.97
  -6   5  -4   24.45    2.18
   6  -5   4   22.23    1.87
  -6   5  -4   27.92    2.00
  -6   5  -4   23.31    2.19
   6  -5   4   21.12    2.01
   6   5   4   25.29    2.29
   6   5   4   26.79    2.01
   6  -5   5    5.78    1.17
   6  -5   5    5.12    1.26
  -6   5  -5    4.31    1.26
   6  -5   5    4.37    1.22
   6  -5   5    5.82    1.11
   6   5   5    5.50    1.30
  -6   5  -5    5.74    1.12
   6  -5   5    4.54    1.18
   6   5   5    8.19    1.56
   6  -5   6   10.38    1.05
   6  -5   6   10.91    1.22
  -6   5  -6    9.25    0.99
   6   5   6    9.01    1.24
   6   5   6   11.72    1.45
   6  -5   7   11.35    0.99
  -6   6   6   79.56    3.17
   6   6  -6   75.93    3.17
   6  -6  -6   73.55    3.19
   6  -6  -6   73.78    3.03
   6  -6  -5    0.76    0.75
  -6   6   5    1.11    0.77
   6   6  -5    1.35    0.90
  -6   6   4   87.34    3.61
   6   6  -4   84.33    3.64
   6  -6  -4   81.28    3.48
  -6   6   3   51.56    2.65
   6  -6  -3   54.70    2.81
   6  -6  -3   55.24    2.61
  -6   6   2  169.24    5.87
   6   6  -2  169.67    5.94
   6  -6  -2  157.44    5.95
   6  -6  -2  172.50    6.07
   6  -6  -1   23.50    1.56
  -6   6   1   27.22    1.61
   6  -6  -1   22.61    1.67
  -6   6   0    2.87    0.82
   6   6   0    2.09    1.08
   6  -6   0    3.00    0.96
   6  -6   0    3.08    0.98
   6  -6   1   31.65    1.83
  -6   6  -1   30.33    1.69
   6   6   1   33.72    1.90
   6  -6   1   28.77    1.80
   6  -6   2   43.68    2.09
   6  -6   2   37.14    1.88
   6  -6   3    6.83    0.86
  -7   0  15   16.14    1.26
   7   0 -14   19.67    1.81
  -7   0  14   23.34    1.92
   7   0 -13   73.28    3.94
   7   0 -13   65.90    3.33
  -7   0  13   76.59    3.83
   7   0 -13   76.51    3.97
  -7   0  12   98.17    5.55
   7   0 -12  117.48    5.82
  -7   0  12  124.48    6.33
   7   0 -12   96.53    5.11
   7   0 -12  128.44    5.87
  -7   0  12  127.22    5.67
   7   0 -11   43.59    3.53
  -7   0  11   36.31    3.39
  -7   0  11   47.60    3.97
   7   0 -11   35.46    2.76
   7   0 -11   45.56    3.48
   7   0 -10    4.44    1.70
   7   0 -10    6.40    2.06
  -7   0  10    5.75    2.37
   7   0 -10    7.62    2.28
   7   0 -10    5.66    1.75
   7   0 -10    6.36    1.96
   7   0  -9    1.51    1.65
   7   0  -9    0.62    1.75
  -7   0   9    2.02    2.30
   7   0  -9    0.72    1.97
   7   0  -9    0.76    1.46
   7   0  -9    2.32    1.83
   7   0  -8  364.89   13.95
   7   0  -8  358.19   14.71
  -7   0   8  387.79   15.40
   7   0  -8  355.12   14.22
   7   0  -8  351.41   14.55
   7   0  -8  377.34   14.06
  -7   0   7  702.12   34.07
   7   0  -7  690.94   25.43
   7   0  -7  649.76   25.85
  -7   0   7  758.89   34.60
   7   0  -7  719.94   26.26
   7   0  -7  716.22   33.13
   7   0  -7  669.13   29.13
  -7   0   7  805.90   27.10
   7   0  -7  714.48   26.15
  -7   0   7  745.17   33.37
   7   0  -7  737.92   25.67
   7   0  -7  668.40   25.74
  -7   0   6  202.97   14.79
   7   0  -6  188.31    8.57
  -7   0   6  202.14   14.57
   7   0  -6  203.38    8.89
   7   0  -6  196.98   13.92
   7   0  -6  183.15   11.16
  -7   0   6  235.83    9.46
   7   0  -6  195.25    8.77
  -7   0   6  177.28   13.33
  -7   0   5   73.95    8.79
  -7   0   5   67.63    8.17
   7   0  -5   72.59    4.38
   7   0  -5   66.87    7.94
   7   0  -5   63.93    6.07
   7   0  -5   74.01    4.32
  -7   0   4   21.53    5.12
  -7   0   4   24.98    5.07
   7   0  -4   16.89    2.38
   7   0  -4   15.58    4.59
   7   0  -4   12.17    3.05
   7   0  -4   15.78    2.34
  -7   0   3  776.44   34.59
   7   0  -3  740.82   28.11
   7   0  -3  740.33   34.18
  -7   0   2  613.69   26.07
  -7   0   2  666.84   27.77
   7   0  -2  549.01   21.38
   7   0  -2  514.25   26.86
  -7   0   1  152.72   10.70
   7   0  -1  131.40    6.27
   7   0  -1  128.39   10.92
   7   0  -1   99.33    5.29
   7   0  -1  122.36    5.48
  -7   0   0  130.56    9.73
  -7   0   0  124.15   10.30
   7   0   0  136.20    6.51
   7   0   0  109.17   10.50
   7   0   0  107.65    5.51
  -7   0  -1  566.21   24.82
   7   0   1  549.18   20.10
   7   0   1  480.00   26.00
   7   0   1  488.48   19.16
  -7   0  -2  228.37   14.06
   7   0   2  224.04    9.95
   7   0   2  225.74    9.06
   7   0   2  202.95    9.11
  -7   0  -3  293.38   16.74
   7   0   3  277.29   11.40
   7   0   3  287.40   12.20
   7   0   3  254.34   11.33
   7   0   3  290.89   11.29
   7   0   3  271.11   11.17
   7   0   3  287.97   11.12
   7   0   3  265.51   11.31
   7   0   4    4.99    1.67
   7   0   4   -0.15    2.18
   7   0   4    0.95    1.66
   7   0   4    1.99    1.75
   7   0   4    3.00    1.74
   7   0   4   -0.43    1.68
   7   0   4    1.18    1.83
   7   0   4    0.44    2.09
   7   0   5   98.19    5.37
   7   0   5   92.33    5.93
   7   0   5   95.00    5.44
   7   0   5  100.05    5.35
   7   0   5   92.85    4.83
   7   0   6   41.32    3.38
   7   0   6   42.66    3.58
   7   0   6   39.62    3.40
   7   0   6   36.22    2.88
   7   0   6   39.71    3.19
   7   0   6   39.25    3.36
   7   0   7   38.01    3.20
   7   0   7   38.23    3.40
   7   0   7   34.33    3.28
   7   0   7   36.74    2.75
   7   0   8   33.16    2.86
   7   0   8   33.28    3.06
   7   0   8   35.25    3.13
   7   0   8   32.48    2.35
  -7   0  -8   35.65    2.89
   7   0   9    2.28    1.50
  -7   0  -9    2.47    1.38
   7   0   9    3.01    1.79
  -7   0 -10   -1.56    1.17
   7   0  10   -0.63    1.42
   7   0  11   34.81    1.92
  -7  -1  14  131.52    4.95
  -7   1  14  121.02    4.86
   7  -1 -13   20.71    2.13
   7   1 -13   22.71    2.19
  -7   1  13   20.41    2.38
   7  -1 -13   21.56    1.78
  -7  -1  13   23.63    2.24
  -7   1  13   25.36    2.25
   7  -1 -13   21.73    2.15
   7   1 -13   24.22    2.23
   7  -1 -12   33.50    2.80
   7   1 -12   36.28    2.94
  -7  -1  12   30.34    3.20
  -7   1  12   32.25    3.16
   7   1 -12   28.55    2.33
   7  -1 -12   31.18    2.66
   7  -1 -12   33.94    2.38
   7  -1 -12   40.03    2.95
   7   1 -12   31.93    2.88
  -7  -1  12   36.95    2.97
  -7   1  12   39.94    2.97
  -7   1  12   30.31    2.80
  -7  -1  12   30.63    2.79
  -7   1  11   50.43    3.80
   7  -1 -11   48.80    3.59
   7   1 -11   46.98    3.57
  -7  -1  11   43.70    3.90
  -7   1  11   53.50    4.21
   7  -1 -11   43.08    3.33
   7  -1 -11   46.02    2.99
   7  -1 -11   57.19    3.71
   7   1 -11   42.61    3.47
   7   1 -11   48.42    3.39
   7   1 -11   49.49    3.16
   7  -1 -10  169.58    7.89
   7   1 -10  169.06    7.89
  -7  -1  10  168.44    8.42
  -7   1  10  177.39    8.52
  -7   1  10  160.43    8.14
   7  -1 -10  164.80    7.50
   7  -1 -10  173.03    7.85
   7   1 -10  173.78    7.86
   7  -1 -10  160.82    6.99
   7   1 -10  165.93    7.44
   7   1 -10  164.12    7.23
   7   1  -9  334.17   13.06
   7  -1  -9  320.86   12.72
   7  -1  -9  337.56   13.73
   7   1  -9  340.34   13.77
  -7  -1   9  333.79   14.33
  -7   1   9  353.76   14.59
   7  -1  -9  335.84   13.33
   7  -1  -9  343.43   13.67
   7   1  -9  346.84   13.70
   7   1  -9  337.37   13.23
  -7   1   9  331.28   14.25
   7   1  -8   17.34    2.31
   7  -1  -8   17.13    2.05
   7  -1  -8   14.42    2.05
   7  -1  -8   18.91    2.50
   7   1  -8   15.34    2.51
  -7   1   8   20.18    2.94
   7  -1  -8   18.42    2.19
   7  -1  -8   19.08    2.58
   7   1  -8   19.47    2.60
   7   1  -8   19.60    2.49
  -7  -1   7   11.53    4.78
   7   1  -7   18.82    2.30
  -7   1   7   12.25    5.06
  -7  -1   7   21.41    4.98
  -7   1   7   20.71    5.27
   7  -1  -7   21.77    2.48
   7  -1  -7   15.13    2.08
   7   1  -7   18.57    2.52
  -7   1   7   18.27    2.90
   7  -1  -7   18.72    4.72
   7   1  -7   15.81    4.70
  -7   1   7   18.52    2.80
   7   1  -7   11.97    3.53
   7  -1  -7   19.44    2.08
   7  -1  -7   19.58    2.55
   7   1  -7   18.67    2.48
  -7  -1   7    9.85    4.13
  -7   1   7   20.76    5.31
   7   1  -7   19.30    2.38
   7   1  -6   27.51    2.60
   7  -1  -6   24.66    2.39
  -7  -1   6   21.00    5.22
  -7   1   6   29.65    5.83
   7   1  -6   21.91    2.53
   7  -1  -6   24.55    2.60
  -7  -1   6   23.72    5.12
  -7   1   6   31.53    5.90
   7  -1  -6   33.26    2.85
   7   1  -6   24.02    2.70
   7  -1  -6   28.19    5.35
   7   1  -6   21.97    5.00
  -7   1   6   27.92    2.98
   7   1  -6   22.57    4.12
   7  -1  -6   24.76    2.09
   7  -1  -6   29.87    2.76
   7   1  -6   29.51    2.80
  -7  -1   6   25.44    5.16
  -7   1   6   26.51    3.08
   7   1  -6   24.88    2.53
   7  -1  -6   27.86    2.51
  -7  -1   5  105.39    9.93
  -7   1   5   91.28   10.10
  -7  -1   5   99.21    9.38
   7  -1  -5  105.99    5.56
   7   1  -5  100.25    5.53
   7  -1  -5   97.38    9.64
   7   1  -5   89.07    9.27
   7   1  -5   91.45    7.83
   7  -1  -5  104.52    4.85
   7  -1  -5  113.35    5.58
   7   1  -5  100.14    5.36
  -7  -1   5   92.03    8.62
  -7   1   5  120.39    6.14
  -7  -1   4   73.06    8.01
  -7   1   4   78.93    8.87
  -7   1   4  100.60    5.20
  -7  -1   4   69.01    7.74
  -7   1   4   99.10    9.76
   7  -1  -4   98.91    5.00
   7   1  -4   75.82    4.72
   7  -1  -4   84.23    9.04
   7   1  -4   81.31    8.74
   7   1  -4   70.49    6.86
   7  -1  -4   82.49    4.17
   7  -1  -4   85.40    4.75
   7   1  -4   78.34    4.54
  -7  -1   3   85.05    8.31
  -7   1   3  105.43    8.95
  -7  -1   3   73.42    8.01
  -7   1   3  111.93    9.94
   7  -1  -3  119.81    5.59
   7   1  -3   88.48    5.29
  -7   1   3  119.87    5.49
   7  -1  -3  103.38    9.76
   7   1  -3   74.03    8.98
   7   1  -3   86.93    7.57
   7  -1  -3   98.80    4.71
  -7  -1   2  170.94   12.97
  -7   1   2  288.14   14.95
  -7  -1   2  169.92   13.23
  -7   1   2  318.38   16.67
   7  -1  -2  292.21   10.78
   7   1  -2  231.79   10.41
   7  -1  -2  313.00   14.84
   7  -1  -2  296.76   16.59
   7   1  -2  201.34   14.73
   7  -1  -2  243.14    9.72
  -7   1   1 1133.92   43.07
  -7  -1   1  767.97   40.80
  -7   1   1 1281.21   45.67
   7  -1  -1 1134.87   38.45
   7   1  -1  972.14   38.11
   7  -1  -1 1063.94   45.06
   7   1  -1  869.74   43.64
   7  -1  -1 1111.53   42.60
   7  -1  -1 1021.91   37.41
   7  -1  -1 1187.82   37.58
  -7   1   0  424.29   19.90
  -7  -1   0  353.08   18.99
  -7   1   0  424.44   21.08
   7  -1   0  422.68   15.64
   7   1   0  364.76   15.27
   7  -1   0  382.35   21.33
   7   1   0  344.64   20.73
   7  -1   0  333.27   18.43
   7  -1   0  386.37   14.65
   7  -1   0  402.09   14.72
   7  -1   0  376.48   14.46
  -7   1  -1   53.65    6.35
  -7  -1  -1   50.30    6.09
  -7   1  -1   43.92    6.28
   7  -1   1   54.82    3.97
   7   1   1   52.55    3.94
   7  -1   1   50.12    3.31
   7  -1   1   50.21    3.37
   7  -1   1   50.36    3.23
   7  -1   2   16.37    2.59
  -7   1  -2   14.51    3.91
  -7  -1  -2   16.90    4.06
   7  -1   2   15.93    2.17
   7   1   2   14.32    2.18
  -7   1  -2   13.89    4.19
   7   1   2   16.38    2.65
   7   1   2   12.97    2.10
   7  -1   2   14.42    2.16
   7  -1   2   14.07    2.33
   7  -1   2   13.33    2.00
   7   1   2   14.02    2.00
  -7   1  -2   16.83    2.32
   7  -1   2   13.10    1.98
   7   1   2   14.11    2.11
   7  -1   2   16.42    2.51
   7   1   2   11.90    2.29
  -7   1  -3   70.87    7.60
  -7  -1  -3   77.54    7.93
   7  -1   3   70.76    4.26
   7   1   3   73.56    4.31
   7  -1   3   83.00    5.06
   7   1   3   75.78    4.86
   7  -1   3   63.73    4.29
   7  -1   3   67.21    4.37
  -7   1  -3   77.77    4.55
   7   1   3   65.83    4.38
   7   1   3   69.49    4.09
   7  -1   3   73.06    4.10
   7   1   3   67.30    3.98
   7  -1   3   69.16    4.14
  -7   1  -3   68.92    4.19
   7  -1   3   66.11    4.10
   7   1   3   70.02    4.02
   7  -1   4  259.35   10.96
   7   1   4  274.04   11.07
   7  -1   4  270.45   11.77
   7   1   4  261.03   11.63
   7  -1   4  251.66   10.97
   7   1   4  259.77   11.04
   7  -1   4  290.66   11.11
   7   1   4  228.50   10.76
   7  -1   4  272.66   11.05
  -7   1  -4  267.11   11.13
   7   1   4  266.46   10.61
   7   1   4  264.83   10.66
   7  -1   4  265.12   10.91
   7  -1   5  382.74   14.99
   7   1   5  400.91   15.09
   7  -1   5  372.29   15.73
   7   1   5  396.51   15.80
   7  -1   5  373.44   14.98
   7   1   5  374.66   15.00
   7  -1   5  405.32   15.13
   7   1   5  331.93   14.81
   7  -1   5  387.75   14.96
  -7   1  -5  386.80   15.07
   7   1   5  394.54   14.54
   7  -1   5  366.17   14.50
   7  -1   5  369.19   14.95
   7  -1   6   13.86    2.05
   7   1   6   11.52    1.94
   7  -1   6    3.33    1.95
  -7   1  -6    5.61    1.94
   7   1   6    6.87    1.82
   7  -1   6    5.28    1.87
   7  -1   6    5.94    1.91
   7  -1   6    5.50    1.94
   7  -1   6    5.32    2.31
   7   1   6    6.61    2.37
   7  -1   7   85.40    4.81
   7   1   7   98.93    5.02
   7  -1   7   80.87    4.85
   7   1   7   81.00    4.90
   7  -1   7   86.18    5.05
   7  -1   7   88.03    4.72
   7   1   7   90.76    4.39
   7  -1   7   90.64    4.48
   7   1   7   85.62    4.65
   7  -1   7   79.86    4.82
  -7   1  -7  100.56    4.97
  -7  -1  -7   97.98    4.94
   7  -1   8   88.07    4.56
   7   1   8   87.95    4.59
   7  -1   8   84.68    4.62
   7   1   8   86.83    4.72
   7  -1   8   80.11    4.73
   7  -1   8   83.45    4.26
   7  -1   8   83.30    4.08
   7   1   8   79.55    4.32
  -7   1  -8   85.75    4.47
  -7  -1  -8   85.28    4.49
   7  -1   9   46.69    2.96
   7   1   9   47.83    2.99
   7  -1   9   46.59    3.11
   7   1   9   46.98    3.12
   7  -1   9   45.79    2.53
  -7   1  -9   47.80    2.94
  -7  -1  -9   47.10    2.93
   7  -1  10   16.25    1.59
   7   1  10   16.63    1.60
   7  -2 -14   13.09    1.05
  -7   2  13   11.01    1.38
   7  -2 -13   10.40    1.26
  -7  -2  13   12.77    1.53
   7   2 -13   11.59    1.78
  -7  -2  13    7.61    1.65
  -7   2  13   10.63    1.63
   7  -2 -12  112.52    5.25
   7   2 -12   97.08    5.15
  -7   2  12   99.50    5.22
  -7   2  12  102.58    5.56
   7  -2 -12  113.37    5.16
  -7  -2  12  126.51    5.16
  -7   2  12  118.19    4.97
   7  -2 -12  113.67    4.78
   7  -2 -12  112.68    5.15
   7   2 -12  104.75    5.13
   7   2 -12  102.45    4.81
   7  -2 -11   90.40    4.67
   7   2 -11   87.62    4.69
  -7   2  11   78.25    4.83
  -7  -2  11   75.96    5.04
  -7   2  11   88.04    5.15
   7  -2 -11   88.81    4.54
   7  -2 -11   83.82    4.54
   7   2 -11   80.54    4.57
   7  -2 -11   83.95    4.17
  -7  -2  11   95.65    4.65
  -7   2  11   90.32    4.43
   7   2 -11   87.22    4.38
   7  -2 -10  161.53    7.42
   7   2 -10  162.27    7.54
  -7  -2  10  154.80    7.98
  -7   2  10  161.05    7.98
   7  -2 -10  155.43    6.85
   7  -2 -10  180.60    7.38
   7  -2 -10  159.76    7.34
   7   2 -10  163.86    7.42
   7  -2 -10  164.06    6.85
   7   2 -10  163.40    7.33
  -7   2  10  172.27    8.02
   7   2 -10  168.34    7.22
   7   2  -9   15.82    2.28
   7  -2  -9   14.57    1.82
   7  -2  -9   14.29    2.17
   7   2  -9   10.35    2.06
  -7   2   9   15.74    2.65
  -7   2   9   16.00    2.66
   7  -2  -9   13.77    1.77
   7  -2  -9   14.75    2.25
   7   2  -9   11.95    2.18
   7   2  -9   11.39    2.39
   7  -2  -9   14.22    2.01
   7  -2  -8   95.33    5.14
   7   2  -8   92.54    5.21
  -7   2   8   85.79    5.49
   7  -2  -8   98.26    4.70
   7  -2  -8  101.69    4.95
   7  -2  -8   89.23    4.99
   7   2  -8   86.43    5.00
   7  -2  -8   91.71    4.48
   7   2  -8   92.88    5.09
   7   2  -8   90.51    4.97
   7  -2  -7  169.80    7.57
   7  -2  -7  188.28    8.25
   7   2  -7  187.23    8.29
  -7   2   7  181.42    8.86
  -7   2   7  176.88    8.46
   7  -2  -7  187.84    7.76
   7  -2  -7  177.13    7.81
   7  -2  -7  189.76    8.13
   7   2  -7  177.34    8.05
   7   2  -7  182.07    7.96
   7  -2  -6  441.73   16.74
   7  -2  -6  460.47   17.39
   7   2  -6  448.87   17.47
   7   2  -6  434.20   16.72
   7  -2  -6  458.99   16.90
  -7   2   6  447.92   18.00
   7  -2  -6  460.14   16.93
   7  -2  -6  436.58   17.12
   7   2  -6  455.73   17.20
   7   2  -6  450.22   17.02
   7   2  -5   95.19    4.86
  -7  -2   5   95.94    9.39
  -7   2   5   79.19    9.16
   7   2  -5   67.37    4.53
   7  -2  -5   87.28    4.49
   7  -2  -5   86.13    4.70
  -7  -2   5   69.43    7.87
  -7   2   5   81.63    9.39
   7  -2  -5   99.75    5.07
   7   2  -5   90.13    5.04
  -7   2   5   92.36    5.36
   7  -2  -5   85.16    8.82
   7   2  -5   80.40    8.72
   7   2  -5   91.79    4.66
   7  -2  -5  101.77    4.69
   7   2  -5   86.15    4.79
   7  -2  -5   92.20    4.59
  -7  -2   5   77.96    7.87
   7   2  -5   88.65    4.73
   7   2  -4   69.22    4.00
  -7  -2   4   75.03    7.90
  -7   2   4   62.44    7.86
   7   2  -4   49.41    3.69
   7  -2  -4   71.72    3.87
  -7   2   4   61.67    7.95
   7  -2  -4   76.07    4.33
   7   2  -4   65.82    4.26
   7  -2  -4   73.52    7.96
   7   2  -4   66.28    7.87
  -7   2   4   71.61    4.49
   7   2  -4   70.90    6.99
   7   2  -4   65.28    3.90
   7  -2  -4   78.65    4.01
  -7   2   4   69.98    3.61
   7   2  -4   59.49    4.02
  -7  -2   4   75.83    7.29
   7   2  -4   65.96    3.92
   7  -2  -4   66.99    3.73
   7   2  -3   69.06    3.98
  -7  -2   3   66.55    7.30
  -7   2   3   52.76    6.99
   7  -2  -3   74.43    3.93
   7  -2  -3   81.17    4.41
   7   2  -3   64.28    4.24
  -7   2   3   64.58    4.15
   7  -2  -3   65.23    4.05
   7  -2  -3   58.98    7.30
   7   2  -3   66.38    6.85
   7  -2  -3   51.72    7.89
   7   2  -3   51.69    7.77
   7   2  -3   61.44    3.86
   7  -2  -3   72.40    3.90
   7  -2  -3   79.22    3.65
   7   2  -3   57.88    3.92
   7   2  -3   58.92    3.77
  -7   2   2  153.33   11.25
  -7  -2   2  126.52   10.24
   7  -2  -2  190.57    7.67
  -7   2   2  167.59   12.88
   7  -2  -2  194.43    8.25
   7   2  -2  164.57    7.96
  -7   2   2  160.11    7.72
   7  -2  -2  171.52    7.80
   7  -2  -2  146.46   12.79
   7  -2  -2  133.76   11.95
   7   2  -2  103.65   11.81
   7   2  -2  158.73    7.46
   7  -2  -2  187.00    7.62
   7  -2  -2  206.21    7.49
   7  -2  -2  193.03    7.39
  -7   2   1   44.23    6.07
  -7  -2   1   33.47    5.28
  -7   2   1   52.67    6.91
   7  -2  -1   55.06    3.86
   7   2  -1   51.98    3.70
   7  -2  -1   52.67    3.64
   7  -2  -1   35.97    6.71
   7  -2  -1   46.81    6.22
   7   2  -1   51.43    3.43
   7  -2  -1   55.97    3.37
   7  -2  -1   51.34    3.19
  -7   2   1   55.00    3.23
   7  -2  -1   54.77    3.13
   7   2  -1   43.64    3.34
  -7   2   0   66.75    6.82
   7  -2   0   79.55    4.29
   7   2   0   66.12    4.15
  -7   2   0   66.43    8.13
   7  -2   0   82.41    4.89
   7   2   0   75.63    4.70
   7  -2   0   80.74    4.66
   7  -2   0   68.18    7.49
   7  -2   0   77.52    4.24
   7  -2   0   77.71    4.27
   7  -2   0   86.22    4.21
  -7   2   0   80.30    4.71
  -7   2   0   76.99    4.13
   7  -2   0   78.38    4.09
   7   2   0   67.17    4.22
  -7   2  -1  863.62   35.94
   7  -2   1  900.13   31.00
   7  -2   1  833.58   30.97
   7   2   1  826.50   31.00
  -7   2  -1  856.37   38.58
   7  -2   1  891.04   31.82
   7   2   1  875.31   31.69
   7  -2   1  856.34   31.39
   7   2   1  904.56   31.10
   7  -2   1  786.95   37.08
   7  -2   1  880.02   31.00
   7   2   1  875.34   30.69
  -7   2  -1  832.94   31.38
   7   2   1  837.71   30.45
   7  -2   1  869.12   30.98
   7   2   1  866.73   31.04
   7  -2   2  662.77   23.89
   7  -2   2  636.67   24.04
   7   2   2  649.38   24.14
   7  -2   2  644.04   24.79
   7   2   2  656.48   24.75
  -7   2  -2  634.42   24.49
   7   2   2  694.48   24.12
   7  -2   2  667.05   24.09
   7   2   2  658.52   23.77
  -7   2  -2  643.45   24.41
   7   2   2  645.74   23.52
   7  -2   2  670.21   24.12
   7   2   2  661.83   24.05
   7  -2   3  130.85    6.02
   7  -2   3  129.40    6.31
   7   2   3  133.79    6.45
   7  -2   3  128.10    6.96
   7   2   3  136.41    6.94
  -7   2  -3  125.33    6.63
   7   2   3  140.10    6.34
   7   2   3  134.46    6.12
  -7   2  -3  141.22    6.75
   7   2   3  136.81    5.91
   7  -2   3  130.69    6.39
   7   2   3  138.22    6.38
   7  -2   4   19.05    2.00
   7  -2   4   20.29    2.41
   7   2   4   22.80    2.55
   7  -2   4   19.52    2.98
   7   2   4   19.14    2.84
  -7   2  -4   23.93    2.82
   7   2   4   20.08    2.42
   7   2   4   21.41    2.38
   7  -2   4   20.91    2.80
  -7   2  -4   23.29    2.72
   7  -2   4   17.08    2.46
   7   2   4   21.72    2.57
   7  -2   5   35.88    2.96
   7   2   5   34.46    2.98
   7  -2   5   33.53    3.15
   7   2   5   30.09    3.14
   7  -2   5   36.62    3.17
   7  -2   5   38.97    3.36
  -7   2  -5   37.33    3.30
   7   2   5   34.69    2.84
   7   2   5   34.45    2.86
   7  -2   5   37.44    3.02
  -7   2  -5   36.88    3.13
   7  -2   5   37.45    3.21
   7   2   5   33.51    2.86
   7  -2   6   82.54    4.66
   7   2   6   85.12    4.73
   7  -2   6   82.62    4.69
   7  -2   6   98.14    5.07
  -7   2  -6  102.66    5.18
   7   2   6   90.58    4.40
   7  -2   6   89.63    4.54
   7  -2   6   81.65    4.75
  -7   2  -6   85.45    4.52
  -7  -2  -6   90.28    4.61
   7   2   6   85.40    4.51
   7   2   6   76.96    4.74
   7  -2   7   43.56    3.01
   7   2   7   41.78    3.05
   7  -2   7   37.70    3.09
   7   2   7   44.68    3.28
   7  -2   7   45.68    3.27
  -7   2  -7   49.46    3.35
   7  -2   7   45.29    2.95
   7   2   7   45.47    3.11
   7  -2   7   33.23    3.01
  -7   2  -7   44.52    2.91
  -7  -2  -7   41.74    2.85
   7   2   7   45.57    2.86
   7  -2   8   15.65    1.79
   7   2   8   17.13    1.86
   7  -2   8   17.00    2.16
  -7   2  -8   15.02    1.89
   7  -2   8   15.79    1.76
   7   2   8   16.44    1.97
   7  -2   8   14.91    2.01
   7  -2   8   13.92    1.86
  -7  -2  -8   15.85    1.71
  -7   2  -8   14.00    1.64
   7  -2   9    7.62    1.20
   7   2   9    7.63    1.27
   7  -2   9    8.30    1.58
   7  -2   9    9.27    1.27
   7  -2   9    9.00    1.37
   7   2   9    7.49    1.43
   7   3 -13   39.67    2.15
  -7  -3  13   43.11    2.41
   7  -3 -13   35.46    1.82
  -7  -3  12   95.30    5.47
   7   3 -12  135.17    5.37
  -7   3  12  117.05    5.53
  -7  -3  12  152.34    5.84
   7  -3 -12  125.63    4.97
  -7   3  11   28.54    2.53
   7   3 -11   38.12    2.75
  -7   3  11   33.84    2.76
   7  -3 -11   35.19    2.20
  -7   3  11   30.41    2.11
   7   3 -11   31.38    2.06
   7  -3 -11   34.56    2.17
   7   3 -11   31.79    2.47
  -7   3  10  109.27    5.73
   7   3 -10  120.13    5.47
  -7   3  10  102.06    5.58
   7  -3 -10  108.48    5.02
  -7   3  10  107.36    4.92
   7   3 -10  110.16    4.86
   7  -3 -10  115.39    5.24
   7  -3 -10  111.04    4.86
   7   3 -10  111.94    5.28
  -7   3   9  178.36    8.41
   7   3  -9  185.16    7.80
  -7   3   9  165.77    8.04
   7  -3  -9  180.14    7.58
  -7   3   9  175.92    7.37
   7   3  -9  179.22    7.33
   7  -3  -9  186.75    7.69
   7  -3  -9  175.92    7.26
   7   3  -9  182.40    7.75
   7   3  -8  149.56    6.64
  -7   3   8  126.66    6.74
   7  -3  -8  140.13    6.38
  -7   3   8  130.94    6.15
   7   3  -8  142.63    6.15
   7  -3  -8  143.15    6.43
   7   3  -8  147.95    6.70
   7  -3  -8  141.92    6.04
   7   3  -8  150.13    6.64
  -7   3   7  108.42    6.09
   7   3  -7  103.52    5.27
   7  -3  -7  102.68    5.13
  -7   3   7   97.05    4.85
   7   3  -7  107.43    4.97
   7  -3  -7  110.36    5.22
   7   3  -7   97.65    5.35
   7  -3  -7  102.32    4.77
   7  -3  -6  140.61    6.43
  -7   3   6  159.34    7.78
   7   3  -6  149.09    6.76
   7  -3  -6  155.31    6.89
  -7   3   6  146.97    6.57
   7   3  -6  151.30    6.55
   7  -3  -6  152.40    6.42
   7  -3  -6  156.63    6.83
   7   3  -6  147.85    6.96
   7   3  -6  165.58    7.15
   7  -3  -5   99.80    4.92
  -7   3   5  105.75    5.91
   7   3  -5  107.25    5.34
   7  -3  -5  107.82    5.25
  -7   3   5  105.31    4.96
   7   3  -5   99.33    4.90
   7  -3  -5  104.05    4.83
   7   3  -5   93.09    5.23
   7  -3  -5  107.29    5.19
   7   3  -5  107.10    5.39
   7   3  -5  102.00    5.38
   7  -3  -4  152.24    6.73
  -7   3   4  152.22    7.50
  -7   3   4  152.74    7.22
   7   3  -4  155.61    7.01
   7  -3  -4  155.40    6.99
  -7   3   4  152.14    6.69
   7   3  -4  144.21    6.51
   7  -3  -4  158.05    6.64
   7   3  -4  140.33    6.89
   7  -3  -4  159.94    6.89
   7   3  -4  152.10    6.94
   7   3  -4  162.61    7.09
   7  -3  -3   78.18    4.21
  -7   3   3   75.38    4.65
  -7   3   3   80.69    4.69
   7   3  -3   79.14    4.55
   7  -3  -3   77.25    3.95
  -7   3   3   80.08    4.74
  -7   3   3   76.63    4.10
   7   3  -3   74.56    4.02
   7  -3  -3   79.05    4.04
   7   3  -3   73.84    4.44
   7  -3  -3   80.88    4.29
   7   3  -3   75.29    4.29
   7   3  -3   75.78    4.37
   7  -3  -2  134.46    6.12
  -7   3   2  122.99    6.29
   7  -3  -2  117.62    6.13
  -7   3   2  129.94    6.50
   7   3  -2  131.69    6.32
   7  -3  -2  130.95    5.87
  -7   3   2  135.30    6.60
  -7   3   2  134.01    6.02
   7   3  -2  130.60    5.79
   7  -3  -2  137.93    5.99
   7   3  -2  127.94    6.26
   7   3  -2  126.47    6.02
  -7   3   1    1.37    1.92
   7  -3  -1    2.02    1.88
   7  -3  -1   -0.08    1.23
  -7   3   1    0.45    1.32
   7   3  -1    1.33    1.42
   7  -3  -1    0.75    1.32
   7   3  -1    0.75    2.02
   7  -3  -1    0.36    1.59
  -7   3   0    6.53    2.12
   7   3   0    6.12    2.16
   7  -3   0    4.84    1.72
   7  -3   0    4.84    2.08
   7  -3   0    6.89    1.59
   7   3   0    4.03    1.54
  -7   3   0    4.93    1.59
   7  -3   0    3.36    1.46
   7  -3   1   32.22    2.78
   7  -3   1   31.59    3.06
  -7   3  -1   32.95    3.19
   7   3   1   33.08    3.07
   7  -3   1   37.14    2.92
   7  -3   1   36.54    2.77
   7   3   1   32.55    2.53
  -7   3  -1   32.13    3.10
   7   3   1   29.48    2.55
  -7   3  -1   38.24    2.93
   7  -3   1   30.15    2.67
   7  -3   2   42.30    3.05
   7  -3   2   41.13    3.45
  -7   3  -2   43.91    3.50
   7   3   2   42.46    3.31
   7  -3   2   44.14    3.08
   7   3   2   37.58    2.83
  -7   3  -2   42.75    3.49
   7   3   2   40.34    2.90
  -7   3  -2   41.35    3.17
   7  -3   2   41.32    3.10
   7   3   2   37.57    3.23
   7  -3   3  238.95    9.72
   7  -3   3  227.21   10.18
   7   3   3  255.95    9.91
   7   3   3  236.50    9.63
  -7   3  -3  228.83   10.27
   7   3   3  241.39    9.57
   7  -3   3  240.70   10.08
   7   3   3  242.10   10.02
   7  -3   4  473.65   17.51
   7  -3   4  468.68   18.17
  -7   3  -4  457.00   18.24
   7   3   4  512.35   17.69
   7  -3   4  455.04   17.81
   7   3   4  474.04   17.60
  -7   3  -4  455.25   18.17
   7   3   4  479.36   17.85
   7  -3   5   63.82    3.46
   7  -3   5   62.35    4.11
  -7   3  -5   63.04    4.15
   7   3   5   67.00    3.78
   7  -3   5   64.16    3.83
  -7   3  -5   73.60    4.29
   7   3   5   73.02    3.99
   7  -3   6   18.48    2.23
  -7   3  -6   16.84    2.28
   7  -3   6   13.73    1.97
  -7   3  -6   20.76    2.30
   7  -3   6   14.86    2.13
   7   3   6   18.52    2.19
   7  -3   7   53.93    3.37
  -7   3  -7   62.34    3.48
   7  -3   7   48.04    3.07
  -7   3  -7   53.32    3.23
   7   3   7   57.32    3.12
   7  -3   8   39.07    2.74
   7  -3   8   44.58    2.76
   7  -3   8   46.93    2.51
   7   3   8   48.25    2.66
   7   3   8   48.79    2.55
   7  -3   9   36.75    2.07
   7  -3   9   39.39    1.88
   7   3   9   35.27    2.01
   7  -4 -11    5.16    0.85
   7   4 -11    5.28    1.31
  -7   4  11    5.41    0.90
   7   4 -11    4.32    0.86
  -7   4  10   67.83    3.90
   7   4 -10   85.21    3.87
   7  -4 -10   79.17    3.65
  -7   4  10   79.61    3.58
   7   4 -10   77.32    3.50
   7  -4 -10   78.85    3.42
  -7   4   9   23.79    2.34
   7   4  -9   21.35    2.26
   7  -4  -9   24.32    1.95
  -7   4   9   22.56    1.88
   7   4  -9   23.76    1.91
   7  -4  -9   24.32    1.96
   7  -4  -9   23.25    1.76
   7   4  -9   21.72    2.27
   7   4  -8   56.92    3.42
   7  -4  -8   54.84    3.18
  -7   4   8   55.77    3.07
   7   4  -8   58.96    3.17
   7  -4  -8   53.46    3.16
   7  -4  -8   52.69    2.89
  -7   4   7  198.41    9.09
   7   4  -7  207.39    8.45
  -7   4   7  200.40    8.30
   7   4  -7  204.63    8.25
   7  -4  -7  201.14    8.09
   7  -4  -7  209.44    8.45
   7  -4  -7  208.63    8.07
   7   4  -7  211.16    8.66
  -7   4   6   29.84    3.00
   7   4  -6   29.01    2.68
  -7   4   6   29.34    2.30
   7   4  -6   30.00    2.44
   7  -4  -6   31.23    2.23
   7  -4  -6   32.15    2.49
   7  -4  -6   29.38    2.20
   7   4  -6   28.62    2.84
   7   4  -5   21.34    2.58
   7  -4  -5   21.58    1.99
  -7   4   5   21.00    2.59
   7   4  -5   20.66    2.36
  -7   4   5   21.20    2.07
  -7   4   5   18.66    2.31
   7   4  -5   22.02    2.21
   7  -4  -5   22.36    1.99
   7  -4  -5   21.94    2.16
   7  -4  -5   21.64    1.93
   7  -4  -4   33.96    2.51
  -7   4   4   32.13    3.06
   7  -4  -4   35.00    2.74
   7  -4  -4   31.03    2.23
  -7   4   4   34.87    2.58
  -7   4   4   30.16    2.87
   7   4  -4   31.99    2.64
   7  -4  -4   34.01    2.47
   7   4  -4   26.56    2.70
   7  -4  -4   37.39    2.73
   7   4  -4   34.10    2.94
   7   4  -3   12.60    2.18
   7  -4  -3   14.04    1.89
  -7   4   3   14.87    2.18
   7  -4  -3   12.96    1.89
   7  -4  -3   13.54    1.61
  -7   4   3   14.79    2.31
   7   4  -3   18.62    2.11
  -7   4   3   15.22    1.92
   7  -4  -3   14.19    1.78
   7   4  -3   17.69    2.43
   7  -4  -3   17.08    2.02
   7  -4  -2   45.77    3.09
  -7   4   2   39.26    3.17
  -7   4   2   41.87    3.23
   7  -4  -2   47.67    3.16
   7  -4  -2   45.08    2.91
  -7   4   2   47.14    3.49
  -7   4   2   51.28    3.14
   7   4  -2   45.45    3.06
   7  -4  -2   46.66    3.01
   7   4  -2   46.11    3.40
   7  -4  -2   44.05    3.07
   7  -4  -1   83.14    4.35
   7  -4  -1   71.00    4.21
  -7   4   1   78.94    4.58
   7   4  -1   88.43    4.74
   7  -4  -1   77.56    4.34
   7  -4  -1   75.94    4.12
  -7   4   1   80.13    4.73
  -7   4   1   81.16    4.33
   7   4  -1   81.94    4.17
   7  -4  -1   84.52    4.29
   7   4  -1   75.56    4.47
   7  -4  -1   80.70    4.27
   7  -4   0   99.21    5.06
   7  -4   0   94.66    5.08
  -7   4   0  100.01    5.40
   7   4   0  111.93    5.48
   7  -4   0  108.74    5.27
   7  -4   0  103.73    5.03
  -7   4   0  106.27    5.57
  -7   4   0  107.71    5.19
   7   4   0  101.38    4.96
   7  -4   0  105.38    5.12
   7   4   0  102.09    5.33
   7  -4   0   99.59    4.94
   7  -4   1   97.50    5.07
  -7   4  -1   99.87    5.34
   7   4   1  113.89    5.30
   7  -4   1   95.88    5.00
   7  -4   1   99.76    4.92
   7   4   1   92.27    4.60
  -7   4  -1   95.81    5.35
  -7   4  -1  111.77    5.20
   7   4   1  100.92    4.88
   7  -4   1  100.23    5.03
   7   4   1  103.54    5.27
   7  -4   2   30.80    2.53
   7  -4   2   25.05    2.61
  -7   4  -2   27.38    2.74
   7   4   2   27.59    2.63
   7   4   2   22.19    2.17
  -7   4  -2   29.17    2.59
   7   4   2   27.06    2.45
   7   4   2   28.89    2.80
   7  -4   3   99.37    4.82
   7  -4   3  100.29    5.14
  -7   4  -3   95.45    5.19
   7   4   3  108.35    4.91
   7   4   3   93.62    4.65
  -7   4  -3  103.01    5.31
   7   4   3  108.29    4.85
   7  -4   4    0.37    1.25
  -7   4  -4    1.30    1.53
   7  -4   4    0.83    1.67
   7  -4   4    0.36    1.19
   7   4   4   -0.42    1.36
  -7   4  -4    0.92    1.52
   7  -4   4    1.21    1.29
   7  -4   5   28.94    2.02
   7  -4   5   32.55    2.49
   7  -4   5   30.53    2.50
   7   4   5   30.31    2.29
   7  -4   5   26.99    2.18
  -7   4  -5   29.07    2.44
   7  -4   5   26.80    2.31
   7   4   5   33.54    2.57
   7  -4   6    7.38    1.44
  -7   4  -6    8.98    1.51
   7  -4   6    8.86    1.41
   7  -4   6    9.78    1.61
   7  -4   6    7.13    1.24
   7   4   6    9.48    1.46
  -7   4  -6    7.81    1.43
  -7   4  -6    7.75    1.31
   7   4   6    9.82    1.63
   7  -4   7   72.59    3.47
   7  -4   7   75.20    3.27
  -7   4  -7   72.01    3.31
   7   4   7   81.58    3.47
  -7   5   9   42.83    2.04
   7   5  -9   39.28    1.95
  -7   5   8   26.61    1.65
   7   5  -8   23.02    1.61
   7  -5  -8   22.97    1.37
   7  -5  -7    6.98    1.01
  -7   5   7    7.45    1.41
   7  -5  -7    6.27    1.13
  -7   5   7    9.25    1.22
   7   5  -7    7.90    1.28
   7  -5  -7    6.10    1.13
   7  -5  -6    9.40    1.16
  -7   5   6    8.61    1.56
   7  -5  -6    8.87    1.32
  -7   5   6   10.80    1.39
   7   5  -6    9.29    1.43
   7  -5  -6    9.18    1.20
   7  -5  -6    9.50    1.32
   7  -5  -5    3.12    0.93
  -7   5   5    5.91    1.51
   7  -5  -5    5.27    1.20
  -7   5   5    6.89    1.28
   7   5  -5    4.37    1.33
   7  -5  -5    5.90    1.16
   7  -5  -5    5.37    1.28
   7  -5  -4   28.90    1.72
  -7   5   4   28.45    2.27
   7  -5  -4   32.87    2.09
   7   5  -4   34.44    2.12
   7  -5  -4   32.45    1.95
   7  -5  -4   33.61    2.08
   7  -5  -3  114.09    5.00
  -7   5   3  110.86    5.38
   7  -5  -3  110.06    5.20
   7  -5  -3  114.60    4.98
   7  -5  -3  118.35    5.17
   7  -5  -3  121.70    5.24
   7  -5  -2   56.64    2.73
  -7   5   2   43.32    2.68
   7  -5  -2   49.44    2.77
   7  -5  -2   56.86    2.69
  -7   5   2   49.84    3.02
   7  -5  -2   58.40    2.83
   7  -5  -2   56.68    2.86
   7  -5  -1  221.42    8.36
   7  -5  -1  203.78    8.34
   7  -5  -1  208.13    8.28
  -7   5   1  204.12    8.57
   7   5  -1  209.79    8.28
   7   5  -1  198.39    8.24
   7  -5  -1  222.90    8.38
   7  -5   0   28.98    2.17
   7  -5   0   26.15    2.05
  -7   5   0   28.88    2.44
   7   5   0   29.12    2.23
   7   5   0   26.28    2.37
   7  -5   0   26.64    2.01
   7  -5   1   61.55    2.55
   7  -5   1   53.73    2.36
  -7   5  -1   63.28    2.55
  -7   5  -1   52.40    2.69
   7  -5   1   54.73    2.49
   7   5   1   57.10    2.73
  -7   5  -2    1.62    1.19
   7   5   2   -0.04    0.67
  -7   5  -2    2.64    1.30
  -7   5  -2    1.59    1.07
   7  -5   2    3.22    1.11
   7   5   2    3.22    1.56
   7  -5   3   23.34    1.74
   7  -5   3   19.31    1.52
   7  -5   3   18.86    1.63
   7   5   3   20.75    1.59
  -7   5  -3   23.50    1.69
  -7   5  -3   21.65    1.86
   7  -5   3   19.68    1.75
   7   5   3   24.00    2.02
   7  -5   4    1.31    0.88
   7  -5   4    1.38    0.89
   7   5   4    1.69    0.96
  -7   5  -4    2.45    0.85
   7   5   4    2.05    1.24
   7  -5   4    2.14    0.87
   7  -5   5    8.90    0.93
   7   5   5    9.02    0.99
  -7   5  -5    9.31    0.91
   7   5   5   10.75    1.23
  -7   6   3   46.38    2.09
  -7   6   2  121.91    4.62
   7   6  -2  121.07    4.66
   7   6  -1   11.75    1.07
   7   6   0   19.60    1.26
  -8   0  14    0.66    0.97
   8   0 -13    2.87    1.22
  -8   0  13    4.92    1.47
  -8   0  13    3.69    1.36
   8   0 -13    3.35    1.24
   8   0 -12    5.08    1.61
  -8   0  12    7.05    1.79
  -8   0  12    4.52    1.75
  -8   0  12    3.53    1.50
   8   0 -12    4.92    1.60
   8   0 -11   24.15    2.69
  -8   0  11   27.00    2.96
   8   0 -11   31.29    2.70
  -8   0  11   21.38    2.63
   8   0 -10    6.87    1.77
   8   0 -10    6.53    1.97
  -8   0  10    6.39    2.15
  -8   0  10    5.48    2.19
   8   0 -10    7.85    2.09
   8   0 -10    5.59    1.89
   8   0  -9    1.09    1.67
   8   0  -9    0.50    1.79
  -8   0   9    2.63    2.16
   8   0  -9    1.05    1.94
   8   0  -9    0.82    1.77
   8   0  -8  311.58   11.82
   8   0  -8  295.25   12.46
  -8   0   8  288.45   12.93
   8   0  -8  294.93   12.30
   8   0  -8  286.85   11.72
   8   0  -7    1.17    1.71
   8   0  -7    2.05    1.89
   8   0  -7    2.57    1.98
  -8   0   7    0.96    1.95
   8   0  -7   -1.06    1.91
   8   0  -7    1.81    1.81
   8   0  -6   68.31    4.40
   8   0  -6   74.60    4.29
   8   0  -6   70.38    4.48
   8   0  -6   75.75    4.80
   8   0  -6   80.90    4.76
   8   0  -6   81.28    4.39
   8   0  -5    2.24    1.79
   8   0  -5    3.82    1.68
   8   0  -5    1.94    1.88
   8   0  -5    3.58    1.83
  -8   0   4  369.29   21.38
   8   0  -4  352.36   13.67
  -8   0   4  321.09   19.93
   8   0  -4  388.93   14.50
   8   0  -4  334.39   20.77
   8   0  -4  316.67   13.25
   8   0  -3  965.70   37.00
   8   0  -3 1102.21   37.24
  -8   0   3 1348.65   47.09
   8   0  -3 1229.02   38.18
   8   0  -3 1218.56   47.06
   8   0  -3  925.98   36.46
   8   0  -2   11.65    1.87
  -8   0   2   10.91    4.09
   8   0  -2    7.85    1.88
   8   0  -2   11.51    2.37
   8   0  -2   10.49    4.20
   8   0  -2    6.99    1.79
   8   0  -2    9.23    2.09
   8   0  -1  326.97   12.64
  -8   0   1  347.00   18.24
   8   0  -1  347.27   13.01
   8   0  -1  329.58   13.78
   8   0  -1  290.52   19.96
   8   0  -1  297.06   12.40
   8   0  -1  333.02   12.79
   8   0  -1  304.86   12.66
  -8   0   0    3.98    3.26
   8   0   0    1.46    1.73
   8   0   0    1.74    1.40
   8   0   0    1.42    2.13
   8   0   0   -0.61    3.57
   8   0   0    4.49    1.84
   8   0   0    1.89    1.74
   8   0   0    1.42    1.40
   8   0   1  232.48    9.90
   8   0   1  230.78   10.61
   8   0   1  225.05    9.75
   8   0   1  206.90    9.59
   8   0   2  214.99    9.34
   8   0   2  223.65   10.16
   8   0   2  207.80    9.12
   8   0   2  230.06    9.10
   8   0   2  195.98    9.10
   8   0   3    1.44    1.78
   8   0   3    0.93    2.17
   8   0   3    1.46    1.58
  -8   0  -3    0.33    1.77
   8   0   3    1.13    1.66
   8   0   3   -1.29    1.68
   8   0   4   -0.11    1.76
   8   0   4   -0.31    2.31
   8   0   4    0.82    1.68
   8   0   4    0.84    1.76
   8   0   4    0.79    1.64
   8   0   4    0.33    1.77
   8   0   5   96.45    5.21
   8   0   5  102.57    5.99
   8   0   5   89.05    5.14
   8   0   5  103.11    4.94
   8   0   5   90.67    5.30
   8   0   6  136.19    6.37
   8   0   6  127.62    6.37
   8   0   6  142.85    5.93
   8   0   7    7.12    1.77
   8   0   7    5.87    1.50
  -8   0  -7    5.84    1.68
   8   0   8  166.55    4.91
  -8   0  -8  176.98    4.97
   8   0   9   -0.05    1.00
  -8  -1  14    7.64    1.02
  -8   1  14    6.36    0.94
   8   1 -14    6.34    0.98
  -8  -1  14    6.95    1.08
   8  -1 -13  159.89    6.33
  -8  -1  13  132.35    6.35
  -8   1  13  131.79    6.28
  -8  -1  13  164.64    6.07
  -8   1  13  146.82    5.93
   8  -1 -13  142.10    6.09
   8  -1 -12   45.51    3.04
   8   1 -12   44.67    3.06
  -8  -1  12   35.98    3.17
  -8   1  12   41.07    3.17
   8  -1 -12   44.23    2.97
   8   1 -12   46.52    3.01
  -8  -1  12   51.84    3.01
  -8   1  12   47.34    2.87
  -8  -1  12   31.42    2.80
  -8   1  12   35.53    2.91
   8  -1 -11   54.22    3.52
   8   1 -11   50.54    3.49
  -8   1  11   40.53    3.45
  -8  -1  11   42.25    3.74
  -8   1  11   47.35    3.69
   8  -1 -11   46.66    3.19
   8  -1 -11   55.99    3.48
   8   1 -11   49.49    3.45
   8   1 -11   49.01    3.18
   8   1 -11   49.38    3.06
   8  -1 -10  167.64    7.33
   8  -1 -10  198.99    8.40
   8   1 -10  184.69    8.29
  -8   1  10  170.93    8.50
  -8  -1  10  178.51    8.64
  -8   1  10  187.31    8.64
   8  -1 -10  182.42    7.76
   8  -1 -10  187.61    8.17
   8   1 -10  187.65    8.18
   8   1 -10  179.70    7.81
   8   1 -10  182.46    7.69
   8   1  -9  105.61    5.43
   8  -1  -9  107.61    5.17
   8  -1  -9  113.83    5.96
   8   1  -9  119.59    6.11
  -8  -1   9  108.88    6.29
  -8   1   9  121.80    6.41
   8  -1  -9  114.97    5.52
   8  -1  -9  118.64    5.93
   8   1  -9  106.82    5.81
   8   1  -9  113.56    5.66
   8   1  -8   26.64    2.71
   8  -1  -8   23.04    2.37
   8  -1  -8   27.63    2.89
   8   1  -8   27.29    2.86
  -8   1   8   23.88    3.22
  -8   1   8   26.37    3.10
  -8  -1   8   17.86    2.91
   8  -1  -8   19.97    2.24
   8  -1  -8   22.73    2.70
   8   1  -8   20.73    2.70
   8   1  -8   23.90    2.75
   8  -1  -8   24.73    2.40
   8  -1  -8   18.88    2.33
   8   1  -7   95.73    4.96
   8  -1  -7   87.85    4.82
   8  -1  -7   86.37    4.58
   8  -1  -7   92.78    5.24
   8   1  -7   92.01    5.36
  -8  -1   7   74.64    5.42
   8  -1  -7   85.59    5.04
   8   1  -7   96.68    5.20
   8   1  -7   89.01    4.90
   8  -1  -7   96.00    4.81
  -8   1   7   85.26    5.64
   8   1  -6   11.49    2.22
   8  -1  -6   14.33    2.30
   8  -1  -6   13.26    2.07
   8  -1  -6   16.16    2.47
   8   1  -6   13.47    2.41
  -8   1   6   14.26    2.63
   8  -1  -6   15.63    2.42
   8   1  -6   13.43    2.41
   8   1  -6   13.49    2.35
   8  -1  -6   13.81    2.17
   8   1  -5   77.79    4.55
   8  -1  -5   81.65    4.48
   8   1  -5   72.52    4.58
   8  -1  -5   76.41    4.67
   8  -1  -5   82.84    5.04
   8   1  -5   73.57    4.95
   8  -1  -5   80.54    4.44
  -8  -1   4  166.79   13.98
   8   1  -4  234.36    9.58
  -8   1   4  214.69   15.27
   8  -1  -4  237.26    9.64
   8   1  -4  207.20    9.68
   8  -1  -4  242.56    9.85
  -8  -1   4  165.01   13.83
   8  -1  -4  273.27   10.57
   8   1  -4  236.54   10.42
  -8   1   4  288.52   10.58
   8   1  -4  190.67    9.24
   8  -1  -4  229.27    9.26
   8   1  -4  235.26    9.59
   8  -1  -4  242.10    9.52
   8   1  -3   64.74    3.95
   8   1  -3   71.20    4.08
   8  -1  -3   81.62    4.18
  -8   1   3   77.94    8.67
   8  -1  -3   83.46    4.72
   8   1  -3   61.02    4.48
  -8   1   3   85.04    4.55
   8  -1  -3   64.77    8.67
   8   1  -3   34.72    7.85
   8   1  -3   53.00    3.82
   8  -1  -3   68.75    3.74
   8   1  -3   61.30    4.23
   8   1  -3   66.13    4.03
   8  -1  -3   70.83    3.97
   8   1  -2  443.42   16.95
   8  -1  -2  499.94   17.20
  -8   1   2  520.49   23.23
  -8  -1   2  357.23   21.29
   8   1  -2  409.14   17.09
   8  -1  -2  520.53   17.51
  -8   1   2  585.13   25.90
   8  -1  -2  552.42   18.39
   8   1  -2  473.91   18.07
   8  -1  -2  548.46   26.13
   8   1  -2  354.70   23.93
   8   1  -2  423.19   16.94
   8  -1  -2  494.84   17.07
   8   1  -2  445.18   17.24
   8   1  -2  445.96   17.04
   8   1  -2  355.95   16.91
   8   1  -1  250.08   10.23
   8  -1  -1  275.29   10.48
   8  -1  -1  288.12   10.83
   8   1  -1  241.77   10.57
  -8   1   1  270.40   17.31
   8  -1  -1  268.59   11.38
   8   1  -1  243.85   11.17
   8  -1  -1  272.35   10.89
   8   1  -1  178.35   16.21
   8   1  -1  239.91   10.32
   8  -1  -1  259.29   10.18
   8  -1  -1  266.35   10.43
   8  -1  -1  307.16   10.60
   8   1  -1  256.85   10.58
   8   1  -1  252.23   10.35
   8   1  -1  212.23   10.17
   8  -1   0  319.41   11.85
   8  -1   0  292.86   12.07
   8   1   0  272.78   11.87
   8  -1   0  289.70   12.68
   8   1   0  280.64   12.52
   8  -1   0  336.19   12.38
   8   1   0  270.28   11.65
   8  -1   0  308.87   11.76
   8  -1   0  307.68   11.88
   8   1   0  289.29   11.92
   8   1   0  292.03   11.68
   8   1   1   22.15    2.98
   8  -1   1   19.93    2.15
   8  -1   1   25.40    2.51
   8   1   1   28.68    2.62
   8  -1   1   20.66    2.48
   8   1   1   21.80    2.35
   8  -1   1   22.06    2.72
   8  -1   1   18.07    2.33
  -8   1  -1   22.44    2.76
   8  -1   1   16.64    2.11
   8   1   1   18.53    2.50
   8  -1   1   20.39    2.94
   8   1   1   18.71    2.26
   8  -1   2  166.38    7.48
   8  -1   2  180.44    8.11
   8   1   2  179.06    8.15
   8  -1   2  178.18    8.77
   8   1   2  174.41    8.70
   8  -1   2  195.52    8.02
   8  -1   2  175.96    8.16
  -8   1  -2  199.66    8.59
   8  -1   2  203.70    7.99
   8   1   2  186.21    7.85
   8  -1   2  172.15    7.92
  -8   1  -2  184.07    8.20
   8  -1   2  171.15    7.78
   8   1   2  171.79    7.80
   8  -1   3  277.93   11.92
   8   1   3  294.75   12.04
   8  -1   3  304.39   12.85
   8   1   3  303.19   12.81
   8  -1   3  302.46   11.90
   8  -1   3  283.16   11.97
  -8   1  -3  300.89   12.26
   8   1   3  315.10   11.84
   8  -1   3  306.44   11.70
   8   1   3  298.51   11.69
   8  -1   3  284.90   11.91
   8  -1   3  273.83   11.69
   8   1   3  280.85   11.54
   8  -1   4  467.15   17.80
   8   1   4  473.93   17.85
   8  -1   4  456.00   18.55
   8   1   4  460.66   18.53
   8  -1   4  463.69   17.72
   8  -1   4  461.45   17.68
  -8   1  -4  448.17   17.80
   8   1   4  494.23   17.50
   8   1   4  470.08   17.47
   8  -1   4  429.26   17.64
   8  -1   5  111.76    5.75
   8   1   5  122.22    5.91
   8  -1   5  104.01    5.75
   8  -1   5  116.20    5.69
  -8   1  -5  120.16    5.88
   8   1   5  122.36    5.52
   8  -1   5  116.37    5.49
   8   1   5  113.50    5.62
   8  -1   6   48.04    3.41
   8   1   6   51.82    3.45
   8  -1   6   50.60    3.52
   8  -1   6   48.82    3.29
   8   1   6   50.34    3.16
   8  -1   6   51.11    3.13
   8  -1   6   48.89    3.42
   8  -1   7   -0.31    1.41
   8   1   7    0.08    1.47
   8  -1   7    0.27    1.52
   8   1   7    1.08    1.24
   8  -1   7   -0.17    1.42
   8  -1   7    0.96    1.29
  -8   1  -7    0.93    1.39
  -8  -1  -7    0.38    1.33
   8  -1   8   20.98    1.93
   8   1   8   21.81    1.95
   8  -1   8   16.27    1.98
   8  -1   8   20.82    1.70
  -8   1  -8   23.46    1.92
  -8  -1  -8   22.86    1.90
   8  -1   9   -0.04    0.87
   8   1   9   -0.63    0.96
   8   2 -13   31.10    1.94
   8   2 -12    0.49    1.17
  -8  -2  12    0.89    1.29
  -8   2  12    1.70    1.18
  -8  -2  12    1.26    1.13
  -8   2  12    1.80    1.14
   8   2 -12    1.54    1.41
  -8  -2  12    0.68    1.31
  -8   2  12    1.93    1.22
   8  -2 -12    0.59    1.02
   8  -2 -11   23.93    2.23
   8   2 -11   20.55    2.27
  -8   2  11   21.42    2.35
  -8  -2  11   21.78    2.54
  -8   2  11   21.79    2.37
   8   2 -11   25.52    2.34
   8  -2 -11   24.19    2.09
   8  -2 -11   21.60    2.07
  -8  -2  11   27.68    2.27
  -8   2  11   25.47    2.06
   8   2 -11   24.80    2.25
   8   2 -10    2.00    1.68
   8  -2 -10    1.85    1.50
   8   2 -10    2.06    1.52
  -8   2  10    1.78    1.67
  -8  -2  10    0.36    1.81
  -8   2  10    3.33    1.68
   8  -2 -10    2.16    1.58
   8   2 -10    2.80    1.94
   8  -2 -10    2.37    1.37
   8  -2  -9   83.86    4.03
   8  -2  -9   81.76    4.70
   8   2  -9   84.16    4.84
  -8  -2   9   77.08    4.99
  -8   2   9   79.95    4.90
   8  -2  -9   86.99    4.40
   8  -2  -9   85.65    4.60
   8   2  -9   86.01    4.71
   8   2  -9   87.84    4.61
   8  -2  -8  213.83    8.91
   8  -2  -8  206.83    8.71
   8  -2  -8  239.62    9.67
   8   2  -8  224.40    9.60
  -8   2   8  222.31   10.09
   8   2  -8  210.17    8.87
   8  -2  -8  209.34    8.80
   8  -2  -8  232.21    9.09
   8   2  -8  224.66    9.36
   8   2  -8  230.42    9.27
   8  -2  -7  463.79   17.56
   8  -2  -7  482.35   18.22
   8   2  -7  458.11   18.18
  -8   2   7  482.40   18.87
   8  -2  -7  456.16   17.47
   8  -2  -7  489.82   17.63
   8  -2  -6  325.44   12.91
   8  -2  -6  349.95   13.64
   8   2  -6  335.72   13.59
  -8   2   6  355.49   14.15
   8   2  -6  315.66   12.82
   8  -2  -6  319.34   12.87
   8  -2  -6  348.13   12.89
   8   2  -6  335.23   13.16
   8   2  -5   56.66    3.72
   8  -2  -5   51.47    3.39
   8   2  -5   41.30    3.40
   8  -2  -5   47.39    3.46
   8  -2  -5   60.37    3.94
   8   2  -5   45.51    3.74
  -8   2   5   55.11    4.11
   8   2  -5   46.50    3.39
   8  -2  -5   54.50    3.34
   8   2  -5   52.23    3.67
   8  -2  -5   52.50    3.31
   8   2  -4   65.95    4.03
   8  -2  -4   66.97    3.82
   8   2  -4   48.01    3.73
   8  -2  -4   66.31    3.94
   8  -2  -4   70.38    4.39
   8   2  -4   53.05    4.09
   8   2  -4   61.11    3.87
   8  -2  -4   68.18    3.84
  -8   2   4   61.49    4.27
   8   2  -4   61.51    3.93
   8  -2  -4   65.16    3.69
   8   2  -3   29.86    2.85
   8  -2  -3   32.46    2.82
   8   2  -3   25.30    2.66
   8  -2  -3   37.87    2.84
   8  -2  -3   42.65    3.42
   8   2  -3   28.50    3.04
  -8   2   3   28.75    2.90
   8   2  -3   30.59    2.91
   8  -2  -3   30.47    2.65
   8   2  -3   30.30    2.90
   8   2  -2  105.86    5.47
   8   2  -2   94.17    5.41
   8  -2  -2  113.39    5.64
   8  -2  -2  125.07    6.39
   8   2  -2  106.30    6.02
   8  -2  -2  113.67    5.94
   8   2  -2  104.47    5.56
   8  -2  -2  125.04    5.69
   8  -2  -2  125.71    5.37
  -8   2   2  125.06    5.33
   8  -2  -2  117.49    5.31
   8   2  -2   96.66    5.58
   8   2  -2  104.63    5.48
   8  -2  -1   65.63    3.76
   8   2  -1   43.57    3.47
   8  -2  -1   51.00    3.59
   8  -2  -1   55.66    4.21
   8   2  -1   49.45    4.05
   8  -2  -1   59.88    4.03
   8   2  -1   56.24    3.84
   8  -2  -1   60.31    3.66
   8  -2  -1   53.53    3.53
  -8   2   1   65.69    4.28
  -8   2   1   59.99    3.46
   8  -2  -1   62.04    3.48
   8   2  -1   50.51    3.81
   8   2  -1   50.48    3.52
   8  -2   0  443.06   16.52
   8  -2   0  410.69   16.52
   8   2   0  405.49   16.53
   8  -2   0  428.23   17.29
   8   2   0  429.92   17.27
   8  -2   0  427.15   17.00
   8  -2   0  437.24   16.41
   8  -2   0  447.80   16.79
   8  -2   0  462.23   16.67
  -8   2   0  429.77   17.11
  -8   2   0  461.40   16.55
   8  -2   0  457.29   16.55
   8   2   0  421.46   16.66
   8  -2   1   60.76    3.61
   8  -2   1   59.68    3.80
   8   2   1   58.87    3.86
   8  -2   1   52.37    4.21
   8   2   1   57.69    4.32
  -8   2  -1   59.76    4.27
   8   2   1   69.25    4.19
   8  -2   1   64.35    3.80
   8   2   1   56.97    3.56
   8  -2   1   64.04    3.77
  -8   2  -1   64.11    4.19
  -8   2  -1   62.03    3.76
   8  -2   1   57.87    3.67
   8   2   1   60.90    3.99
   8  -2   2  292.92   11.21
   8  -2   2  277.55   11.45
   8   2   2  293.67   11.61
   8  -2   2  277.71   12.14
   8   2   2  282.68   12.16
  -8   2  -2  280.11   11.95
   8   2   2  304.67   11.63
   8  -2   2  289.87   11.44
   8   2   2  274.20   11.18
   8  -2   2  272.58   11.51
  -8   2  -2  281.55   11.83
   8  -2   2  290.34   11.51
   8   2   2  289.72   11.53
   8  -2   3   36.50    2.58
   8  -2   3   35.72    2.93
   8   2   3   38.58    3.08
   8  -2   3   31.42    3.32
   8   2   3   40.45    3.62
   8  -2   3   37.05    3.27
  -8   2  -3   41.60    3.43
   8   2   3   41.44    3.20
   8  -2   3   40.92    2.98
   8   2   3   38.54    2.87
   8  -2   3   30.50    2.80
  -8   2  -3   37.28    3.16
   8  -2   3   33.80    2.93
   8   2   3   37.07    3.10
   8  -2   4   10.20    1.86
   8   2   4    9.08    1.94
   8  -2   4    8.64    1.98
  -8   2  -4   12.82    2.34
   8   2   4   11.07    2.06
   8  -2   4    8.97    1.94
   8  -2   4    9.49    2.21
   8   2   4   12.06    2.02
  -8   2  -4   11.16    2.07
   8  -2   4    6.16    1.83
   8   2   4   12.05    2.09
   8  -2   5    8.15    1.75
   8   2   5   10.29    1.84
   8  -2   5    8.45    1.92
  -8   2  -5    6.87    1.99
   8   2   5    8.75    1.83
   8  -2   5    9.14    2.11
   8  -2   5    4.79    1.64
   8   2   5    7.70    1.84
   8   2   5    5.98    1.73
   8  -2   6  154.34    6.72
   8   2   6  158.57    6.77
   8  -2   6  162.57    7.09
   8  -2   6  156.71    6.89
  -8   2  -6  170.79    7.13
   8   2   6  167.91    6.49
   8  -2   6  148.76    6.90
  -8   2  -6  154.23    6.63
  -8  -2  -6  149.82    6.59
   8   2   6  158.77    6.52
   8  -2   7   40.98    2.49
   8   2   7   38.99    2.51
   8  -2   7   39.66    2.85
   8  -2   7   43.09    2.69
  -8   2  -7   42.75    2.71
   8  -2   7   47.11    2.58
   8  -2   7   38.63    2.67
  -8   2  -7   36.35    2.36
   8  -2   8   34.41    1.59
   8  -2   8   38.06    1.78
   8   3 -12   14.16    1.38
  -8  -3  12   17.68    1.59
   8  -3 -12   15.24    1.27
  -8   3  11   40.13    2.66
  -8  -3  11   35.83    2.77
   8   3 -11   41.52    2.51
   8  -3 -11   44.51    2.45
   8   3 -11   43.21    2.52
  -8   3  10   64.25    3.91
   8   3 -10   71.55    3.58
   8  -3 -10   65.08    3.27
   8  -3 -10   74.08    3.50
   8   3 -10   71.36    3.70
   8   3  -9   64.74    3.71
   8  -3  -9   69.24    3.55
  -8   3   9   67.83    3.35
   8  -3  -9   73.13    3.69
   8   3  -9   71.92    3.96
  -8   3   8    7.39    1.99
   8   3  -8    3.45    1.74
   8  -3  -8    4.04    1.26
  -8   3   8    3.13    1.64
  -8   3   8    4.19    1.16
   8   3  -8    3.58    1.16
   8   3  -8    3.15    1.90
   8  -3  -8    3.68    1.31
   8  -3  -7    0.45    1.22
  -8   3   7    0.39    1.82
   8  -3  -7    0.65    1.29
  -8   3   7    0.10    1.60
  -8   3   7    1.17    1.17
   8   3  -7    0.05    1.25
   8   3  -7    2.56    2.04
   8  -3  -7    1.43    1.26
   8  -3  -6  361.58   13.86
  -8   3   6  369.83   14.96
   8  -3  -6  363.56   14.12
  -8   3   6  359.78   13.81
  -8   3   6  382.26   14.60
   8   3  -6  352.96   13.58
   8  -3  -6  378.20   14.00
   8   3  -6  375.07   14.26
   8   3  -6  386.46   14.36
   8  -3  -5  299.69   11.71
  -8   3   5  286.65   12.49
   8   3  -5  294.25   11.93
   8  -3  -5  297.89   11.93
  -8   3   5  296.82   11.62
  -8   3   5  309.25   12.39
   8   3  -5  296.12   11.39
   8  -3  -5  315.56   11.74
   8   3  -5  309.83   12.00
   8   3  -5  308.07   12.05
   8  -3  -4  543.81   20.37
  -8   3   4  528.07   21.00
  -8   3   4  579.79   20.96
   8   3  -4  557.80   20.61
   8  -3  -4  555.94   20.63
  -8   3   4  538.89   20.24
  -8   3   4  584.17   21.20
   8   3  -4  537.90   19.98
   8  -3  -4  563.34   20.19
   8   3  -4  505.33   20.50
   8  -3  -4  595.87   20.35
   8   3  -4  566.77   20.54
   8   3  -4  560.94   20.57
   8  -3  -3  163.73    7.24
  -8   3   3  148.99    7.46
  -8   3   3  168.16    7.80
   8   3  -3  169.11    7.55
   8  -3  -3  181.43    7.53
  -8   3   3  175.77    7.89
  -8   3   3  167.16    7.15
   8   3  -3  160.60    6.84
   8  -3  -3  175.86    7.10
   8   3  -3  158.58    7.48
   8   3  -3  165.42    7.29
   8   3  -3  166.38    7.33
   8  -3  -2   36.85    2.83
  -8   3   2   32.54    3.18
   8   3  -2   37.51    3.24
   8  -3  -2   33.93    2.82
   8  -3  -2   34.18    2.53
  -8   3   2   35.37    3.28
  -8   3   2   36.17    2.64
   8   3  -2   32.12    2.45
   8  -3  -2   36.18    2.60
   8   3  -2   29.19    2.98
  -8   3   1   12.99    2.36
   8  -3  -1    9.63    2.15
   8  -3  -1   11.92    1.71
  -8   3   1   11.98    1.84
   8   3  -1    7.93    1.61
   8  -3  -1   11.75    1.75
   8  -3   0   99.62    4.83
   8  -3   0   77.41    4.85
  -8   3   0   94.82    5.27
   8   3   0  107.48    5.30
   8  -3   0   88.58    4.48
   8  -3   0   87.08    4.70
  -8   3   0   91.89    5.20
  -8   3   0  106.22    4.94
   8   3   0   94.65    4.49
   8  -3   0   93.45    4.74
   8  -3   1   25.94    2.35
   8  -3   1   25.32    2.79
  -8   3  -1   29.22    2.94
   8   3   1   26.92    2.84
   8  -3   1   24.80    2.29
   8   3   1   21.48    2.12
   8  -3   1   23.64    2.34
  -8   3  -1   26.00    2.83
   8   3   1   22.91    2.26
  -8   3  -1   28.58    2.50
   8  -3   1   24.10    2.39
   8   3   1   24.54    2.78
   8  -3   2   15.21    1.87
   8   3   2   12.88    2.32
   8  -3   2   14.90    1.97
   8  -3   2   12.93    2.36
   8  -3   2   11.75    1.86
   8   3   2   11.11    1.81
  -8   3  -2   13.67    2.33
   8   3   2   11.48    1.79
  -8   3  -2   11.59    1.92
   8  -3   2   12.31    1.92
   8   3   2   11.31    2.31
   8  -3   3   21.24    1.99
   8  -3   3   22.93    2.57
  -8   3  -3   17.12    2.42
   8   3   3   20.71    2.41
   8  -3   3   20.10    2.17
   8   3   3   19.82    2.12
   8  -3   3   19.55    2.13
  -8   3  -3   22.07    2.32
  -8   3  -3   19.95    2.42
   8  -3   3   17.03    2.15
   8   3   3   19.18    2.44
   8  -3   4   31.98    2.20
   8  -3   4   31.96    2.72
   8  -3   4   32.08    2.86
  -8   3  -4   31.75    2.85
   8   3   4   34.33    2.55
   8  -3   4   34.28    2.52
   8   3   4   31.95    2.49
  -8   3  -4   31.44    2.81
  -8   3  -4   32.22    2.62
   8  -3   4   30.15    2.59
   8   3   4   33.79    2.77
   8  -3   5  195.09    7.67
  -8   3  -5  179.06    7.67
   8  -3   5  177.49    7.23
   8   3   5  166.10    7.22
   8  -3   5  173.06    7.41
  -8   3  -5  178.27    7.54
  -8   3  -5  187.16    7.48
   8   3   5  175.77    7.33
  -8   3  -6    5.96    1.45
   8  -3   6    5.14    1.30
   8  -3   6    4.39    1.25
   8   3   6    4.25    1.34
  -8   3  -6    5.06    1.26
  -8   3  -6    4.39    1.26
   8   3   6    6.15    1.47
   8  -3   7   31.12    2.04
  -8   3  -7   24.97    1.83
   8   3   7   31.09    1.82
  -8   3  -8   10.92    0.90
  -8   4  10   22.32    1.38
   8  -4 -10   25.91    1.57
  -8   4   9  122.74    2.64
   8  -4  -9  124.06    2.88
  -8   4   8    3.85    1.42
   8   4  -8    1.85    1.20
   8  -4  -8    3.34    1.11
  -8   4   8    2.83    1.01
   8   4  -8    3.88    1.06
   8  -4  -8    3.99    1.12
  -8   4   7  102.35    5.46
   8  -4  -7  112.94    5.09
  -8   4   7  117.77    4.96
   8   4  -7  113.86    4.83
   8  -4  -7  116.81    5.01
   8   4  -7  121.59    5.35
   8  -4  -6   76.05    3.71
  -8   4   6   78.07    4.49
   8  -4  -6   79.56    4.05
  -8   4   6   84.39    3.93
   8   4  -6   79.73    3.80
   8  -4  -6   84.49    3.96
   8   4  -6   91.05    4.39
   8  -4  -5   88.92    4.14
  -8   4   5   82.21    4.70
  -8   4   5   91.13    4.23
  -8   4   5   82.54    4.55
   8   4  -5   90.83    4.13
   8  -4  -5   85.58    4.05
   8  -4  -5   93.25    4.26
   8   4  -5   86.73    4.51
   8  -4  -4   39.08    2.56
  -8   4   4   33.98    2.86
  -8   4   4   42.66    2.66
  -8   4   4   36.74    2.95
   8   4  -4   39.04    2.58
   8  -4  -4   41.63    2.56
   8  -4  -4   41.49    2.57
   8   4  -4   39.20    2.89
   8  -4  -3   81.59    4.08
  -8   4   3   73.05    4.26
   8  -4  -3   79.94    4.21
  -8   4   3   83.66    4.11
  -8   4   3   84.58    4.55
   8   4  -3   84.82    3.97
   8  -4  -3   82.42    4.04
   8   4  -3   77.37    4.34
   8  -4  -3   80.05    3.93
   8  -4  -2   22.64    2.10
  -8   4   2   19.97    2.24
   8  -4  -2   20.39    2.09
   8  -4  -2   22.60    1.94
  -8   4   2   21.61    2.06
   8   4  -2   18.79    2.01
  -8   4   2   19.21    2.36
   8  -4  -2   17.61    1.87
   8   4  -2   20.11    2.51
   8  -4  -1   42.22    2.81
  -8   4   1   40.52    3.00
   8   4  -1   42.91    3.27
   8  -4  -1   39.80    2.81
   8  -4  -1   40.46    2.64
  -8   4   1   42.15    2.77
  -8   4   1   45.87    3.21
   8   4  -1   40.51    2.63
   8  -4  -1   37.30    2.67
   8   4  -1   35.84    3.07
  -8   4   0   16.35    2.14
   8   4   0   21.04    2.53
   8  -4   0   16.30    1.92
   8  -4   0   14.69    1.99
   8  -4   0   15.26    1.77
  -8   4   0   19.64    1.99
   8   4   0   17.16    1.92
  -8   4   0   16.38    2.22
   8  -4   0   17.01    1.89
   8   4   0   19.56    2.42
   8  -4   1   22.36    2.27
  -8   4  -1   20.84    2.29
   8   4   1   24.22    2.48
   8  -4   1   23.52    2.06
  -8   4  -1   25.17    2.16
   8   4   1   24.74    2.08
   8  -4   1   23.30    2.14
   8   4   1   24.44    2.56
   8  -4   2   46.47    2.73
   8  -4   2   42.63    2.91
  -8   4  -2   41.19    3.00
   8   4   2   46.85    2.95
   8  -4   2   43.34    2.52
   8   4   2   35.58    2.40
   8  -4   2   41.73    2.73
  -8   4  -2   42.18    3.07
  -8   4  -2   50.24    2.87
   8   4   2   49.34    2.71
   8  -4   2   43.60    2.82
   8  -4   3  140.35    5.57
   8  -4   3  134.11    5.85
  -8   4  -3  129.32    5.93
   8  -4   3  129.21    5.45
   8   4   3  122.31    5.43
  -8   4  -3  133.11    5.98
  -8   4  -3  150.85    5.85
   8  -4   3  132.76    5.83
   8  -4   4    4.25    0.99
  -8   4  -4    1.41    1.24
   8  -4   4    3.81    1.20
   8  -4   4    3.17    1.36
   8  -4   4    3.27    1.08
   8   4   4    1.84    1.15
  -8   4  -4    3.40    1.29
  -8   4  -4    3.52    1.12
   8   4   4    2.94    1.49
   8  -4   5   41.39    2.40
   8  -4   5   39.44    2.18
   8   4   5   39.35    2.22
  -8   4  -5   43.37    2.31
   8   4   5   44.15    2.47
   8  -4   6   39.54    2.08
   8  -4   6   40.90    1.94
   8   4   6   36.84    1.97
   8   4   6   44.91    2.12
  -8   5   7    7.63    0.90
   8   5  -7    5.31    0.80
   8  -5  -7    6.16    0.81
  -8   5   6   26.23    1.59
   8   5  -6   23.18    1.52
   8  -5  -6   24.73    1.53
  -8   5   5   64.10    2.88
   8   5  -5   59.32    2.79
   8  -5  -5   57.22    2.74
   8  -5  -4   31.03    1.80
   8  -5  -4   31.00    2.03
  -8   5   4   35.92    2.03
   8   5  -4   33.65    2.00
   8  -5  -4   35.34    1.92
   8  -5  -3   29.75    1.58
   8  -5  -3   27.92    1.71
   8  -5  -2   56.97    2.83
   8  -5  -2   51.36    2.88
  -8   5   2   63.93    2.95
   8   5  -2   63.08    2.91
   8  -5  -2   56.91    2.91
   8  -5  -1   40.42    2.28
  -8   5   1   42.30    2.33
   8   5  -1   42.39    2.28
   8  -5  -1   35.63    2.26
   8  -5   0    6.20    1.12
  -8   5   0    5.26    1.06
   8   5   0    5.77    1.18
   8   5   0    5.31    1.37
   8  -5   1   12.20    1.26
   8   5   1   11.19    1.48
   8   5   2    3.93    1.17
   8  -5   3    2.09    0.63
   8   5   3    1.35    0.87
  -9   0  13    3.62    1.09
   9   0 -12   40.12    2.64
  -9   0  12   31.33    2.43
  -9   0  12   29.08    2.46
  -9   0  12   39.26    2.42
   9   0 -11    0.43    1.25
   9   0 -11    0.09    1.42
  -9   0  11    0.66    1.39
  -9   0  11   -0.09    1.44
   9   0 -10    6.01    1.68
   9   0 -10    5.96    1.72
  -9   0  10    6.16    1.89
   9   0 -10    5.63    1.75
   9   0 -10    6.35    1.71
   9   0  -9    0.07    1.61
   9   0  -9   -0.83    1.68
  -9   0   9    2.87    1.95
  -9   0   9   -0.12    1.76
   9   0  -9    1.70    1.69
   9   0  -8  193.58    8.00
   9   0  -8  189.82    8.68
   9   0  -8  185.26    8.00
  -9   0   8  173.83    8.88
   9   0  -7   29.68    2.86
   9   0  -7   26.44    3.13
  -9   0   7   27.75    3.32
   9   0  -7   28.17    2.83
   9   0  -6  217.47    9.88
   9   0  -6  221.58   10.42
  -9   0   6  260.13   11.18
   9   0  -6  249.07    9.83
   9   0  -5 1597.72   58.98
   9   0  -5 1682.17   59.71
   9   0  -5 1639.84   58.72
   9   0  -4  283.83   12.28
   9   0  -4  298.11   12.11
   9   0  -4  310.53   12.44
   9   0  -4  322.47   13.15
   9   0  -4  292.05   12.15
   9   0  -3  731.80   26.63
   9   0  -3  739.82   26.38
   9   0  -3  772.37   26.86
   9   0  -3  837.08   27.87
   9   0  -3  646.57   26.07
   9   0  -2    0.47    1.64
   9   0  -2    5.34    1.82
   9   0  -2   -0.28    1.59
   9   0  -2    2.62    2.04
   9   0  -2    1.13    1.77
   9   0  -2    0.81    1.88
   9   0  -1  329.68   13.67
   9   0  -1  354.89   13.37
   9   0  -1  341.49   14.03
   9   0  -1  350.26   14.80
   9   0  -1  352.44   13.56
   9   0  -1  354.80   13.80
   9   0   0    5.16    1.98
   9   0   0    8.54    1.75
   9   0   0    6.55    2.43
   9   0   0    8.55    2.02
   9   0   0    9.09    2.13
   9   0   1    3.88    1.82
   9   0   1    1.80    2.22
   9   0   1    1.81    1.86
   9   0   1    2.51    1.78
   9   0   2  127.84    6.64
   9   0   2  134.62    7.40
  -9   0  -2  159.34    7.10
   9   0   2  157.60    6.64
   9   0   2  129.65    6.31
   9   0   3   34.31    2.98
   9   0   3   35.78    3.48
  -9   0  -3   37.20    3.03
   9   0   3   33.21    2.67
   9   0   4   39.82    3.10
   9   0   4   35.38    3.47
   9   0   4   41.43    2.94
   9   0   4   36.48    2.56
   9   0   5  128.21    6.10
   9   0   5  136.35    5.86
   9   0   6  138.39    6.25
   9   0   6  146.13    5.96
  -9   0  -6  145.70    6.26
   9   0   7   98.80    4.50
   9   0   7  101.05    4.20
  -9   0  -7  100.31    4.50
   9   0   8   26.64    1.69
  -9  -1  13   59.96    2.59
  -9   1  13   53.83    2.52
  -9  -1  12   25.61    1.97
  -9   1  12   24.92    1.87
   9   1 -12   21.74    1.64
   9  -1 -11   32.04    2.48
   9   1 -11   30.79    2.47
  -9  -1  11   21.14    2.34
  -9   1  11   25.20    2.50
  -9  -1  11   25.45    2.52
  -9   1  11   26.58    2.38
   9   1 -11   29.05    2.19
   9  -1 -10   84.00    3.97
   9  -1 -10   89.76    4.68
   9   1 -10   87.82    4.70
  -9  -1  10   82.01    4.78
  -9   1  10   74.74    4.51
   9   1 -10   81.11    4.29
   9   1 -10   83.34    4.21
   9   1  -9   13.55    2.13
   9  -1  -9   15.59    1.94
   9  -1  -9   13.48    2.21
   9   1  -9   15.58    2.29
  -9   1   9   12.96    2.39
  -9  -1   9   12.99    2.30
   9   1  -9   11.44    2.20
   9   1  -8  109.15    5.24
   9  -1  -8  101.92    4.95
   9  -1  -8  102.90    5.56
   9   1  -8  103.63    5.65
  -9   1   8  101.97    5.87
  -9  -1   8   90.68    5.61
   9   1  -8   95.95    5.16
   9  -1  -8  103.67    4.98
   9  -1  -7  257.33   10.62
   9   1  -7  262.72   10.57
   9  -1  -7  245.65   10.25
   9  -1  -7  248.34   11.05
   9   1  -7  254.88   11.11
  -9   1   7  270.87   11.48
   9   1  -7  244.00   10.51
   9  -1  -7  290.28   10.48
   9  -1  -6  270.41   10.56
   9  -1  -6  246.94   10.21
   9   1  -6  221.55   10.45
   9  -1  -6  223.86   10.50
   9  -1  -6  260.34   11.13
   9   1  -6  240.92   11.01
   9  -1  -6  286.31   10.45
   9   1  -5  466.82   17.67
   9  -1  -5  472.92   17.75
   9   1  -5  417.70   17.66
   9  -1  -5  468.29   17.86
   9  -1  -5  491.41   18.58
   9   1  -5  414.62   18.16
   9  -1  -5  473.89   17.50
   9   1  -4  213.29    8.85
  -9   1   4  268.58    9.71
   9   1  -4  198.84    8.92
   9  -1  -4  212.13    8.98
   9  -1  -4  241.14    9.83
   9   1  -4  193.35    9.38
   9   1  -4  169.10    8.43
   9   1  -4  200.36    8.81
   9  -1  -4  210.35    8.74
   9   1  -3  590.79   21.76
   9  -1  -3  597.35   21.88
   9   1  -3  579.15   22.05
   9  -1  -3  632.95   22.13
   9  -1  -3  674.31   23.02
   9   1  -3  540.20   22.67
   9   1  -3  527.74   21.56
   9  -1  -3  607.16   21.62
   9   1  -3  587.88   21.86
   9  -1  -3  605.38   21.81
   9   1  -2  238.13    9.95
   9  -1  -2  261.27   10.22
   9   1  -2  242.00   10.33
   9  -1  -2  261.43   10.45
   9  -1  -2  284.94   11.34
   9   1  -2  245.22   11.00
   9   1  -2  240.58   10.11
   9  -1  -2  223.29    9.68
   9   1  -2  249.07   10.41
   9   1  -2  257.74   10.20
   9  -1  -2  251.41   10.23
   9  -1  -1  159.68    6.63
   9  -1  -1  139.77    6.89
   9   1  -1  127.64    6.66
   9  -1  -1  142.33    7.47
   9   1  -1  140.75    7.45
   9   1  -1  142.99    6.62
   9  -1  -1  141.37    6.35
   9   1  -1  143.28    6.79
   9   1  -1  136.41    6.50
   9  -1   0    2.77    1.76
   9   1   0    2.92    1.81
   9  -1   0    3.90    1.57
   9  -1   0    1.00    2.05
   9   1   0    1.59    2.17
   9   1   0    2.39    1.99
   9  -1   0    3.52    1.80
   9  -1   0    1.82    1.42
  -9   1   0    3.95    1.90
   9   1   0    2.25    1.96
   9   1   0    2.85    1.84
   9  -1   1   23.19    2.14
   9  -1   1   22.45    2.62
   9   1   1   20.00    2.54
   9  -1   1   24.83    2.95
   9   1   1   23.88    3.06
   9  -1   1   22.55    2.70
  -9   1  -1   23.87    3.03
   9   1   1   24.86    2.72
   9  -1   1   22.95    2.57
   9  -1   1   15.95    2.33
  -9   1  -1   22.24    2.64
   9   1   1   23.09    2.57
   9   1   1   24.88    2.43
   9  -1   2    4.43    1.76
   9   1   2    3.79    1.84
   9  -1   2    4.47    2.25
   9   1   2    4.25    2.12
  -9   1  -2    4.64    2.01
   9  -1   2    3.86    1.81
   9  -1   2    3.75    1.88
   9  -1   2    1.78    1.61
   9   1   2    3.82    1.84
   9  -1   3   24.00    2.52
   9   1   3   20.73    2.44
   9   1   3   24.17    3.06
   9  -1   3   20.77    2.86
   9  -1   3   21.43    2.26
  -9   1  -3   22.76    2.62
   9  -1   3   26.31    2.48
   9   1   3   22.22    2.51
   9  -1   3   21.00    2.42
   9  -1   3   18.70    2.38
   9  -1   4  213.92    8.86
   9   1   4  218.16    8.92
   9  -1   4  201.40    9.39
   9   1   4  211.35    9.48
   9  -1   4  208.19    8.69
   9  -1   4  194.98    8.64
  -9   1  -4  214.82    8.94
   9   1   4  239.15    8.77
   9  -1   4  190.36    8.78
   9  -1   5    8.37    1.77
   9   1   5   12.06    1.91
   9  -1   5    9.92    1.76
   9   1   5   12.00    1.80
   9  -1   5    7.66    1.61
   9  -1   6   36.30    2.51
   9   1   6   41.41    2.60
   9   1   6   38.37    2.33
   9  -1   6   37.18    2.38
  -9   1  -6   36.37    2.47
  -9  -1  -6   37.24    2.46
   9  -1   7   13.15    1.45
   9   1   7   14.68    1.50
   9  -1   7   11.75    1.34
   9  -1   8   17.95    1.28
   9   1   8   21.20    1.32
   9   2 -12    1.15    0.85
   9   2 -11   11.36    1.56
  -9  -2  11    9.28    1.52
  -9   2  11   11.73    1.33
  -9   2  11   10.70    1.53
  -9  -2  11    9.11    1.55
   9  -2 -10   20.87    2.03
   9   2 -10   19.76    2.04
  -9  -2  10   19.43    2.26
   9  -2 -10   19.61    1.70
   9   2 -10   21.28    2.21
  -9  -2  10   23.79    2.16
   9   2 -10   23.30    2.17
   9  -2  -9  129.15    5.53
   9  -2  -9  138.68    6.22
   9   2  -9  127.92    6.17
  -9   2   9  128.10    6.50
  -9  -2   9  123.55    6.38
   9  -2  -9  128.84    5.61
   9   2  -9  144.57    6.16
   9   2  -9  146.52    6.10
   9  -2  -8  173.00    7.03
   9  -2  -8  173.95    7.66
   9   2  -8  172.93    7.73
  -9   2   8  172.95    8.10
  -9  -2   8  154.16    7.74
   9  -2  -8  169.84    7.00
   9   2  -8  184.99    7.54
   9  -2  -8  169.81    7.21
   9  -2  -7  127.30    5.67
   9  -2  -7  121.15    5.43
   9  -2  -7  125.61    6.07
   9   2  -7  121.55    6.08
  -9   2   7  128.07    6.45
  -9  -2   7  106.19    6.01
   9  -2  -7  111.44    5.25
   9  -2  -6   26.19    2.48
   9  -2  -6   22.33    2.61
   9   2  -6   22.61    2.70
  -9   2   6   25.87    2.91
   9   2  -6   25.30    2.46
   9  -2  -6   20.69    2.03
   9   2  -6   26.45    2.73
   9  -2  -6   25.38    2.33
   9   2  -6   30.59    2.85
   9  -2  -5  107.67    4.93
   9   2  -5   78.47    4.75
   9  -2  -5   98.70    4.95
   9  -2  -5   97.50    5.32
   9   2  -5   87.44    5.20
  -9   2   5   93.78    5.31
   9   2  -5   84.04    4.70
   9  -2  -5   92.44    4.64
   9   2  -5   86.93    4.91
   9  -2  -5  102.69    4.72
   9   2  -5   96.10    5.01
   9  -2  -4  140.09    6.17
   9   2  -4  105.74    5.97
   9  -2  -4  143.90    6.28
   9  -2  -4  153.64    6.89
   9   2  -4  115.26    6.48
  -9   2   4  127.74    6.44
   9   2  -4  112.64    5.97
   9  -2  -4  138.83    6.08
   9   2  -4  134.04    6.25
   9  -2  -4  147.66    6.05
   9   2  -4  128.20    6.17
   9   2  -3   13.27    2.14
   9  -2  -3   17.92    1.98
   9   2  -3   14.97    2.02
   9  -2  -3   21.88    2.39
   9   2  -3   18.49    2.43
   9   2  -3    9.64    2.27
   9  -2  -3   11.90    1.85
   9   2  -3   12.88    2.59
   9   2  -3   13.97    2.29
   9  -2  -3   12.61    2.10
   9   2  -2  143.18    7.02
   9  -2  -2  173.17    7.32
   9  -2  -2  188.14    8.05
   9   2  -2  138.54    7.48
   9   2  -2  158.38    7.29
   9  -2  -2  195.32    7.41
  -9   2   2  193.86    8.03
   9   2  -2  131.15    7.15
   9   2  -2  162.17    7.15
   9  -2  -2  164.05    7.18
   9   2  -2  149.53    6.93
   9  -2  -1   30.50    2.60
   9   2  -1   23.72    2.53
   9  -2  -1   29.02    2.65
   9  -2  -1   32.65    3.07
   9   2  -1   27.13    2.95
   9   2  -1   27.85    2.96
   9  -2  -1   27.36    2.40
   9  -2  -1   30.23    2.51
  -9   2   1   31.63    3.08
   9   2  -1   25.81    2.96
   9   2  -1   33.18    2.73
   9  -2   0   93.80    4.62
   9   2   0   83.95    4.66
   9  -2   0   85.60    4.62
   9  -2   0   85.02    5.16
   9   2   0   82.92    5.21
   9  -2   0   85.94    5.00
   9  -2   0   96.62    4.61
   9  -2   0   97.57    4.83
  -9   2   0   98.78    5.26
  -9   2   0   94.42    4.54
   9  -2   0   83.45    4.54
   9   2   0   86.71    4.91
   9  -2   1   71.81    3.70
   9  -2   1   65.89    3.85
   9   2   1   64.36    3.87
   9  -2   1   59.78    4.31
   9   2   1   60.75    4.35
   9  -2   1   66.76    3.82
  -9   2  -1   73.88    4.50
   9  -2   1   78.63    3.91
   9  -2   1   60.17    3.92
  -9   2  -1   72.49    4.29
  -9   2  -1   66.18    3.70
   9  -2   1   55.74    3.66
   9   2   1   66.96    4.06
   9  -2   2   49.19    2.86
   9  -2   2   45.16    3.10
   9   2   2   51.18    3.30
   9  -2   2   40.94    3.49
   9   2   2   41.87    3.58
   9  -2   2   49.26    3.20
  -9   2  -2   50.19    3.59
   9   2   2   55.43    3.53
   9  -2   2   50.11    3.17
   9   2   2   41.36    2.87
   9  -2   2   44.46    3.17
  -9   2  -2   53.92    3.48
  -9   2  -2   42.12    2.91
   9  -2   2   40.53    3.04
   9   2   2   46.29    3.31
   9  -2   3    9.58    1.69
   9   2   3    9.13    1.80
   9  -2   3    8.47    1.29
   9  -2   3    6.45    1.96
   9   2   3    7.10    2.01
   9  -2   3    8.62    1.68
  -9   2  -3    7.44    1.96
   9   2   3    9.01    2.04
   9  -2   3   10.35    1.84
   9  -2   3    7.71    1.97
   9  -2   3    5.44    1.62
   9   2   3    8.90    1.68
  -9   2  -3    9.90    1.88
  -9   2  -3    7.31    1.49
   9   2   3    8.96    1.95
   9  -2   4   42.32    2.72
   9   2   4   40.15    2.73
   9  -2   4   43.31    2.95
   9  -2   4   37.80    2.79
  -9   2  -4   38.06    2.96
   9   2   4   46.11    2.88
   9  -2   4   40.35    2.68
   9   2   4   38.39    2.69
   9  -2   4   36.32    2.74
  -9   2  -4   39.19    2.61
   9   2   4   40.20    2.73
   9  -2   5   58.66    2.95
   9   2   5   54.61    2.96
   9  -2   5   55.68    3.13
   9  -2   5   50.28    3.12
  -9   2  -5   56.58    3.29
   9   2   5   56.44    2.97
   9  -2   5   57.78    2.96
  -9   2  -5   44.43    2.77
  -9   2  -5   48.53    2.84
   9   2   5   48.93    2.81
   9  -2   6    8.17    1.11
   9  -2   6    8.47    1.33
  -9   2  -6    8.34    1.11
   9  -2   7    5.73    0.94
  -9   2  -7    4.00    0.70
   9  -3 -10   13.19    1.20
   9   3 -10   14.30    1.63
   9   3  -9    7.41    1.66
  -9   3   9    9.09    1.63
  -9  -3   9    5.38    1.48
   9  -3  -9    8.00    1.17
   9  -3  -8   74.14    3.43
  -9   3   8   79.49    4.32
  -9  -3   8   68.96    4.15
   9  -3  -8   74.78    3.56
  -9   3   8   67.55    3.84
   9  -3  -8   79.48    3.55
   9  -3  -7   22.82    1.93
  -9   3   7   24.81    2.57
   9  -3  -7   26.00    2.04
  -9   3   7   23.21    2.41
   9  -3  -7   25.16    1.84
   9   3  -7   28.06    2.55
   9   3  -7   26.04    2.50
   9  -3  -6   43.53    2.74
  -9   3   6   38.14    3.22
   9  -3  -6   45.26    2.79
  -9   3   6   45.65    2.51
  -9   3   6   42.66    3.22
   9   3  -6   47.47    3.21
   9   3  -6   45.64    3.17
   9  -3  -5  146.10    6.34
  -9   3   5  137.21    6.77
   9   3  -5  145.11    6.55
   9  -3  -5  149.22    6.44
  -9   3   5  137.47    6.02
   9   3  -5  150.59    6.60
   9   3  -5  153.93    6.63
   9  -3  -4   62.40    3.45
  -9   3   4   50.90    3.56
  -9   3   4   55.84    3.83
   9   3  -4   65.54    3.85
   9  -3  -4   60.86    3.54
  -9   3   4   58.60    3.13
  -9   3   4   72.85    4.17
   9   3  -4   57.72    3.58
   9  -3  -4   56.51    3.21
   9   3  -4   62.96    3.63
   9  -3  -3   28.75    2.45
  -9   3   3   26.49    2.68
   9   3  -3   30.42    2.84
   9  -3  -3   30.22    2.45
  -9   3   3   29.20    2.15
  -9   3   3   27.33    2.74
   9   3  -3   27.87    2.82
   9   3  -3   25.39    2.44
   9  -3  -3   27.63    2.27
   9   3  -3   27.62    2.41
   9  -3  -2   50.48    3.04
  -9   3   2   44.05    3.32
   9   3  -2   43.73    3.32
   9  -3  -2   42.31    3.02
  -9   3   2   46.41    2.77
   9  -3  -2   40.47    2.78
   9  -3  -2   38.58    2.79
  -9   3   1   16.37    2.30
   9  -3  -1   16.87    2.02
   9  -3  -1   15.05    1.80
  -9   3   1   17.76    1.85
  -9   3   1   17.26    2.32
   9  -3  -1   15.28    1.83
   9  -3   0   15.08    1.85
  -9   3   0   13.97    2.19
   9   3   0   12.73    2.28
   9  -3   0   12.45    1.70
   9   3   0   12.66    1.53
  -9   3   0   14.09    2.22
  -9   3   0   12.84    1.70
   9  -3   0   12.37    1.70
   9   3   0   13.06    2.28
   9  -3   1   60.63    3.28
   9  -3   1   57.29    3.65
  -9   3  -1   55.84    3.68
   9   3   1   69.88    3.81
   9  -3   1   56.60    3.10
   9  -3   1   54.08    3.33
  -9   3  -1   62.48    3.76
  -9   3  -1   61.95    3.36
   9  -3   1   54.06    3.30
   9   3   1   61.45    3.74
   9  -3   2    0.67    1.14
   9  -3   2   -0.86    1.39
   9   3   2   -0.40    1.67
   9  -3   2   -0.16    1.31
   9  -3   2    0.16    1.58
   9  -3   2   -0.07    1.18
   9   3   2    0.57    1.02
  -9   3  -2   -0.35    1.52
  -9   3  -2   -0.58    1.14
   9  -3   2    1.32    1.22
   9   3   2   -0.71    1.68
   9  -3   3   36.33    2.16
   9  -3   3   36.14    2.55
   9  -3   3   40.20    2.72
  -9   3  -3   36.52    2.74
   9   3   3   42.92    2.66
   9  -3   3   39.05    2.39
   9   3   3   31.09    2.23
   9  -3   3   32.00    2.45
  -9   3  -3   38.68    2.72
  -9   3  -3   36.52    2.45
   9  -3   3   33.46    2.42
   9   3   3   39.67    2.73
   9  -3   4   52.83    2.93
  -9   3  -4   52.00    3.04
   9  -3   4   60.90    2.75
   9   3   4   49.42    2.66
   9  -3   4   51.68    2.85
  -9   3  -4   51.80    2.94
  -9   3  -4   55.10    2.77
   9   3   4   60.46    2.94
   9  -3   5   70.12    3.12
  -9   3  -5   66.89    3.12
   9   3   5   67.63    3.17
  -9   3  -6  129.73    5.33
   9  -3   6  141.60    5.36
  -9   4   8   12.18    0.88
   9  -4  -8    0.05    0.33
  -9   4   7   51.76    1.69
   9   4  -7   51.76    2.23
   9  -4  -6   52.50    2.58
  -9   4   6   49.03    3.00
   9  -4  -6   50.73    2.79
  -9   4   6   57.84    2.63
   9   4  -6   55.04    2.95
   9   4  -5    0.79    1.30
   9  -4  -5    1.45    1.02
  -9   4   5    1.76    1.09
   9  -4  -5    1.68    0.99
  -9   4   5    2.55    1.26
  -9   4   5    2.39    0.97
   9   4  -5   -0.10    0.51
   9  -4  -4   19.93    1.59
   9  -4  -4   14.83    1.52
  -9   4   4   20.95    1.48
  -9   4   4   17.85    1.88
   9  -4  -3   13.52    1.57
  -9   4   3   12.65    1.44
   9   4  -3   13.26    1.47
  -9   4   3   14.21    1.85
   9  -4  -3   12.92    1.34
   9  -4  -2   27.06    1.98
  -9   4   2   26.45    1.87
  -9   4   2   25.39    2.26
   9   4  -2   19.95    1.68
   9  -4  -2   23.62    1.83
   9   4  -2   21.08    2.27
   9  -4  -1   13.22    1.56
  -9   4   1   15.59    1.77
   9  -4  -1   11.38    1.30
  -9   4   1   13.10    1.47
   9   4  -1   15.75    1.47
  -9   4   1   14.00    1.81
   9  -4  -1   15.04    1.53
   9   4  -1   15.57    2.01
   9  -4  -1   10.03    1.40
  -9   4   0    4.18    1.38
   9  -4   0    2.90    1.03
  -9   4   0    2.53    1.04
   9   4   0    5.71    1.17
   9  -4   0    3.56    1.08
   9   4   0    3.11    1.63
   9  -4   0    1.86    1.18
   9  -4   1   33.39    2.01
  -9   4  -1   32.19    2.27
   9  -4   1   26.31    1.95
  -9   4  -1   33.02    2.04
   9  -4   1   29.05    2.04
   9  -4   2   73.08    3.25
  -9   4  -2   74.26    3.36
   9  -4   3   87.51    3.48
  -9   4  -3   91.49    3.68
   9   4   3   94.03    3.87
  -9   4  -4   51.24    2.18
   9   4   4   54.15    2.36
  -9   5   3    4.63    0.71
   9  -5  -2   48.27    2.17
  -9   5   2   50.90    2.21
   9  -5  -1    8.22    0.81
  -9   5   1    7.35    0.77
 -10   0  12   61.88    2.74
  10   0 -11    3.07    1.01
 -10   0  11    3.96    1.26
  10   0 -10   31.37    2.53
 -10   0  10   31.25    2.61
  10   0 -10   30.50    2.17
  10   0 -10   34.30    2.28
  10   0  -9    6.68    1.61
  10   0  -9    6.80    1.71
 -10   0   9    5.83    1.75
  10   0  -9    8.58    1.70
  10   0  -8   18.25    2.17
  10   0  -8   20.03    2.37
 -10   0   8   15.53    2.38
  10   0  -8   13.47    2.02
  10   0  -7    3.24    1.86
  10   0  -7    2.45    1.80
 -10   0   7    1.51    1.77
  10   0  -7    2.74    1.76
  10   0  -6   10.54    2.02
  10   0  -6    8.26    2.11
 -10   0   6    9.44    2.26
  10   0  -6    8.37    2.07
  10   0  -5  134.48    6.17
  10   0  -5  137.16    6.93
 -10   0   5  154.68    6.92
  10   0  -5  133.65    6.24
  10   0  -4   17.45    2.28
  10   0  -4   19.52    2.44
  10   0  -4   24.35    2.78
  10   0  -3   41.40    2.94
  10   0  -3   45.69    3.13
  10   0  -3   51.31    3.66
  10   0  -3   33.61    2.71
  10   0  -3   31.54    2.88
  10   0  -2  290.70   12.15
  10   0  -2  306.64   11.87
  10   0  -2  321.85   12.45
  10   0  -2  329.51   13.21
  10   0  -2  306.68   11.94
  10   0  -2  309.71   12.15
  10   0  -1   55.64    3.31
  10   0  -1   57.37    3.77
  10   0  -1   62.89    4.29
  10   0  -1   59.37    3.67
  10   0  -1   63.89    3.76
  10   0  -1   56.85    3.51
  10   0   0   13.64    2.15
  10   0   0   11.94    2.44
  10   0   0   15.03    2.17
  10   0   0   12.94    2.13
  10   0   1   31.70    2.83
  10   0   1   32.24    3.23
 -10   0  -1   40.14    3.21
  10   0   1   35.21    2.89
  10   0   1   35.35    2.74
  10   0   2   54.67    3.57
  10   0   2   52.73    4.07
 -10   0  -2   63.64    3.75
  10   0   2   58.58    3.29
  10   0   3   78.32    4.02
  10   0   3   69.65    4.40
  10   0   3   71.31    3.46
  10   0   4   94.95    4.55
  10   0   5    2.00    1.17
  10   0   5    2.36    1.15
 -10   0  -5    2.03    1.06
  10   0   6    2.09    0.91
  10   0   6    2.33    0.85
 -10  -1  11   55.22    2.66
 -10   1  11   52.68    2.59
  10   1 -11   47.01    2.56
  10  -1 -10   40.06    2.37
  10  -1 -10   48.94    2.89
  10   1 -10   40.16    2.75
 -10  -1  10   37.32    2.83
 -10   1  10   39.15    2.87
  10   1 -10   41.83    2.62
  10   1 -10   50.91    2.70
  10   1  -9   10.28    1.78
  10  -1  -9    8.81    1.58
  10  -1  -9    8.28    1.69
  10   1  -9    8.04    1.74
 -10  -1   9    5.71    1.66
 -10   1   9    8.42    1.77
  10   1  -9    8.78    1.81
  10  -1  -9   10.31    1.49
  10  -1  -8   49.21    2.89
  10  -1  -8   39.95    3.12
  10   1  -8   41.09    3.17
 -10  -1   8   32.44    3.10
 -10   1   8   37.68    3.29
  10   1  -8   42.72    3.01
  10  -1  -8   44.57    2.79
  10   1  -8   41.18    2.94
  10  -1  -7   11.50    1.90
  10  -1  -7   10.12    2.00
  10   1  -7    9.44    2.01
 -10  -1   7    7.56    2.05
 -10   1   7    7.00    2.01
  10   1  -7   12.31    2.20
  10  -1  -7   10.98    1.88
  10  -1  -6  117.08    5.59
  10   1  -6  112.66    5.52
  10  -1  -6  118.53    5.37
  10  -1  -6  113.94    5.95
  10   1  -6  101.59    5.79
 -10  -1   6   86.20    5.62
 -10   1   6  140.02    6.26
  10  -1  -6  126.50    5.42
  10   1  -5   37.48    2.93
  10  -1  -5   31.95    2.73
  10   1  -5   31.54    2.92
  10  -1  -5   33.11    2.82
  10  -1  -5   35.19    3.21
  10   1  -5   31.04    3.09
 -10   1   5   36.40    3.03
  10  -1  -5   35.84    2.72
  10   1  -4  175.33    7.43
  10  -1  -4  185.45    7.39
  10   1  -4  151.55    7.58
  10  -1  -4  193.84    7.70
  10  -1  -4  200.04    8.35
  10   1  -4  164.62    8.08
  10   1  -4  136.57    7.07
  10   1  -4  171.85    7.53
  10  -1  -4  187.89    7.49
  10   1  -3   50.57    3.36
  10  -1  -3   56.04    3.49
  10  -1  -3   57.04    3.34
  10   1  -3   51.49    3.56
  10  -1  -3   61.47    3.57
  10  -1  -3   65.83    4.11
  10   1  -3   50.44    4.03
  10   1  -3   46.06    3.35
  10   1  -3   49.83    3.52
  10  -1  -3   57.62    3.46
  10   1  -2   33.35    2.71
  10  -1  -2   39.04    2.87
  10  -1  -2   45.59    2.82
  10   1  -2   33.31    2.96
  10  -1  -2   45.22    3.16
  10  -1  -2   42.03    3.42
  10   1  -2   38.05    3.49
  10   1  -2   31.75    2.94
  10  -1  -2   34.99    2.61
 -10   1   2   44.58    3.34
  10   1  -2   37.30    3.03
  10  -1  -2   43.88    3.06
  10  -1  -1  111.12    4.94
  10  -1  -1   99.04    4.70
  10   1  -1   90.01    5.01
  10  -1  -1  102.87    5.20
  10  -1  -1   86.47    5.55
  10   1  -1   85.62    5.52
  10   1  -1   99.71    5.04
  10  -1  -1  102.26    4.81
 -10   1   1  127.45    5.54
  10   1  -1   95.20    5.03
  10  -1   0   11.89    1.65
  10   1   0   11.54    2.05
  10  -1   0   11.38    1.97
  10  -1   0   12.06    1.74
  10  -1   0   11.34    2.25
  10   1   0   10.69    2.36
 -10   1   0   17.28    2.42
  10   1   0   12.94    2.21
  10  -1   0   10.15    1.87
 -10   1   0   15.87    2.15
  10   1   0   11.79    1.95
  10  -1   0   10.61    2.11
  10  -1   1    6.63    1.73
  10   1   1    7.15    1.74
  10  -1   1    7.80    1.39
  10  -1   1    6.37    2.02
  10   1   1    5.31    1.98
 -10   1  -1   10.95    2.08
  10   1   1    6.97    1.93
  10  -1   1    9.21    1.81
  10   1   1    8.44    1.62
  10  -1   1    8.90    1.89
  10  -1   2   54.69    3.33
  10   1   2   53.46    3.28
  10  -1   2   50.93    3.68
  10   1   2   48.15    3.69
 -10   1  -2   50.04    3.45
  10  -1   2   58.77    3.25
  10  -1   2   50.99    3.11
  10  -1   3  128.79    5.71
  10   1   3  133.73    5.78
  10  -1   3  114.74    6.10
  10   1   3  122.84    6.23
 -10   1  -3  124.63    5.80
  10   1   3  137.67    5.75
  10  -1   3  139.71    5.65
  10  -1   3  124.81    5.45
  10  -1   4   48.28    2.87
  10   1   4   53.32    2.95
  10   1   4   54.81    2.93
  10  -1   4   51.95    2.83
  10  -1   4   48.99    2.61
  10  -1   5    5.40    1.09
  10   1   5    5.93    1.10
  10   1   5    3.24    1.14
  10  -1   6   49.64    2.37
  10   1   6   47.96    2.36
  10   2 -10    4.52    1.23
 -10   2  10    0.03    0.44
  10  -2  -9   85.34    3.63
 -10   2   9   78.43    4.23
  10   2  -9   91.44    4.05
  10   2  -9   89.96    4.05
  10  -2  -8   82.31    4.28
  10   2  -8   75.20    4.21
 -10   2   8   85.89    4.52
  10  -2  -7  211.41    8.30
  10  -2  -7  201.05    8.70
  10   2  -7  181.29    8.60
 -10   2   7  206.25    8.93
  10   2  -7  221.53    8.64
  10   2  -7  232.29    8.67
  10  -2  -7  226.57    8.53
  10   2  -6   10.23    2.01
  10  -2  -6    9.17    1.66
  10  -2  -6    9.32    1.71
  10  -2  -6    8.45    1.77
  10   2  -6    6.74    1.76
 -10   2   6    8.63    1.77
  10   2  -6   11.26    2.04
  10  -2  -6    8.16    1.56
  10  -2  -5   79.83    3.83
  10  -2  -5   70.03    4.15
  10   2  -5   53.19    3.87
 -10   2   5   60.04    3.81
  10   2  -5   57.73    3.54
  10   2  -5   62.06    3.82
  10  -2  -5   75.10    3.57
  10   2  -5   66.57    3.75
  10  -2  -4   83.86    4.14
  10   2  -4   63.08    4.10
  10  -2  -4   89.69    4.21
  10  -2  -4   84.75    4.61
  10   2  -4   63.06    4.35
  10   2  -4   74.22    4.16
 -10   2   4  105.59    4.96
  10   2  -4   75.34    4.20
  10  -2  -4   84.76    4.07
  10   2  -4   71.89    4.07
  10   2  -3   14.56    1.92
  10  -2  -3   19.20    2.04
  10   2  -3   14.21    1.99
  10  -2  -3   17.47    2.28
  10   2  -3   10.47    2.18
 -10   2   3   20.12    2.53
  10   2  -3   16.80    2.29
 -10   2   3   21.12    2.52
  10   2  -3   15.32    2.14
  10  -2  -3   17.21    2.02
  10  -2  -2   37.42    2.64
  10   2  -2   30.69    2.60
  10  -2  -2   39.20    2.69
  10  -2  -2   39.18    3.20
 -10   2   2   41.44    3.28
  10   2  -2   33.23    2.87
 -10   2   2   40.09    3.13
  10   2  -2   36.00    2.69
  10  -2  -2   37.19    2.72
  10  -2  -1  125.55    5.21
  10   2  -1  102.05    5.05
  10  -2  -1  110.00    5.14
  10  -2  -1  108.44    5.58
  10   2  -1   92.34    5.47
  10   2  -1  110.09    5.38
 -10   2   1  117.24    5.62
  10   2  -1   99.52    5.28
  10   2  -1  113.49    5.02
  10  -2  -1  115.01    5.30
  10  -2   0   21.74    1.93
  10   2   0   19.10    1.97
  10  -2   0   20.88    2.00
  10  -2   0   22.45    2.41
  10   2   0   19.18    2.38
 -10   2   0   20.68    2.41
  10  -2   0   21.57    1.97
  10   2   0   21.36    2.49
 -10   2   0   19.22    2.27
  10   2   0   18.75    2.34
  10  -2   0   22.43    2.24
  10  -2   1   96.40    4.25
  10   2   1   97.52    4.45
  10  -2   1   92.90    4.38
  10  -2   1   82.88    4.73
  10   2   1   80.34    4.79
 -10   2  -1   97.72    4.90
  10  -2   1  105.83    4.46
  10  -2   1   83.80    4.53
 -10   2  -1  101.91    4.80
  10   2   1   90.49    4.54
  10   2   2    5.97    1.34
  10  -2   2    6.90    1.34
  10  -2   2   -0.16    0.57
 -10   2  -2    5.68    1.62
  10   2   2    7.67    1.80
  10  -2   2    7.19    1.43
  10  -2   2    6.16    1.32
 -10   2  -2    6.31    1.49
  10   2   2    7.04    1.61
  10  -2   2    5.68    1.51
  10   2   3    8.95    1.34
  10  -2   3   10.87    1.31
 -10   2  -3   12.51    1.70
  10   2   3   11.36    1.68
  10  -2   3   12.09    1.51
  10  -2   3    8.24    1.38
  10   2   3   11.00    1.49
  10  -2   3   10.05    1.48
  10   2   4   61.80    2.14
  10  -2   4   63.09    2.08
  10  -2   4   56.52    1.95
  10  -2   5    2.42    0.86
  10  -3  -8   18.35    1.35
  10   3  -8   21.83    1.78
  10  -3  -7   25.68    1.78
  10   3  -7   29.55    2.17
  10  -3  -6   30.87    2.05
  10  -3  -6   32.83    2.06
 -10   3   6   23.58    2.08
 -10   3   6   36.03    2.51
  10   3  -6   28.20    2.26
  10   3  -6   31.10    2.28
  10  -3  -5  151.47    5.86
  10  -3  -5  129.39    5.72
 -10   3   5  162.91    6.39
  10   3  -5  129.54    5.83
  10   3  -5  135.04    5.79
  10  -3  -4   84.64    2.89
 -10   3   4   81.35    3.18
  10   3  -4   83.40    3.15
 -10   3   4   87.68    3.45
  10  -3  -4   69.53    2.40
  10  -3  -3    9.54    1.49
 -10   3   3   10.44    1.70
  10   3  -3   10.95    1.92
  10  -3  -3    8.73    1.45
 -10   3   2    4.57    1.56
  10   3  -2    6.25    1.80
 -10   3   2    3.16    1.54
 -10   3   2    4.27    0.94
  10  -3  -2    3.35    1.31
  10  -3  -1  180.20    7.10
 -10   3   1  166.42    7.38
 -10   3   1  185.22    6.88
 -10   3   1  177.34    7.50
  10  -3  -1  172.33    7.04
  10  -3   0  109.23    4.50
 -10   3   0  102.75    4.88
 -10   3   0  106.65    4.34
 -10   3   0   97.18    4.86
  10   3   0  100.06    4.75
  10  -3   0  101.49    4.53
  10  -3   1   40.85    2.18
  10   3   1   45.45    2.62
  10  -3   1   34.38    2.02
 -10   3  -1   33.87    2.05
 -10   3  -1   37.87    2.54
  10   3   1   40.36    2.56
  10  -3   1   38.42    2.32
  10   3   2   30.59    1.94
  10  -3   2   24.02    1.54
 -10   3  -2   20.31    1.40
  10   3   2   27.20    1.94
  10  -3   2   27.39    1.77
  10   3   3   30.95    1.74
  10  -3   3   31.08    1.66
  10   3   3   32.48    1.86
  10  -4  -5   22.91    1.34
  10  -4  -5   20.43    1.36
  10  -4  -4   45.49    2.21
  10  -4  -3   63.73    2.80
 -10   4   3   59.69    2.58
  10  -4  -2   22.94    1.47
 -10   4   2   18.98    1.25
 -10   4   1   10.30    0.91
  10  -4   0   58.88    2.56
  11   0 -10    5.16    0.95
  11   0  -9    7.40    1.31
  11   0  -9    8.26    1.26
  11   0  -8   -0.09    1.26
  11   0  -8    0.23    1.15
  11   0  -8   -0.05    1.25
  11   0  -7   -0.35    1.33
 -11   0   7   -0.07    1.20
  11   0  -7   -0.38    1.36
  11   0  -6   36.75    2.54
  11   0  -6   32.69    2.88
  11   0  -6   36.28    2.59
  11   0  -5   66.20    3.49
  11   0  -5   58.86    3.60
  11   0  -5   69.61    4.05
  11   0  -5   65.00    3.58
  11   0  -4  201.56    8.14
  11   0  -4  207.23    8.52
  11   0  -4  214.20    8.97
  11   0  -3   30.41    2.29
  11   0  -3   40.56    2.71
  11   0  -3   41.28    2.97
  11   0  -3   29.03    2.25
 -11   0   3   35.02    2.58
  11   0  -3   33.13    2.58
  11   0  -2   16.73    1.67
  11   0  -2   17.67    2.01
  11   0  -2   13.41    2.19
  11   0  -2   14.30    1.79
  11   0  -2   16.63    2.03
  11   0  -1   12.86    1.90
  11   0  -1   11.93    2.10
 -11   0   1   20.76    2.23
  11   0  -1   16.64    1.89
  11   0  -1   16.96    1.97
  11   0   0   55.54    3.41
  11   0   0   55.37    3.82
 -11   0   0   74.40    3.88
  11   0   0   71.94    3.51
  11   0   0   71.41    3.45
  11   0   1   53.75    3.10
  11   0   1   48.26    3.42
  11   0   1   62.81    3.17
  11   0   1   59.25    2.91
  11   0   2    1.72    1.11
  11   0   2    1.54    1.26
  11   0   2    2.01    1.27
  11   0   3   71.72    3.30
  11   0   4  121.21    4.73
  11   1 -10    8.89    1.01
  11  -1  -9   40.88    2.19
  11   1  -9   40.62    2.29
  11   1  -9   40.11    2.31
  11   1  -8   49.42    2.88
  11  -1  -8   50.53    2.71
  11  -1  -7  270.17    9.45
  11  -1  -7  223.51    9.73
  11   1  -7  219.92    9.71
  11   1  -7  238.13    9.48
  11  -1  -7  271.25    9.40
  11  -1  -6  158.65    6.98
  11  -1  -6  171.78    6.52
  11   1  -6  162.02    6.58
  11  -1  -5   37.00    2.43
  11  -1  -5   33.71    2.75
  11   1  -5   26.84    2.62
  11   1  -5   33.44    2.54
  11  -1  -5   36.70    2.45
  11   1  -5   34.95    2.51
  11  -1  -4   70.72    3.38
  11   1  -4   52.86    3.55
  11  -1  -4   71.04    3.52
  11  -1  -4   73.15    3.93
  11   1  -4   54.00    3.80
  11   1  -4   43.91    3.05
 -11   1   4   88.88    3.97
  11   1  -4   61.70    3.50
  11  -1  -4   72.61    3.46
  11   1  -4   58.67    3.31
  11  -1  -3   26.60    2.04
  11   1  -3   20.51    2.16
  11  -1  -3   32.43    2.28
  11  -1  -3   25.43    2.42
  11   1  -3   20.72    2.43
  11   1  -3   17.07    2.01
 -11   1   3   31.25    2.43
  11   1  -3   21.38    2.17
  11  -1  -3   26.68    2.16
  11  -1  -3   22.50    2.05
  11   1  -3   19.56    1.89
  11  -1  -2   65.52    3.29
  11   1  -2   57.59    3.55
  11  -1  -2   68.74    3.65
  11  -1  -2   61.53    3.95
  11   1  -2   51.83    3.87
 -11   1   2   93.49    4.26
  11   1  -2   58.94    3.49
 -11   1   2   82.89    3.91
  11   1  -2   66.22    3.58
  11  -1  -2   70.96    3.47
  11   1  -1   11.28    1.68
  11  -1  -1   11.11    1.65
  11  -1  -1   10.90    1.86
  11   1  -1   10.54    1.86
 -11   1   1   17.44    2.08
  11   1  -1   11.44    1.80
  11  -1  -1   12.46    1.56
 -11   1   1   12.64    1.70
  11   1  -1   12.91    1.72
  11   1   0    0.49    1.22
  11  -1   0    0.24    1.21
  11  -1   0    0.77    1.37
  11   1   0    1.91    1.46
 -11   1   0    0.88    1.29
  11   1   0    0.45    1.46
  11  -1   0    0.87    1.22
  11   1   0    0.16    0.71
  11  -1   0    0.78    1.30
  11   1   1    9.89    1.46
  11  -1   1   11.39    1.47
  11  -1   1    8.46    1.58
  11   1   1    8.79    1.67
 -11   1  -1   11.91    1.66
  11   1   1   12.06    1.68
  11  -1   1   11.67    1.49
  11  -1   1    9.25    1.42
  11   1   2  103.17    4.57
  11  -1   2  107.96    4.61
  11  -1   2  119.20    4.63
  11  -1   2  106.14    4.42
  11   1   3   74.84    3.39
  11  -1   3   77.96    3.41
  11   1   3   82.03    3.48
  11  -1   3   83.84    3.42
  11  -2  -8  153.50    5.87
  11   2  -8  158.75    6.05
  11  -2  -7   17.68    1.48
  11   2  -7   15.16    1.66
  11   2  -7   15.80    1.60
  11   2  -6   53.60    3.00
  11  -2  -6   53.62    2.67
  11   2  -6   52.79    2.87
 -11   2   5  118.30    4.83
  11   2  -5   82.67    4.25
  11  -2  -5  104.05    4.14
  11   2  -5   80.86    4.09
  11  -2  -5  105.06    4.36
  11  -2  -4   66.18    3.08
 -11   2   4   73.77    3.62
  11   2  -4   47.34    2.97
 -11   2   4   73.41    3.57
  11   2  -4   47.87    3.02
  11  -2  -4   65.65    3.06
  11  -2  -3   35.36    2.30
  11  -2  -3   39.07    2.29
 -11   2   3   45.99    2.80
  11   2  -3   32.47    2.36
 -11   2   3   39.88    2.69
  11   2  -3   26.89    2.17
  11  -2  -3   37.98    2.32
  11  -2  -2   47.28    2.53
  11  -2  -2   44.94    2.39
  11  -2  -2   41.33    2.45
 -11   2   2   50.32    2.99
  11   2  -2   43.46    2.66
 -11   2   2   48.99    2.86
  11  -2  -2   46.35    2.57
  11  -2  -1   81.20    2.69
  11  -2  -1   71.46    2.41
  11   2  -1   75.22    2.92
 -11   2   1   74.64    3.05
  11  -2  -1   75.70    2.82
  11  -2   0   14.33    1.19
  11  -2   0   12.75    1.21
 -11   2   0   14.06    1.60
  11  -2   0   12.02    1.17
  11   2   0   15.29    1.63
  11  -2   1    6.05    0.90
  11  -2   1    6.72    1.05
  11   2   2    4.55    1.08
  11  -2   2    5.09    0.88
  11  -2   2    5.37    0.95
  11  -3  -6    1.29    0.68
  11  -3  -5  111.61    4.37
  11  -3  -4  103.19    4.20
  11  -3  -3  129.73    5.01
  11  -3  -2  131.29    4.80
  11  -3  -2  128.47    4.68
  11  -3  -1    9.32    0.97
  11  -3  -1    8.02    0.98
  11  -3   0    8.19    0.88
  12   0  -7    7.97    1.03
  12   0  -6   20.97    1.57
  12   0  -6   21.12    1.48
  12   0  -5    0.72    0.97
  12   0  -4   18.90    1.34
  12   0  -3   46.95    2.41
  12   0  -3   41.36    2.30
  12   0  -2   52.83    2.67
  12   0  -2   52.70    2.55
  12   0  -1   29.75    1.85
  12   0  -1   32.24    1.78
  12   0   0  185.52    6.95
  12   1  -6   13.66    1.31
  12  -1  -6   18.53    1.25
  12  -1  -5    0.39    0.84
  12   1  -5    0.26    0.97
  12  -1  -5    1.01    0.90
  12  -1  -4   15.32    1.19
  12   1  -4   12.04    1.32
  12  -1  -4   16.46    1.34
  12   1  -3   27.94    1.82
  12  -1  -3   38.48    1.94
  12  -1  -2   25.54    1.56
  12   1  -2   18.10    1.37
  12   1  -1   33.40    1.85
  12  -1  -1   37.94    1.90
  12   1  -1   34.64    1.87
  12  -1  -1   40.29    1.96
   0   0   0    0.00    0.00


TITL exp_31 in P2(1)/m
REM P2(1)/m (#11 in standard setting)
CELL 1.54184   9.833965   5.850472  12.955222  90.0000 102.4011  90.0000
ZERR    3.00   0.000153   0.000084   0.000227   0.0000   0.0016   0.0000
LATT  1
SYMM -x, y+1/2,-z
SFAC C H N O
UNIT 33.00 30.00 3.00 3.00
TREF
HKLF 4
END
_computing_structure_solution     'SHELXT 2018/2 (Sheldrick, 2018)'
;
_shelx_hkl_checksum              69616
_ins_header
;
TITL exp_31 in P2(1)/m 
REM P2(1)/m (#11 in standard setting)
CELL 1.54184   9.833965   5.850472  12.955222  90.0000 102.4011  90.0000
ZERR    3.00   0.000153   0.000084   0.000227   0.0000   0.0016   0.0000
LATT  1
SYMM -x, y+1/2,-z 
SFAC C H N O
UNIT 33.00 30.00 3.00 3.00
TREF
HKLF 4
END
;
_olex2_submission_special_instructions 'No special instructions were received'
_oxdiff_exptl_absorpt_empirical_details
;
Empirical correction (ABSPACK) includes:
- Absorption correction using spherical harmonics
- Frame scaling
;
_oxdiff_exptl_absorpt_empirical_full_max 1.559
_oxdiff_exptl_absorpt_empirical_full_min 0.705
loop_
_space_group_symop_operation_xyz
'x, y, z'
'-x, y+1/2, -z'
loop_
_atom_site_label
_atom_site_type_symbol
_atom_site_fract_x
_atom_site_fract_y
_atom_site_fract_z
_atom_site_U_iso_or_equiv
_atom_site_adp_type
_atom_site_occupancy
_atom_site_site_symmetry_order
_atom_site_calc_flag
_atom_site_refinement_flags_posn
O001 O 0.92256(16) 0.8281(3) 0.47847(12) 0.0192(4) Uani 1 1 d .
O002 O 1.08824(16) 0.8237(3) 0.38475(13) 0.0218(4) Uani 1 1 d .
O003 O 0.39991(17) 0.1943(3) 0.10597(14) 0.0253(4) Uani 1 1 d .
C004 C 0.9703(2) 0.7832(4) 0.38971(18) 0.0172(4) Uani 1 1 d .
C005 C 0.8872(2) 0.5300(4) 0.22400(18) 0.0172(5) Uani 1 1 d .
C006 C 0.6047(2) 0.5609(4) 0.31600(18) 0.0172(5) Uani 1 1 d .
C007 C 0.9672(2) 0.3330(4) 0.25452(18) 0.0206(5) Uani 1 1 d .
H007 H 1.009052 0.310224 0.325239 0.025 Uiso 1 1 calc R
C008 C 0.8452(2) 0.4017(4) 0.04238(19) 0.0214(5) Uani 1 1 d .
H008 H 0.804629 0.425442 -0.028525 0.026 Uiso 1 1 calc R
C009 C 0.7543(2) 0.5905(4) 0.37279(18) 0.0169(4) Uani 1 1 d .
H009 H 0.790874 0.440916 0.399449 0.020 Uiso 1 1 calc R
C00A C 0.4989(2) 0.7024(4) 0.33720(18) 0.0183(5) Uani 1 1 d .
C00B C 0.5737(2) 0.3877(4) 0.23998(19) 0.0183(5) Uani 1 1 d .
H00B H 0.644471 0.293649 0.227088 0.022 Uiso 1 1 calc R
C00C C 0.9218(2) 0.2041(4) 0.07343(19) 0.0224(5) Uani 1 1 d .
H00C H 0.931307 0.094186 0.023616 0.027 Uiso 1 1 calc R
C00D C 0.8295(2) 0.5634(4) 0.11737(19) 0.0199(5) Uani 1 1 d .
H00D H 0.779479 0.696247 0.095899 0.024 Uiso 1 1 calc R
C00E C 0.4380(2) 0.3553(4) 0.18366(19) 0.0204(5) Uani 1 1 d .
C00F C 0.3624(2) 0.6641(4) 0.28032(19) 0.0219(5) Uani 1 1 d .
H00F H 0.290814 0.755167 0.293989 0.026 Uiso 1 1 calc R
C00G C 0.3316(2) 0.4947(5) 0.2045(2) 0.0236(5) Uani 1 1 d .
H00G H 0.240381 0.473569 0.167535 0.028 Uiso 1 1 calc R
C00H C 0.5295(2) 0.8904(4) 0.41874(19) 0.0204(5) Uani 1 1 d .
H00A H 0.505653 0.837674 0.483600 0.024 Uiso 1 1 calc R
H00E H 0.471175 1.021220 0.393647 0.024 Uiso 1 1 calc R
C00I C 0.5036(3) 0.0352(4) 0.0906(2) 0.0242(5) Uani 1 1 d .
H00H H 0.465325 -0.064741 0.032889 0.036 Uiso 1 1 calc GR
H00I H 0.533912 -0.053348 0.153755 0.036 Uiso 1 1 calc GR
H00J H 0.581487 0.116485 0.074813 0.036 Uiso 1 1 calc GR
C00J C 0.9840(2) 0.1719(4) 0.1794(2) 0.0227(5) Uani 1 1 d .
H00K H 1.037121 0.041756 0.200163 0.027 Uiso 1 1 calc R
C00K C 0.7766(2) 0.7577(4) 0.46543(19) 0.0179(5) Uani 1 1 d .
H00L H 0.762566 0.680021 0.529353 0.022 Uiso 1 1 calc R
C00L C 0.8515(2) 0.6909(4) 0.30471(18) 0.0170(4) Uani 1 1 d .
H00M H 0.803595 0.822508 0.266406 0.020 Uiso 1 1 calc R
C00M C 0.6823(2) 0.9654(4) 0.44263(19) 0.0192(5) Uani 1 1 d .
H00N H 0.701916 1.048140 0.382602 0.023 Uiso 1 1 calc R
H00O H 0.699944 1.066918 0.503254 0.023 Uiso 1 1 calc R
loop_
_atom_site_aniso_label
_atom_site_aniso_U_11
_atom_site_aniso_U_22
_atom_site_aniso_U_33
_atom_site_aniso_U_23
_atom_site_aniso_U_13
_atom_site_aniso_U_12
O001 0.0145(7) 0.0205(8) 0.0224(8) -0.0026(7) 0.0032(6) -0.0021(6)
O002 0.0149(7) 0.0203(8) 0.0300(9) 0.0001(7) 0.0044(6) -0.0010(6)
O003 0.0183(8) 0.0266(9) 0.0295(9) -0.0076(7) 0.0020(7) -0.0025(7)
C004 0.0177(10) 0.0124(10) 0.0212(10) 0.0013(8) 0.0033(8) 0.0010(8)
C005 0.0144(10) 0.0156(10) 0.0230(11) -0.0006(9) 0.0074(8) -0.0019(8)
C006 0.0143(10) 0.0168(11) 0.0210(10) 0.0020(8) 0.0049(8) -0.0003(8)
C007 0.0168(10) 0.0215(11) 0.0231(11) 0.0020(10) 0.0035(8) 0.0005(9)
C008 0.0187(10) 0.0256(12) 0.0206(11) 0.0020(9) 0.0059(9) 0.0005(9)
C009 0.0150(10) 0.0147(10) 0.0209(10) 0.0007(9) 0.0036(8) 0.0013(8)
C00A 0.0158(10) 0.0181(11) 0.0223(11) 0.0032(9) 0.0067(8) 0.0002(8)
C00B 0.0153(10) 0.0173(10) 0.0234(11) 0.0017(9) 0.0066(8) 0.0006(8)
C00C 0.0199(11) 0.0233(12) 0.0259(12) -0.0039(10) 0.0094(9) -0.0015(9)
C00D 0.0155(10) 0.0189(11) 0.0258(12) 0.0031(9) 0.0055(8) 0.0002(8)
C00E 0.0192(11) 0.0196(11) 0.0222(11) -0.0010(9) 0.0043(8) -0.0039(9)
C00F 0.0153(10) 0.0254(12) 0.0262(12) 0.0020(10) 0.0071(9) 0.0021(9)
C00G 0.0145(10) 0.0277(12) 0.0285(11) 0.0023(10) 0.0045(9) -0.0016(9)
C00H 0.0164(10) 0.0199(11) 0.0259(11) -0.0012(9) 0.0068(9) 0.0011(9)
C00I 0.0231(11) 0.0204(12) 0.0295(12) -0.0062(10) 0.0062(9) -0.0012(10)
C00J 0.0191(11) 0.0202(11) 0.0299(12) 0.0011(10) 0.0078(9) 0.0032(9)
C00K 0.0144(10) 0.0164(10) 0.0227(11) -0.0003(8) 0.0032(8) -0.0022(8)
C00L 0.0130(9) 0.0145(10) 0.0235(11) 0.0004(9) 0.0037(8) 0.0005(8)
C00M 0.0182(11) 0.0157(10) 0.0241(11) -0.0013(9) 0.0051(8) -0.0007(9)
loop_
_atom_type_symbol
_atom_type_description
_atom_type_scat_dispersion_real
_atom_type_scat_dispersion_imag
_atom_type_scat_source
C C 0.0181 0.0091 'International Tables Vol C Tables 4.2.6.8 and 6.1.1.4'
H H 0.0000 0.0000 'International Tables Vol C Tables 4.2.6.8 and 6.1.1.4'
O O 0.0492 0.0322 'International Tables Vol C Tables 4.2.6.8 and 6.1.1.4'
loop_
_exptl_crystal_face_index_h
_exptl_crystal_face_index_k
_exptl_crystal_face_index_l
_exptl_crystal_face_perp_dist
0 4 2 0.0750
1 -1 7 0.0364
-3 0 -6 0.0263
5 0 -7 0.0204
-5 0 7 0.0284
0 0 8 0.0267
2 0 -8 0.0249
2 1 7 0.0263
-6 0 2 0.0383
6 0 -2 0.0310
0 -4 -2 0.0681
-1 -1 -8 0.0330
loop_
_geom_angle_atom_site_label_1
_geom_angle_atom_site_label_2
_geom_angle_atom_site_label_3
_geom_angle
C004 O001 C00K 110.84(17)
C00E O003 C00I 117.41(18)
O001 C004 C00L 109.26(18)
O002 C004 O001 121.4(2)
O002 C004 C00L 129.2(2)
C007 C005 C00L 121.2(2)
C00D C005 C007 118.7(2)
C00D C005 C00L 119.8(2)
C00A C006 C009 121.6(2)
C00B C006 C009 117.93(19)
C00B C006 C00A 120.4(2)
C00J C007 C005 120.2(2)
C00D C008 C00C 119.9(2)
C006 C009 C00K 114.65(19)
C006 C009 C00L 115.00(19)
C00K C009 C00L 101.69(18)
C006 C00A C00F 118.0(2)
C006 C00A C00H 121.5(2)
C00F C00A C00H 120.6(2)
C00E C00B C006 120.5(2)
C00J C00C C008 119.6(2)
C008 C00D C005 121.1(2)
O003 C00E C00B 124.0(2)
O003 C00E C00G 116.4(2)
C00B C00E C00G 119.5(2)
C00G C00F C00A 121.8(2)
C00F C00G C00E 119.8(2)
C00A C00H C00M 112.97(18)
C007 C00J C00C 120.4(2)
O001 C00K C009 103.99(17)
O001 C00K C00M 109.83(18)
C00M C00K C009 112.42(18)
C004 C00L C009 101.20(18)
C005 C00L C004 117.87(18)
C005 C00L C009 115.04(19)
C00K C00M C00H 109.96(19)
loop_
_geom_bond_atom_site_label_1
_geom_bond_atom_site_label_2
_geom_bond_distance
O001 C004 1.358(3)
O001 C00K 1.468(3)
O002 C004 1.199(3)
O003 C00E 1.371(3)
O003 C00I 1.426(3)
C004 C00L 1.522(3)
C005 C007 1.403(3)
C005 C00D 1.390(3)
C005 C00L 1.504(3)
C006 C009 1.508(3)
C006 C00A 1.402(3)
C006 C00B 1.400(3)
C007 C00J 1.390(3)
C008 C00C 1.391(4)
C008 C00D 1.388(3)
C009 C00K 1.527(3)
C009 C00L 1.549(3)
C00A C00F 1.403(3)
C00A C00H 1.510(3)
C00B C00E 1.390(3)
C00C C00J 1.391(4)
C00E C00G 1.398(4)
C00F C00G 1.382(4)
C00H C00M 1.531(3)
C00K C00M 1.519(3)
loop_
_exptl_oxdiff_crystal_face_indexfrac_h
_exptl_oxdiff_crystal_face_indexfrac_k
_exptl_oxdiff_crystal_face_indexfrac_l
_exptl_oxdiff_crystal_face_x
_exptl_oxdiff_crystal_face_y
_exptl_oxdiff_crystal_face_z
-0.0293 3.6706 2.1063 -0.0228 -0.8367 0.5472
1.3973 -0.9319 7.3624 0.9833 0.0774 0.1649
-3.1787 0.0614 -6.2228 -0.8565 -0.0679 -0.5116
4.7865 0.0128 -6.7901 -0.6066 0.5768 0.5472
-4.9587 -0.1474 6.5672 0.5836 -0.5550 -0.5928
-0.2216 0.2888 8.2484 0.9342 -0.3312 0.1326
1.7792 0.3119 -8.3638 -0.9304 0.3294 0.1609
1.8279 1.0308 7.0303 0.8182 -0.2906 0.4961
-6.3806 -0.0925 1.9743 -0.0130 -0.5355 -0.8444
6.3689 -0.2062 -2.1412 0.0148 0.6024 0.7981
0.0293 -3.6706 -2.1063 0.0228 0.8367 -0.5472
-1.2289 -0.8198 -7.5152 -0.8667 0.3076 -0.3926
loop_
_hkl_oxdiff_h
_hkl_oxdiff_k
_hkl_oxdiff_l
_hkl_oxdiff_f2
_hkl_oxdiff_sig
_hkl_oxdiff_ba
0 0 1 81551.3 3023.20 30
0 0 1 78370.3 3028.92 1
0 0 2 26963.6 1089.86 1
0 0 2 27870.9 1074.97 30
0 0 2 27233.9 1089.27 32
0 0 2 29896.0 1054.43 29
0 0 3 8468.42 476.403 1
0 0 -3 9402.76 488.620 28
0 0 3 8688.00 445.851 30
0 0 3 9332.23 489.980 32
0 0 3 9261.98 420.889 29
0 0 4 8439.02 429.841 29
0 0 -4 8081.98 505.022 28
0 0 4 8117.88 504.003 32
0 0 4 7791.23 513.246 1
0 0 5 3813.02 382.582 32
0 0 -5 3706.87 368.615 28
0 0 5 3214.60 289.838 29
0 0 5 3928.95 399.900 1
0 0 6 32987.7 1408.38 32
0 0 6 27110.4 1206.42 29
0 0 6 30213.1 1417.79 1
0 0 -6 35368.4 1454.40 28
0 0 7 38407.6 1847.93 1
0 0 -7 42748.6 1855.97 28
0 0 7 39833.2 1805.67 32
0 0 -8 -36.3405 123.828 33
0 0 8 63.2462 150.109 40
0 0 -8 -32.4921 233.608 28
0 0 8 87.8951 238.509 32
0 0 -9 -115.929 274.246 28
0 0 9 46.7657 164.366 40
0 0 -9 17.1247 138.708 33
0 0 -10 14914.9 1162.03 28
0 0 10 15803.1 706.242 3
0 0 -10 15277.6 713.952 33
0 0 -10 13368.2 1069.27 23
0 0 10 16570.4 739.262 40
0 0 -11 1368.05 230.768 33
0 0 11 1777.55 257.318 3
0 0 -11 1342.63 188.812 4
0 0 11 1871.23 269.326 40
0 0 -12 2256.77 228.680 37
0 0 12 2978.99 306.169 40
0 0 -12 2713.68 283.520 33
0 0 -12 2870.41 244.817 4
0 0 12 2974.99 297.525 3
0 0 -13 1150.44 162.032 37
0 0 -13 1609.28 230.927 33
0 0 13 1741.18 245.971 3
0 0 13 1634.75 239.543 40
0 0 -13 1614.13 192.551 4
0 0 14 21989.0 930.384 40
0 0 -14 23337.9 936.754 33
0 0 -14 22653.9 882.209 4
0 0 14 23168.4 930.203 3
0 0 -15 403.259 119.537 33
0 0 15 364.325 144.178 3
0 -1 0 41.3561 132.070 2
0 -1 0 -21.0020 93.4492 31
0 1 0 3.65355 90.1152 11
0 1 0 30.0192 108.851 27
0 1 0 -16.6745 138.763 29
0 1 0 -16.6511 79.6065 9
0 -1 -1 230170. 7702.30 31
0 1 -1 225900. 7645.71 28
0 -1 -1 223657. 7647.85 28
0 -1 -1 212704. 7699.92 2
0 1 -1 228486. 7657.39 10
0 1 1 219128. 7667.32 27
0 -1 1 226355. 7695.83 31
0 -1 1 225696. 7694.31 30
0 1 1 213666. 7777.43 32
0 -1 2 978604. 33213.9 31
0 1 2 963404. 33158.6 27
0 1 -2 981258. 33208.6 28
0 1 -2 999999. 33318.5 27
0 -1 2 989910. 33212.1 1
0 -1 -2 976741. 33215.3 28
0 -1 2 988171. 33212.9 30
0 1 -2 970251. 33151.1 10
0 1 2 943100. 33280.6 29
0 -1 3 445897. 14428.4 32
0 -1 3 421335. 14445.5 30
0 1 -3 419007. 14470.0 28
0 1 -3 420946. 14567.1 27
0 1 3 429832. 14590.3 32
0 -1 3 421431. 14446.3 31
0 -1 -3 411717. 14471.2 28
0 -1 3 428608. 14453.9 1
0 1 3 383078. 14480.9 29
0 1 4 24352.8 1140.24 29
0 -1 4 30539.4 1141.87 32
0 1 4 27874.0 1284.80 32
0 -1 4 28096.3 1165.82 1
0 1 -4 27423.2 1182.78 28
0 -1 4 27041.5 1141.52 31
0 -1 -4 28012.1 1185.62 28
0 -1 4 27829.0 1137.44 30
0 1 -5 16469.8 865.874 28
0 -1 -5 16397.2 859.160 28
0 -1 5 18727.8 838.395 30
0 -1 5 16713.6 842.998 1
0 1 5 14953.3 788.120 29
0 1 5 16719.6 951.747 32
0 -1 5 17876.0 821.562 32
0 -1 6 49716.8 2062.86 1
0 -1 6 51876.5 2021.71 32
0 1 -6 50052.1 2089.69 28
0 -1 6 53254.8 1924.11 29
0 -1 -6 50788.4 2095.28 28
0 -1 6 53186.8 2044.22 30
0 1 6 48045.0 2158.65 32
0 -1 7 6316.76 544.815 30
0 1 7 6173.23 640.041 32
0 -1 7 6593.68 591.696 1
0 -1 7 5697.66 527.515 32
0 -1 -7 6538.69 589.212 28
0 1 -7 6917.96 597.839 28
0 -1 -8 1277.43 178.751 33
0 1 -8 1396.42 389.553 28
0 -1 8 1175.47 295.495 32
0 1 -8 1582.55 181.382 39
0 -1 8 1291.18 189.888 40
0 -1 8 1224.50 336.699 1
0 1 8 1564.97 393.754 32
0 1 -8 1471.73 184.426 33
0 1 8 1499.84 211.317 40
0 1 -8 1468.82 174.614 35
0 -1 -8 1510.18 367.641 28
0 -1 9 10185.3 495.080 40
0 1 -9 9210.21 472.497 33
0 1 9 9223.07 485.656 40
0 1 9 7948.53 471.846 38
0 1 -9 8609.34 805.312 28
0 -1 9 6892.54 752.735 1
0 1 -9 8804.31 447.733 35
0 -1 -9 9081.45 817.505 28
0 1 9 7628.47 800.789 32
0 -1 -9 9267.72 470.237 33
0 1 -10 11922.0 979.432 23
0 -1 -10 13805.7 632.980 33
0 1 -10 13908.6 635.944 33
0 1 10 13551.6 628.748 3
0 1 -10 11619.1 1029.47 28
0 -1 -10 12501.3 1054.70 28
0 -1 10 13649.8 647.670 5
0 1 10 11537.1 623.189 8
0 -1 -10 12352.8 569.667 4
0 1 -10 13354.8 595.726 4
0 -1 -10 11680.4 971.996 23
0 -1 10 13394.9 649.671 40
0 1 10 13735.1 652.974 40
0 -1 10 12846.3 618.456 3
0 1 11 29516.0 1259.44 40
0 -1 11 29761.6 1228.49 3
0 -1 -11 30831.3 1248.37 33
0 -1 -11 31476.0 1190.82 4
0 -1 -11 32552.8 1228.80 37
0 1 11 30725.8 1237.95 3
0 -1 11 30249.7 1253.64 5
0 1 -11 30909.8 1206.05 4
0 -1 11 31708.1 1275.98 40
0 1 -11 30420.5 1247.59 33
0 -1 12 19068.7 865.123 40
0 -1 -12 19308.9 786.127 4
0 1 -12 17628.7 796.427 4
0 -1 12 18258.1 840.255 5
0 -1 -12 19278.4 817.497 37
0 -1 -12 19926.0 850.672 33
0 1 -12 18906.8 842.117 33
0 1 12 19685.7 860.718 40
0 -1 12 18908.5 831.490 3
0 1 12 19075.4 837.370 3
0 -1 -13 3260.09 284.648 33
0 1 13 3308.05 297.902 3
0 1 -13 3435.05 290.281 33
0 -1 -13 3251.12 237.862 4
0 -1 -13 2737.01 249.812 37
0 1 13 2993.29 292.615 40
0 -1 13 3217.97 292.188 3
0 -1 13 3272.70 306.227 40
0 -1 13 3389.78 293.832 5
0 -1 -14 192.440 144.185 33
0 -1 14 246.530 168.337 3
0 -1 14 85.5366 111.246 5
0 -1 14 172.237 154.760 40
0 1 14 315.125 154.462 40
0 -1 -14 377.046 112.520 37
0 1 -14 246.567 145.142 33
0 1 14 105.774 164.753 3
0 -1 15 5490.77 300.197 3
0 1 15 5999.57 307.436 3
0 2 0 49468.2 1736.01 9
0 2 0 47123.0 1793.19 11
0 2 0 46623.6 1885.78 27
0 -2 0 47822.6 1914.05 2
0 2 0 51267.1 1883.40 12
0 -2 0 49290.5 1860.61 31
0 2 0 46942.0 1817.98 10
0 2 -1 136438. 4713.41 11
0 2 1 132291. 4755.28 27
0 -2 1 133751. 4763.21 30
0 -2 -1 136489. 4771.73 30
0 2 -1 129838. 4706.61 10
0 -2 1 122439. 4844.31 2
0 2 -1 135271. 4682.90 9
0 2 1 141803. 4797.81 12
0 2 1 131799. 4725.07 11
0 2 -1 144456. 4822.96 12
0 -2 -1 137650. 4788.65 31
0 -2 -1 131105. 4788.85 2
0 2 -1 129080. 4857.08 27
0 -2 1 136597. 4775.72 31
0 -2 -2 40002.5 1616.00 2
0 2 -2 44419.4 1552.38 10
0 -2 2 44217.1 1633.27 30
0 2 -2 37874.7 1498.74 28
0 2 2 42642.9 1773.60 29
0 2 2 41895.9 1556.36 27
0 -2 -2 39991.5 1495.34 23
0 2 2 47350.0 1672.02 12
0 2 -2 46454.9 1698.92 12
0 2 2 44086.7 1620.99 11
0 2 -2 41958.6 1760.54 27
0 -2 2 42574.2 1627.12 31
0 -2 -2 45912.9 1644.86 30
0 2 -2 39522.9 1489.67 23
0 -2 -2 37919.5 1503.39 28
0 -2 3 32705.3 1321.66 31
0 -2 3 34622.8 1329.02 30
0 -2 3 33483.0 1305.13 1
0 2 3 34509.1 1349.49 12
0 2 -3 29592.9 1245.96 28
0 2 -3 32840.2 1208.87 10
0 2 3 28245.7 1162.36 27
0 2 3 35587.7 1356.18 11
0 -2 -3 30405.1 1246.84 28
0 2 3 33064.4 1457.05 29
0 -2 -4 73595.1 2870.04 28
0 2 -4 74172.2 2873.00 28
0 -2 4 80177.0 2913.24 30
0 -2 4 77681.4 2913.87 31
0 2 4 76913.8 3153.03 32
0 -2 4 78708.8 2891.25 1
0 2 4 71789.0 3000.41 29
0 -2 4 83552.4 2876.04 32
0 -2 -5 154576. 5764.69 28
0 -2 5 163399. 5767.79 1
0 2 -5 154327. 5764.86 28
0 -2 5 157808. 5766.25 31
0 -2 5 169577. 5778.66 30
0 -2 5 168269. 5726.02 32
0 2 5 165642. 6070.14 32
0 2 5 145502. 5821.15 29
0 2 6 13119.6 964.127 32
0 2 6 11172.6 761.857 29
0 2 -6 11409.1 768.038 28
0 -2 6 12612.6 729.617 32
0 -2 6 11630.0 736.683 31
0 -2 -6 12503.6 773.244 28
0 -2 6 13238.2 759.906 30
0 -2 6 11757.2 746.517 1
0 -2 -7 589.342 244.022 28
0 -2 7 104.630 223.437 1
0 2 -7 171.978 235.756 28
0 -2 -7 151.378 117.693 37
0 -2 7 177.686 201.457 32
0 2 7 154.505 152.552 40
0 2 -7 280.151 143.514 35
0 2 -7 374.810 150.810 39
0 2 7 49.2324 141.295 38
0 -2 7 204.525 206.142 30
0 2 7 42.3068 308.121 32
0 2 8 5408.54 773.965 32
0 2 -8 6649.31 672.464 28
0 2 -8 6962.76 407.408 35
0 2 8 7234.84 427.803 38
0 -2 -8 6458.52 629.792 23
0 -2 -8 7003.11 375.250 33
0 -2 8 6573.48 646.431 30
0 2 -8 6098.74 610.149 23
0 -2 8 6980.33 395.980 40
0 2 -8 8110.61 428.811 39
0 -2 -8 7133.20 393.098 37
0 2 8 7175.14 417.777 40
0 -2 8 5914.06 638.015 1
0 -2 -8 6442.34 649.179 28
0 2 -8 7594.85 384.093 33
0 -2 9 35572.3 1327.32 40
0 -2 9 28896.2 1715.44 1
0 -2 -9 29793.9 1729.55 28
0 2 -9 33147.8 1296.55 33
0 -2 -9 33602.2 1293.34 33
0 2 9 33053.7 1324.46 40
0 2 -9 35772.2 1300.71 4
0 2 -9 34009.9 1314.93 35
0 -2 -9 31687.2 1696.81 23
0 2 9 28087.8 1868.00 32
0 2 9 32473.7 1644.29 10
0 2 -9 34172.4 1326.02 39
0 2 -9 28830.6 1747.34 28
0 2 -9 28363.1 1669.43 23
0 2 9 32325.4 1335.69 38
0 -2 -10 11613.5 566.949 33
0 2 -10 12203.5 568.161 4
0 -2 10 12346.3 608.268 40
0 2 -10 11312.0 584.639 39
0 2 -10 11073.8 576.149 35
0 2 10 11612.2 571.128 3
0 2 -10 10720.5 565.914 33
0 -2 -10 11630.0 527.879 4
0 2 10 10564.4 584.789 38
0 2 10 11550.0 600.798 40
0 -2 10 11920.4 616.165 5
0 -2 -11 9632.92 448.986 4
0 2 11 8655.62 477.788 3
0 2 11 9068.47 510.240 40
0 2 -11 8783.42 487.053 39
0 2 -11 8742.57 483.270 33
0 -2 11 9241.44 521.903 40
0 2 11 7585.24 495.239 8
0 -2 -11 8884.09 480.122 33
0 2 -11 9090.92 485.595 35
0 -2 11 8215.22 465.704 3
0 -2 11 9119.29 530.515 5
0 -2 -12 1678.28 215.841 37
0 -2 12 1797.59 263.448 5
0 2 12 1598.71 238.606 40
0 2 -12 1834.42 225.266 33
0 2 12 1471.86 227.429 3
0 -2 12 1665.54 223.829 3
0 -2 12 1733.33 265.330 40
0 -2 -12 1687.96 216.501 33
0 -2 13 1490.18 224.659 40
0 -2 13 1508.17 222.838 5
0 -2 13 1413.27 196.569 3
0 2 -13 1183.50 186.193 33
0 2 13 1521.43 204.893 3
0 2 13 1523.92 189.620 16
0 -2 -13 1331.48 176.760 37
0 -2 -13 1474.18 191.254 33
0 2 13 1577.04 215.578 40
0 -2 14 8062.72 422.721 40
0 -2 14 9109.68 422.224 5
0 2 14 9156.79 398.859 3
0 -2 14 9321.33 397.370 3
0 -2 -14 8383.80 391.124 37
0 2 14 8138.09 405.483 40
0 3 0 -58.0517 152.728 12
0 3 0 45.9871 148.703 10
0 -3 0 -41.9956 187.251 2
0 3 0 -20.5113 176.711 27
0 3 0 25.2841 134.972 11
0 -3 0 18.3628 162.383 31
0 -3 -1 635.181 217.221 30
0 -3 -1 512.184 197.847 2
0 -3 1 1083.78 283.141 2
0 3 1 739.174 197.706 27
0 3 1 711.637 210.910 10
0 3 1 519.562 193.311 12
0 3 -1 729.242 212.501 12
0 -3 -1 880.904 235.552 31
0 3 -1 745.211 260.694 27
0 3 -1 713.906 182.445 10
0 -3 1 745.253 210.598 31
0 3 1 642.914 183.152 11
0 3 -2 7375.58 563.391 12
0 -3 -2 8671.18 573.992 31
0 3 2 8766.14 574.404 10
0 -3 2 5993.40 603.672 2
0 3 2 7664.38 503.458 11
0 -3 -2 8503.86 552.420 30
0 3 2 8447.55 568.709 12
0 -3 2 7621.77 526.202 30
0 3 -2 7072.49 625.192 27
0 3 -2 7275.59 458.700 10
0 -3 -2 6973.21 506.609 2
0 -3 2 9048.11 566.877 31
0 3 -3 77662.8 3016.88 12
0 3 -3 76550.4 2831.19 9
0 -3 3 74381.3 2882.85 1
0 -3 3 75004.8 2926.63 31
0 -3 3 67674.0 3090.23 2
0 -3 3 75029.6 2914.90 30
0 3 3 78085.9 2962.55 12
0 -3 -3 79102.2 2943.41 30
0 3 -3 71321.7 2769.02 10
0 3 3 75145.8 2902.19 11
0 3 3 80832.1 2999.26 10
0 3 -4 42725.4 1892.73 12
0 -3 4 39429.1 1772.62 31
0 -3 -4 43113.2 1846.92 31
0 3 4 41325.3 1793.67 11
0 -3 4 39848.4 1771.65 30
0 -3 4 41232.1 1748.30 1
0 -3 -4 41611.7 1789.32 30
0 3 5 6533.67 392.690 38
0 -3 5 6261.73 538.677 31
0 3 -5 6155.52 368.863 35
0 -3 5 6319.66 525.510 1
0 -3 -5 6873.44 546.525 30
0 3 5 6480.94 580.586 10
0 -3 -5 6185.75 330.353 37
0 -3 -5 6804.26 583.476 31
0 3 5 6639.45 582.921 11
0 -3 5 5550.48 474.871 32
0 -3 5 5562.87 521.890 30
0 3 -5 6076.70 599.690 12
0 3 -5 6151.08 379.592 39
0 3 5 5115.25 331.038 40
0 -3 6 14465.9 876.106 32
0 -3 -6 17242.7 950.028 30
0 3 6 16145.3 997.230 10
0 3 -6 13041.2 978.854 12
0 3 6 13616.2 659.293 40
0 -3 6 16086.8 653.330 40
0 -3 -6 15299.1 974.082 31
0 -3 6 13586.1 907.522 30
0 -3 -6 15326.5 657.501 37
0 -3 6 14184.8 902.029 1
0 3 6 15804.4 720.207 38
0 -3 6 13761.5 918.596 31
0 3 6 15717.2 990.935 11
0 -3 7 7839.28 696.099 1
0 -3 -7 8342.20 694.354 30
0 3 -7 9963.51 508.054 35
0 3 7 8976.27 754.943 10
0 3 7 8937.62 483.164 40
0 -3 7 8220.24 733.087 30
0 -3 7 7891.34 701.339 31
0 -3 -7 9759.38 477.661 37
0 3 -7 9176.93 506.446 39
0 3 7 9113.61 517.633 38
0 3 7 8040.16 752.859 11
0 -3 -7 8810.13 744.738 31
0 -3 -8 7397.20 725.681 31
0 -3 8 8193.96 504.109 5
0 3 8 9198.53 511.896 38
0 3 8 8240.53 790.211 11
0 3 -8 8856.10 492.416 35
0 -3 8 6988.15 736.366 30
0 3 8 8568.72 458.512 8
0 -3 -8 8067.78 421.399 4
0 3 8 8554.95 479.860 40
0 3 -8 8589.24 503.231 39
0 -3 -8 8752.63 470.083 37
0 -3 8 7467.13 716.379 1
0 3 8 8852.53 768.858 10
0 -3 9 4195.88 369.166 5
0 3 9 3953.37 343.493 38
0 -3 -9 4352.61 327.716 37
0 3 -9 3870.51 339.369 35
0 3 -9 4653.62 365.637 39
0 -3 -9 4354.00 286.404 4
0 3 9 4139.40 327.507 8
0 3 9 4235.02 351.988 40
0 3 10 8169.95 482.496 40
0 -3 10 7676.61 503.328 5
0 -3 -10 8544.89 464.243 37
0 3 -10 8428.62 480.743 35
0 3 10 7711.91 466.247 8
0 3 -10 8268.71 490.416 39
0 3 10 8613.24 488.656 38
0 3 -11 24802.7 998.805 35
0 3 11 23767.1 991.403 40
0 3 11 22473.6 980.273 38
0 3 -11 24636.1 1007.39 39
0 -3 11 23967.3 1028.46 5
0 -3 -11 25350.7 990.819 37
0 -3 12 12393.1 591.672 40
0 3 -12 11503.3 564.125 35
0 -3 -12 12566.5 561.755 37
0 3 -12 11274.4 567.355 39
0 -3 -12 12226.3 550.358 34
0 3 12 12234.4 557.465 16
0 3 -13 3317.85 235.687 35
0 3 13 3411.15 288.000 25
0 -3 -13 3473.59 227.622 34
0 -3 13 3823.50 273.837 40
0 3 13 4221.18 253.622 16
0 3 -13 3433.90 237.774 39
0 3 14 864.955 111.718 16
0 -3 14 1099.49 148.502 5
0 -4 0 4719.67 274.112 34
0 4 0 4554.29 452.543 10
0 -4 0 4944.16 504.690 31
0 4 0 4264.56 480.360 12
0 4 0 4763.39 319.868 38
0 4 0 5737.45 353.611 41
0 -4 0 4798.01 476.948 30
0 4 -1 28085.7 1350.29 10
0 4 1 31536.1 1461.66 10
0 4 1 33241.5 1523.39 12
0 -4 1 28482.5 1128.86 36
0 4 1 29700.2 1187.27 38
0 4 -1 31203.1 1196.64 41
0 -4 -1 30611.6 1495.25 31
0 -4 -1 29094.0 1126.14 34
0 -4 -1 30420.5 1454.52 30
0 4 -1 30539.5 1503.15 12
0 4 1 30566.7 1201.08 41
0 -4 1 30235.5 1473.87 31
0 4 1 28771.7 1205.36 25
0 4 -1 29101.8 1168.59 38
0 -4 2 2295.30 351.384 30
0 4 -2 2090.57 209.014 38
0 4 2 2284.57 242.036 38
0 4 -2 1994.11 209.151 39
0 -4 -2 2126.72 364.181 31
0 4 2 2183.22 230.689 41
0 4 2 2165.81 250.080 25
0 4 2 2138.66 347.421 12
0 -4 2 2118.25 185.233 36
0 4 2 2005.73 348.905 10
0 -4 -2 2109.85 348.804 30
0 4 -2 2032.99 363.865 12
0 -4 2 2365.40 372.583 31
0 4 -2 2279.53 226.129 41
0 -4 -2 2268.99 195.057 34
0 4 -2 2166.98 218.727 35
0 4 -3 2577.31 240.625 41
0 -4 3 2042.00 188.836 36
0 -4 3 2679.72 379.547 30
0 -4 -3 2683.16 218.358 34
0 4 -3 2329.67 238.598 35
0 4 3 2711.65 382.658 12
0 4 3 2432.24 345.061 11
0 4 3 2199.74 266.862 25
0 4 3 2586.48 403.041 10
0 4 3 2753.68 267.288 38
0 4 3 2365.51 242.669 41
0 4 -3 2210.66 241.661 39
0 4 -3 2482.66 400.810 12
0 -4 3 2421.50 377.067 31
0 -4 -3 2693.60 387.028 30
0 -4 -4 2085.42 353.089 30
0 4 -4 1889.98 243.756 39
0 4 4 2042.79 234.716 41
0 4 4 2140.58 274.965 25
0 4 4 2113.01 253.180 38
0 4 -4 1724.96 213.371 41
0 4 -4 2134.03 398.547 12
0 4 -4 1911.62 245.053 35
0 4 4 1869.54 364.999 10
0 4 4 1823.22 329.306 11
0 -4 -4 2253.23 208.027 34
0 -4 4 2075.32 371.369 31
0 -4 4 1876.97 349.619 30
0 4 -5 7857.20 441.106 41
0 4 5 8506.02 721.279 11
0 4 5 8636.99 471.350 41
0 -4 -5 7693.70 729.390 31
0 -4 5 7909.65 711.920 31
0 4 -5 9441.70 496.504 35
0 -4 5 7949.34 706.736 30
0 -4 -5 9138.75 449.531 37
0 4 -5 7811.05 770.937 12
0 -4 5 7019.66 850.587 2
0 -4 5 8886.97 442.093 40
0 4 5 9085.48 531.880 25
0 -4 -5 9426.78 723.981 30
0 4 5 7861.17 416.189 17
0 -4 -5 9296.08 457.291 34
0 4 -5 8286.40 493.532 39
0 4 -6 113.317 176.129 35
0 -4 -6 370.559 224.948 30
0 -4 -6 266.859 236.450 31
0 4 6 188.257 189.725 38
0 4 6 34.0216 235.106 11
0 4 6 247.035 140.248 41
0 -4 6 119.887 351.954 2
0 -4 -6 272.408 156.140 4
0 -4 6 472.039 242.510 31
0 -4 -6 186.334 126.951 37
0 4 -6 165.286 223.237 12
0 4 6 256.783 129.998 8
0 4 -6 179.275 192.754 39
0 -4 6 69.0863 238.708 30
0 -4 6 100.367 148.081 40
0 -4 -6 167.128 135.383 34
0 4 -7 14906.2 719.724 35
0 -4 -7 16028.3 686.319 37
0 -4 -7 15518.0 687.869 34
0 -4 7 12810.7 705.365 5
0 -4 -7 15022.0 653.170 4
0 -4 7 15420.6 684.920 40
0 4 7 13318.5 653.269 8
0 4 -7 15203.8 738.770 39
0 4 7 15355.0 748.679 38
0 -4 -8 44969.5 1652.37 34
0 -4 -8 43237.4 1596.87 4
0 -4 8 42630.8 1676.05 5
0 -4 -8 44522.4 1647.27 37
0 4 8 43926.4 1708.48 38
0 4 8 37981.4 1627.47 8
0 -4 8 44624.7 1648.98 40
0 4 8 41923.4 1586.95 19
0 4 9 16398.3 743.103 38
0 4 -9 15582.0 727.912 35
0 -4 9 14086.8 724.490 5
0 -4 9 15617.3 703.410 40
0 4 9 13242.6 676.696 8
0 -4 -9 15686.5 697.085 34
0 -4 9 13729.2 694.089 6
0 4 -9 16028.5 745.980 39
0 -4 -9 15874.3 694.762 37
0 -4 -10 3871.99 288.315 37
0 -4 10 3374.42 289.390 6
0 4 -10 3627.46 324.445 39
0 4 10 3626.84 296.266 38
0 4 -10 3585.23 309.788 35
0 -4 10 3815.91 334.998 5
0 4 10 3309.99 274.961 8
0 -4 10 3567.59 300.904 40
0 4 11 651.066 143.695 38
0 -4 11 11.4831 89.4753 6
0 -4 11 696.255 198.518 5
0 4 -11 638.098 172.483 39
0 4 -11 686.196 167.470 35
0 -4 -11 645.638 139.110 37
0 -4 12 2797.84 243.581 5
0 4 12 2437.96 238.867 25
0 4 -12 2633.54 215.130 35
0 -4 -12 2867.92 199.661 37
0 4 -12 2824.51 217.311 39
0 -4 -12 2680.96 193.216 34
0 4 12 2905.35 216.217 16
0 4 13 11647.4 434.315 16
0 -4 13 11642.6 462.235 5
0 5 0 476.946 163.014 20
0 5 0 304.471 191.909 38
0 -5 0 746.287 214.942 7
0 5 0 551.195 216.535 41
0 -5 0 84.0655 139.470 36
0 -5 1 15229.3 771.882 7
0 5 1 17069.6 727.966 17
0 5 -1 17744.2 798.332 41
0 -5 1 16127.4 761.452 6
0 -5 -1 15173.8 747.154 7
0 5 1 18624.4 814.587 41
0 -5 1 16403.1 720.795 36
0 -5 -1 17454.1 720.417 34
0 5 1 16088.1 714.171 20
0 5 -1 17055.1 727.341 20
0 -5 -1 16961.1 738.198 36
0 5 1 18386.3 800.337 38
0 5 2 4897.85 369.079 38
0 -5 2 4749.41 300.554 36
0 5 -2 4612.81 320.282 20
0 5 2 5020.93 309.445 17
0 -5 2 4145.96 358.612 6
0 -5 -2 4702.11 307.379 34
0 5 2 5264.09 375.165 41
0 5 -2 5451.14 372.420 41
0 -5 3 49642.9 1836.87 36
0 5 3 47971.0 1955.07 25
0 5 -3 50197.4 1866.50 20
0 5 -3 48090.9 1873.07 35
0 5 3 51755.0 1952.18 38
0 5 3 49246.0 1847.93 17
0 5 -3 49887.3 1904.24 41
0 5 3 52212.7 1936.72 41
0 -5 -3 51136.3 1866.70 34
0 5 -4 8287.60 496.066 39
0 5 4 8945.86 553.533 25
0 5 4 9004.91 451.426 17
0 5 4 9303.84 510.718 41
0 5 4 9823.50 548.428 38
0 5 -4 9397.01 491.050 41
0 -5 -4 9204.58 474.741 34
0 -5 -4 9050.28 467.140 4
0 5 -4 8600.56 473.035 20
0 5 -4 8664.08 501.347 35
0 5 5 162.334 158.132 16
0 -5 5 99.5114 146.167 40
0 5 5 245.085 197.753 38
0 5 -5 146.747 129.032 41
0 5 5 14.9057 198.739 25
0 -5 -5 18.6176 135.271 34
0 5 5 181.210 152.410 41
0 -5 -5 324.941 165.306 4
0 5 -5 247.527 183.455 35
0 5 -5 185.227 164.164 20
0 5 -5 275.118 183.259 39
0 5 5 313.421 132.150 17
0 5 6 1889.42 223.600 16
0 5 -6 1835.59 223.500 20
0 -5 6 2068.62 229.125 40
0 -5 -6 2034.81 213.656 4
0 5 -6 1751.21 253.144 39
0 5 6 1887.85 210.221 41
0 5 -6 1822.77 259.142 35
0 -5 -6 1987.16 215.949 34
0 -5 6 1573.15 273.084 6
0 5 -7 8331.22 475.310 39
0 5 7 7350.95 397.528 8
0 -5 -7 7500.27 389.758 4
0 -5 7 7942.05 430.363 40
0 5 7 7399.78 398.112 19
0 5 -7 7389.97 420.569 20
0 5 7 7972.26 423.642 16
0 -5 -7 8800.66 438.318 34
0 5 7 8354.75 484.454 38
0 5 -7 7956.98 468.418 35
0 5 8 2242.20 204.804 19
0 5 -8 2408.68 255.998 35
0 5 8 2053.34 242.954 38
0 5 -8 1984.69 210.487 20
0 -5 -8 2236.19 203.586 37
0 5 8 2127.87 233.898 16
0 5 -8 2130.63 253.013 39
0 -5 -8 2214.82 206.421 34
0 -5 8 2149.56 260.357 6
0 5 8 1912.81 193.805 8
0 -5 8 1836.16 218.581 40
0 -5 -9 6003.66 322.233 36
0 -5 -9 6943.48 351.041 37
0 -5 9 6697.27 391.789 6
0 5 9 5426.50 342.066 8
0 5 -9 7456.53 399.746 35
0 5 -9 6926.01 401.614 39
0 -5 9 6540.00 377.034 5
0 5 9 6583.73 326.284 19
0 -5 9 7300.76 382.177 40
0 5 9 7081.15 366.772 16
0 5 9 7966.48 407.402 38
0 -5 -9 6835.31 360.168 34
0 5 -9 6986.81 347.636 20
0 -5 -10 16478.6 657.482 34
0 5 -10 16055.4 683.509 39
0 -5 10 15838.6 669.394 40
0 5 10 17336.2 657.726 16
0 -5 -10 14821.1 636.472 37
0 -5 10 15779.4 660.357 6
0 5 10 17216.4 680.132 38
0 5 -10 15669.0 627.649 20
0 -5 10 16517.4 670.187 5
0 -5 11 4337.26 243.320 5
0 5 11 4808.30 239.449 16
0 6 0 42066.8 1537.34 17
0 -6 0 37851.7 1544.03 7
0 -6 0 42372.2 1540.13 36
0 -6 1 21268.5 827.280 7
0 6 1 15976.8 746.003 17
0 6 1 18336.2 821.429 41
0 6 -1 25072.0 872.979 41
0 -6 -1 15415.1 752.105 7
0 6 -1 20245.2 785.164 17
0 -6 -1 16789.9 761.415 36
0 -6 1 18433.6 762.269 36
0 6 -2 17906.1 741.684 17
0 6 -2 18443.0 780.187 41
0 -6 2 17773.3 720.664 36
0 6 -2 17331.0 721.230 20
0 6 2 16755.8 717.415 17
0 -6 2 16493.2 771.110 7
0 -6 -2 16966.3 736.308 36
0 -6 -2 15785.9 722.464 4
0 -6 2 16520.8 752.814 6
0 6 2 18372.4 791.365 41
0 6 2 18567.0 789.722 38
0 -6 3 5245.53 376.090 7
0 6 3 5992.17 378.985 38
0 6 -3 5741.35 323.630 20
0 -6 -3 5698.23 332.738 36
0 -6 3 5315.68 315.754 40
0 6 -3 5466.56 342.538 41
0 6 3 6061.05 319.289 17
0 6 3 5890.35 365.471 41
0 -6 3 5132.41 369.017 6
0 -6 -3 4996.91 317.220 4
0 6 4 3050.68 268.226 38
0 -6 -4 2358.51 209.178 4
0 -6 -4 2575.62 218.509 34
0 6 -4 2581.40 218.393 20
0 -6 4 2909.57 287.951 6
0 6 -4 2912.83 235.794 41
0 -6 4 2691.87 222.012 40
0 6 4 2938.70 247.136 41
0 -6 4 2719.58 286.454 7
0 6 -5 9036.55 424.419 20
0 -6 -5 8950.78 411.178 4
0 -6 5 9603.41 491.081 6
0 -6 5 8956.89 433.845 40
0 6 5 9019.31 443.222 41
0 6 5 9499.79 435.855 19
0 -6 -5 8945.20 438.581 36
0 -6 5 8253.45 492.317 7
0 -6 -5 8769.10 432.277 34
0 6 5 10077.9 494.506 38
0 -6 -6 617.326 125.231 36
0 -6 -6 714.333 126.406 34
0 -6 -6 694.593 114.953 4
0 6 -6 806.138 129.892 20
0 -6 6 659.127 185.519 7
0 6 6 668.949 140.658 19
0 -6 6 575.028 138.127 40
0 -6 6 890.257 197.247 6
0 -6 -7 2227.34 175.099 34
0 -6 7 2104.22 183.858 40
0 6 7 2328.30 175.101 19
0 -6 7 2279.01 221.506 6
0 -6 7 2107.63 235.995 7
0 -6 -7 1821.56 161.308 36
0 6 -7 2666.81 162.935 20
0 -6 8 3234.65 251.976 7
0 6 8 3372.96 178.023 19
0 6 -8 2789.42 160.466 20
0 -6 9 7440.24 313.627 6
0 -6 9 6610.27 336.481 7
0 -7 0 162.137 109.763 4
0 7 0 108.632 80.9118 17
0 -7 1 1276.94 144.240 4
0 7 -1 1462.51 123.673 17
0 7 1 1461.54 141.356 19
0 -7 -1 1355.19 129.855 4
0 7 2 8407.10 331.024 19
0 7 -2 7803.28 319.325 17
0 -7 2 6507.57 314.363 7
0 -7 2 6945.01 333.064 4
0 -7 -2 6850.19 304.750 4
0 7 -3 3627.50 182.641 17
0 -7 3 2851.23 183.153 7
0 7 4 4483.39 210.610 19
0 7 -4 3944.36 199.205 17
-1 0 16 5905.51 278.936 3
1 0 -15 8168.50 423.430 33
-1 0 15 9513.59 429.737 3
1 0 -14 9641.61 492.719 33
1 0 -14 9479.25 456.221 4
-1 0 14 9704.35 491.036 3
-1 0 14 8899.54 475.340 40
1 0 -13 13259.0 635.075 33
-1 0 13 13727.5 635.223 3
-1 0 13 11791.0 617.179 40
1 0 -13 12673.8 586.788 4
-1 0 12 -78.9999 201.153 3
-1 0 12 164.996 192.073 40
1 0 -12 -7.89230 145.688 4
1 0 -12 -37.6013 113.910 37
1 0 -11 419.077 172.590 33
-1 0 11 354.827 200.500 3
1 0 -11 351.003 148.631 4
1 0 -11 181.765 121.843 37
-1 0 11 248.271 187.494 40
-1 0 10 5035.83 351.051 40
-1 0 10 4211.36 606.685 32
1 0 -10 3775.49 585.451 23
1 0 -10 4223.03 285.861 37
-1 0 10 3814.61 336.644 38
1 0 -10 4043.89 626.101 28
1 0 -10 5411.31 341.917 33
1 0 -9 126837. 4880.73 23
-1 0 9 126343. 4387.77 40
1 0 -9 120883. 4383.41 33
-1 0 9 118650. 4900.02 32
-1 0 9 127530. 4428.80 38
1 0 -9 121557. 4923.71 28
-1 0 8 66282.4 2371.00 40
1 0 -8 68274.8 2773.35 23
-1 0 8 70500.4 2853.75 32
1 0 -8 63411.7 2367.75 33
1 0 -8 66379.0 2822.22 28
-1 0 7 39999.2 1765.23 29
1 0 -7 43631.7 1922.66 28
-1 0 7 44944.7 1941.25 32
-1 0 6 17565.5 960.738 32
-1 0 6 17794.2 890.431 29
1 0 -6 17116.7 947.597 28
-1 0 5 4210.79 419.494 1
-1 0 5 5346.36 411.203 29
-1 0 5 4979.34 453.739 32
1 0 -5 5943.09 449.719 28
-1 0 4 9155.96 536.418 32
1 0 -4 8316.78 508.165 28
-1 0 4 8048.90 475.877 29
-1 0 3 76379.2 3074.81 1
-1 0 3 82656.3 3004.36 30
1 0 -3 94152.9 3123.47 28
-1 0 3 98297.4 3113.58 29
1 0 -2 236885. 7005.31 28
1 0 -2 223471. 6980.55 23
-1 0 2 204040. 6983.05 32
-1 0 2 186904. 6884.92 30
-1 0 1 229217. 8297.49 29
-1 0 1 218444. 8281.98 32
-1 0 0 1102.09 122.385 27
1 0 0 1466.03 124.152 2
-1 0 0 1431.20 81.4719 32
1 0 0 1402.63 137.125 23
1 0 0 1086.09 90.3181 11
-1 0 0 976.441 91.0298 29
1 0 0 1239.71 94.9779 10
-1 0 -1 39029.0 1515.68 27
1 0 1 44097.8 1579.36 23
1 0 1 39860.7 1473.67 10
1 0 2 1963.06 137.234 10
-1 0 -2 2394.35 222.510 28
1 0 2 1916.29 211.102 30
1 0 2 1747.48 164.986 32
-1 0 -2 1796.74 197.380 27
-1 0 -3 61457.6 2236.08 28
-1 0 -3 58773.4 2197.65 27
1 0 3 58636.8 2160.88 32
1 0 4 28513.8 1193.61 32
-1 0 -4 30894.1 1277.58 28
1 0 5 125059. 4608.03 32
-1 0 -5 131987. 4710.21 28
-1 0 -6 2999.45 395.253 28
1 0 6 2631.04 339.626 32
1 0 7 191.965 191.848 32
1 0 7 58.5376 254.447 1
-1 0 -7 141.533 211.253 28
1 0 8 2282.45 230.649 24
-1 0 -8 2725.04 235.081 33
1 0 8 2624.65 252.283 40
1 0 8 2478.15 468.553 1
-1 0 -8 2958.44 458.097 28
-1 0 -9 11753.0 985.901 28
1 0 9 12274.0 618.722 24
-1 0 -9 12982.7 609.408 33
1 0 9 13979.3 641.677 40
1 0 10 68.2023 195.907 40
1 0 10 83.8865 189.589 3
-1 0 -10 190.783 162.310 33
-1 0 -10 137.418 263.709 28
-1 0 -11 1882.57 251.346 33
1 0 11 1519.06 276.899 40
1 0 11 1624.40 260.579 3
1 0 12 40420.4 1599.46 40
1 0 12 40447.4 1567.03 3
-1 0 -12 40485.6 1577.82 33
-1 0 -13 10588.3 515.775 33
1 0 13 10798.6 517.487 3
1 0 13 9654.57 522.123 40
1 0 14 69.6357 165.368 3
-1 0 -14 213.924 91.9900 37
1 0 14 175.943 157.162 40
-1 0 -14 105.861 141.019 33
1 0 15 547.632 132.403 3
1 -1 -15 2510.07 181.695 4
1 1 -15 2763.80 210.256 33
-1 -1 15 3171.78 222.157 3
1 -1 -15 2729.41 209.163 33
-1 1 15 3123.86 221.734 3
-1 -1 14 1279.36 199.917 40
1 -1 -14 1330.18 165.619 4
1 -1 -14 1015.33 149.089 37
-1 1 14 1255.15 212.352 3
-1 1 14 1231.81 181.528 40
1 1 -14 1178.47 196.707 33
-1 -1 14 1599.64 214.909 3
-1 -1 14 1236.46 194.680 5
1 -1 -14 1411.83 199.626 33
1 -1 -13 3308.31 253.905 4
-1 1 13 4054.76 304.979 3
1 1 -13 2734.30 275.610 33
-1 -1 13 2939.54 290.803 5
1 -1 -13 2851.84 240.198 37
-1 -1 13 2895.25 292.008 40
1 1 -13 3001.73 268.841 4
1 -1 -13 3244.59 285.729 33
-1 1 13 2844.52 277.637 40
-1 -1 13 3714.79 289.608 3
1 -1 -12 13535.7 618.946 37
1 1 -12 12700.6 623.388 4
1 -1 -12 14274.1 667.498 33
1 1 -12 13909.2 666.536 33
-1 1 12 12984.3 655.171 40
1 -1 -12 13143.0 610.320 4
-1 -1 12 14297.5 655.554 3
-1 -1 12 12995.8 664.010 5
-1 -1 12 13099.3 666.784 40
-1 1 12 14688.2 662.121 3
-1 1 11 78668.9 2767.11 3
-1 -1 11 75984.2 2786.36 40
1 -1 -11 77899.9 2748.59 37
-1 1 11 74563.8 2773.98 40
1 1 -11 77158.8 2736.06 4
1 -1 -11 77916.5 2722.28 4
-1 1 11 76149.7 2801.69 38
1 -1 -11 75437.2 2776.98 33
-1 -1 11 75367.6 2753.50 3
-1 -1 11 76118.9 2784.21 5
1 1 -11 76767.5 2781.22 33
-1 1 11 65657.4 2768.93 8
-1 -1 10 9988.87 511.184 40
-1 1 10 9281.49 501.973 40
1 -1 -10 7546.46 860.995 28
1 1 -10 7688.24 803.843 23
-1 1 10 9827.27 499.545 3
1 1 -10 9342.03 480.508 35
-1 -1 10 9365.72 491.696 3
1 1 -10 9502.86 501.187 33
1 -1 -10 8754.56 842.707 23
1 -1 -10 9435.86 455.537 4
-1 1 10 7770.76 891.021 32
-1 1 10 9197.59 527.076 38
1 1 -10 7284.73 840.905 28
1 -1 -10 10233.2 511.793 33
1 1 -10 9523.81 473.129 4
-1 1 10 8758.88 498.191 8
1 -1 -10 10089.1 482.931 37
1 1 -9 26186.8 1494.87 23
1 1 -9 26488.1 1090.62 33
-1 1 9 23934.5 1588.45 32
-1 1 9 26182.9 1128.49 38
1 -1 -9 28418.7 1509.43 23
-1 -1 9 29098.9 1102.52 40
1 -1 -9 26200.2 1524.47 28
1 1 -9 27489.2 1080.73 39
-1 -1 9 22842.3 1444.23 32
1 1 -9 28393.3 1081.58 35
-1 1 9 27394.7 1094.52 40
1 1 -9 26951.6 1570.90 28
1 -1 -9 27946.2 1077.02 37
1 -1 -9 27048.4 1092.96 33
1 -1 -8 26505.6 1029.53 37
-1 1 8 25226.3 1034.28 40
1 1 -8 26927.4 1032.29 35
1 -1 -8 25321.3 1032.29 33
1 1 -8 26420.3 1392.68 23
-1 1 8 25441.0 1509.77 32
1 1 -8 25679.3 1035.26 33
1 -1 -8 28147.3 1454.96 28
-1 1 8 27062.1 1094.29 38
-1 -1 8 28448.5 1042.76 40
1 -1 -8 25594.0 1377.89 23
1 1 -8 26303.9 1434.32 28
1 1 -8 26830.7 1035.43 39
-1 -1 8 22887.0 1354.38 1
-1 -1 8 25986.2 1387.05 32
-1 -1 7 72239.5 2853.52 30
1 -1 -7 76000.7 2970.20 23
1 -1 -7 74618.5 3009.15 28
-1 -1 7 67845.7 2927.63 1
-1 -1 7 77259.5 2860.86 29
1 1 -7 77503.0 3027.40 28
-1 1 7 62846.7 2847.30 29
-1 1 7 80651.0 3171.19 32
-1 -1 7 81027.0 2993.83 32
1 1 -7 75315.0 2976.04 23
-1 -1 6 28519.1 1323.13 1
1 -1 -6 29809.8 1373.13 28
-1 -1 6 29176.4 1245.88 30
1 -1 -6 29683.0 1331.83 23
1 1 -6 28432.8 1326.56 23
-1 1 6 25982.9 1296.27 29
-1 -1 6 29339.3 1335.96 32
1 1 -6 28864.3 1366.35 28
-1 1 6 30392.5 1486.10 32
-1 -1 6 30109.1 1273.39 29
1 1 -5 57559.5 2343.91 28
-1 1 5 62427.8 2492.53 32
-1 1 5 56268.7 2339.91 29
-1 -1 5 59213.7 2237.09 30
-1 -1 5 59124.0 2301.62 1
1 -1 -5 59305.0 2350.15 28
-1 -1 5 65552.8 2335.89 32
-1 -1 4 71593.3 2647.52 1
-1 -1 4 69196.0 2601.58 30
1 1 -4 70501.0 2692.91 28
1 1 -4 75758.0 2680.93 23
1 -1 -4 72019.6 2672.97 23
-1 -1 4 70767.5 2604.51 31
-1 -1 4 78099.6 2686.29 32
-1 1 4 68866.0 2725.87 29
1 -1 -4 71952.8 2699.31 28
-1 -1 3 301954. 10199.4 1
-1 -1 3 316183. 10238.3 32
-1 1 3 320159. 10247.9 27
-1 1 3 298663. 10327.8 29
1 1 -3 277169. 10236.8 28
-1 -1 3 295197. 10178.7 31
-1 -1 3 282405. 10181.1 30
1 1 -3 292661. 10225.1 23
1 -1 -3 287957. 10245.9 28
-1 1 3 299525. 10374.0 32
1 -1 -3 296781. 10229.5 23
1 -1 -2 19256.7 849.947 2
-1 -1 2 19043.5 779.390 30
-1 -1 2 17708.6 759.410 31
-1 -1 2 20108.5 761.766 1
1 -1 -2 20631.9 767.788 30
1 1 -2 18609.2 803.115 28
1 -1 -2 20752.6 791.755 31
1 -1 -2 20024.9 811.718 28
1 1 -2 19245.1 785.142 10
-1 1 2 20228.8 924.700 32
-1 1 2 23088.8 850.103 27
1 -1 -2 20881.8 796.128 23
1 1 -2 19097.9 786.790 23
1 1 -1 45019.6 1463.28 9
1 -1 -1 44015.0 1545.36 2
-1 1 1 42932.5 1544.46 32
1 -1 -1 45044.7 1441.62 23
1 -1 -1 45263.4 1462.34 31
1 1 -1 43460.9 1438.68 12
-1 -1 1 42473.5 1439.95 31
-1 1 1 44825.3 1566.11 29
-1 -1 1 42347.1 1457.56 30
1 1 -1 41827.3 1434.33 23
1 -1 -1 44572.4 1434.69 30
-1 1 1 47269.4 1527.64 27
1 1 -1 42918.0 1454.13 10
1 1 0 93250.6 3179.48 12
-1 1 0 89706.7 3239.18 32
-1 1 0 91701.2 3121.63 11
-1 -1 0 89420.0 3198.43 31
1 -1 0 93781.5 3314.19 2
-1 1 0 102426. 3312.29 29
1 -1 0 92009.1 3192.15 30
-1 -1 0 80181.6 3146.23 2
1 1 0 97902.3 3203.01 9
1 -1 0 101406. 3208.47 23
1 1 0 89429.9 3188.44 23
1 1 1 104226. 3671.58 12
1 -1 1 106105. 3705.76 31
-1 1 -1 105379. 3685.14 28
-1 1 -1 113019. 3801.98 27
-1 1 -1 106635. 3752.13 29
-1 -1 -1 101901. 3674.39 28
-1 -1 -2 63716.3 2388.25 28
1 -1 2 67409.6 2402.07 31
-1 1 -2 66070.4 2400.63 28
1 -1 2 65753.0 2389.73 30
-1 1 -2 67234.1 2490.59 27
1 -1 2 65449.2 2392.35 1
1 1 2 65193.6 2384.45 10
1 1 3 157010. 6013.47 32
1 -1 3 164474. 5955.90 31
1 -1 3 177022. 5844.80 32
1 -1 3 171513. 5945.86 1
1 -1 3 176279. 5953.38 30
-1 -1 -3 158608. 5945.64 28
-1 1 -3 167303. 6046.43 27
-1 1 -3 169033. 5957.64 28
-1 1 -4 57595.5 2283.90 28
1 -1 4 57335.5 2276.14 31
1 -1 4 59503.6 2167.34 32
1 -1 4 64311.2 2294.78 30
-1 1 -4 55801.9 2343.74 27
1 -1 4 59719.0 2273.02 1
1 1 4 59861.3 2347.66 32
-1 -1 -4 58994.2 2287.42 28
1 1 5 44439.1 1900.74 32
1 -1 5 42863.8 1712.80 32
1 -1 5 44614.7 1832.74 1
-1 1 -5 43361.2 1898.93 27
1 -1 5 47859.4 1864.80 30
-1 1 -5 45031.0 1858.50 28
-1 -1 -5 43999.5 1851.94 28
1 -1 6 13741.2 786.373 1
-1 -1 -6 12958.0 782.697 28
1 -1 6 12769.4 764.674 30
-1 1 -6 11619.3 761.913 28
1 1 6 11625.1 785.092 32
1 -1 7 35989.6 1751.40 1
1 1 7 34985.6 1748.25 32
-1 -1 -7 39720.1 1791.10 28
-1 1 -7 39147.7 1787.54 28
1 1 7 37342.2 1424.26 40
-1 1 -8 20611.1 823.313 39
-1 1 -8 19306.7 818.537 33
1 -1 8 18433.3 1211.87 1
1 -1 8 18110.0 806.298 24
-1 1 -8 21374.4 1247.66 28
-1 -1 -8 20028.7 822.166 33
1 1 8 20440.3 855.166 40
-1 -1 -8 22373.5 1256.46 28
-1 1 -9 4217.54 305.762 33
-1 -1 -9 3234.09 532.844 28
-1 1 -9 3824.46 571.706 28
1 1 9 4322.05 341.892 40
1 -1 9 3418.15 546.274 1
1 -1 9 3718.82 291.730 24
-1 -1 -9 3594.35 293.123 33
1 -1 9 4197.59 332.780 40
-1 1 -10 17386.6 1325.05 28
1 1 10 21227.6 922.256 40
1 1 10 20097.6 880.042 3
1 -1 10 20920.7 900.942 5
1 -1 10 20464.3 875.992 3
1 -1 10 21367.7 920.907 40
-1 -1 -10 17702.4 1322.19 28
1 -1 10 17447.1 860.017 24
-1 -1 -10 21512.8 892.120 33
-1 1 -10 21954.1 894.939 33
-1 1 -10 21694.8 852.081 4
1 1 11 33119.5 1296.93 3
1 -1 11 32896.6 1333.11 40
-1 1 -11 32476.0 1301.75 33
1 1 11 31882.6 1326.72 40
1 -1 11 31081.3 1281.30 3
-1 -1 -11 32929.2 1302.53 33
1 -1 11 31841.4 1301.16 5
-1 1 -11 32738.6 1256.33 4
1 1 12 7501.43 456.394 40
1 -1 12 7008.11 430.032 5
1 -1 12 7355.47 426.568 3
-1 1 -12 6940.98 424.802 33
-1 -1 -12 6559.94 401.168 37
1 1 12 6802.80 423.754 3
-1 -1 -12 6735.25 417.302 33
1 -1 12 6809.18 452.440 40
-1 -1 -13 2917.01 245.181 37
1 -1 13 3479.64 287.722 3
1 -1 13 2860.38 286.400 40
1 -1 13 3382.00 268.587 5
1 1 13 3281.38 293.779 40
-1 -1 -13 3366.49 275.471 33
-1 1 -13 3294.22 276.564 33
1 1 13 3507.22 294.475 3
1 -1 14 19215.8 748.415 3
1 1 14 19650.7 753.213 3
-1 1 -14 18033.6 746.058 33
-1 -1 -14 17697.6 743.865 33
1 1 14 18108.4 753.537 40
1 -1 14 18346.7 759.810 40
-1 -1 -14 16058.7 709.669 37
1 -1 15 8369.12 361.855 3
1 1 15 7661.57 358.605 3
-1 -2 15 342.335 108.753 5
-1 2 15 -2.89497 45.8491 3
1 2 -14 -48.0007 117.238 33
-1 -2 14 -28.7077 154.366 5
1 -2 -14 34.5463 95.8428 37
-1 -2 14 -183.474 148.575 3
1 -2 -14 -40.4758 105.233 4
-1 -2 14 7.28938 136.879 40
1 -2 -14 -12.0931 117.735 33
-1 2 14 -196.714 151.120 3
-1 2 14 -27.8822 121.185 16
-1 -2 13 4887.73 345.148 40
-1 -2 13 5599.29 372.015 5
1 -2 -13 5087.07 304.550 4
-1 -2 13 4992.21 323.534 3
1 -2 -13 4968.92 324.284 33
-1 2 13 5211.17 329.702 3
1 -2 -13 3969.12 279.554 34
1 2 -13 4256.31 312.500 33
1 -2 -13 5315.55 316.782 37
1 -2 -12 10494.7 483.499 4
-1 -2 12 9452.54 502.176 3
1 -2 -12 9765.88 512.684 37
-1 2 12 10419.8 517.048 3
-1 -2 12 9301.35 550.046 5
1 2 -12 9436.54 507.409 39
-1 2 12 9161.14 517.924 38
1 2 -12 9274.34 510.680 33
1 -2 -12 9549.28 509.453 33
-1 2 12 9748.59 518.714 40
-1 2 12 9249.88 529.081 8
-1 -2 12 10389.3 541.700 40
1 2 -12 10763.1 517.749 35
1 2 -11 1571.18 224.590 4
1 2 -11 1555.36 222.801 39
1 -2 -11 1545.24 193.633 4
-1 2 11 1522.42 235.241 8
1 2 -11 1187.80 212.422 35
-1 2 11 1630.65 237.481 38
-1 -2 11 1710.75 270.977 5
1 -2 -11 1556.78 219.706 33
1 -2 -11 1817.63 227.212 37
-1 2 11 1287.86 230.967 40
-1 -2 11 1311.70 222.689 3
-1 -2 11 1294.27 236.661 40
-1 2 11 1425.86 229.784 3
1 2 -11 1688.98 234.932 33
-1 -2 10 17153.4 750.461 40
1 2 -10 16004.6 737.330 39
1 2 -10 15189.8 728.306 35
-1 2 10 15497.1 710.935 3
-1 2 10 15467.1 726.762 40
-1 2 10 15710.2 767.276 38
1 2 -10 13004.9 1120.61 28
1 -2 -10 16802.7 737.201 37
1 -2 -10 16234.3 724.240 33
1 2 -10 13911.2 1083.85 23
-1 2 10 15205.0 729.777 8
1 2 -10 15624.6 723.539 33
1 -2 -10 16866.0 690.604 4
1 2 -10 17197.4 726.422 4
-1 -2 9 25410.4 1000.89 40
1 -2 -9 23630.5 976.870 33
-1 2 9 25621.1 1061.07 38
-1 2 9 23585.4 991.330 40
1 2 -9 25302.1 1008.58 35
1 -2 -9 23469.4 1448.80 28
1 2 -9 20164.0 1413.41 28
1 2 -9 24509.4 986.270 33
1 2 -9 19854.0 1335.39 23
1 2 -9 25268.4 1015.22 39
1 -2 -9 24044.2 1383.33 23
-1 2 9 24053.9 1647.83 32
1 -2 -9 21353.1 1253.64 31
-1 -2 9 19757.1 1317.67 1
-1 2 8 19746.3 868.620 38
1 -2 -8 18949.1 1169.16 28
-1 2 8 18418.2 803.044 40
1 2 -8 19068.3 793.600 33
1 2 -8 20039.1 825.158 35
1 2 -8 19614.8 1152.19 23
1 2 -8 18021.3 1183.82 28
-1 -2 8 20454.6 812.206 40
-1 -2 8 16851.8 1101.44 1
1 -2 -8 18960.3 1123.03 23
1 -2 -8 17777.4 1056.28 31
-1 -2 8 17135.0 1080.87 30
1 -2 -8 18945.3 791.073 33
-1 2 8 20133.5 1390.79 32
1 2 -8 20475.1 833.577 39
-1 -2 8 16336.5 1100.81 32
1 -2 -7 36537.7 1644.33 23
1 2 -7 35340.2 1356.70 39
-1 -2 7 34921.2 1581.55 30
-1 -2 7 35793.3 1648.15 32
-1 2 7 32182.9 1674.87 29
-1 -2 7 34778.3 1566.43 29
1 2 -7 34584.7 1629.72 23
-1 -2 7 35844.9 1326.16 40
-1 -2 7 31519.1 1595.74 1
1 -2 -7 35035.7 1592.70 31
-1 2 7 36165.8 1945.20 32
1 2 -7 34723.7 1682.41 28
1 2 -7 35405.0 1349.34 35
-1 2 7 37083.1 1410.10 38
1 -2 -7 35126.4 1678.55 28
-1 -2 6 14247.1 770.526 30
-1 -2 6 13936.2 792.627 1
-1 -2 6 13414.6 751.991 31
1 2 -6 13637.0 840.672 28
1 -2 -6 13809.1 826.078 28
-1 2 6 15122.5 1060.59 32
1 2 -6 13244.6 795.511 23
-1 2 6 12911.5 889.530 29
-1 -2 6 14949.2 825.456 32
1 -2 -6 14032.6 788.807 31
1 -2 -6 13684.2 795.694 23
1 -2 -5 241983. 8182.59 30
-1 -2 5 230122. 8190.65 31
-1 -2 5 234913. 8209.19 1
1 -2 -5 233012. 8258.96 28
-1 2 5 226855. 8416.54 29
1 -2 -5 226683. 8216.85 23
1 2 -5 224111. 8247.85 28
-1 -2 5 238083. 8212.10 30
-1 -2 5 250081. 8253.57 32
1 2 -5 224429. 8216.50 23
1 -2 -5 230586. 8237.65 31
1 -2 -4 289.785 145.680 31
-1 2 4 699.876 171.836 27
-1 -2 4 470.064 175.323 1
1 -2 -4 439.005 190.460 28
1 2 -4 781.182 178.741 23
-1 -2 4 443.042 156.731 31
-1 2 4 804.369 297.131 29
-1 -2 4 584.143 173.267 30
-1 2 4 585.252 337.415 32
-1 -2 4 539.572 198.416 32
1 -2 -4 652.121 164.403 23
1 2 -4 535.885 190.759 28
1 -2 -4 670.635 173.225 30
1 -2 -3 105734. 3679.47 30
-1 -2 3 101405. 3679.31 31
-1 2 3 104644. 3961.59 32
-1 -2 3 99424.0 3640.69 1
-1 2 3 102827. 3916.51 29
1 2 -3 102515. 3658.89 10
1 2 -3 95346.6 3625.62 23
-1 2 3 104481. 3711.84 27
1 -2 -3 99511.1 3631.95 23
1 -2 -3 106486. 3726.59 31
-1 -2 3 103100. 3697.02 30
-1 2 3 111180. 3776.00 12
1 -2 -3 98547.3 3768.07 2
1 2 -2 9915.48 506.640 9
-1 -2 2 9052.66 495.219 31
1 -2 -2 9146.41 431.616 23
1 -2 -2 9440.27 491.106 30
-1 2 2 9954.34 551.273 12
1 2 -2 8714.80 420.695 23
-1 2 2 9436.97 478.051 11
-1 2 2 8995.57 532.879 27
1 2 -2 9554.20 489.842 10
-1 2 2 10189.1 686.647 32
1 2 -2 9486.60 523.649 12
1 -2 -2 9444.42 521.640 31
-1 -2 2 8999.86 508.394 30
1 -2 -2 8632.88 557.178 2
1 -2 -1 14942.8 788.511 2
1 2 -1 13499.8 552.946 23
-1 2 1 15391.9 761.729 27
-1 2 1 14650.2 622.551 11
1 2 -1 14932.0 701.858 11
1 2 -1 15800.6 672.566 9
-1 2 1 13854.2 829.377 29
-1 -2 1 13155.8 694.132 2
1 -2 -1 15811.4 585.100 23
1 -2 -1 15313.8 683.947 30
-1 -2 1 14530.0 700.054 30
1 2 -1 14696.9 681.048 10
-1 -2 1 15558.8 704.616 31
1 2 -1 15860.1 702.191 12
-1 2 0 134492. 4591.15 11
1 2 0 133798. 4639.37 9
-1 2 0 128975. 4527.04 28
1 2 0 132621. 4700.24 10
-1 -2 0 133504. 4717.07 31
-1 -2 0 124161. 4663.32 2
1 2 0 135274. 4692.44 12
-1 2 0 133300. 4534.42 9
-1 -2 0 136568. 4726.00 30
1 -2 0 138100. 4865.49 2
1 2 0 133237. 4701.28 11
-1 2 0 137085. 4824.28 27
1 -2 0 133354. 4687.48 30
-1 2 0 133665. 4870.91 29
1 2 1 136503. 4842.25 11
-1 -2 -1 142347. 4871.10 31
-1 2 -1 140969. 4999.48 27
-1 -2 -1 133884. 4703.05 28
-1 2 -1 138094. 4708.13 28
-1 2 -1 134679. 4975.61 29
-1 -2 -1 122949. 4737.08 2
1 2 1 141521. 4834.10 12
1 -2 1 133336. 5007.77 2
1 -2 1 140626. 4857.98 31
-1 -2 -1 143583. 4876.11 30
-1 2 -1 138357. 4751.61 10
-1 2 -2 56949.6 2071.19 28
1 -2 2 58733.0 2177.20 31
-1 -2 -2 58346.2 2187.64 31
1 2 2 57127.8 2170.85 11
1 2 2 57367.0 2137.31 12
-1 -2 -2 54536.1 2061.90 28
-1 2 -2 55024.7 2010.61 10
1 2 2 57672.5 2179.55 10
1 -2 3 49589.1 1919.66 1
1 2 3 50835.7 1959.29 11
1 2 3 49366.8 1939.63 10
-1 2 -3 47764.2 1866.11 28
-1 -2 -3 45397.2 1853.44 28
1 -2 3 49739.6 1936.60 31
1 -2 3 48607.5 1923.00 30
1 -2 4 15962.6 820.809 31
1 2 4 15601.9 810.767 10
-1 -2 -4 14366.3 768.620 28
1 -2 4 16195.7 816.282 1
-1 2 -4 14661.6 773.718 28
-1 2 -4 14563.5 924.592 27
1 -2 4 15387.1 705.029 32
1 -2 4 15637.2 803.918 30
-1 2 -5 8941.70 758.253 27
1 -2 5 9395.45 550.993 32
1 -2 5 10165.2 647.865 1
-1 -2 -5 10256.2 645.837 28
1 -2 5 9834.65 638.421 30
1 2 5 10104.3 639.526 10
-1 2 -5 8903.08 635.129 28
1 -2 5 10363.8 666.864 31
-1 2 -6 12990.7 590.907 35
1 -2 6 13276.7 825.253 1
1 -2 6 14866.1 869.486 30
-1 2 -6 12932.9 837.789 28
1 2 6 12597.4 591.725 40
1 2 6 13291.0 794.144 10
1 -2 6 13944.6 573.244 40
-1 2 -6 12955.4 599.747 39
1 -2 6 12970.1 830.553 31
-1 -2 -6 12571.4 814.441 28
-1 2 -7 11327.7 549.515 35
-1 -2 -7 10406.4 801.346 28
1 2 7 10987.3 546.604 38
1 -2 7 10095.7 795.110 1
-1 2 -7 10244.6 807.441 28
1 2 7 12252.8 857.942 11
1 2 7 12872.3 786.022 10
1 2 7 11842.2 565.635 40
1 -2 7 11637.9 850.466 30
-1 2 -7 11190.3 518.784 33
-1 2 -7 11970.5 566.905 39
1 -2 7 11762.2 533.071 40
-1 -2 -8 29174.4 1528.58 28
1 2 8 28195.6 1400.38 10
1 2 8 27664.4 1132.13 40
1 2 8 26127.6 1104.04 38
-1 2 -8 26849.3 1082.24 33
-1 2 -8 25409.9 1497.12 28
-1 2 -8 28753.7 1116.44 35
1 -2 8 25859.0 1489.50 1
-1 -2 -8 26902.0 1080.43 33
-1 2 -8 28231.2 1125.14 39
1 -2 8 28843.6 1114.86 40
1 -2 8 25355.4 1508.13 30
1 2 8 28515.2 1525.94 11
-1 -2 -9 16948.1 735.853 33
1 2 9 13817.1 744.820 8
-1 2 -9 17260.0 769.774 39
-1 -2 -9 14738.9 1112.07 28
-1 2 -9 16179.2 1158.66 28
-1 2 -9 17196.4 740.311 33
1 -2 9 13573.7 1107.20 1
1 2 9 17310.2 789.778 40
-1 -2 -9 18631.9 762.866 37
1 2 9 17222.1 1170.86 11
1 -2 9 17693.8 793.730 5
-1 2 -9 17664.8 759.544 35
1 2 9 16135.1 734.815 3
1 -2 10 401.932 222.073 5
1 -2 10 280.235 177.624 3
-1 -2 -10 450.107 168.528 37
-1 -2 -10 410.359 162.032 33
-1 2 -10 471.977 185.251 39
1 2 10 317.678 176.745 8
1 2 10 594.821 227.085 40
-1 2 -10 543.841 177.344 35
1 2 10 402.973 188.098 3
-1 2 -10 371.713 164.102 33
1 -2 11 2509.58 304.940 5
1 2 11 2519.93 269.635 3
1 -2 11 2538.08 264.984 3
-1 2 -11 2938.01 261.286 35
-1 2 -11 2508.94 256.212 33
1 2 11 2533.95 305.098 40
-1 2 -11 2436.66 257.993 39
-1 -2 -11 2487.01 250.951 33
1 2 12 1485.36 221.217 3
1 -2 12 1863.17 260.243 5
1 -2 12 1603.80 220.529 3
-1 -2 -12 1497.58 205.509 33
1 2 12 1759.20 252.784 40
-1 2 -12 1893.90 215.748 33
1 2 12 1877.62 211.495 16
-1 2 -13 12746.8 620.064 33
1 2 13 15678.2 667.062 40
1 2 13 15070.0 602.022 16
1 -2 13 15564.0 663.614 5
1 -2 13 14726.3 626.750 3
-1 -2 -13 13283.7 622.408 33
1 2 13 14973.2 633.199 3
-1 -2 -13 15219.3 636.511 37
1 -2 14 12100.4 551.040 40
1 -2 14 12681.9 534.783 5
1 -2 14 13108.7 517.858 3
1 2 14 12545.6 519.232 3
-1 -2 -14 12491.2 523.932 37
-1 3 14 3060.41 196.468 16
1 3 -13 985.769 156.928 39
-1 3 13 1110.14 204.654 25
1 -3 -13 1037.78 136.166 34
1 -3 -13 1254.82 139.423 4
1 3 -13 1096.87 164.339 35
-1 3 13 1213.53 176.670 16
-1 -3 13 1133.53 185.774 40
-1 -3 12 373.949 209.329 5
1 3 -12 372.709 159.863 39
-1 -3 12 285.482 183.564 40
1 -3 -12 352.092 125.813 34
1 -3 -12 234.097 138.875 4
1 3 -12 172.886 154.462 35
-1 3 12 189.388 148.580 38
1 -3 -11 3461.43 284.846 37
-1 3 11 2952.03 293.946 38
1 -3 -11 3219.33 247.667 4
-1 -3 11 3110.21 327.509 5
-1 -3 11 3173.98 305.298 40
1 3 -11 3231.46 299.240 39
1 -3 -11 3048.39 259.213 34
1 3 -11 2829.89 289.532 35
1 3 -10 23330.0 1013.94 39
1 -3 -10 23895.9 1001.23 37
1 3 -10 23819.9 1011.57 35
1 -3 -10 24354.3 949.322 4
-1 -3 10 22870.4 1026.40 5
-1 -3 10 22681.6 997.466 40
-1 3 10 22500.9 1028.53 38
-1 3 9 3501.33 304.681 8
1 3 -9 4018.04 344.010 35
-1 -3 9 4242.63 330.515 40
-1 3 9 4366.31 375.709 38
1 -3 -9 4631.07 325.240 37
1 3 -9 3857.88 345.717 39
-1 -3 9 3512.79 342.940 5
1 -3 -9 4337.13 295.857 4
-1 -3 8 13218.9 660.980 5
-1 -3 8 13914.2 625.606 40
1 3 -8 13112.5 657.644 39
1 -3 -8 14522.2 633.895 37
-1 -3 8 10548.5 875.701 30
-1 3 8 12295.7 610.348 8
-1 3 8 12860.3 975.320 11
1 3 -8 13250.1 652.683 35
-1 3 8 13536.7 690.820 38
1 -3 -8 12428.3 911.975 31
1 -3 -8 13081.3 595.090 4
-1 3 7 2278.76 268.559 38
1 3 -7 2216.09 260.076 39
-1 -3 7 2343.21 224.793 40
-1 -3 7 2447.06 381.408 30
-1 -3 7 1863.24 366.270 32
1 -3 -7 2370.98 371.001 31
-1 3 7 2623.79 471.225 29
1 3 -7 1611.49 373.461 12
-1 3 7 2239.16 399.173 11
1 -3 -7 2612.68 229.910 37
1 -3 -6 22075.1 1134.32 30
1 -3 -6 24389.6 933.561 37
-1 -3 6 22096.7 1189.61 32
-1 -3 6 21914.0 1170.54 31
-1 3 6 24316.3 1258.43 11
-1 -3 6 24641.9 1212.46 30
-1 3 6 21626.2 935.486 41
1 3 -6 21813.8 1207.55 9
-1 -3 6 24238.3 916.084 40
1 3 -6 22622.4 950.188 35
1 -3 -6 23876.4 1238.97 31
1 3 -6 19397.0 1245.24 12
-1 3 6 20091.4 1340.26 29
-1 -3 5 8174.59 603.937 32
-1 -3 5 8213.67 607.579 30
-1 -3 5 6899.40 571.637 31
1 -3 -5 9071.61 414.016 37
1 -3 -5 8788.28 584.615 30
1 3 -5 7960.82 406.258 41
-1 3 5 8785.15 796.285 29
1 3 -5 8471.47 441.805 35
1 3 -5 8549.25 449.100 39
1 3 -5 8402.22 631.669 9
1 -3 -5 8815.73 644.171 31
-1 3 5 7772.34 612.605 11
-1 3 5 8292.41 437.683 41
1 3 -5 7192.41 646.192 12
1 3 -4 14785.5 809.118 9
-1 3 4 14361.3 1034.20 29
1 3 -4 13171.0 844.963 12
-1 -3 4 13812.0 748.172 1
1 -3 -4 15293.6 851.584 31
-1 3 4 14161.0 651.724 38
1 -3 -4 13964.5 591.795 34
-1 -3 4 13448.3 779.012 31
1 -3 -4 14977.1 791.261 30
-1 3 4 14309.7 796.528 11
-1 -3 4 14617.7 812.548 30
-1 -3 3 16784.2 1073.68 2
1 3 -3 20604.7 1047.19 12
1 3 -3 19750.1 957.958 9
1 -3 -3 21177.4 1039.14 31
-1 3 3 20107.6 950.001 11
1 3 -3 19525.5 936.799 10
1 -3 -3 20077.4 1051.69 2
-1 3 3 20308.4 1228.26 29
1 -3 -3 20796.2 984.375 30
-1 -3 3 19434.4 988.690 30
-1 -3 3 20110.0 989.340 31
-1 3 3 21119.2 1062.74 12
-1 -3 3 20589.0 938.681 1
-1 -3 2 5513.20 456.527 30
1 3 -2 6271.36 483.979 12
1 -3 -2 6930.75 535.820 2
1 3 -2 6101.04 442.082 10
-1 3 2 5752.58 487.147 27
1 3 -2 5799.22 425.789 9
-1 3 2 7295.52 527.124 12
-1 -3 2 4850.34 499.296 2
-1 3 2 5737.33 398.550 11
1 -3 -2 6795.45 460.841 30
-1 -3 2 6525.78 471.794 31
1 -3 -2 6721.78 493.601 31
-1 3 1 43525.4 2034.71 29
1 -3 -1 42661.9 1888.43 2
-1 3 1 46674.1 1869.02 12
1 3 -1 42291.5 1754.75 10
1 3 -1 42455.6 1788.95 12
-1 -3 1 43068.6 1794.49 31
-1 3 1 40481.5 1651.62 11
1 3 -1 44217.6 1768.38 11
-1 3 1 43611.4 1767.93 10
-1 3 1 43857.1 1877.97 27
-1 -3 1 43711.5 1800.68 30
1 -3 -1 44082.1 1769.18 30
-1 -3 0 6681.50 492.113 31
-1 3 0 7201.42 534.249 12
-1 3 0 6368.11 577.858 27
-1 3 0 5767.71 367.273 11
1 -3 0 6648.68 593.555 2
1 -3 0 7344.16 505.768 31
1 3 0 6735.22 479.044 12
1 3 0 6674.70 482.143 10
-1 3 0 6274.22 434.482 10
1 -3 0 6480.03 458.806 30
1 3 0 6418.14 465.844 11
-1 -3 0 6988.69 502.453 30
1 3 1 36851.4 1559.92 11
1 -3 1 36056.9 1551.25 30
1 3 1 36771.9 1585.03 10
-1 3 -1 39032.5 1662.75 12
-1 3 -1 33791.2 1450.39 10
1 -3 1 35745.0 1745.02 2
1 3 1 38091.2 1569.75 12
-1 -3 -1 38038.1 1615.30 31
1 -3 1 38551.4 1597.47 31
-1 3 -1 36294.1 1725.32 27
1 3 2 83548.0 3308.65 11
1 3 2 87623.4 3359.53 10
1 3 2 83367.7 3292.43 12
-1 3 -2 83003.3 3529.85 27
-1 3 -2 91739.2 3438.09 12
1 -3 2 89172.0 3344.24 31
-1 -3 -2 92806.0 3384.53 30
-1 -3 -2 89295.0 3389.60 31
1 -3 2 85493.6 3571.43 2
-1 3 -3 46068.0 1957.94 12
1 -3 3 42543.8 1828.11 30
-1 3 -3 38329.5 2005.40 27
-1 -3 -3 44695.3 1884.71 30
-1 -3 -3 43178.8 1885.68 31
1 3 3 40781.5 1830.17 11
1 -3 3 45778.6 1874.37 31
1 -3 3 44935.4 1844.70 1
1 -3 3 37930.7 2031.86 2
-1 3 -4 68765.6 3014.84 27
1 -3 4 71709.9 2751.70 1
1 -3 4 71643.3 2759.47 30
-1 3 -4 72689.9 2893.58 12
1 3 4 68402.6 2503.70 25
1 3 4 59075.8 2439.11 40
1 -3 4 74223.6 2642.87 32
1 3 4 68377.1 2485.41 38
-1 3 -4 67030.3 2472.66 35
-1 -3 -4 76190.6 2823.72 30
1 3 4 72732.9 2807.02 10
1 3 4 71309.1 2790.91 11
-1 3 -4 67076.2 2476.84 39
1 -3 4 72882.8 2786.06 31
1 -3 4 63123.4 3011.78 2
-1 -3 -4 70238.6 2811.82 31
1 3 5 4244.96 477.516 10
1 -3 5 4232.35 464.293 1
1 -3 5 4549.60 478.825 30
1 3 5 3906.39 483.587 11
1 -3 5 4335.49 266.975 40
-1 -3 -5 4398.71 271.650 37
1 3 5 3956.64 311.024 38
1 3 5 4132.49 298.140 40
1 -3 5 4436.04 492.830 31
-1 -3 -5 4225.23 473.807 30
-1 3 -5 3995.61 508.598 12
-1 -3 -6 6244.53 357.809 37
-1 -3 -6 7265.83 633.563 30
1 -3 6 5471.32 567.279 1
1 3 6 6099.19 389.411 38
-1 3 -6 5876.86 386.811 35
1 3 6 6437.32 638.176 11
1 -3 6 4540.48 580.559 31
-1 3 -6 5648.77 639.056 12
1 3 6 6058.93 386.765 40
1 3 6 6420.93 606.241 10
1 -3 6 6878.48 633.144 30
1 -3 6 6847.48 357.138 40
-1 -3 -6 6187.06 614.174 31
1 3 7 2887.70 427.330 10
1 3 7 3165.33 493.665 11
1 3 7 2926.76 298.341 40
1 -3 7 2966.01 255.882 40
-1 3 -7 2709.86 290.075 39
-1 -3 -7 2472.43 420.888 31
-1 -3 -7 3019.45 439.736 30
-1 3 -7 1923.79 428.856 12
1 -3 7 2390.97 416.717 1
1 -3 7 2845.22 465.162 30
-1 -3 -7 2709.03 248.934 37
-1 3 -7 2448.21 268.912 35
1 3 7 2727.16 274.740 38
1 3 8 15293.1 709.270 8
1 3 8 16496.8 677.130 19
1 3 8 16112.6 759.270 40
1 3 8 16800.8 756.125 38
1 -3 8 16709.7 733.092 40
1 -3 8 13764.8 1063.46 1
1 -3 8 15859.1 763.281 5
-1 -3 -8 15458.5 728.630 37
-1 -3 -8 13670.6 1009.14 30
-1 3 -8 16140.8 763.081 39
-1 3 -8 15972.3 750.570 35
1 -3 8 13244.9 1124.41 30
1 3 9 2769.96 316.769 40
-1 3 -9 2751.01 295.044 35
-1 3 -9 2576.25 298.174 39
1 3 9 2521.00 266.668 8
1 3 9 2922.71 276.301 38
1 -3 9 3235.54 300.610 40
-1 -3 -9 2666.55 267.496 37
1 -3 9 2737.51 318.278 5
1 3 10 16403.1 789.612 8
1 3 10 19017.5 836.227 40
1 -3 10 16879.7 825.417 5
1 3 10 18762.9 789.920 16
-1 -3 -10 18155.1 801.346 37
-1 3 -10 18725.8 826.309 39
1 -3 10 17424.8 807.994 40
-1 3 -10 18326.6 812.030 35
1 3 11 6450.32 384.416 16
1 -3 11 6882.74 423.609 40
-1 -3 -11 6675.17 387.797 37
1 3 11 6873.16 433.401 40
-1 3 -11 6658.09 411.124 39
-1 3 -11 6435.31 402.059 35
1 3 12 4693.24 295.523 16
1 -3 12 4595.32 327.540 40
-1 -3 -12 4732.43 290.845 37
-1 3 -12 4612.23 309.642 39
1 3 12 4387.47 350.678 25
-1 3 -12 4410.97 293.755 35
-1 -3 -13 1340.56 136.530 34
-1 -3 -13 1402.61 145.141 37
1 -3 13 1171.56 168.168 40
1 -3 13 1678.07 194.621 5
1 3 13 1235.79 181.887 25
1 3 13 1544.74 155.306 16
1 -3 14 1437.45 133.986 5
-1 -4 13 3566.99 230.046 5
1 4 -13 3252.72 187.649 18
-1 4 13 3331.14 199.885 16
1 -4 -12 2259.54 160.701 4
-1 -4 12 2809.60 244.547 5
-1 -4 12 2330.51 218.795 40
1 -4 -12 2461.87 182.714 34
1 4 -12 2125.43 206.961 39
1 -4 -12 2142.92 185.071 37
1 4 -12 2135.67 209.525 35
-1 4 12 1942.26 231.449 25
-1 4 12 2230.62 190.124 38
-1 -4 11 7829.86 446.793 6
-1 4 11 9218.99 486.260 38
1 -4 -11 9732.98 471.054 37
-1 -4 11 9956.64 489.395 40
-1 4 11 9645.23 474.525 8
1 -4 -11 10102.2 430.244 4
1 -4 -11 9094.70 451.058 34
1 4 -11 8685.39 483.832 35
-1 4 11 10065.4 546.583 25
-1 -4 11 9959.39 512.074 5
1 4 -11 9528.56 492.139 39
-1 4 10 1583.48 214.210 8
-1 4 10 1681.71 235.175 38
1 -4 -10 1656.41 199.260 34
-1 4 10 1343.82 264.175 25
1 4 -10 1401.14 241.155 39
-1 -4 10 1372.16 251.744 5
-1 -4 10 1591.83 234.574 40
1 -4 -10 1648.48 185.669 4
1 -4 -10 1832.48 211.957 37
1 4 -10 1488.97 227.076 35
-1 -4 9 477.886 222.582 5
-1 4 9 665.795 236.053 25
1 -4 -9 647.189 173.171 37
-1 4 9 545.630 172.927 8
1 4 -9 656.186 201.482 22
1 -4 -9 655.821 166.871 4
-1 4 9 616.933 202.385 38
1 4 -8 76130.2 2758.06 22
1 -4 -8 80137.5 2796.78 37
-1 -4 8 72842.5 2814.64 5
-1 4 8 76204.6 2906.49 25
1 4 -8 74400.4 2823.25 35
-1 4 8 76115.2 2869.68 38
-1 4 8 75984.9 2775.10 8
1 -4 -8 78754.0 2759.09 4
1 4 -7 4304.98 330.925 22
-1 4 7 4548.72 394.767 25
1 -4 -7 4557.32 322.429 37
-1 -4 7 4107.60 347.092 5
1 -4 -7 4104.68 310.037 4
1 4 -7 4387.46 366.941 39
1 4 -7 4333.01 352.726 35
1 -4 -7 4938.37 321.611 34
-1 4 7 4362.53 305.500 8
-1 4 7 4208.32 321.433 41
-1 4 6 1482.60 214.144 41
1 -4 -6 1670.74 222.902 4
-1 -4 6 1825.49 371.357 30
-1 4 6 1395.00 250.172 25
1 4 -6 1465.02 238.882 22
1 4 -6 1470.30 237.456 39
1 -4 -6 2139.53 384.466 31
-1 -4 6 1311.74 327.745 32
-1 4 6 1529.42 185.252 8
1 -4 -6 1623.19 200.242 37
1 -4 -6 1517.02 199.158 34
1 4 -6 1299.97 229.404 35
1 4 -6 1644.44 371.273 12
1 4 -5 5358.51 589.190 12
1 4 -5 6544.07 412.333 39
1 -4 -5 6669.70 367.019 37
-1 4 5 6747.59 436.123 38
1 -4 -5 6329.32 361.267 34
1 4 -5 6560.26 399.431 35
-1 -4 5 5483.67 564.027 31
1 -4 -5 5896.28 371.276 4
1 4 -5 5523.04 361.043 41
-1 4 5 7021.17 418.986 41
-1 -4 5 6094.89 596.264 32
1 -4 -5 4728.61 499.932 30
-1 4 5 6551.01 438.925 25
-1 4 5 6877.29 670.220 10
1 -4 -5 6764.30 642.790 31
-1 -4 5 5853.01 589.669 30
-1 4 4 3360.92 475.438 10
-1 4 4 3766.55 317.048 38
1 4 -4 3303.72 284.684 35
1 -4 -4 3937.94 262.172 34
-1 -4 4 3566.19 455.220 30
1 -4 -4 4412.39 509.491 31
1 4 -4 3425.22 293.001 39
-1 4 4 4035.22 313.273 41
1 4 -4 3305.04 446.565 12
1 -4 -4 3702.81 262.010 37
-1 -4 4 3081.84 417.959 31
1 4 -4 3051.37 265.895 41
-1 4 4 3481.94 312.397 25
1 -4 -4 3889.67 423.801 30
-1 4 3 1534.14 318.596 12
-1 4 3 1325.64 214.961 25
1 -4 -3 1907.71 177.248 37
1 4 -3 1942.34 334.387 12
1 -4 -3 1718.33 181.682 34
1 -4 -3 1553.27 310.141 31
-1 -4 3 1678.10 321.042 31
1 -4 -3 1172.43 269.937 30
1 4 -3 1502.05 198.964 39
1 4 -3 1379.87 191.195 35
-1 4 3 1584.79 219.549 38
-1 4 3 1685.10 223.168 41
-1 4 3 1439.39 320.746 10
-1 -4 3 1696.10 324.393 30
1 4 -3 1211.60 188.376 41
-1 -4 2 1625.21 304.860 30
-1 4 2 1975.49 337.581 10
-1 4 2 1632.18 213.428 41
-1 -4 2 1192.33 156.951 36
-1 -4 2 1320.60 296.958 31
1 4 -2 1389.41 273.793 10
-1 4 2 2067.96 353.524 12
1 4 -2 1324.32 283.174 12
-1 4 2 1455.02 216.523 25
-1 4 2 1455.73 209.151 38
1 -4 -2 1589.15 170.075 34
1 4 -2 1336.49 195.327 41
1 -4 -2 1761.68 288.855 30
1 -4 -1 59598.7 2477.63 30
-1 4 1 59472.4 2241.07 41
1 4 -1 61354.8 2481.35 10
-1 -4 1 60617.4 2535.10 31
-1 -4 1 57936.7 2511.03 30
1 -4 -1 61360.2 2172.29 34
1 4 -1 59242.4 2216.12 38
-1 4 1 65670.1 2628.18 12
-1 4 1 59816.5 2246.37 25
1 4 -1 60944.8 2521.37 12
-1 4 1 58217.9 2212.30 38
-1 4 1 62291.7 2479.89 10
-1 4 0 37841.0 1782.80 12
1 4 0 38012.9 1704.20 12
1 4 0 37307.7 1696.78 10
-1 4 0 36404.9 1410.52 38
-1 4 0 38372.3 1866.66 27
1 4 0 35187.2 1445.94 25
1 -4 0 35201.7 1708.77 31
-1 -4 0 37769.5 1745.70 31
-1 4 0 39766.8 1458.54 41
-1 4 0 36056.8 1603.88 10
1 4 0 35513.5 1422.19 38
1 -4 0 36930.3 1672.63 30
1 -4 0 36917.0 1372.09 34
1 4 0 35936.4 1428.16 41
1 -4 0 37097.8 1380.70 36
1 4 1 10598.6 739.828 11
1 -4 1 11528.8 519.301 36
1 4 1 11597.5 803.961 10
1 4 1 11244.5 774.127 12
-1 4 -1 12106.7 547.234 38
-1 4 -1 12733.6 584.710 41
1 4 1 11798.3 575.466 41
1 -4 1 11492.4 514.044 34
1 4 1 11412.4 573.663 38
1 4 1 11645.4 594.242 25
-1 4 -1 12136.7 857.191 12
-1 -4 -1 11828.6 830.631 31
1 -4 1 9924.75 872.382 2
-1 4 -1 12655.0 567.059 35
1 -4 1 12133.2 808.739 31
1 -4 1 11603.3 772.243 30
-1 4 -1 12536.0 973.731 27
-1 4 -2 12626.0 902.718 12
1 4 2 11936.9 806.430 12
-1 4 -2 12165.8 585.675 39
-1 -4 -2 13259.7 895.910 31
-1 4 -2 12137.7 1004.61 27
-1 4 -2 12651.7 598.983 41
1 -4 2 12020.0 540.475 36
1 4 2 13109.9 872.437 10
1 4 2 12915.9 600.913 41
1 -4 2 12433.1 841.639 31
1 -4 2 12332.7 536.312 34
-1 4 -2 12280.5 593.536 35
1 4 2 12831.0 631.032 25
1 4 2 13229.5 621.336 38
-1 -4 -2 11907.8 847.925 30
1 4 2 11600.8 805.033 11
1 -4 2 10033.8 936.097 2
-1 -4 -2 12722.7 551.598 34
-1 -4 -3 876.857 295.804 30
-1 4 -3 644.465 187.959 35
-1 4 -3 502.484 154.899 41
1 -4 3 528.987 124.285 36
1 4 3 686.927 192.628 25
1 4 3 479.964 235.262 11
-1 -4 -3 705.659 143.188 34
1 4 3 621.916 261.865 10
1 -4 3 366.701 217.813 31
1 -4 3 579.087 377.349 2
1 4 3 547.466 156.525 41
-1 -4 -3 718.881 276.617 31
1 -4 3 661.478 273.785 1
-1 4 -3 627.799 191.390 39
-1 4 -3 724.716 283.662 12
1 -4 4 779.985 286.073 30
-1 4 -4 896.020 298.439 12
1 -4 4 575.639 266.683 1
1 4 4 1135.18 317.360 11
1 4 4 487.537 146.732 41
1 4 4 562.749 183.357 38
1 4 4 579.678 196.839 25
1 -4 4 759.524 400.624 2
-1 4 -4 790.845 203.544 35
1 -4 4 653.091 250.486 31
-1 -4 -4 758.466 269.490 30
1 -4 4 729.326 148.801 40
-1 4 -4 923.722 198.041 39
1 -4 4 743.211 137.494 36
-1 -4 -4 879.901 299.391 31
-1 -4 -4 691.113 153.381 34
-1 4 -4 615.688 148.897 41
1 4 5 10136.0 856.203 11
1 4 5 11433.0 536.735 17
1 4 5 11421.5 561.233 16
1 4 5 11896.0 924.035 10
1 -4 5 10977.3 883.443 31
1 -4 5 10427.5 833.214 1
-1 -4 -5 12195.6 565.105 34
1 -4 5 8332.99 1028.87 2
1 -4 5 12151.3 547.025 40
1 4 5 13066.2 637.306 38
-1 -4 -5 11482.0 874.622 30
-1 4 -5 10236.9 928.291 12
-1 4 -5 11950.8 608.399 35
1 4 5 12290.7 653.211 25
-1 4 -5 12660.1 624.270 39
1 -4 5 10883.5 872.245 30
-1 4 -6 38414.6 1550.18 35
1 -4 6 38898.1 1486.07 40
-1 -4 -6 40397.1 1499.98 37
-1 4 -6 38533.0 1562.00 39
1 4 6 39602.5 1614.32 25
1 4 6 38233.7 1496.43 16
1 4 6 38541.9 1564.97 38
-1 -4 -6 40418.5 1516.17 34
1 -4 6 37709.2 1533.86 5
-1 -4 -7 5150.15 335.169 37
1 -4 7 4948.88 342.168 40
1 4 7 5115.88 322.949 19
1 -4 7 4724.54 377.755 6
1 4 7 4428.23 325.946 8
-1 -4 -7 4977.60 343.586 34
1 4 7 5241.10 388.483 38
-1 4 -7 5434.07 406.567 39
1 4 7 5643.21 365.765 16
1 4 7 5543.03 433.338 25
1 -4 7 4650.81 377.750 5
1 4 8 17170.5 780.528 38
-1 -4 -8 17336.5 737.533 37
1 4 8 14433.3 709.487 8
1 -4 8 16382.0 771.046 5
1 -4 8 16075.3 736.236 40
1 4 8 15773.0 690.001 19
1 4 8 17568.5 744.604 16
-1 -4 -8 16816.4 746.853 34
-1 4 -8 16459.8 777.971 35
1 -4 8 15296.9 744.956 6
1 4 8 16632.0 841.276 25
1 4 9 8796.72 435.796 19
1 4 9 8228.43 456.564 8
-1 -4 -9 9346.20 477.136 34
1 -4 9 8824.86 512.708 5
1 -4 9 9313.24 489.813 40
-1 4 -9 9051.03 522.225 39
1 4 9 9424.68 499.450 38
1 -4 9 8062.61 473.295 6
-1 4 -9 9782.35 516.989 35
1 4 9 8876.53 554.829 25
-1 -4 -9 8770.36 472.459 37
1 -4 10 442.140 154.336 6
1 4 10 561.043 143.050 38
1 4 10 451.864 182.126 25
-1 4 -10 558.900 180.151 35
-1 -4 -10 341.042 140.283 34
-1 -4 -10 412.632 142.329 37
-1 4 -10 658.376 189.376 39
1 -4 10 449.318 199.585 5
1 -4 10 430.806 176.327 40
1 4 11 4861.96 282.807 16
-1 4 -11 3540.67 276.269 35
1 -4 11 4008.79 302.755 5
-1 4 -11 3632.96 279.878 39
-1 -4 -11 3931.55 253.989 34
1 4 11 3828.17 312.148 25
1 -4 11 3855.55 282.830 40
-1 -4 -11 3987.90 256.887 37
1 -4 12 554.053 147.850 5
1 4 12 354.124 125.061 16
1 -4 13 876.805 107.278 5
1 5 -11 849.631 106.138 20
-1 5 11 1069.46 130.877 16
-1 -5 11 923.777 135.400 5
1 5 -11 809.297 99.4694 18
-1 -5 11 737.778 119.403 6
1 5 -10 12817.1 539.344 18
-1 5 10 13814.8 627.405 25
1 -5 -10 14037.2 562.785 34
-1 5 10 14145.8 560.549 16
1 5 -10 12745.1 582.576 35
-1 5 10 11211.0 552.013 8
1 -5 -10 12981.8 552.947 37
1 5 -10 12883.8 589.561 39
-1 5 10 13372.5 592.891 38
1 -5 -10 13180.9 521.964 4
-1 -5 10 12995.5 572.932 5
1 5 -10 14345.9 556.511 20
-1 -5 10 13290.0 580.581 6
1 5 -9 2376.20 247.683 35
1 5 -9 2623.85 253.958 39
-1 -5 9 2348.14 261.096 6
-1 5 9 3158.10 269.306 38
1 5 -9 2431.96 215.339 18
1 5 -9 2652.04 225.747 20
1 -5 -9 2502.52 215.585 34
1 -5 -9 2651.39 197.089 4
-1 5 9 2572.70 274.739 25
-1 5 9 2424.89 214.515 8
-1 5 9 2648.89 229.353 16
-1 -5 9 3008.93 251.836 40
1 -5 -9 2639.99 218.470 37
1 -5 -8 3348.57 257.677 37
-1 5 8 3766.48 335.982 25
1 5 -8 3591.06 288.874 35
1 -5 -8 3571.75 240.277 36
-1 5 8 3347.83 253.922 8
1 5 -8 3624.52 273.937 20
1 5 -8 3147.52 260.379 18
1 -5 -8 3705.90 269.010 34
-1 5 8 3253.54 232.998 19
-1 -5 8 3353.60 279.430 40
-1 5 8 3412.18 269.344 16
1 5 -8 3160.15 301.801 39
1 -5 -8 3530.17 247.370 4
1 -5 -7 6241.19 354.654 34
-1 -5 7 5789.66 356.704 40
1 5 -7 5232.72 354.124 22
1 -5 -7 5504.71 333.519 4
1 5 -7 5493.21 380.329 39
1 -5 -7 5468.73 336.263 37
-1 5 7 5078.62 322.625 8
1 5 -7 4997.19 332.916 18
1 5 -7 4820.09 367.264 35
-1 5 7 5306.91 342.833 41
-1 5 7 5484.44 417.122 25
1 5 -7 5557.13 355.359 20
-1 5 7 5136.28 333.404 16
1 -5 -7 5428.93 328.251 36
-1 5 6 9683.10 476.943 8
1 5 -6 9497.46 483.456 18
1 5 -6 10364.7 509.670 22
1 -5 -6 10338.5 505.227 34
1 5 -6 9017.99 523.355 35
-1 5 6 9670.25 522.248 41
-1 -5 6 10134.8 503.682 40
1 -5 -6 9853.53 488.054 36
1 -5 -6 9769.49 489.802 37
-1 5 6 9009.11 470.136 16
-1 5 6 9914.42 580.878 25
1 5 -6 9335.87 537.266 39
1 5 -6 10495.3 517.665 20
-1 5 6 9934.45 570.712 38
1 -5 -6 9441.60 483.621 4
-1 5 5 784.741 146.528 17
1 5 -5 802.618 198.721 35
1 5 -5 889.991 204.366 39
1 5 -5 1153.15 202.795 20
1 -5 -5 880.687 172.092 36
1 5 -5 658.127 166.587 41
-1 5 5 880.484 232.874 25
-1 -5 5 782.599 187.105 40
1 -5 -5 974.272 178.171 34
1 5 -5 1114.16 188.655 18
-1 5 5 948.205 157.241 8
-1 5 5 911.308 197.607 41
-1 5 5 978.017 225.983 38
1 -5 -5 1028.63 195.564 4
-1 5 4 355.659 195.032 41
1 5 -4 336.580 167.655 35
1 -5 -4 353.353 185.616 4
1 5 -4 431.588 158.784 18
1 -5 -4 572.841 168.931 36
1 5 -4 205.070 157.945 20
-1 5 4 427.579 127.542 17
1 5 -4 452.346 176.075 39
1 -5 -4 428.874 152.486 34
-1 5 4 485.574 205.955 38
1 -5 -4 462.103 161.981 7
-1 5 4 361.028 128.701 8
-1 5 4 323.843 199.000 25
1 5 -4 456.873 167.062 41
1 5 -3 16287.7 743.460 41
-1 5 3 15703.6 758.798 38
-1 5 3 17327.9 786.665 41
1 -5 -3 14867.8 711.057 7
1 5 -3 16613.7 717.401 20
-1 5 3 15577.2 676.218 17
1 -5 -3 15506.2 698.608 34
-1 5 3 15422.2 775.391 25
-1 -5 2 4912.38 311.466 36
-1 5 2 4876.32 363.908 38
1 5 -2 5399.74 371.542 41
1 5 -2 5429.29 345.600 20
1 -5 -2 5568.33 328.822 34
1 -5 -2 5407.31 333.965 36
1 -5 -2 4511.35 348.093 7
-1 5 2 5276.10 316.484 17
1 -5 -1 897.273 202.908 7
1 -5 -1 1015.09 174.461 36
-1 -5 1 2680.28 280.613 7
-1 5 1 1026.55 221.540 41
-1 -5 1 1189.21 184.261 36
1 -5 -1 897.531 160.244 34
-1 5 1 801.993 189.907 38
1 5 -1 2459.39 230.414 20
-1 5 1 827.762 154.125 17
1 -5 0 24434.2 989.146 34
-1 5 0 25299.2 1033.36 38
-1 5 0 24135.5 982.618 20
-1 -5 0 23855.8 1004.41 36
1 5 0 28191.1 1090.10 41
1 -5 0 23863.5 1058.12 7
1 5 0 24822.8 1007.83 17
1 5 0 24123.4 999.929 20
1 -5 0 24940.4 1004.07 36
1 5 0 24644.2 1062.36 38
-1 5 0 26404.7 1085.92 41
1 5 1 6449.32 374.371 17
1 5 1 6671.23 428.353 38
-1 5 -1 6684.03 394.241 38
-1 5 -1 7522.96 448.163 41
1 5 1 6855.19 435.056 41
1 -5 1 6561.81 370.367 36
-1 5 -1 6660.49 376.226 20
1 5 1 6240.49 373.465 20
1 -5 1 7371.97 473.167 7
1 -5 1 6248.82 360.338 34
1 -5 1 6955.60 439.240 6
1 -5 2 22295.7 967.184 6
-1 5 -2 21782.6 955.805 41
1 5 2 23585.4 978.030 41
1 5 2 23218.5 993.881 38
1 -5 2 22393.0 902.003 36
1 -5 2 20874.6 978.700 7
1 5 2 21867.5 909.022 17
-1 5 -2 21478.3 899.441 20
1 -5 3 18331.0 759.387 40
-1 5 -3 18980.9 816.467 41
1 5 3 19512.7 868.375 38
1 -5 3 18470.3 843.154 6
1 5 3 18337.8 877.855 25
-1 -5 -3 18904.7 784.647 34
1 5 3 19613.8 837.503 41
1 5 3 16993.1 765.748 17
-1 5 -3 18175.1 774.986 20
-1 5 -3 17032.5 803.324 39
1 -5 3 17934.6 760.038 36
-1 5 -3 17437.9 811.505 35
1 -5 4 5125.78 314.005 40
-1 5 -4 5096.69 330.581 41
-1 5 -4 4867.87 369.235 39
1 -5 4 4292.08 377.889 6
1 -5 4 5000.17 305.091 36
-1 -5 -4 5266.30 335.653 34
-1 5 -4 4577.21 319.455 20
1 5 4 5123.91 315.530 17
1 5 4 4858.93 341.207 41
-1 5 -4 5162.55 374.326 35
1 5 4 4641.89 393.209 25
1 -5 5 4971.61 396.858 6
1 -5 5 5038.56 328.330 40
1 5 5 5945.41 408.735 38
-1 5 -5 5262.00 390.920 39
-1 5 -5 4887.26 384.089 35
-1 -5 -5 5541.62 346.969 34
1 5 5 5304.75 342.264 16
-1 5 -5 4663.71 321.217 41
-1 5 -5 5195.15 332.440 20
1 5 5 5327.47 341.633 41
1 5 5 5716.04 436.693 25
1 5 6 7191.20 419.999 16
1 -5 6 7761.16 413.750 40
1 5 6 7836.09 514.271 25
-1 5 -6 7311.85 462.468 39
-1 5 -6 7310.84 460.350 35
1 5 6 8412.24 482.574 38
1 5 6 6955.25 396.061 19
-1 5 -6 7092.30 398.754 20
-1 -5 -6 8262.48 423.970 34
1 5 7 21198.4 873.107 16
1 -5 7 20620.8 912.557 6
-1 5 -7 20543.8 912.361 35
1 5 7 22661.9 938.769 38
1 -5 7 19849.0 861.186 40
-1 5 -7 21652.8 925.582 39
1 5 7 21949.3 976.939 25
-1 5 -7 20783.0 847.003 20
-1 -5 -7 22093.9 882.613 34
1 5 7 20537.8 848.570 19
-1 5 -8 2127.58 239.801 35
1 5 8 2178.64 270.289 25
1 -5 8 1972.30 229.329 5
-1 5 -8 2501.06 251.707 39
1 -5 8 1949.53 249.403 6
1 -5 8 1930.49 213.521 40
1 5 8 2308.75 228.275 16
1 5 8 2232.58 236.678 38
-1 -5 -8 1955.47 197.279 34
1 5 8 2268.25 203.101 19
1 -5 9 2670.39 237.494 5
1 5 9 2710.98 265.516 25
1 -5 9 2495.10 228.982 6
-1 5 -9 2551.13 239.665 39
-1 -5 -9 2515.29 204.949 34
1 5 9 2973.73 228.756 38
1 5 9 2739.30 193.530 19
1 -5 9 2293.08 215.156 40
1 5 9 3264.92 234.870 16
1 5 10 263.796 126.771 25
1 -5 10 232.583 108.512 6
-1 -5 -10 322.728 90.7411 34
1 5 10 389.036 128.934 16
1 -5 10 399.742 135.831 5
1 5 11 1264.22 122.654 16
1 -5 11 979.397 118.078 7
-1 -6 9 52.3884 100.812 6
-1 -6 9 56.3600 105.205 7
-1 -6 8 1700.34 195.297 7
-1 6 8 1588.63 128.191 19
1 6 -8 1677.27 137.171 20
1 -6 -8 1697.51 120.945 4
-1 -6 7 1158.62 156.995 40
1 -6 -7 1081.09 126.569 4
-1 -6 7 1394.18 203.754 6
1 -6 -7 1281.59 132.536 36
-1 6 7 1467.14 171.508 38
1 -6 -7 1216.06 138.984 34
1 6 -7 954.262 141.246 20
-1 6 7 1093.10 135.111 19
-1 -6 7 872.040 188.807 7
-1 6 6 1044.07 173.030 38
-1 -6 6 961.829 161.367 40
-1 6 6 1098.61 145.594 41
-1 -6 6 887.090 198.175 7
-1 -6 6 1039.83 204.983 6
1 -6 -6 924.572 136.185 36
1 6 -6 792.700 144.407 20
-1 6 6 914.180 148.722 19
1 -6 -6 768.608 139.400 34
1 -6 -6 1053.35 142.387 4
-1 6 5 142.088 128.828 41
-1 -6 5 136.450 163.060 7
-1 -6 5 150.555 136.089 40
-1 6 5 154.702 145.641 38
1 -6 -5 113.578 112.094 36
1 -6 -5 146.145 132.174 4
-1 -6 5 151.785 187.918 6
1 -6 -5 159.625 111.391 34
1 6 -5 118.778 128.114 20
-1 -6 4 1394.91 183.359 40
1 -6 -4 1338.24 187.404 4
1 6 -4 1435.82 186.944 20
-1 -6 4 1168.43 227.673 6
-1 6 4 1542.33 205.652 41
1 -6 -4 1657.39 178.854 34
-1 6 4 1199.22 193.934 38
-1 -6 4 1029.81 202.535 7
1 6 -3 2706.48 236.018 17
-1 -6 3 2603.34 260.069 7
1 6 -3 2671.29 248.453 41
1 6 -3 2716.20 233.078 20
-1 6 3 2852.03 272.104 41
1 -6 -3 2875.14 247.479 4
-1 6 3 2519.34 200.435 17
1 -6 -3 2541.28 216.814 7
-1 -6 3 2686.44 271.068 6
-1 6 3 3085.92 270.301 38
1 -6 -3 2626.94 223.557 34
-1 6 2 1588.27 202.177 38
1 6 -2 1469.08 208.417 41
-1 -6 2 1669.56 218.850 6
1 -6 -2 1140.15 205.033 4
1 -6 -2 1576.63 189.869 36
1 -6 -2 1348.34 193.288 7
-1 -6 2 1402.96 163.788 36
-1 6 2 1473.71 223.722 41
1 -6 -2 1753.06 182.982 34
1 6 -2 1597.36 194.565 20
1 6 -2 1676.17 193.423 17
-1 6 2 1426.21 164.607 17
-1 -6 2 1172.44 201.468 7
-1 6 1 122.835 160.065 41
-1 6 1 89.6173 114.370 17
1 -6 -1 70.5029 125.313 36
1 -6 -1 302.113 156.513 7
1 6 0 19991.9 811.839 41
1 6 0 18695.3 754.308 17
-1 6 0 17608.3 792.917 41
-1 6 0 16453.4 723.722 17
-1 -6 0 18495.3 747.973 36
1 -6 0 17284.1 737.276 36
1 -6 0 15321.9 759.448 7
1 -6 1 39538.3 1463.23 6
1 -6 1 36405.6 1491.84 7
1 6 1 40073.0 1505.35 41
-1 6 -1 39325.8 1501.03 41
1 -6 1 38298.2 1444.18 36
1 6 1 37699.8 1444.29 17
-1 -6 -1 37727.5 1453.31 36
-1 6 -1 37950.2 1442.35 17
-1 6 -2 908.404 170.692 41
1 6 2 922.046 177.422 41
1 -6 2 1007.71 152.797 36
-1 6 -2 1014.13 164.863 17
-1 -6 -2 694.955 153.653 4
1 6 2 826.889 153.080 17
1 -6 2 805.807 207.646 7
1 -6 2 861.298 140.935 40
1 -6 2 910.002 204.412 6
-1 -6 -2 852.133 166.135 36
1 -6 3 7986.81 395.212 36
1 -6 3 8459.64 459.446 6
1 -6 3 7079.44 382.905 40
1 6 3 9300.19 478.235 38
-1 -6 -3 8561.74 428.536 36
1 -6 3 8096.47 475.616 7
-1 6 -3 7877.92 426.883 41
1 6 3 8569.72 409.332 17
-1 6 -3 8054.75 390.948 20
1 6 3 8461.44 442.883 41
1 6 4 19261.4 791.733 19
1 -6 4 18377.6 768.217 40
1 6 4 19965.8 802.754 41
-1 6 -4 18526.8 788.974 41
-1 -6 -4 19783.3 808.288 36
1 -6 4 19181.1 838.709 6
1 6 4 22588.4 874.721 38
-1 6 -4 19827.1 767.342 20
1 -6 4 19553.4 869.857 7
1 -6 5 967.488 141.247 40
1 6 5 955.087 161.491 19
1 -6 5 1165.93 204.779 6
1 -6 5 1078.86 210.175 7
1 -6 6 1717.23 167.033 40
1 -6 6 2084.77 228.242 6
1 6 6 2697.50 225.044 38
-1 6 -6 2054.75 193.685 35
1 6 6 2166.69 183.072 19
-1 -6 -6 2079.54 183.436 36
1 -6 6 2234.89 248.282 7
1 6 7 102.470 106.115 38
1 6 7 53.6550 109.010 19
-1 -6 -7 81.9296 82.2321 36
1 -6 7 68.0259 141.680 7
1 6 8 633.357 97.3565 19
1 -6 8 648.325 119.785 6
1 7 -5 471.300 65.8232 17
-1 7 4 5956.74 254.058 19
1 7 -4 5779.37 252.252 17
1 -7 -3 5071.92 235.750 4
-1 -7 3 4503.33 242.177 4
1 7 -3 5450.84 244.593 17
-1 7 3 5282.90 247.780 19
-1 -7 2 1555.19 134.207 4
1 7 -2 1655.67 130.498 17
1 -7 -2 1576.69 138.198 4
1 -7 -1 703.089 118.600 4
1 7 -1 2189.85 143.636 17
-1 -7 1 1744.17 138.031 4
-1 7 0 7279.97 311.573 17
1 -7 0 6961.05 336.800 4
1 -7 0 6773.28 320.848 7
1 7 0 8270.93 333.312 17
1 7 0 7862.97 323.811 19
1 -7 1 2419.35 186.015 4
1 -7 1 1842.66 162.529 7
1 7 1 2165.96 155.710 19
-1 7 -1 2426.90 145.632 17
1 -7 2 10860.0 464.595 4
-1 7 -2 11103.0 435.432 17
1 7 2 11670.9 449.473 19
1 -7 2 10753.9 459.503 7
1 -7 3 12215.3 508.603 4
1 7 3 13612.1 494.000 19
1 -7 3 13049.2 511.421 7
-1 7 -3 11762.8 476.130 17
1 -7 4 1500.96 128.151 7
-2 0 16 3439.84 204.249 3
-2 0 15 201.901 150.989 3
2 0 -15 156.770 117.129 4
2 0 -15 97.5096 128.644 33
-2 0 14 267.097 188.135 3
2 0 -14 324.083 153.969 4
2 0 -14 443.472 157.141 33
2 0 -13 15.6277 148.094 4
-2 0 13 122.446 209.429 3
2 0 -13 32.2825 173.885 33
-2 0 13 -9.23442 159.826 40
-2 0 12 35862.9 1376.12 3
2 0 -12 35981.1 1398.45 33
-2 0 12 33008.9 1357.97 40
-2 0 12 32965.7 1352.43 5
2 0 -12 36305.1 1340.61 4
-2 0 12 33269.9 1396.13 38
-2 0 11 32117.6 1277.78 40
2 0 -11 34061.4 1248.24 4
-2 0 11 32750.0 1279.68 3
2 0 -11 34168.3 1310.01 33
-2 0 11 33370.6 1338.48 38
-2 0 10 21584.5 880.556 40
2 0 -10 20260.5 889.962 33
2 0 -10 20694.5 1336.51 23
2 0 -10 20565.0 1394.43 28
-2 0 10 17718.6 1349.78 32
2 0 -10 20176.3 829.342 37
-2 0 10 21891.6 940.707 38
2 0 -9 1573.07 378.852 23
2 0 -9 1771.61 173.522 37
2 0 -9 2215.18 412.497 28
-2 0 9 1727.80 208.908 40
2 0 -9 2691.37 220.183 33
-2 0 9 1625.97 447.284 32
-2 0 9 1665.64 250.655 38
2 0 -8 11109.5 825.618 28
-2 0 8 10513.6 858.255 32
2 0 -8 10493.9 495.095 33
-2 0 8 10319.3 551.741 38
2 0 -8 10378.8 771.021 23
-2 0 8 10028.1 766.860 29
-2 0 7 36987.5 1686.49 29
2 0 -7 36761.7 1687.45 23
-2 0 7 36159.6 1753.31 32
2 0 -7 37067.6 1730.38 28
2 0 -6 1424.31 318.720 28
-2 0 6 1236.81 300.880 29
2 0 -6 1329.98 280.659 23
-2 0 6 1278.40 348.602 32
-2 0 5 14200.5 764.379 29
2 0 -5 13189.9 718.618 23
2 0 -5 11877.2 727.336 28
2 0 -4 66129.8 2634.83 23
-2 0 4 72807.9 2710.23 32
2 0 -4 67531.7 2672.65 28
-2 0 3 151.551 199.118 32
2 0 -3 -24.1592 194.747 28
2 0 -3 225.040 162.799 23
2 0 -2 710468. 23810.7 9
-2 0 2 678920. 23870.5 29
-2 0 2 650073. 23845.0 32
-2 0 1 255051. 8234.82 29
-2 0 1 227062. 8116.75 12
-2 0 1 235725. 8182.00 32
2 0 -1 214721. 8168.14 9
2 0 -1 272640. 8214.28 2
2 0 -1 258144. 8255.89 23
2 0 0 437686. 15496.5 11
-2 0 0 409397. 15534.3 29
2 0 0 531874. 15642.0 23
-2 0 0 434854. 15475.2 32
-2 0 0 470069. 15578.7 27
2 0 0 520342. 15582.7 2
-2 0 -1 363073. 10427.9 28
2 0 1 333438. 10444.0 2
-2 0 -1 275829. 10388.7 27
2 0 1 321908. 10491.2 23
-2 0 -1 298984. 10266.1 32
2 0 1 306656. 10334.2 11
2 0 1 301520. 10322.9 10
2 0 1 295203. 10338.6 1
-2 0 -1 276123. 10315.2 29
-2 0 -2 127046. 4293.12 28
2 0 2 122040. 4161.99 10
2 0 2 117915. 4200.32 11
2 0 2 118595. 4230.51 1
-2 0 -2 113527. 4256.03 27
2 0 3 153.396 194.089 1
2 0 3 202.085 93.1826 10
-2 0 -3 104.537 156.595 27
-2 0 -3 -13.6335 171.291 28
-2 0 -4 564.120 218.213 28
2 0 4 525.252 221.479 1
-2 0 -4 679.178 190.443 27
2 0 4 530.460 114.569 10
-2 0 -5 46416.3 1887.66 28
2 0 5 41028.0 1663.13 32
-2 0 -5 44407.5 1790.30 27
2 0 5 46569.9 1880.65 1
-2 0 -6 27543.3 1346.12 28
2 0 6 25475.2 1334.48 1
-2 0 -7 2286.23 391.692 28
2 0 7 1725.69 212.212 24
-2 0 -7 1879.42 196.367 33
2 0 7 1707.56 390.521 1
-2 0 -8 6303.07 663.361 28
2 0 8 5543.59 371.060 24
2 0 8 6193.52 681.689 1
-2 0 -8 6739.82 371.998 33
-2 0 -9 2279.52 483.083 28
2 0 9 2752.38 285.038 24
-2 0 -9 3174.41 280.690 33
2 0 9 3246.97 286.597 3
2 0 10 -49.2331 195.033 3
-2 0 -10 31.2062 174.367 33
2 0 11 17519.4 824.315 40
2 0 11 16821.3 789.997 3
-2 0 -11 18149.8 799.210 33
2 0 12 52181.4 2030.46 40
2 0 12 53559.4 2005.43 3
-2 0 -12 54640.9 2016.37 33
-2 0 -13 211.211 115.440 37
2 0 13 378.131 195.874 3
-2 0 -13 344.715 151.462 33
2 0 13 398.654 185.082 40
2 0 14 19886.3 840.105 40
2 0 14 22211.1 840.089 3
-2 0 -14 20853.5 837.536 33
2 0 15 2938.86 183.489 3
-2 -1 16 438.792 94.6379 3
-2 1 16 268.126 89.5573 3
2 -1 -15 5395.54 228.356 4
-2 1 15 5942.01 258.793 3
-2 -1 15 6018.75 257.856 3
2 -1 -15 5077.15 250.670 33
2 1 -15 5178.61 250.771 33
-2 -1 14 1577.56 198.935 40
-2 -1 14 1810.98 228.761 3
2 -1 -14 1761.00 196.081 4
2 1 -14 1377.03 199.952 4
2 -1 -14 1756.05 216.926 33
-2 1 14 1810.61 228.628 3
-2 -1 14 1678.27 213.062 5
2 -1 -14 1392.81 154.686 37
2 1 -14 1407.56 213.770 33
-2 -1 13 4491.49 339.769 40
2 1 -13 4746.05 325.474 4
-2 -1 13 5175.31 344.140 3
2 1 -13 4650.92 348.864 33
2 -1 -13 4864.47 315.229 4
-2 1 13 5591.39 355.900 3
-2 1 13 4417.47 335.919 38
2 -1 -13 4810.42 351.130 33
-2 -1 13 4513.45 356.783 5
2 -1 -13 3700.32 279.313 37
2 1 -12 26778.6 1058.64 4
-2 -1 12 25179.4 1074.46 40
2 -1 -12 27170.3 1046.23 4
-2 1 12 22318.6 1079.29 8
2 -1 -12 26212.8 1046.58 37
-2 -1 12 26222.4 1101.18 5
2 -1 -12 26001.1 1071.80 7
-2 -1 12 26570.9 1074.98 3
-2 1 12 27110.5 1082.41 3
2 -1 -12 27003.2 1101.93 33
2 1 -12 27326.0 1104.54 33
-2 1 12 24732.1 1109.69 38
2 -1 -11 10048.3 521.442 33
2 1 -11 10175.3 524.344 33
-2 1 11 9305.49 509.690 3
-2 1 11 9333.34 554.900 38
-2 1 11 8563.34 499.057 8
2 -1 -11 8006.57 486.037 7
-2 -1 11 9245.46 510.968 40
-2 -1 11 9349.08 504.571 3
2 -1 -11 9638.21 480.236 37
-2 -1 11 8903.74 531.003 38
2 1 -11 9584.44 486.914 4
2 -1 -11 9617.31 469.114 4
2 1 -11 8812.39 487.081 35
-2 1 10 11300.6 563.285 8
2 -1 -10 10313.6 996.511 28
2 1 -10 8808.74 957.117 28
2 -1 -10 9201.01 884.591 23
2 -1 -10 11122.6 564.261 33
2 -1 -10 12141.9 538.785 37
-2 -1 10 11442.0 607.999 38
-2 1 10 12319.7 630.497 38
2 1 -10 10853.6 948.386 23
2 -1 -10 10706.2 517.425 4
-2 1 10 9916.96 1037.40 32
2 1 -10 11256.4 553.384 35
2 -1 -10 10995.6 541.161 7
-2 -1 10 11019.7 551.454 3
-2 -1 10 11145.1 553.866 40
2 1 -10 11439.4 539.104 4
-2 1 10 11780.6 565.376 3
-2 -1 10 8349.20 902.434 32
2 1 -10 11253.2 548.696 39
2 1 -10 11770.5 575.090 33
2 -1 -9 3129.63 239.853 37
2 1 -9 2998.95 538.628 28
2 -1 -9 3288.90 527.264 28
2 1 -9 3116.30 258.739 35
-2 -1 9 3025.64 255.893 40
-2 1 9 3335.14 323.283 38
2 -1 -9 3526.05 262.283 33
2 -1 -9 2514.57 429.401 23
-2 1 9 2644.63 544.500 32
-2 -1 9 2520.29 512.401 32
2 1 -9 2474.85 448.053 23
2 1 -9 3538.66 263.926 33
2 1 -9 3204.30 257.716 39
-2 -1 8 10164.5 756.689 29
-2 -1 8 11389.7 499.591 40
-2 1 8 8172.34 736.737 29
2 -1 -8 11029.5 493.774 37
2 1 -8 10880.1 512.071 33
2 1 -8 10479.1 506.995 39
2 1 -8 10303.8 794.029 23
-2 1 8 11141.7 580.578 38
2 1 -8 11119.8 859.157 28
2 -1 -8 10310.7 797.682 23
2 -1 -8 10802.1 510.668 33
-2 -1 8 10595.5 837.761 32
2 -1 -8 11468.8 855.064 28
-2 1 8 11483.8 974.886 32
2 1 -8 11353.3 512.063 35
-2 -1 7 11483.7 738.813 29
-2 -1 7 10689.3 767.636 32
2 -1 -7 11375.2 785.507 28
-2 -1 7 8980.96 689.799 1
2 -1 -7 12055.0 768.121 23
2 1 -7 11039.2 754.678 23
-2 1 7 11072.9 877.361 32
-2 1 7 8237.82 708.883 29
2 1 -7 10911.1 778.040 28
-2 -1 6 86662.2 3058.80 29
2 1 -6 77488.8 3088.09 28
2 -1 -6 76376.3 3083.30 28
2 1 -6 77603.6 3049.79 23
2 -1 -6 79098.1 3049.21 23
-2 -1 6 70936.9 2973.30 1
-2 1 6 76665.2 3103.49 29
-2 -1 6 86202.5 3108.55 32
-2 -1 6 77260.1 2877.08 30
-2 1 5 176161. 6330.05 29
-2 -1 5 156933. 6151.67 1
-2 -1 5 200304. 6271.08 29
2 1 -5 166369. 6254.73 28
2 -1 -5 170613. 6263.37 28
-2 1 5 176740. 6404.85 32
2 1 -5 171356. 6224.83 23
-2 -1 5 187826. 6267.62 32
-2 -1 5 171507. 6068.98 30
2 -1 -5 174239. 6226.07 23
-2 -1 4 107044. 3972.11 1
2 1 -4 112413. 4089.41 28
-2 1 4 118902. 4186.92 29
2 -1 -4 111569. 4088.75 28
2 1 -4 114296. 4059.33 23
2 -1 -4 116103. 4060.21 23
-2 1 4 119608. 4225.31 32
-2 -1 4 110429. 3923.24 30
2 -1 -4 112475. 3878.14 30
2 -1 -4 111732. 3943.09 31
-2 -1 4 107130. 3907.02 31
-2 1 3 225278. 7739.76 32
-2 1 3 237714. 7620.15 12
2 -1 -3 221843. 7462.67 30
2 1 -3 217539. 7607.78 23
2 -1 -3 219036. 7610.37 23
2 -1 -3 221461. 7490.16 9
2 -1 -3 210831. 7656.46 2
-2 -1 3 195585. 7497.15 30
-2 1 3 239262. 7671.87 27
-2 -1 3 215376. 7509.93 1
2 -1 -3 218894. 7522.41 31
-2 -1 3 230752. 7618.45 32
-2 -1 3 207766. 7473.68 31
2 1 -3 224475. 7600.49 9
-2 1 2 339061. 11433.2 29
2 -1 -2 352553. 11206.6 9
-2 1 2 359196. 11399.3 27
-2 1 2 360346. 11326.0 12
-2 -1 2 305774. 11190.0 1
2 1 -2 325521. 11321.8 23
-2 -1 2 306115. 11241.9 30
2 1 -2 333899. 11313.0 9
-2 1 2 332584. 11403.8 32
2 -1 -2 347953. 11252.7 31
-2 -1 2 285868. 11198.8 31
2 -1 -2 350104. 11204.1 30
2 -1 -2 334623. 11324.5 23
-2 1 1 337060. 10044.1 29
-2 -1 1 267701. 9835.91 31
2 -1 -1 310687. 9944.97 23
2 1 -1 249657. 9782.96 12
-2 1 1 319325. 9925.32 12
-2 -1 1 285621. 9874.22 30
2 1 -1 281796. 9919.83 23
2 -1 -1 321734. 9846.52 30
2 1 -1 309157. 9919.78 9
-2 1 1 310639. 9966.78 32
2 -1 -1 303880. 9866.30 31
-2 1 0 156962. 5693.53 27
2 -1 0 165738. 5665.03 23
2 1 0 152143. 5634.21 23
-2 1 0 160534. 5611.56 12
-2 1 0 155234. 5592.19 32
2 -1 0 157361. 5563.81 30
2 1 0 159071. 5602.93 9
2 -1 0 156665. 5577.56 31
-2 1 -1 51831.6 1919.02 28
-2 -1 -1 46795.4 1886.57 28
-2 -1 -1 45100.0 1815.05 27
2 1 1 52117.0 1896.23 10
-2 1 -1 54532.3 2018.84 27
2 -1 1 51360.3 1994.00 23
2 1 1 48047.0 1944.32 23
2 -1 1 53670.9 1898.58 30
2 -1 1 51811.3 1902.53 31
2 1 1 50782.9 1905.34 11
-2 1 -2 52948.8 1839.07 28
-2 -1 -2 49062.1 1820.02 28
-2 1 -2 49859.9 1780.72 29
2 1 2 51451.1 1819.69 11
2 -1 2 47547.3 1652.12 11
2 -1 2 46169.9 1616.50 32
2 1 2 52363.9 1795.03 10
-2 1 -2 53605.3 1941.73 27
-2 -1 -2 42218.5 1646.89 27
-2 1 -3 101547. 3653.49 28
-2 1 -3 97899.4 3729.60 27
2 1 3 99306.8 3631.33 11
-2 -1 -3 97006.3 3642.65 28
2 1 3 100788. 3584.72 10
2 1 4 93477.8 3391.54 10
2 1 4 96798.6 3481.31 11
-2 -1 -4 89234.8 3481.68 28
-2 1 -4 93036.0 3494.91 28
2 -1 4 93095.1 3527.02 30
-2 1 -4 92335.5 3568.53 27
-2 1 -5 15791.2 897.439 28
-2 -1 -5 16461.8 912.475 28
-2 1 -5 15223.4 929.849 27
2 1 5 16235.4 789.389 10
2 1 5 17379.9 896.091 11
2 -1 5 17253.0 932.528 30
-2 -1 -6 419.924 218.369 28
2 -1 6 177.827 250.304 1
-2 1 -6 765.465 244.680 27
2 -1 6 470.016 253.722 30
2 1 6 409.462 233.224 11
-2 1 -6 584.803 250.916 28
2 1 6 319.298 160.134 10
-2 -1 -7 9439.92 762.570 28
2 1 7 9912.27 735.467 11
2 1 7 9006.26 499.189 24
-2 1 -7 9873.99 471.844 33
2 -1 7 10149.1 481.456 40
-2 -1 -7 10150.5 472.333 33
2 -1 7 9727.54 473.949 24
2 1 7 9430.32 495.069 40
2 -1 7 9661.14 788.197 1
2 -1 7 9328.37 464.889 34
-2 1 -7 8975.66 765.560 28
-2 1 -7 9904.20 475.989 39
2 1 8 957.960 213.893 40
2 -1 8 1012.84 364.956 1
-2 1 -8 564.991 334.237 28
-2 -1 -8 822.321 328.898 28
2 1 8 794.907 278.537 11
2 -1 8 739.062 165.905 24
-2 1 -8 845.396 163.480 33
2 -1 8 883.951 198.600 40
-2 -1 -8 769.157 168.182 33
2 -1 9 2500.01 287.413 40
2 1 9 2997.85 465.865 11
-2 -1 -9 2573.86 254.675 33
2 -1 9 2539.78 260.725 24
2 1 9 2674.55 301.645 40
-2 1 -9 3269.59 526.950 28
2 -1 9 2537.78 271.261 5
2 -1 9 3092.16 547.805 1
-2 -1 -9 2472.64 486.501 28
-2 1 -9 2465.35 255.658 33
2 -1 9 2492.76 265.070 3
2 1 9 2774.35 270.958 3
2 -1 10 7231.19 459.563 5
2 1 10 7374.49 447.147 3
2 1 10 8416.26 498.644 40
2 -1 10 7539.99 475.461 40
2 -1 10 7660.74 444.879 3
-2 1 -10 7874.90 450.880 33
2 -1 10 6432.82 442.096 24
-2 -1 -10 8507.26 457.220 33
2 -1 11 12962.3 646.681 5
-2 1 -11 13607.6 649.250 33
2 1 11 13864.9 692.444 40
2 1 11 14424.9 655.541 3
2 -1 11 13689.2 645.482 3
-2 -1 -11 13826.7 650.033 33
2 -1 12 8423.64 473.781 5
-2 -1 -12 9152.48 464.152 37
2 1 12 9654.59 523.635 40
2 -1 12 8975.90 486.015 3
-2 1 -12 8411.17 477.678 33
-2 -1 -12 9196.82 484.315 33
2 1 12 9514.76 495.922 3
2 1 13 4627.31 313.976 3
2 -1 13 4421.15 307.548 3
-2 1 -13 4039.25 297.430 33
-2 -1 -13 4233.10 299.174 33
2 1 13 4893.05 327.537 40
-2 -1 -13 3917.43 274.710 37
2 1 14 6519.49 355.395 40
2 -1 14 7101.99 344.443 3
2 1 14 7581.35 352.914 3
-2 1 -14 6293.36 333.795 33
-2 -1 -14 5935.59 312.546 37
-2 -1 -14 6373.33 336.752 33
-2 2 15 1046.62 105.792 16
2 -2 -15 1201.31 117.897 4
-2 -2 15 1356.50 149.952 5
2 2 -14 3437.89 250.930 33
2 -2 -14 3742.55 257.353 33
2 -2 -14 4082.39 250.525 4
-2 -2 14 3305.67 261.185 40
-2 -2 14 4173.81 261.681 3
2 -2 -14 3774.59 238.607 37
-2 -2 14 4027.83 296.642 5
-2 2 14 4332.33 264.548 3
2 -2 -13 10785.6 523.027 37
-2 -2 13 11038.2 528.838 3
-2 -2 13 10605.1 544.794 40
2 -2 -13 12124.1 525.102 4
-2 2 13 10439.6 551.988 38
2 -2 -13 10648.4 537.812 33
-2 2 13 11996.4 537.811 3
2 2 -13 10935.2 545.450 33
-2 -2 13 11548.9 582.433 5
2 2 -12 36.9134 151.018 39
2 -2 -12 62.3613 137.624 37
2 -2 -12 7.59270 142.585 4
-2 -2 12 -80.9634 187.597 3
-2 2 12 160.423 180.304 3
-2 2 12 87.3163 170.539 38
-2 -2 12 123.625 208.242 5
2 2 -12 168.514 153.203 35
-2 -2 12 -121.269 179.125 40
2 -2 -12 91.5452 135.519 7
2 -2 -12 87.2722 161.023 33
2 -2 -12 85.2064 107.546 34
2 2 -12 89.4218 167.741 33
-2 2 12 191.214 171.084 8
-2 2 11 1305.38 243.740 38
2 2 -11 1028.83 204.141 4
-2 2 11 1033.08 219.472 3
-2 2 11 889.493 204.607 8
2 -2 -11 1101.75 183.469 7
2 2 -11 737.891 193.918 39
-2 -2 11 1007.32 223.300 40
-2 -2 11 952.296 206.986 3
2 -2 -11 917.432 201.501 33
2 2 -11 704.671 194.559 33
2 2 -11 1051.96 204.151 35
2 -2 -11 1309.44 190.648 4
2 -2 -11 946.041 184.041 37
-2 2 10 7860.71 448.708 3
2 -2 -10 7703.85 439.168 7
2 -2 -10 9021.08 458.446 37
-2 -2 10 8310.67 462.266 40
-2 2 10 8709.78 466.020 8
2 -2 -10 8333.70 451.551 33
-2 2 10 8333.72 517.719 38
2 2 -10 7866.59 455.446 4
2 2 -10 8268.27 467.703 39
2 2 -10 7539.63 446.704 33
2 -2 -10 8200.99 428.660 4
2 2 -10 7976.43 469.767 35
2 2 -10 6624.11 765.024 23
2 -2 -9 12485.0 1036.34 28
2 -2 -9 12403.0 977.770 23
2 2 -9 14394.6 664.591 39
2 -2 -9 13158.3 628.678 33
2 -2 -9 15229.2 645.961 37
-2 -2 9 14665.8 640.517 40
2 2 -9 11284.6 975.758 23
2 2 -9 14148.5 641.759 33
2 2 -9 11955.0 1050.78 28
2 2 -9 13783.1 656.082 35
-2 2 9 14432.7 723.694 38
-2 -2 9 10751.1 957.039 32
-2 2 9 14480.2 1257.49 32
-2 -2 8 30422.9 1570.94 29
-2 2 8 30482.9 1720.43 29
-2 2 8 34955.6 1378.08 38
2 -2 -8 33850.4 1666.54 23
2 -2 -8 33793.7 1720.30 28
2 2 -8 30820.5 1651.19 23
2 2 -8 33195.3 1280.99 33
2 2 -8 34140.0 1306.62 35
2 -2 -8 35313.6 1293.81 37
2 2 -8 33927.2 1309.59 39
2 2 -8 30817.6 1707.98 28
2 -2 -8 32093.4 1273.78 33
-2 -2 8 29399.1 1645.66 32
-2 2 8 31272.6 1916.80 32
2 -2 -8 31554.7 1505.65 31
-2 -2 8 34607.3 1275.03 40
2 2 -7 81523.7 3338.89 23
-2 2 7 89627.2 3091.48 38
2 -2 -7 85484.2 3410.55 28
2 2 -7 79462.4 3384.19 28
-2 -2 7 85832.7 2979.48 40
-2 -2 7 91472.6 3417.60 32
2 -2 -7 82259.3 3341.13 23
2 2 -7 82904.0 3017.00 39
2 2 -7 82512.6 3008.56 35
2 -2 -7 85744.8 3235.80 31
-2 2 7 76796.1 3460.90 29
-2 -2 7 80206.7 3339.40 29
-2 2 6 116910. 4620.07 29
-2 2 6 120435. 4416.70 27
2 2 -6 112407. 4402.55 23
2 -2 -6 120009. 4341.12 31
-2 -2 6 119247. 4304.09 30
-2 -2 6 120133. 4443.20 32
2 -2 -6 117016. 4455.14 28
2 2 -6 112826. 4450.34 28
2 -2 -6 119284. 4420.18 23
-2 -2 5 9046.97 558.751 1
2 -2 -5 10357.7 588.283 31
2 2 -5 9369.18 608.797 23
2 -2 -5 9568.19 517.705 30
-2 -2 5 9368.91 533.247 31
-2 2 5 11832.7 685.622 27
-2 -2 5 10810.0 656.141 32
-2 2 5 10400.7 835.412 32
-2 2 5 10998.7 794.310 29
-2 -2 5 10599.2 575.619 30
2 -2 -5 9496.01 601.544 23
-2 2 4 99863.3 3887.06 29
-2 2 4 104469. 3732.73 27
2 -2 -4 96620.0 3616.71 23
-2 -2 4 95871.1 3535.28 1
2 2 -4 92479.1 3608.10 23
2 -2 -4 100938. 3767.37 2
-2 -2 4 103573. 3679.43 32
-2 2 4 104718. 3710.85 12
2 -2 -4 98251.4 3536.55 30
-2 -2 4 93542.5 3546.89 31
2 -2 -4 103273. 3625.65 31
-2 -2 4 98013.8 3589.29 30
2 2 -4 103458. 3676.40 9
-2 2 4 96760.1 3909.36 32
2 -2 -3 10700.3 502.861 30
-2 2 3 10693.6 632.976 27
2 -2 -3 10195.0 539.200 23
-2 -2 3 9342.33 500.529 31
2 2 -3 9100.21 529.685 12
2 2 -3 9863.83 556.839 10
2 -2 -3 9646.87 646.007 2
2 2 -3 11192.4 598.422 9
-2 2 3 11055.9 610.772 12
2 2 -3 9695.05 538.650 23
2 -2 -3 10175.2 548.038 31
-2 -2 3 8920.15 459.165 1
-2 2 3 9732.24 718.564 32
-2 -2 3 9993.76 537.574 30
-2 2 2 2779.87 398.859 29
2 -2 -2 3208.02 271.018 23
-2 2 2 2474.32 321.428 27
-2 2 2 3155.00 307.334 12
2 2 -2 2477.07 235.412 12
2 2 -2 2403.79 243.841 23
2 2 -2 2461.88 274.570 10
-2 -2 2 1989.28 190.055 1
2 -2 -2 2941.85 367.841 2
-2 2 2 2430.65 379.285 32
2 2 -2 2842.58 295.454 9
2 -2 -2 2617.84 258.936 31
-2 -2 2 2385.74 239.262 31
2 -2 -2 3019.22 236.262 30
-2 -2 2 2965.95 276.200 30
-2 2 1 40096.3 1724.64 29
-2 2 1 39664.5 1653.90 27
2 -2 -1 38478.9 1481.91 30
2 -2 -1 41759.0 1540.42 31
-2 2 1 42610.8 1603.29 12
2 2 -1 40220.0 1577.48 11
-2 2 1 36290.2 1378.59 11
2 2 -1 38864.2 1542.50 10
2 2 -1 42663.1 1544.17 9
2 2 -1 38614.9 1480.93 23
2 -2 -1 40568.6 1703.64 2
2 2 -1 35982.7 1458.32 12
2 -2 -1 43577.3 1527.99 23
-2 -2 1 37674.8 1510.10 31
-2 -2 1 40833.8 1557.13 30
-2 -2 1 31959.6 1427.83 2
-2 -2 0 118353. 4697.14 28
2 2 0 141714. 4797.19 9
2 2 0 128057. 4750.93 23
2 2 0 135862. 4842.38 11
-2 2 0 140281. 4983.91 27
-2 2 0 148030. 4897.57 12
2 -2 0 134713. 4776.52 30
2 -2 0 139418. 5031.34 2
2 2 0 132252. 4728.59 12
2 -2 0 143440. 4811.96 23
-2 2 0 136574. 4984.69 29
-2 2 0 134122. 4715.38 28
2 -2 0 136685. 4815.30 31
-2 -2 0 139636. 4823.01 31
-2 -2 0 141720. 4855.17 30
-2 2 -1 229295. 8254.85 29
-2 -2 -1 219170. 8035.90 28
-2 2 -1 251518. 8221.60 12
2 2 1 230067. 8140.83 10
2 -2 1 235211. 8370.87 2
-2 -2 -1 244076. 8160.31 31
2 -2 1 229483. 8105.48 30
2 2 1 224711. 8037.09 12
-2 2 -1 239368. 8054.69 28
-2 2 -2 13743.3 671.617 28
-2 -2 -2 13206.5 655.866 28
2 -2 2 12624.2 868.391 2
-2 2 -2 14231.7 769.428 12
2 2 2 14009.8 723.709 10
2 -2 2 13463.7 704.334 30
-2 -2 -3 22628.5 1077.86 28
2 2 3 24378.4 1126.67 10
2 -2 3 25291.1 1146.17 1
-2 2 -3 24529.6 1295.56 27
2 -2 3 26524.6 1165.65 31
-2 2 -3 24696.8 1099.14 28
-2 -2 -4 126.105 184.688 28
2 -2 4 356.417 215.355 1
-2 2 -4 340.669 276.410 27
-2 2 -4 428.163 200.221 28
2 2 4 503.558 205.136 10
2 2 4 321.311 220.864 11
2 -2 4 267.149 189.605 31
2 -2 4 378.509 198.944 30
-2 2 -5 42545.5 1910.70 28
-2 2 -5 40800.0 2070.62 27
2 -2 5 45511.8 1965.79 31
-2 -2 -5 43098.3 1906.46 28
2 2 5 45956.5 1971.78 11
2 2 5 44246.9 1880.74 10
2 -2 5 46125.3 1941.67 1
2 -2 5 48034.1 1987.90 30
-2 2 -6 41862.1 1918.14 28
-2 -2 -6 43984.5 1929.57 28
2 2 6 46766.9 1985.33 11
-2 2 -6 42040.3 1594.96 35
2 -2 6 44370.1 1572.44 40
2 2 6 40132.1 1599.50 40
2 -2 6 40720.2 1559.74 34
2 -2 6 43439.9 1934.81 1
-2 2 -6 41522.8 1602.18 39
2 -2 6 41540.3 1536.37 36
-2 2 -6 42756.2 2098.64 27
2 -2 6 45889.1 1995.63 30
2 2 6 43456.1 1850.13 10
2 -2 7 50474.4 2265.12 1
-2 2 -7 48306.9 2241.69 28
-2 -2 -7 48496.1 2231.43 28
-2 2 -7 50003.6 1845.39 35
2 2 7 55162.8 2302.61 11
-2 -2 -7 47098.0 1802.76 33
-2 2 -7 49275.6 1855.06 39
2 2 7 48164.7 1861.05 40
-2 2 -7 50368.2 1813.25 33
2 2 7 52047.7 2132.44 10
2 -2 7 45392.5 1809.91 34
2 -2 7 51386.2 1833.69 40
2 -2 7 49737.8 2307.04 30
2 -2 8 19908.9 840.103 24
2 2 8 21902.2 1286.89 11
-2 2 -8 17043.5 1210.06 28
-2 -2 -8 18098.2 1213.78 28
2 -2 8 19003.0 1260.54 1
2 -2 8 20698.1 862.950 40
2 -2 8 18338.6 825.861 34
2 2 8 20196.1 896.003 40
-2 2 -8 20502.6 839.893 33
2 -2 8 20394.9 887.828 5
-2 2 -8 20145.8 861.299 35
-2 -2 -8 19991.1 834.778 33
-2 2 -8 20589.4 879.138 39
-2 2 -9 8362.60 463.369 35
2 -2 9 7219.91 442.555 24
-2 2 -9 8564.10 477.661 39
2 -2 9 7981.21 492.990 5
2 2 9 7424.33 451.925 3
2 -2 9 8557.46 486.735 40
-2 2 -9 8403.01 451.998 33
2 2 9 8932.43 506.654 40
-2 -2 -9 7800.68 436.460 33
2 2 9 8052.42 439.841 16
-2 2 -10 4207.93 339.104 39
-2 -2 -10 4466.09 331.376 37
2 2 10 4976.72 386.684 40
2 -2 10 4442.18 376.156 5
-2 -2 -10 4028.44 312.384 33
2 2 10 4262.43 315.317 16
-2 2 -10 4702.15 330.089 35
2 -2 10 4024.04 324.219 3
-2 2 -10 4679.70 328.648 33
2 -2 10 4189.20 356.199 40
2 2 10 4615.03 340.611 3
2 -2 11 1005.43 208.758 3
2 -2 11 1300.85 240.435 5
2 2 11 1382.58 258.065 40
2 -2 11 1083.90 236.528 40
-2 -2 -11 1035.49 188.308 37
2 2 11 1105.69 218.322 3
-2 2 -11 1018.29 189.263 33
-2 -2 -11 1187.33 195.675 33
2 2 11 1146.68 196.977 16
2 -2 12 1403.49 204.270 3
2 -2 12 1537.29 224.915 5
2 2 12 1382.02 206.467 3
-2 2 -12 1038.04 172.884 33
2 2 12 1620.32 239.225 40
-2 -2 -12 1405.84 187.429 33
2 -2 12 1536.27 224.281 40
-2 -2 -12 1358.60 179.456 37
2 2 12 1356.41 179.651 16
2 -2 13 3554.41 240.880 3
2 -2 13 3398.87 252.376 5
2 -2 13 3258.55 263.975 40
2 2 13 3697.93 249.609 3
2 2 13 3813.10 275.524 40
-2 2 -13 3300.39 226.424 33
-2 -2 -13 2876.89 220.576 33
2 -3 -14 2391.45 168.027 4
-2 3 14 2884.99 193.627 16
2 -3 -13 723.288 142.847 4
-2 3 13 678.775 174.291 25
-2 -3 13 739.336 164.432 40
2 3 -13 923.751 157.359 39
2 -3 -13 620.568 134.398 37
-2 3 13 806.550 154.809 38
-2 -3 13 590.735 198.619 5
2 -3 -13 589.420 110.750 34
2 3 -12 1629.64 210.819 22
2 -3 -12 1318.20 163.411 34
-2 -3 12 1450.46 221.226 40
2 3 -12 1462.38 215.310 39
-2 3 12 1847.88 228.743 38
-2 3 12 1440.02 218.862 8
2 -3 -12 1864.95 200.419 4
-2 -3 12 1299.49 249.378 5
2 -3 -12 1723.72 196.672 37
2 3 -12 1746.97 221.130 35
-2 3 11 3325.08 318.960 38
-2 -3 11 2929.49 322.522 5
2 -3 -11 2899.81 252.851 34
2 3 -11 3113.48 296.468 39
-2 3 11 2832.92 284.184 8
2 3 -11 2767.87 272.604 22
2 -3 -11 3161.62 254.866 4
2 3 -11 3561.44 307.069 35
-2 -3 11 3177.46 292.196 40
2 3 -10 4475.07 369.323 35
-2 3 10 5282.54 413.186 38
-2 -3 10 4622.19 354.410 40
2 3 -10 4585.23 367.448 39
-2 3 10 4839.10 351.525 8
-2 -3 10 4126.18 383.068 5
2 -3 -10 5213.96 326.594 7
2 -3 -10 4971.11 325.656 34
2 -3 -10 4962.20 320.535 4
2 -3 -9 20106.9 830.188 37
2 -3 -9 18561.1 798.651 34
2 -3 -9 18697.8 797.370 7
2 3 -9 17897.5 835.570 35
-2 -3 9 17633.8 854.805 5
2 3 -9 18191.8 850.961 39
2 -3 -9 18543.7 786.833 4
-2 3 9 17967.1 885.315 38
-2 -3 9 19037.0 815.923 40
2 -3 -8 44215.7 1592.58 37
2 3 -8 42741.0 1624.50 39
-2 -3 8 36750.7 1923.83 29
-2 3 8 41565.8 2007.84 11
2 -3 -8 42173.2 1556.56 4
-2 3 8 41437.0 2397.37 32
2 -3 -8 42577.1 1568.84 34
2 3 -8 42695.6 2049.44 9
2 -3 -8 38264.7 1889.17 31
2 -3 -8 41986.2 1562.02 7
-2 -3 8 33730.9 1953.15 32
-2 -3 8 43998.3 1575.33 40
2 3 -8 40955.9 1554.76 14
2 3 -8 31622.4 1900.57 12
-2 3 8 38429.2 1580.94 41
2 -3 -7 15965.8 710.979 37
-2 -3 7 17824.5 708.637 40
2 3 -7 13347.8 980.991 12
-2 3 7 14863.0 728.789 41
-2 3 7 15646.1 1019.54 11
-2 -3 7 14379.5 1007.61 32
2 3 -7 16613.7 1064.46 9
-2 3 7 15671.7 1201.49 29
2 -3 -7 15600.6 970.963 31
2 -3 -7 17698.2 709.326 34
-2 3 6 51504.2 1926.59 41
2 3 -6 50941.4 2228.18 9
-2 3 6 51281.5 1959.67 38
-2 3 6 52803.4 2203.57 11
2 3 -6 42474.0 2154.82 12
2 3 -6 51786.7 1914.80 39
-2 3 6 50418.3 2605.13 32
2 -3 -6 53229.2 2197.73 31
2 -3 -6 52421.5 1872.40 34
-2 3 6 50780.2 2494.02 29
2 3 -6 50628.6 1898.53 35
2 -3 -6 50417.8 1877.07 37
-2 -3 6 51923.3 2230.01 32
-2 -3 6 47601.8 2117.62 30
-2 3 5 4827.56 337.524 38
2 3 -5 4275.65 280.237 41
2 3 -5 3580.05 428.491 12
2 3 -5 3989.12 304.271 39
2 3 -5 4601.76 309.116 35
-2 3 5 4831.90 448.760 11
-2 3 5 4588.05 321.780 41
2 -3 -5 4993.69 284.792 37
-2 3 5 4570.40 630.289 29
-2 3 5 4516.13 667.777 32
2 3 -5 4132.19 468.394 9
-2 -3 5 4997.60 483.908 32
-2 -3 5 4063.40 416.551 30
2 -3 -5 5179.26 463.975 31
2 -3 -5 4814.30 391.256 30
-2 3 4 7166.42 744.804 29
2 3 -4 5994.76 335.108 41
-2 3 4 6591.13 382.844 41
-2 3 4 6349.95 379.809 38
2 -3 -4 6674.60 596.492 2
2 3 -4 5178.69 478.920 12
2 -3 -4 6781.03 334.258 37
-2 3 4 6165.29 462.487 11
2 -3 -4 7047.98 468.340 30
-2 3 4 6380.96 371.250 25
2 -3 -4 6961.41 519.893 31
-2 -3 4 5518.22 458.469 31
-2 -3 4 6172.16 497.459 30
2 3 -4 5366.76 515.026 9
-2 3 4 7260.59 565.498 12
-2 3 3 21439.0 1022.31 11
-2 3 3 26176.2 1256.88 27
-2 3 3 24811.7 1217.52 12
2 -3 -3 25204.1 1098.21 30
2 3 -3 23186.5 1125.22 12
-2 -3 3 22927.6 1106.96 31
2 3 -3 25423.4 1156.53 9
2 3 -3 24231.7 1136.39 10
2 -3 -3 25142.8 1280.49 2
2 -3 -3 24622.4 1163.28 31
-2 -3 3 24130.3 1151.35 30
-2 3 2 1115.78 382.657 29
2 -3 -2 1181.84 290.677 2
-2 3 2 1387.54 280.797 12
-2 3 2 1219.24 301.618 27
2 -3 -2 1132.43 208.249 30
2 3 -2 958.665 208.749 12
-2 -3 2 986.172 217.278 31
2 3 -2 1229.56 254.238 9
2 3 -2 1186.74 238.349 10
2 -3 -2 1513.26 251.689 31
-2 -3 2 1212.16 242.556 30
-2 3 1 5000.21 605.599 29
2 3 -1 5805.97 481.280 11
-2 3 1 6335.12 507.987 12
2 3 -1 5301.45 416.552 12
2 3 -1 5698.10 460.648 10
2 -3 -1 5223.38 548.406 2
-2 3 1 5256.60 546.769 27
-2 -3 1 5921.81 468.326 31
2 -3 -1 6209.40 458.951 31
-2 -3 1 5609.52 469.513 30
2 -3 -1 5401.44 411.230 30
2 3 -1 5553.67 429.516 9
2 3 0 10114.2 664.474 11
-2 3 0 11750.4 725.193 12
-2 3 0 10841.7 585.498 10
2 3 0 10686.9 675.067 10
2 3 0 10630.0 602.788 9
-2 3 0 10804.2 799.865 27
2 3 0 10357.7 600.254 12
2 -3 0 10672.2 808.960 2
-2 3 0 10755.2 826.964 29
-2 -3 0 11035.2 688.823 31
2 -3 0 11141.2 668.862 31
-2 -3 0 11667.0 706.857 30
2 -3 0 10574.5 625.123 30
2 3 1 63211.3 2506.76 12
-2 3 -1 68280.0 2707.64 12
-2 -3 -1 70323.2 2670.96 31
2 -3 1 65825.2 2861.14 2
-2 3 -1 65849.5 2829.66 27
2 3 1 62831.3 2605.75 11
-2 -3 -1 71991.3 2687.72 30
2 -3 1 61890.2 2558.02 30
-2 3 -2 60531.3 2656.14 27
-2 3 -2 61620.6 2513.63 12
-2 -3 -2 62029.1 2469.72 31
2 -3 2 56983.3 2674.87 2
2 3 2 58826.2 2427.06 11
-2 -3 -2 59952.5 2464.24 30
2 -3 2 55557.6 2367.99 30
2 3 3 210850. 7368.10 11
2 -3 3 213874. 7340.53 1
2 3 3 197244. 7007.36 38
-2 3 -3 199250. 7594.92 27
-2 3 -3 219758. 7479.01 12
2 3 3 212811. 7353.51 10
2 -3 3 207686. 7348.88 31
-2 3 -3 194627. 7010.46 35
-2 -3 -3 218276. 7411.91 31
2 -3 3 196905. 6950.55 36
-2 3 -3 202157. 7017.78 39
2 -3 3 198899. 7676.58 2
-2 3 -4 13101.5 625.266 39
2 3 4 14024.1 645.913 25
2 -3 4 13463.8 554.485 40
2 3 4 12079.3 855.361 11
2 3 4 13662.1 865.842 10
-2 3 -4 14792.5 954.983 12
2 3 4 12946.0 605.613 38
2 -3 4 13312.1 873.077 31
2 -3 4 13043.4 562.088 34
2 -3 4 13183.7 851.468 1
-2 -3 -4 15299.4 937.042 31
2 -3 4 12862.8 553.068 36
-2 -3 -4 14574.6 918.010 30
2 3 4 11716.6 597.909 40
2 -3 4 12288.8 1066.99 2
2 -3 5 14443.8 1283.66 2
-2 3 -5 16130.9 1250.76 27
-2 3 -5 17309.5 774.928 35
-2 3 -5 19549.7 1184.15 12
2 -3 5 17547.7 718.069 40
2 3 5 18577.6 773.461 38
2 -3 5 16849.9 702.218 36
2 -3 5 18587.5 1079.63 30
-2 -3 -5 17581.1 735.116 37
-2 -3 -5 18456.8 1118.19 31
2 3 5 16810.1 771.311 40
2 -3 5 18567.8 1072.72 1
2 3 5 18929.0 1125.14 11
2 -3 5 17211.6 719.115 34
2 -3 5 14820.0 1045.03 31
2 3 5 17433.6 1047.00 10
2 -3 6 2389.01 566.508 2
2 -3 6 3052.90 249.014 40
2 -3 6 3069.74 460.982 1
2 -3 6 2531.26 222.394 34
-2 3 -6 3280.24 299.928 39
-2 3 -6 2544.91 458.291 12
-2 -3 -6 2882.48 243.372 37
2 3 6 2948.91 296.470 40
2 -3 6 2534.45 208.213 36
-2 3 -6 3000.40 287.071 35
2 3 6 3136.39 444.906 10
2 3 6 2770.91 456.059 11
2 3 6 2639.57 257.771 38
-2 -3 -6 2733.13 450.097 31
2 -3 6 2332.08 428.355 31
2 -3 6 2651.28 444.360 30
2 -3 7 37843.8 2483.94 2
2 3 7 44876.7 1653.91 19
2 3 7 45700.5 1751.65 40
2 -3 7 44964.2 1741.12 5
2 -3 7 45827.6 1690.68 40
2 3 7 38990.6 1667.69 8
2 3 7 46622.9 1715.07 38
2 -3 7 43236.5 1692.93 6
2 3 7 45894.5 2099.85 10
2 -3 7 42413.7 1668.69 34
-2 3 -7 46345.1 1753.06 39
2 -3 7 42370.6 2137.68 1
2 3 7 46552.9 1693.27 16
-2 -3 -7 47466.0 1705.96 37
-2 3 -7 45922.7 1739.80 35
2 -3 7 48721.0 2271.58 30
2 -3 8 8769.88 537.666 5
2 -3 8 8414.62 483.483 6
2 3 8 8888.33 486.834 38
2 3 8 10342.4 562.813 40
-2 -3 -8 10131.5 502.277 37
2 -3 8 9354.95 499.185 40
2 3 8 7714.05 477.052 8
-2 3 -8 9849.74 533.600 35
2 3 8 9473.08 462.622 19
2 3 8 10211.4 501.500 16
-2 3 -8 9174.51 537.639 39
2 3 9 34997.2 1437.18 40
2 -3 9 34497.6 1390.39 40
2 -3 9 33913.0 1422.15 5
-2 -3 -9 36216.3 1383.84 37
2 3 9 34689.2 1335.18 19
-2 3 -9 35738.1 1409.29 35
-2 3 -9 35227.1 1423.92 39
2 3 9 36011.1 1374.04 16
2 3 10 1339.00 219.166 16
2 3 10 1754.52 267.498 40
2 -3 10 1494.66 238.680 40
-2 -3 -10 1778.26 211.484 37
-2 3 -10 1464.85 222.762 35
-2 3 -10 2022.76 255.076 39
-2 3 -11 6005.05 363.533 35
2 3 11 6139.16 413.006 25
2 3 11 6041.02 399.180 40
2 -3 11 5449.34 378.494 40
2 3 11 6735.56 360.933 16
-2 3 -11 5638.32 372.973 39
-2 -3 -11 5953.49 352.397 37
2 3 12 4968.43 338.533 25
2 -3 12 5517.13 337.787 5
-2 3 -12 4482.82 292.973 39
-2 -3 -12 4755.02 285.883 37
2 3 12 5728.67 297.485 16
2 -3 12 4674.61 310.229 40
2 -3 13 590.796 140.598 5
2 3 13 479.280 103.694 16
2 -4 -13 1436.75 121.446 4
-2 -4 13 1821.56 179.051 5
2 4 -13 1713.65 145.959 18
2 4 -12 2465.98 221.314 39
-2 4 12 2533.67 245.417 25
2 4 -12 1847.68 211.043 35
2 -4 -12 2623.12 188.507 4
-2 -4 12 2489.40 223.905 40
2 -4 -12 2530.72 198.712 37
2 -4 -12 2281.75 178.313 34
-2 -4 12 3263.74 261.271 5
-2 4 12 2757.71 224.530 38
2 4 -11 760.637 184.347 39
2 -4 -11 1139.20 160.693 4
-2 4 11 834.112 181.900 38
-2 4 11 879.341 208.122 25
-2 -4 11 734.655 210.638 5
2 4 -11 860.587 176.488 22
2 -4 -11 791.879 152.375 37
2 4 -11 849.763 186.512 35
-2 4 11 764.710 169.014 8
2 -4 -11 708.503 139.421 34
-2 -4 11 943.395 184.412 40
-2 4 10 454.989 195.464 38
2 4 -10 301.725 187.997 39
2 -4 -10 292.286 153.644 4
-2 -4 10 241.040 203.925 5
2 -4 -10 299.020 145.636 37
-2 -4 10 260.507 171.330 40
2 4 -10 402.282 194.559 22
-2 4 10 62.0779 149.683 8
2 -4 -10 352.852 135.953 34
-2 4 10 348.105 204.274 25
-2 4 9 25879.9 1190.84 25
-2 -4 9 27406.3 1108.97 40
2 -4 -9 26858.8 1069.01 7
-2 -4 9 27170.9 1139.14 5
2 4 -9 26657.2 1084.30 22
2 -4 -9 28830.2 1115.64 37
-2 4 9 26626.6 1095.86 8
2 -4 -9 27178.0 1097.64 34
2 -4 -9 26989.7 1074.76 4
2 -4 -8 24809.8 1009.84 4
-2 4 8 24780.9 1123.55 25
-2 4 8 23793.1 1038.12 41
2 4 -8 25141.5 1076.98 39
2 4 -8 25215.3 1027.94 22
2 -4 -8 27280.2 1050.03 37
-2 4 8 25161.1 1022.80 8
2 -4 -8 24164.2 977.495 36
2 -4 -8 24953.7 1007.67 7
2 4 -8 24110.8 1066.50 35
-2 -4 8 26217.1 1038.38 40
-2 -4 8 23651.7 1054.23 5
-2 4 7 1405.24 192.104 8
2 4 -7 1528.64 260.046 22
2 -4 -7 1336.41 209.486 4
-2 4 7 1396.03 257.697 25
-2 4 7 1589.77 274.312 38
-2 -4 7 1291.55 214.331 40
2 4 -7 1633.18 250.108 39
2 4 -7 1244.52 236.811 35
2 -4 -7 1282.53 209.196 37
-2 4 7 1431.13 224.151 41
2 -4 -7 1334.90 193.997 7
-2 4 6 7633.42 467.231 41
-2 4 6 7504.19 489.466 25
2 4 -6 7771.27 450.383 22
-2 -4 6 6422.67 659.967 32
-2 4 6 7479.55 407.514 8
2 -4 -6 7609.61 426.861 4
2 4 -6 7402.68 457.844 39
2 -4 -6 7875.24 418.405 34
2 -4 -6 7992.17 426.749 37
-2 4 6 7586.94 490.191 38
2 -4 -6 7440.93 422.947 7
2 -4 -6 7155.92 657.519 31
2 4 -6 7704.64 451.791 35
-2 -4 6 7073.57 658.798 30
2 -4 -5 8172.95 445.368 7
-2 4 5 7885.01 482.622 41
2 -4 -5 7904.21 439.213 4
-2 4 5 7571.40 912.140 29
2 -4 -5 8182.97 430.708 37
-2 -4 5 7208.90 654.442 30
-2 4 5 7998.08 733.257 10
2 4 -5 7969.26 436.815 41
-2 4 5 8358.38 421.404 8
2 4 -5 7807.58 448.852 22
-2 4 5 8042.45 489.691 38
2 4 -5 8207.28 454.977 35
2 -4 -5 8258.09 428.152 34
2 -4 -5 7987.79 681.610 31
-2 4 5 8541.55 499.984 25
-2 -4 5 8037.35 712.627 32
2 4 -5 7902.92 459.778 39
-2 4 4 99346.9 4358.22 29
2 4 -4 98217.7 3521.53 41
2 4 -4 94596.0 3508.60 39
2 4 -4 97485.6 3502.20 35
-2 4 4 99393.2 3567.80 38
-2 4 4 100909. 3578.01 41
2 -4 -4 100039. 3899.00 31
-2 4 4 106842. 3988.25 10
2 -4 -4 99655.9 3493.45 37
-2 -4 4 94693.6 3849.45 30
-2 4 4 96645.2 3563.27 25
2 -4 -4 96869.5 3489.41 34
-2 -4 4 109458. 3998.39 32
2 -4 -4 94678.8 3747.48 30
2 -4 -3 28328.4 1092.98 34
-2 4 3 30584.3 1463.98 10
2 4 -3 29106.6 1128.80 41
2 -4 -3 29034.7 1092.48 36
2 -4 -3 29040.5 1094.09 37
2 4 -3 25147.9 1342.09 10
2 4 -3 26690.5 1096.87 39
-2 4 3 26832.8 1149.78 25
-2 -4 3 27294.2 1409.92 30
-2 4 3 26466.7 1137.51 38
2 -4 -3 28807.0 1427.24 31
-2 -4 3 27491.2 1389.02 31
2 -4 -3 27070.9 1328.17 30
-2 4 2 574.800 170.968 25
-2 4 2 713.840 233.814 10
2 -4 -2 826.730 286.669 2
2 4 -2 584.601 215.953 10
2 -4 -2 495.852 128.175 37
-2 4 2 439.802 152.628 38
-2 4 2 493.291 171.324 41
2 -4 -2 737.836 136.262 34
2 -4 -2 703.899 230.072 31
-2 -4 2 863.597 245.452 31
-2 -4 2 766.163 266.149 30
2 -4 -2 347.500 185.852 30
-2 4 1 906.473 318.769 27
-2 4 1 1210.10 169.191 38
2 4 -1 1391.70 204.293 41
-2 -4 1 1118.50 283.135 31
-2 4 1 1161.46 209.879 41
2 4 -1 1201.77 282.599 10
2 4 -1 1217.60 191.397 38
-2 4 1 1006.16 185.708 25
2 -4 -1 885.472 296.653 2
-2 4 1 1110.58 234.149 10
2 -4 -1 899.173 143.949 34
2 -4 -1 1029.43 264.847 31
-2 -4 1 1340.97 302.507 30
2 -4 -1 1066.79 248.470 30
2 -4 0 9293.48 850.878 2
2 4 0 10985.8 548.839 38
-2 4 0 11136.4 552.794 41
-2 4 0 11167.4 925.143 27
2 4 0 11489.9 546.149 41
2 4 0 10875.2 774.116 11
2 -4 0 11242.7 498.436 36
2 -4 0 10584.4 493.763 34
-2 4 0 10221.3 522.886 35
2 4 0 9456.27 747.232 10
-2 -4 0 10737.7 795.032 31
2 -4 0 11106.6 775.680 31
-2 -4 0 11907.4 819.977 30
2 -4 0 10448.2 722.778 30
2 4 1 45738.9 2048.15 10
-2 4 -1 44861.7 2264.01 27
-2 4 -1 44544.0 1671.65 39
2 4 1 45061.4 1681.54 41
2 -4 1 41699.1 2202.01 2
2 -4 1 43056.5 1630.77 36
-2 4 -1 45559.7 1687.92 35
2 -4 1 44297.2 1634.61 34
2 4 1 42769.4 1709.76 25
-2 -4 -1 45893.3 2077.75 31
-2 4 -1 42877.0 1689.20 41
-2 -4 -1 47274.5 2075.49 30
2 4 1 44318.3 2004.21 11
2 -4 1 44976.9 1966.99 30
2 4 2 4278.21 303.272 41
-2 4 -2 4411.05 630.715 27
2 -4 2 3831.57 620.029 2
-2 4 -2 4303.47 334.948 35
2 4 2 4480.80 523.979 10
-2 4 -2 4398.51 313.019 41
2 -4 2 4431.16 528.483 1
2 4 2 4802.20 337.413 38
2 -4 2 4670.16 277.538 34
2 -4 2 4626.24 278.749 36
2 4 2 4637.77 353.125 25
2 4 2 4246.45 514.269 11
-2 -4 -2 4931.24 567.391 31
2 -4 2 3883.82 484.348 31
-2 4 -2 4443.25 332.022 39
2 -4 2 4211.74 480.598 30
2 4 3 18800.3 852.347 25
2 4 3 17188.3 1119.48 11
2 -4 3 18479.1 1128.39 1
2 4 3 19222.4 833.309 38
2 4 3 17506.9 776.263 41
2 -4 3 16953.5 1099.82 31
-2 4 -3 16369.5 1302.65 27
2 -4 3 16989.6 1362.95 2
2 -4 3 17852.3 731.159 40
-2 4 -3 18811.6 822.406 39
2 -4 3 17609.8 749.697 34
2 -4 3 17768.6 749.298 36
-2 -4 -3 19364.7 1181.43 30
-2 -4 -3 18775.5 763.663 34
-2 4 -3 18740.7 825.626 35
-2 -4 -3 18566.9 1181.54 31
-2 4 -3 17674.8 781.957 41
2 -4 3 18383.5 1096.99 30
2 4 4 37695.6 1490.38 25
-2 4 -4 37600.1 1456.56 39
-2 4 -4 30366.0 2020.43 27
2 -4 4 35913.3 1357.53 40
-2 4 -4 37549.8 1947.30 12
2 -4 4 32351.8 2135.94 2
2 4 4 38370.8 1458.08 38
-2 -4 -4 38366.2 1400.06 34
-2 4 -4 36692.7 1450.59 35
2 -4 4 35818.8 1819.84 31
2 4 4 36367.9 1846.53 10
2 -4 4 36013.2 1810.01 1
2 4 4 33894.7 1352.09 18
2 -4 4 35013.8 1366.83 34
2 4 4 35903.0 1374.17 17
2 4 4 34896.3 1382.85 16
2 -4 4 36293.9 1364.96 36
-2 -4 -4 39008.9 1922.77 31
-2 -4 -4 38504.9 1886.99 30
2 4 4 37806.7 1858.77 11
2 -4 5 5130.26 393.226 6
2 -4 5 5335.69 319.861 36
2 -4 5 5299.21 327.942 34
2 4 5 5614.42 338.560 19
2 -4 5 5168.51 327.025 40
2 4 5 6123.59 398.584 38
-2 4 -5 5562.66 410.031 39
2 4 5 5530.87 332.229 18
2 -4 5 4693.72 378.476 5
-2 4 -5 6111.19 415.995 35
2 4 5 6411.27 373.073 16
2 -4 5 5754.23 633.962 1
2 4 5 5753.23 425.976 25
2 4 6 7164.50 407.075 19
2 -4 6 7386.17 470.636 6
2 -4 6 7829.91 476.675 5
2 -4 6 7699.28 418.044 40
2 4 6 7096.23 404.511 18
2 4 6 8227.10 475.622 38
2 4 6 7937.46 445.586 16
2 4 6 9049.43 537.200 25
-2 4 -6 7829.70 493.769 39
2 -4 7 17281.0 774.040 40
2 -4 7 18033.9 827.094 5
2 4 7 17835.0 875.760 25
2 4 7 18234.7 815.207 38
-2 -4 -7 17574.3 770.407 37
2 4 7 18261.3 761.363 19
-2 4 -7 17997.1 833.119 35
2 4 7 18376.6 794.948 16
2 -4 7 17473.6 805.495 6
2 -4 8 2280.55 263.780 6
-2 -4 -8 2519.74 237.254 37
-2 4 -8 2752.08 292.054 35
2 -4 8 2373.35 252.626 40
2 4 8 2759.26 258.619 38
-2 4 -8 2820.19 302.576 39
2 4 8 2622.28 238.662 19
2 -4 8 2317.80 295.641 5
2 4 8 2551.41 308.116 25
2 -4 9 6166.94 379.469 40
2 -4 9 5736.67 362.318 6
2 4 9 6270.89 346.728 19
-2 -4 -9 6561.48 370.268 34
2 -4 9 6504.12 418.842 5
-2 -4 -9 5271.26 354.656 37
2 4 9 6234.51 430.915 25
-2 4 -9 6788.32 424.403 39
-2 4 -9 6303.06 400.769 35
2 -4 10 4822.77 337.582 40
-2 -4 -10 5947.75 327.122 34
2 -4 10 5715.62 373.546 5
2 4 10 6580.46 352.060 16
2 4 10 5494.13 382.053 25
-2 4 -10 5504.03 359.739 39
-2 -4 -10 5211.70 315.921 37
-2 4 -10 5734.58 358.441 35
2 4 10 5672.76 304.638 19
-2 4 -11 1949.47 194.423 39
-2 -4 -11 1702.48 151.672 37
-2 4 -11 1439.70 172.053 35
2 -4 11 1929.56 213.412 5
2 4 11 1414.53 190.411 25
-2 -4 -11 1459.14 153.586 34
2 -4 11 1772.38 179.924 40
2 4 11 1999.46 188.014 16
2 4 12 6008.05 275.944 16
2 -4 12 5464.61 296.131 5
-2 -5 11 6459.78 329.025 6
2 5 -11 7049.48 317.826 20
-2 5 11 6404.92 318.583 8
2 5 -11 7277.41 311.897 18
-2 5 11 7665.73 319.353 16
2 -5 -11 6513.81 295.936 4
2 5 -10 4672.50 318.924 35
-2 5 10 5746.25 305.576 8
2 5 -10 5070.40 296.789 18
-2 5 10 5501.94 353.183 25
-2 5 10 5378.95 333.002 38
-2 -5 10 5298.42 333.263 6
2 -5 -10 5192.47 294.144 37
2 5 -10 5392.67 329.402 39
-2 -5 10 5813.87 330.031 40
-2 5 10 5824.24 298.394 16
2 -5 -10 5818.24 280.848 4
2 5 -10 5729.32 305.812 20
-2 -5 9 8622.74 437.669 40
-2 5 9 8438.79 479.282 25
-2 5 9 8622.22 415.928 8
2 5 -9 7836.30 445.854 39
2 5 -9 7850.87 409.384 22
2 5 -9 9012.62 430.700 20
2 5 -9 8157.44 417.647 18
2 5 -9 7274.10 431.742 35
-2 5 9 8131.57 402.230 16
2 -5 -9 8520.09 396.969 4
2 -5 -9 8347.54 420.186 37
2 5 -8 24332.6 965.491 20
-2 5 8 23956.1 1018.06 38
2 5 -8 22097.3 974.191 35
-2 5 8 23235.6 952.660 41
2 5 -8 23112.0 983.784 39
2 5 -8 23373.2 944.178 22
2 -5 -8 22375.5 904.608 36
-2 -5 8 24784.5 970.838 40
2 -5 -8 23087.0 950.366 34
2 5 -8 23959.0 944.265 18
2 -5 -8 23893.0 954.989 37
-2 5 8 24260.4 946.970 8
-2 5 8 23415.2 929.626 16
-2 5 8 23895.5 1034.10 25
2 -5 -8 23413.9 931.955 4
2 5 -7 3886.47 292.619 18
-2 5 7 3772.65 338.163 25
2 -5 -7 3864.25 280.953 34
2 5 -7 3667.57 312.186 39
2 5 -7 3362.53 304.405 35
-2 5 7 3940.38 337.583 38
2 -5 -7 4048.30 287.357 4
2 -5 -7 3694.28 278.283 37
-2 5 7 4016.34 275.821 8
2 5 -7 3566.64 311.971 22
2 -5 -7 3586.35 251.433 36
2 5 -7 4317.09 309.454 20
-2 5 7 3414.10 264.358 16
-2 5 7 3639.85 296.964 41
2 -5 -7 3369.44 259.289 7
-2 5 6 2058.28 254.051 41
2 -5 -6 2045.40 235.915 4
-2 5 6 2065.27 279.729 25
2 5 -6 2009.61 273.845 22
-2 5 6 2251.72 279.513 38
2 5 -6 1956.92 244.745 20
2 5 -6 1820.53 250.764 39
-2 5 6 2135.55 217.039 8
2 -5 -6 2271.62 211.879 36
2 -5 -6 2336.19 229.655 34
2 5 -6 1701.11 240.315 35
2 -5 -6 2116.37 217.209 37
2 5 -6 1889.33 231.468 18
2 -5 -6 2077.29 217.762 7
2 -5 -5 5821.18 350.032 37
-2 5 5 5599.41 400.682 41
2 -5 -5 6152.18 369.215 4
-2 5 5 5416.39 403.153 25
2 5 -5 5222.33 380.690 22
2 -5 -5 5983.65 342.031 36
2 5 -5 4871.08 355.897 35
-2 5 5 5308.05 393.676 38
2 5 -5 5767.94 371.668 20
2 -5 -5 5718.35 349.530 34
2 5 -5 5244.68 347.809 18
2 5 -5 4753.82 362.690 39
2 -5 -5 5096.69 344.894 7
-2 5 5 5863.38 337.183 8
2 -5 -4 13542.9 673.122 4
-2 5 4 16132.4 756.507 41
-2 5 4 14031.5 726.042 25
2 5 -4 14825.4 701.834 41
-2 5 4 15261.0 652.971 8
2 -5 -4 15131.4 661.238 37
2 -5 -4 14953.4 660.816 36
-2 5 4 15098.6 731.536 38
2 -5 -4 14692.9 667.965 34
2 5 -4 14618.9 660.956 18
2 -5 -4 14592.7 686.582 7
2 5 -4 14830.8 687.471 20
-2 5 3 43873.7 1698.57 38
2 5 -3 44090.3 1696.05 41
2 5 -3 42849.0 1656.66 20
2 -5 -3 44331.1 1648.52 36
-2 5 3 44091.5 1625.59 8
2 -5 -3 45092.2 1652.33 34
2 5 -3 42242.3 1627.44 18
-2 5 3 42918.2 1721.27 25
2 -5 -3 41960.4 1676.88 7
-2 5 2 75083.8 2642.74 41
-2 5 2 69297.3 2573.87 38
-2 -5 2 69186.1 2514.47 36
2 5 -2 68574.1 2515.88 18
2 -5 -2 71453.1 2540.16 34
-2 5 2 68514.4 2502.27 17
2 5 -2 69569.5 2546.67 20
2 -5 -2 69609.0 2585.22 7
-2 5 2 69375.3 2510.36 8
2 5 -1 25579.4 1032.73 41
2 -5 -1 24175.4 971.875 34
-2 5 1 25799.2 1063.13 41
-2 -5 1 23441.4 964.152 36
2 5 -1 23086.7 975.095 20
2 -5 -1 24775.2 980.144 36
-2 5 1 24014.2 951.466 17
-2 5 1 23132.9 988.569 38
2 -5 -1 24638.0 1037.73 7
-2 5 1 22982.7 942.983 8
2 5 -1 22741.0 947.840 18
2 -5 0 733.381 169.679 36
-2 5 0 1479.58 244.890 41
2 5 0 235.671 163.973 41
2 -5 0 418.246 149.418 34
2 5 0 64.0221 141.886 18
2 5 0 60.5481 151.838 20
2 -5 0 2143.76 270.115 6
2 -5 0 2384.07 305.831 7
2 5 1 3815.73 329.368 38
2 5 1 3418.66 303.773 41
2 -5 1 3528.06 317.632 6
-2 5 -1 3615.46 312.690 41
2 -5 1 3461.81 260.366 36
2 -5 1 3590.13 259.617 34
2 5 1 3330.23 255.749 18
2 -5 1 3630.80 337.719 7
2 5 2 7209.23 394.846 18
2 -5 2 7760.24 409.584 36
-2 5 -2 8103.84 455.947 41
2 -5 2 7563.12 465.718 6
2 5 2 8513.97 452.055 41
2 -5 2 7748.69 496.773 7
-2 5 -2 7633.73 455.286 35
2 -5 2 7799.57 411.192 34
2 -5 3 7569.47 486.267 6
2 5 3 8720.77 502.762 38
2 -5 3 7543.87 391.803 40
-2 5 -3 7536.13 434.584 41
2 5 3 8095.90 443.619 41
2 -5 3 8367.85 414.247 36
2 -5 3 7970.68 415.556 34
2 5 3 7452.03 400.662 18
2 5 3 7695.93 416.505 17
-2 5 -3 7801.77 473.645 35
-2 5 -3 6857.93 450.067 39
2 5 3 8609.80 517.814 25
2 -5 3 7894.25 508.892 7
2 5 4 7409.93 415.553 16
2 -5 4 7285.57 472.569 6
2 5 4 8421.62 511.957 25
2 -5 4 7205.44 389.482 40
-2 5 -4 6846.02 461.949 39
-2 5 -4 7396.27 461.574 35
-2 5 -4 7000.40 406.501 41
2 5 4 8349.78 483.325 38
2 -5 4 7703.62 397.633 36
2 5 4 7488.69 391.382 18
2 5 4 7978.67 418.698 41
2 5 4 7818.39 408.614 17
-2 -5 -5 25326.3 1003.32 34
2 -5 5 24064.5 967.558 36
2 5 5 27860.0 1082.12 38
2 -5 5 22627.2 963.129 40
2 5 5 25762.3 1106.49 25
-2 5 -5 25391.3 1061.87 39
2 5 5 23964.8 984.601 19
-2 5 -5 24130.4 1047.35 35
2 5 5 24194.1 961.191 18
2 5 5 25366.2 1000.65 16
2 5 6 11509.4 631.859 25
-2 5 -6 11864.7 598.555 35
2 5 6 11437.4 537.332 19
2 -5 6 11680.0 593.538 6
2 -5 6 10368.4 526.992 40
-2 5 -6 12207.7 604.458 39
2 5 6 12676.7 605.075 38
2 5 6 11561.0 553.433 16
-2 -5 -6 11847.9 551.348 34
2 -5 7 1543.23 216.975 5
2 5 7 1360.81 234.127 25
2 5 7 1235.98 183.915 19
-2 5 -7 1525.98 231.770 39
2 5 7 1810.67 212.510 38
-2 5 -7 1650.13 225.113 35
-2 -5 -7 1432.59 184.725 34
2 5 7 1382.64 212.339 16
2 -5 7 1493.94 223.299 6
2 -5 7 999.436 170.254 40
-2 -5 -8 256.987 119.925 34
2 5 8 485.230 168.599 25
2 -5 8 307.908 131.337 40
2 5 8 322.263 136.779 19
2 5 8 364.628 124.883 38
2 -5 8 304.351 165.825 5
2 5 8 364.268 167.381 16
-2 5 -8 52.5311 157.795 39
2 -5 8 353.575 160.568 6
2 -5 9 1514.12 161.246 6
2 5 9 1396.08 188.519 25
2 5 9 1670.05 181.577 16
-2 5 -9 1448.81 177.870 39
2 5 9 1587.75 154.467 19
2 -5 9 1385.76 178.196 5
-2 -5 -9 1298.73 145.244 34
2 -5 9 1186.10 186.171 7
2 -5 10 2141.71 169.639 5
2 5 10 2247.20 170.575 16
2 6 -9 8271.07 336.087 17
2 6 -9 8458.35 336.815 20
-2 -6 9 7875.31 376.851 7
-2 -6 8 8733.36 416.272 6
2 6 -8 8011.71 340.279 18
2 6 -8 8247.86 365.687 20
2 -6 -8 8503.47 350.939 4
-2 -6 8 8443.15 414.696 7
-2 -6 7 7546.13 413.530 6
2 -6 -7 7568.62 359.100 34
-2 -6 7 7421.84 379.724 40
2 -6 -7 8256.82 351.267 4
2 -6 -7 7476.93 339.266 36
-2 6 7 7478.58 334.360 19
2 6 -7 8043.88 364.543 20
2 6 -7 6887.97 333.701 18
-2 -6 7 7148.71 403.672 7
-2 6 7 7963.67 399.884 38
-2 -6 6 7735.17 354.288 6
2 6 -6 8191.50 293.616 20
-2 -6 6 9199.89 323.591 40
2 -6 -6 7975.28 269.449 36
2 6 -6 7348.79 250.115 18
2 -6 -6 8819.04 295.834 34
2 -6 -6 7408.74 244.786 7
-2 6 6 8277.28 337.207 38
-2 -6 6 7064.37 330.402 7
-2 6 6 8127.85 316.844 41
2 -6 -6 8484.90 285.174 4
2 6 -5 2928.50 225.297 20
2 -6 -5 2755.99 207.070 36
-2 -6 5 2954.80 274.693 6
-2 6 5 3226.23 255.245 41
-2 -6 5 2574.18 226.985 40
2 -6 -5 2632.70 219.065 4
2 -6 -5 2381.91 204.555 34
2 6 -5 2328.75 193.177 18
-2 6 5 2833.38 244.686 38
2 -6 -5 2460.98 197.224 7
-2 -6 5 2426.96 239.191 7
-2 6 4 676.917 169.488 41
-2 -6 4 383.142 184.521 6
2 -6 -4 394.523 159.841 4
-2 -6 4 320.902 153.796 40
2 6 -4 284.973 127.115 18
-2 6 4 414.603 146.623 38
2 -6 -4 586.927 134.636 36
2 -6 -4 281.061 122.109 34
2 6 -4 452.811 143.811 17
2 6 -4 404.766 155.141 20
2 -6 -4 344.402 125.290 7
-2 -6 4 321.131 152.560 7
2 -6 -3 10487.0 513.448 4
2 6 -3 11557.5 513.325 20
-2 -6 3 9739.48 521.881 6
-2 6 3 10688.4 462.846 17
2 6 -3 10179.9 469.965 18
2 -6 -3 11660.7 505.133 34
-2 6 3 10983.1 525.405 38
2 -6 -3 10238.4 504.760 7
2 -6 -2 6325.63 378.696 4
2 6 -2 6770.15 343.575 18
-2 6 2 5825.75 359.401 38
2 6 -2 7411.36 381.211 20
2 -6 -2 6789.76 356.828 36
2 -6 -2 6499.29 352.600 34
-2 6 2 6372.01 324.812 17
-2 6 2 6184.08 400.392 41
2 -6 -2 5866.02 372.775 7
-2 6 1 15439.8 727.352 41
2 -6 -1 15654.5 669.380 34
-2 -6 1 16133.0 668.563 36
-2 6 1 14761.0 642.527 17
2 -6 -1 14907.1 669.451 36
2 -6 -1 14648.5 702.768 7
2 -6 0 29499.7 1142.16 6
2 6 0 31021.2 1196.09 41
-2 6 0 31320.9 1207.41 41
-2 6 0 29390.1 1124.90 17
2 -6 0 28933.8 1137.55 34
-2 -6 0 28669.5 1143.87 36
2 -6 0 28998.6 1144.39 36
2 -6 0 30111.0 1198.54 7
2 6 1 9529.72 466.086 17
-2 6 -1 10276.9 461.280 17
2 -6 1 9656.15 489.286 6
2 6 1 8920.55 492.654 41
-2 6 -1 9990.68 506.081 41
-2 -6 -1 9563.53 475.458 36
2 -6 1 9962.97 468.073 36
2 -6 1 10633.7 540.243 7
2 -6 2 4057.28 308.628 6
-2 6 -2 4282.40 293.071 41
2 -6 2 4087.88 266.924 36
-2 -6 -2 4255.77 290.300 36
2 6 2 4680.16 288.909 19
2 6 2 4799.99 308.464 41
2 6 2 4619.31 281.747 17
-2 6 -2 4327.81 270.966 17
2 -6 2 4170.26 331.151 7
-2 -6 -3 21348.9 899.460 36
2 -6 3 22604.1 875.886 36
2 -6 3 22839.7 927.071 6
2 6 3 22944.0 887.084 19
-2 6 -3 21388.9 885.112 41
2 -6 3 21615.4 955.961 7
2 6 3 22947.7 895.438 41
-2 -6 -4 303.484 126.300 36
2 -6 4 225.435 167.156 6
2 -6 4 387.416 109.912 36
2 -6 4 158.000 170.458 7
-2 -6 -5 166.886 111.472 36
2 6 5 249.769 133.454 19
-2 6 -5 75.2812 125.008 35
2 -6 5 173.987 146.813 6
2 -6 6 1023.62 168.783 6
2 6 6 1179.27 147.843 19
2 6 7 653.019 114.125 19
2 -6 7 519.365 139.324 7
2 6 8 6520.18 267.515 19
2 -6 8 6374.91 278.526 6
2 -6 8 5849.52 292.764 7
-2 7 4 2223.82 138.815 19
2 -7 -4 2379.67 135.738 4
2 -7 -3 1419.61 125.119 4
2 -7 -2 4827.93 229.204 4
2 -7 -2 4010.35 206.772 7
2 -7 -1 1364.15 141.912 4
2 -7 -1 1355.51 127.790 7
2 -7 0 3805.02 177.744 4
2 -7 0 3776.22 167.681 7
2 7 1 1530.66 120.052 19
2 -7 1 1393.23 136.084 7
2 -7 1 1644.15 149.515 4
2 -7 2 5206.97 256.543 4
2 -7 2 4601.10 250.433 7
2 7 2 5258.33 234.947 19
2 7 3 1600.60 115.818 19
2 -7 3 1432.13 130.781 7
-3 0 16 5993.05 287.417 3
3 0 -15 274.655 132.406 4
-3 0 15 369.788 154.667 3
3 0 -15 461.350 142.229 33
3 0 -14 849.395 179.733 4
-3 0 14 1413.45 228.083 3
3 0 -14 1412.76 207.171 33
3 0 -13 2946.56 292.235 33
3 0 -13 3036.65 264.100 4
-3 0 13 2890.60 292.978 38
-3 0 13 2871.63 269.167 5
-3 0 13 2946.25 300.964 3
3 0 -12 27426.1 1128.94 4
-3 0 12 29718.3 1170.15 3
-3 0 12 27856.2 1219.22 38
3 0 -12 28832.7 1188.51 33
3 0 -11 56996.8 2107.98 33
3 0 -11 53387.9 2079.46 7
-3 0 11 57222.1 2076.97 3
3 0 -11 52996.9 2042.02 4
-3 0 11 57634.5 2164.40 38
3 0 -10 7810.20 797.951 23
3 0 -10 7346.47 441.611 7
3 0 -10 8010.42 465.642 33
-3 0 10 8847.99 523.339 38
-3 0 10 7985.38 890.567 32
-3 0 10 8338.77 461.564 3
3 0 -9 4603.48 621.341 28
-3 0 9 5159.74 622.690 29
3 0 -9 6328.17 662.264 23
-3 0 9 5978.51 735.645 32
-3 0 9 6394.65 430.419 38
3 0 -9 6196.17 377.247 33
-3 0 8 3156.24 487.957 29
3 0 -8 3615.54 538.721 28
3 0 -8 4552.54 526.702 23
-3 0 8 4778.98 626.171 32
-3 0 8 4565.16 349.164 38
3 0 -8 4128.24 292.281 33
-3 0 7 12650.8 867.066 29
3 0 -7 11785.4 841.182 28
3 0 -7 10912.6 783.919 23
-3 0 6 362.768 254.933 29
3 0 -6 22.7479 197.788 23
-3 0 5 31112.5 1373.72 29
3 0 -5 26911.6 1186.61 9
-3 0 5 28625.6 1357.10 32
3 0 -5 26192.9 1276.36 23
3 0 -4 4659.46 398.485 23
3 0 -4 4618.02 352.719 9
-3 0 4 5072.82 455.236 32
-3 0 3 22629.9 1077.87 29
-3 0 3 21548.0 1031.08 32
3 0 -3 23754.9 1065.59 23
3 0 -3 23612.9 974.160 9
-3 0 2 137891. 5271.03 29
3 0 -2 143149. 5169.57 9
-3 0 2 139327. 5224.86 32
3 0 -2 152983. 5220.63 2
-3 0 1 112578. 3344.18 29
-3 0 1 110014. 3370.04 27
-3 0 1 80690.7 3117.05 12
3 0 -1 92483.6 3349.11 23
-3 0 1 98946.3 3233.45 32
3 0 -1 101489. 3272.92 2
3 0 -1 75976.8 3208.42 9
-3 0 0 19020.8 868.383 27
3 0 0 19830.0 740.323 1
-3 0 0 18178.9 800.424 29
3 0 0 17864.8 822.105 9
3 0 0 20661.2 835.572 2
-3 0 0 19142.1 737.777 32
3 0 0 20173.3 774.651 11
-3 0 -1 2799.77 243.190 29
-3 0 -1 3354.38 317.490 27
3 0 1 3392.26 251.934 11
3 0 1 3421.20 317.987 2
3 0 1 3374.78 383.645 23
3 0 1 3407.46 253.389 1
-3 0 -1 3397.98 186.817 32
3 0 2 24596.7 951.251 1
3 0 2 22600.0 998.558 2
-3 0 -2 25309.8 1035.97 28
-3 0 -2 22515.5 986.662 27
3 0 2 22831.1 901.975 11
3 0 2 24785.4 885.878 10
3 0 2 23267.6 1106.55 23
3 0 3 160130. 5766.80 11
-3 0 -3 166846. 5913.71 28
-3 0 -3 155686. 5850.01 27
3 0 3 168754. 5848.29 1
3 0 3 167020. 5712.95 10
3 0 4 38987.6 1575.38 11
-3 0 -4 40257.5 1720.95 28
-3 0 -4 37882.1 1634.34 27
3 0 4 39419.5 1663.78 1
-3 0 -5 140808. 5341.66 28
3 0 5 145469. 5322.04 1
3 0 5 143139. 5180.74 11
3 0 6 1086.72 248.729 11
3 0 6 1186.71 184.911 40
3 0 6 1092.95 335.405 1
3 0 6 1166.25 157.662 36
-3 0 -6 1305.01 346.249 28
3 0 6 1032.57 169.478 24
-3 0 -7 19395.2 1204.42 28
3 0 7 17969.9 788.443 36
3 0 7 19275.2 1044.38 11
3 0 7 17462.2 1188.49 1
3 0 7 20011.9 825.095 40
3 0 7 19511.0 825.264 24
-3 0 -8 1243.00 379.805 28
-3 0 -8 961.170 189.711 33
3 0 8 801.579 201.718 40
3 0 8 847.827 200.338 24
3 0 8 873.356 166.838 36
3 0 8 713.936 396.892 1
3 0 9 4587.51 369.683 24
-3 0 -9 5067.71 353.234 33
3 0 9 4746.11 353.925 3
3 0 9 4944.47 374.383 40
3 0 10 12044.2 610.624 3
3 0 10 11171.3 629.363 24
3 0 10 12940.3 642.779 40
-3 0 -10 12176.4 610.712 33
3 0 11 109.150 206.287 3
-3 0 -11 155.997 171.041 33
3 0 11 11.6047 202.203 40
3 0 12 29299.0 1163.92 3
3 0 12 29266.7 1181.96 40
-3 0 -12 28668.3 1165.05 33
-3 0 -13 4239.35 266.330 37
-3 0 -13 4672.88 300.844 33
3 0 13 5057.87 314.463 3
3 0 14 47.1690 119.849 3
-3 1 16 2183.77 145.705 3
3 -1 -16 1940.26 138.713 4
3 -1 -15 2922.69 209.520 4
-3 1 15 2851.85 219.986 3
-3 -1 15 2504.11 200.369 5
-3 -1 15 3277.19 227.368 3
3 -1 -15 2529.62 215.324 33
3 1 -15 2544.64 219.430 33
-3 1 14 2753.95 260.481 3
3 -1 -14 2892.43 259.953 33
-3 -1 14 3020.14 263.348 3
3 1 -14 2410.21 243.982 4
3 -1 -14 2829.66 238.434 4
-3 -1 14 2553.37 253.243 5
-3 1 14 2489.16 240.052 38
3 1 -14 2815.79 259.249 33
3 -1 -13 27405.6 1068.94 33
-3 -1 13 26377.8 1039.21 3
3 -1 -13 22339.4 977.197 37
-3 -1 13 24920.6 1057.51 5
-3 1 13 24496.8 1076.16 38
3 1 -13 25655.1 1027.89 4
3 -1 -13 27660.4 1020.89 4
-3 -1 13 22784.4 1047.71 38
3 1 -13 25199.6 1055.47 33
-3 1 13 27441.4 1048.60 3
-3 -1 12 -28.3274 190.483 3
-3 -1 12 13.1173 178.694 38
3 -1 -12 218.354 162.080 4
-3 1 12 -56.2252 185.229 38
-3 -1 12 18.5366 164.279 40
-3 1 12 48.4808 151.434 8
3 -1 -12 39.2753 121.345 37
-3 1 12 -48.2164 200.154 3
3 -1 -12 168.186 184.381 33
3 1 -12 22.7324 185.069 33
3 -1 -12 201.459 150.640 7
-3 -1 11 10165.5 551.333 40
-3 1 11 11356.5 567.144 8
-3 -1 11 10529.5 611.900 38
-3 1 11 11962.9 655.348 38
3 -1 -11 11219.7 584.401 33
3 -1 -11 10436.4 531.977 37
-3 1 11 12096.9 585.186 3
3 -1 -11 11582.4 574.426 7
-3 -1 11 11192.4 569.351 3
3 1 -11 12664.3 606.292 33
3 -1 -11 11703.1 543.179 4
3 -1 -10 9804.53 527.538 33
-3 -1 10 10252.3 575.993 38
3 1 -10 8567.86 795.963 9
3 -1 -10 9285.59 478.809 4
-3 -1 10 9422.33 499.218 40
-3 1 10 10199.3 513.045 8
3 -1 -10 9858.54 893.503 23
3 1 -10 10462.7 919.790 23
3 1 -10 10657.1 516.487 39
-3 1 10 9827.90 521.816 3
-3 1 10 10489.1 601.162 38
3 -1 -10 10055.5 488.371 37
3 1 -10 10690.7 525.371 35
-3 -1 10 9137.25 920.747 32
3 1 -10 10725.1 542.243 33
-3 -1 10 9844.97 518.268 3
-3 1 10 8870.01 986.196 32
3 -1 -10 10216.3 509.682 7
-3 1 9 8593.03 517.126 41
-3 -1 9 8804.64 810.208 29
-3 -1 9 10646.6 502.988 40
-3 1 9 9186.94 842.830 29
-3 1 9 9510.11 836.614 27
-3 1 9 11966.3 616.420 38
3 1 -9 11518.0 526.955 39
3 1 -9 9295.00 842.916 23
3 -1 -9 10671.5 493.089 37
3 -1 -9 10393.7 864.839 23
3 1 -9 11622.9 530.112 35
3 -1 -9 10700.8 532.250 33
3 1 -9 10954.9 536.551 33
-3 -1 9 7506.77 847.041 32
-3 1 9 9733.71 981.900 32
-3 1 8 2243.03 239.739 41
-3 -1 8 2843.07 440.658 29
-3 1 8 2284.54 441.343 29
3 1 -8 2963.66 246.020 35
-3 -1 8 2840.02 219.391 40
3 1 -8 3110.32 246.174 39
-3 1 8 2666.80 295.547 38
3 1 -8 2883.15 442.026 23
3 -1 -8 2866.52 218.550 37
3 -1 -8 2922.00 245.872 33
3 1 -8 2654.12 242.447 33
3 -1 -8 3015.96 459.487 23
-3 -1 8 2926.80 498.781 32
-3 1 8 3552.87 595.674 32
-3 -1 7 5462.21 571.746 29
-3 1 7 5152.90 595.094 29
3 -1 -7 6871.17 589.412 23
3 1 -7 5549.67 554.444 23
-3 -1 7 6596.04 617.811 32
-3 -1 6 77057.3 2940.19 29
-3 1 6 74084.0 3015.01 29
3 -1 -6 70697.0 2884.32 23
3 1 -6 71606.2 2893.62 23
3 -1 -6 70369.7 2704.18 9
-3 1 6 74845.2 3079.86 32
-3 -1 5 3163.14 373.437 29
-3 1 5 3410.50 450.259 29
-3 1 5 3820.33 416.419 27
3 -1 -5 3250.60 360.251 23
3 -1 -5 3037.40 275.109 9
-3 1 5 3278.64 481.539 32
3 -1 -5 2264.59 214.237 31
3 1 -5 3307.68 376.704 23
3 1 -4 20253.2 980.699 23
-3 1 4 22686.9 1054.11 27
3 -1 -4 20482.4 977.474 23
-3 -1 4 21749.1 989.707 32
-3 1 4 21621.0 1097.39 32
3 -1 -4 20044.5 801.168 31
3 -1 -4 21098.9 850.495 9
-3 -1 4 17949.4 780.949 30
-3 1 3 25510.7 1177.50 32
-3 1 3 27192.5 1185.90 27
-3 1 3 27989.8 1073.89 12
3 -1 -3 25321.9 1117.54 23
-3 -1 3 22527.5 940.541 30
-3 1 3 27709.3 1241.45 29
3 1 -3 26657.4 1092.83 9
3 -1 -3 26701.3 982.488 9
-3 -1 3 25616.2 1092.52 32
3 1 -3 25054.1 1115.77 23
3 -1 -3 24761.8 948.551 31
3 -1 -3 23117.8 865.219 30
3 -1 -2 77688.3 2830.25 23
-3 1 2 80339.0 2751.39 12
3 -1 -2 87640.2 2699.64 9
3 1 -2 75543.5 2823.79 23
-3 1 2 84107.0 2934.09 29
-3 -1 2 78001.1 2767.99 32
-3 1 2 82569.9 2854.24 32
3 1 -2 79661.7 2785.57 9
3 -1 -2 81314.2 2673.12 31
-3 -1 2 68483.1 2669.76 30
3 -1 -2 80560.4 2636.26 30
-3 1 1 72591.0 2236.62 29
3 1 -1 53962.3 2060.01 9
-3 1 1 52187.4 2151.41 27
3 -1 -1 52293.3 2154.69 2
3 1 -1 49701.3 2049.53 11
3 1 -1 48566.7 2097.79 23
3 -1 -1 65464.2 1994.83 30
3 1 -1 48881.5 2034.42 10
-3 1 1 69607.7 2117.27 32
3 -1 -1 52301.1 2127.84 23
3 -1 -1 59279.9 1995.39 31
-3 -1 1 43378.3 1931.03 31
-3 1 1 53189.7 2020.57 12
3 1 0 18272.3 873.297 9
-3 -1 0 17533.1 843.056 27
-3 1 0 19114.7 852.711 12
3 -1 0 19629.2 982.975 23
3 -1 0 21178.1 852.425 30
3 1 0 17464.6 934.949 23
3 1 0 17489.0 863.614 11
-3 1 0 21761.4 1007.66 27
3 1 0 17570.2 852.279 10
3 -1 0 20919.1 1013.29 2
-3 1 0 21399.0 843.223 32
3 -1 0 19456.3 837.204 31
3 1 1 50953.7 2029.13 11
-3 1 -1 55426.1 2083.66 28
3 1 1 48239.7 2116.36 23
-3 -1 -1 45292.1 1965.27 27
-3 1 -1 58427.1 2192.32 27
3 1 1 53156.6 2021.26 10
-3 -1 -1 47982.7 2030.71 28
3 -1 1 55017.9 2186.51 23
3 -1 1 53710.7 2032.42 31
-3 1 -1 68071.8 2113.72 29
-3 1 -1 53022.6 2031.40 12
3 -1 1 56451.9 2210.65 2
3 -1 1 56676.0 2059.60 30
3 -1 2 31616.0 1416.96 2
-3 1 -2 30694.0 1203.70 29
-3 1 -2 33771.0 1301.25 28
-3 -1 -2 31295.6 1281.79 28
3 1 2 32237.9 1227.21 10
-3 -1 -2 25492.7 1118.42 27
-3 1 -2 31028.8 1368.90 27
3 1 2 30491.3 1245.25 11
3 -1 2 33156.1 1258.43 1
3 1 2 24183.7 1068.50 2
3 -1 2 31855.5 1279.85 31
3 -1 2 31805.9 1302.36 30
-3 1 -3 61525.1 2348.52 28
-3 1 -3 56502.4 2400.54 27
3 1 3 58829.3 2287.45 11
3 1 3 60354.7 2239.39 10
-3 -1 -3 59792.3 2341.19 28
3 -1 3 64304.5 2315.45 1
3 -1 3 57980.6 2371.21 30
3 1 4 2238.65 258.891 10
-3 1 -4 2396.97 342.848 28
-3 1 -4 1503.93 321.788 27
-3 -1 -4 2417.31 341.551 28
3 1 4 2149.76 309.359 11
3 -1 4 2488.95 335.544 1
-3 1 -5 30822.6 1549.58 27
3 -1 5 33161.7 1502.26 1
3 1 5 32474.3 1458.96 11
-3 -1 -5 31772.7 1518.03 28
-3 1 -5 30330.6 1502.76 28
3 1 5 30899.0 1337.33 10
3 -1 6 10071.1 460.104 24
-3 1 -6 8377.03 722.961 28
-3 -1 -6 9190.18 738.153 28
-3 1 -6 8295.80 732.486 27
3 1 6 9021.99 676.579 11
-3 1 -6 8888.61 455.376 39
3 -1 6 8188.04 698.504 1
3 -1 6 8794.59 423.731 36
3 1 6 9734.70 479.083 40
3 -1 6 9315.65 451.414 40
3 -1 6 8479.42 446.033 34
3 -1 7 8467.10 432.957 36
-3 1 -7 8454.28 777.259 28
-3 -1 -7 8062.67 756.267 28
3 -1 7 8985.10 781.712 1
3 -1 7 9155.74 472.038 24
-3 1 -7 8597.58 463.172 39
3 1 7 9715.64 502.245 40
-3 1 -7 10050.4 470.230 33
3 -1 7 8186.48 459.695 34
-3 -1 -7 8899.42 458.512 33
3 1 7 9112.07 719.665 11
3 -1 7 9592.83 478.321 40
3 -1 8 14591.9 1111.72 1
3 1 8 14327.7 1006.25 11
-3 1 -8 14334.4 1107.07 28
-3 -1 -8 13911.4 1088.14 28
3 -1 8 15626.6 713.510 24
3 1 8 14396.3 735.030 24
3 1 8 16590.7 744.727 40
3 -1 8 15328.9 669.306 36
3 -1 8 15412.7 715.608 40
-3 1 -8 16185.8 706.488 33
-3 -1 -8 15620.9 701.775 33
3 -1 9 29782.6 1222.39 3
3 1 9 28979.6 1222.26 3
3 -1 9 31581.0 1244.25 5
3 -1 9 29176.9 1239.62 24
3 -1 9 31667.1 1256.35 40
-3 -1 -9 30989.1 1229.88 33
-3 1 -9 31775.3 1235.24 33
3 -1 10 28122.9 1117.93 5
3 -1 10 24965.5 1119.61 24
3 -1 10 26942.6 1129.98 40
3 -1 10 26403.0 1103.53 3
3 1 10 26798.7 1109.67 3
-3 1 -10 27773.7 1114.17 33
-3 -1 -10 26872.7 1108.90 33
3 1 11 13091.3 618.758 3
-3 1 -11 12756.3 605.873 33
3 -1 11 12508.6 608.905 3
3 -1 11 11005.0 610.273 24
3 -1 11 12478.5 626.232 40
3 -1 11 11659.2 592.061 5
-3 -1 -11 12889.0 609.985 33
3 -1 12 1199.88 216.396 3
3 1 12 1228.65 222.631 3
-3 -1 -12 1240.90 194.449 33
3 -1 12 1246.05 177.214 5
-3 1 -12 1323.22 194.667 33
3 -1 12 1219.84 215.236 40
3 -1 13 912.681 176.004 3
3 1 13 925.189 173.602 3
3 1 13 777.676 168.797 40
-3 -1 -13 828.240 132.379 37
-3 1 -13 485.995 106.288 37
-3 1 -13 914.205 148.800 33
3 -1 13 792.136 164.930 40
-3 -1 -13 880.955 145.677 33
3 -1 14 1396.70 146.029 3
3 1 14 1607.81 153.833 3
3 -2 -15 2003.62 145.169 4
-3 -2 15 1799.21 165.075 5
-3 2 15 1712.55 128.956 16
3 -2 -14 867.999 151.514 4
-3 -2 14 924.351 166.240 3
-3 2 14 1014.34 164.225 3
3 -2 -14 737.563 120.601 37
-3 -2 14 961.232 191.094 5
3 2 -14 754.758 152.236 33
3 -2 -14 830.826 154.143 33
-3 2 14 881.035 154.432 38
-3 2 13 1331.49 215.485 38
-3 2 13 1097.84 202.502 8
3 -2 -13 1271.31 182.289 4
-3 -2 13 761.516 192.047 3
-3 2 13 1217.75 206.846 3
-3 -2 13 1198.44 194.618 40
3 2 -13 961.941 194.593 33
3 -2 -13 1239.11 168.295 37
-3 -2 13 1191.44 240.978 5
3 -2 -13 1096.64 191.755 33
3 -2 -13 1188.24 183.118 7
-3 -2 12 1225.05 230.548 38
3 -2 -12 1073.97 176.033 37
3 -2 -12 1625.39 200.804 4
3 -2 -12 1253.93 212.684 33
-3 -2 12 1203.25 216.255 3
-3 -2 12 1066.30 198.966 40
-3 2 12 1347.67 222.948 3
-3 2 12 1257.08 236.598 38
3 2 -12 1107.82 203.600 39
-3 2 12 1283.43 213.998 8
3 2 -12 1185.35 213.547 33
3 -2 -12 1185.29 196.680 7
3 -2 -11 3283.01 295.096 33
-3 2 11 3071.50 285.948 8
-3 -2 11 2935.36 316.939 38
-3 -2 11 2965.16 281.952 40
-3 2 11 3258.08 343.350 38
3 2 -11 3263.71 298.121 39
3 -2 -11 4165.83 291.892 37
-3 2 11 3289.86 297.667 3
3 -2 -11 2736.69 233.575 34
3 -2 -11 3105.75 277.232 7
3 2 -11 3181.98 301.318 33
3 -2 -11 3533.09 273.383 4
-3 -2 11 2970.98 282.923 3
3 2 -11 3204.04 306.336 35
3 -2 -10 15678.6 719.381 7
3 2 -10 15087.1 738.007 35
-3 2 10 15921.3 813.946 38
-3 -2 10 15743.9 711.439 40
3 2 -10 15939.8 743.133 39
3 -2 -10 17232.4 723.693 37
-3 2 10 16749.8 730.474 8
3 -2 -10 15601.6 682.957 34
3 2 -10 16267.5 726.826 4
-3 2 10 15122.0 712.080 3
3 -2 -10 16618.3 736.372 33
3 2 -10 15768.2 735.053 33
3 -2 -10 16051.6 697.898 4
-3 -2 9 9611.32 824.106 29
-3 2 9 9764.06 539.815 41
3 2 -9 10892.7 551.549 39
3 2 -9 9836.30 860.761 9
-3 2 9 11184.7 620.364 38
3 2 -9 7775.16 790.096 23
3 -2 -9 10277.2 866.061 23
-3 -2 9 8634.08 878.299 32
3 -2 -9 12029.7 531.616 37
-3 -2 9 10917.8 513.489 40
-3 2 9 8305.77 886.072 29
-3 2 9 10149.1 514.021 8
3 2 -9 10338.7 522.486 4
3 2 -9 10978.0 552.756 35
3 -2 -9 11215.0 499.257 34
3 -2 -9 10705.5 521.300 7
3 -2 -9 10467.9 528.369 33
3 2 -9 10501.4 534.993 33
-3 2 9 8429.10 1010.01 32
3 -2 -9 10086.6 498.638 4
-3 -2 8 25018.0 1423.57 29
-3 2 8 23540.8 1557.73 29
-3 -2 8 28239.5 1056.43 40
3 2 -8 24177.5 1441.93 23
3 2 -8 28052.8 1105.97 39
3 -2 -8 27038.5 1462.59 23
3 -2 -8 27832.5 1075.35 37
3 2 -8 28320.0 1104.19 35
3 -2 -8 27062.0 1046.79 34
3 -2 -8 26285.1 1070.49 33
3 2 -8 26972.8 1077.88 33
3 2 -8 28707.2 1494.35 9
-3 -2 8 27172.3 1515.64 32
-3 2 8 24740.1 1098.53 41
-3 -2 7 9818.64 772.901 29
-3 2 7 11053.9 931.251 29
-3 -2 7 11192.7 482.211 40
3 -2 -7 10426.8 768.480 23
3 2 -7 9777.98 769.963 23
3 2 -7 10968.2 522.121 35
-3 2 7 10454.8 578.862 38
3 2 -7 11083.1 809.641 9
3 -2 -7 10733.0 501.317 37
-3 2 7 11136.3 550.333 41
3 -2 -7 10841.3 479.816 34
3 2 -7 10224.9 519.811 39
3 2 -7 10178.8 499.405 33
-3 -2 7 11132.7 824.371 32
-3 2 7 9739.31 959.846 32
-3 2 7 10224.8 791.819 27
-3 2 6 45127.4 2251.39 29
-3 2 6 53693.3 2168.03 27
3 2 -6 48798.5 2058.53 9
3 2 -6 45061.8 2021.99 23
3 -2 -6 46046.6 1722.88 37
3 2 -6 46507.4 1747.28 39
-3 2 6 45674.5 2307.37 32
-3 2 6 48904.9 1815.14 38
3 -2 -6 47413.5 2034.31 23
-3 -2 6 50331.4 2081.34 32
3 -2 -6 45773.3 1885.14 31
-3 2 5 65608.2 2831.22 29
-3 2 5 69217.7 2710.84 27
3 2 -5 66732.7 2610.80 9
3 2 -5 63447.6 2587.72 23
3 -2 -5 65593.7 2594.03 23
-3 2 5 68571.7 2883.96 32
3 -2 -5 64006.5 2461.09 31
-3 -2 5 61034.7 2426.89 30
-3 2 4 15180.7 882.102 27
3 -2 -4 15091.0 794.628 23
-3 2 4 15111.9 798.341 12
3 2 -4 11536.1 655.541 12
3 -2 -4 15402.8 891.948 2
3 2 -4 14247.6 799.017 9
3 2 -4 14301.4 785.687 23
-3 -2 4 16084.0 817.212 32
-3 2 4 15738.4 986.588 32
3 -2 -4 14036.7 698.341 31
3 -2 -4 13750.7 606.431 30
-3 -2 4 13989.5 690.395 30
-3 2 3 4745.01 517.913 29
-3 2 3 5916.12 504.231 27
-3 2 3 5722.71 423.086 12
3 2 -3 5625.58 443.617 9
3 2 -3 3172.48 280.606 12
3 2 -3 4500.14 403.827 23
3 -2 -3 5146.73 412.861 23
3 -2 -3 4602.65 470.824 2
-3 2 3 4975.23 522.092 32
3 -2 -3 5609.09 359.057 31
-3 -2 3 4119.45 293.734 31
-3 -2 3 4851.04 351.085 30
3 -2 -3 4881.60 291.201 30
-3 2 2 8306.51 654.035 29
3 2 -2 8197.16 521.441 23
-3 2 2 8730.47 616.215 27
-3 2 2 8930.05 532.362 12
3 2 -2 6122.49 353.571 12
3 2 -2 8097.93 523.140 10
3 -2 -2 8161.55 612.881 2
3 -2 -2 7819.90 517.570 23
3 2 -2 7852.22 518.301 9
-3 2 2 7932.11 594.614 32
-3 -2 2 6674.24 411.798 31
3 -2 -2 8244.49 461.964 31
-3 -2 2 8186.83 486.016 30
3 -2 -2 8436.15 420.827 30
-3 2 1 131395. 4814.22 29
-3 2 1 131178. 4777.09 27
3 2 -1 113336. 4393.53 12
-3 2 1 134450. 4649.09 12
3 -2 -1 144393. 4687.94 23
3 2 -1 125671. 4609.48 23
3 2 -1 135558. 4620.19 9
3 -2 -1 132465. 4825.36 2
3 -2 -1 134283. 4520.49 30
-3 2 1 123101. 4650.71 32
-3 -2 1 123323. 4538.70 31
3 -2 -1 130195. 4559.36 31
-3 -2 1 134963. 4619.13 30
-3 2 0 10720.3 719.521 29
-3 -2 0 8288.66 519.659 28
-3 2 0 10668.0 626.690 12
3 2 0 10445.5 603.957 9
3 2 0 10075.1 601.085 10
3 2 0 9556.21 603.417 23
-3 2 0 9999.40 544.290 28
-3 -2 0 10194.1 575.824 31
3 -2 0 11187.2 660.633 23
3 -2 0 11519.5 597.179 31
-3 -2 0 10404.7 615.943 30
3 -2 0 11004.2 777.634 2
3 -2 0 11104.0 563.596 30
-3 2 -1 11321.9 740.799 29
-3 2 -1 11981.6 639.848 28
-3 -2 -1 11252.1 625.573 28
-3 2 -1 12568.2 714.424 12
3 2 1 12608.0 685.863 10
3 2 1 11378.1 682.895 11
3 -2 1 12235.9 857.834 2
-3 -2 -1 12460.7 678.493 31
3 -2 1 12716.5 683.439 31
3 -2 1 12166.3 652.870 30
-3 2 -2 4959.32 407.437 28
-3 -2 -2 4043.16 375.839 28
-3 2 -2 5289.25 546.055 27
-3 2 -2 5480.15 473.263 12
3 2 2 5407.63 426.662 10
-3 2 -2 3561.03 408.977 29
3 -2 2 5219.57 421.133 30
3 2 2 5195.53 444.582 11
3 -2 2 4300.45 406.526 31
-3 2 -3 1288.92 254.410 28
-3 -2 -3 1407.08 258.565 28
-3 2 -3 1163.98 328.099 27
3 -2 3 1585.36 292.523 30
-3 2 -3 1373.32 289.970 12
3 2 3 1584.19 294.294 11
3 2 3 1565.85 273.567 10
-3 2 -4 9342.50 661.322 28
-3 -2 -4 8853.15 636.078 28
-3 2 -4 9785.63 808.618 27
3 2 4 9764.71 685.683 11
3 2 4 10399.0 652.172 10
-3 2 -4 9448.66 477.366 39
3 -2 4 10164.0 721.884 30
3 2 5 247.121 190.168 10
-3 2 -5 -107.490 235.699 28
-3 -2 -5 183.517 195.710 28
3 -2 5 238.253 104.420 36
3 2 5 195.598 220.635 11
3 -2 5 167.543 123.284 40
-3 2 -5 168.586 148.874 39
3 -2 5 46.6807 299.292 2
-3 2 -5 747.398 303.863 27
3 -2 5 136.836 117.008 34
-3 2 -5 305.669 139.080 35
-3 2 -6 23593.1 961.705 39
-3 2 -6 20762.2 1251.53 28
-3 -2 -6 22006.1 1258.42 28
3 -2 6 23438.8 1298.94 1
-3 2 -6 20743.7 1385.21 27
-3 -2 -6 21814.3 905.554 33
-3 2 -6 22081.7 908.120 33
3 2 6 23522.2 1292.52 11
3 -2 6 23511.3 918.913 40
3 -2 6 23776.9 903.469 36
-3 2 -6 23362.6 952.179 35
3 -2 6 21555.7 924.975 34
3 2 6 23617.0 1186.45 10
3 -2 6 22949.4 1335.08 30
3 2 7 20577.9 1265.37 11
3 -2 7 21674.3 856.645 36
-3 2 -7 20583.7 1285.34 28
-3 -2 -7 19522.3 1251.46 28
-3 2 -7 20953.3 869.843 33
3 -2 7 21366.2 885.369 40
-3 2 -7 21136.7 917.175 39
3 -2 7 21176.8 1316.01 1
3 -2 7 20104.6 889.633 34
-3 2 -7 22397.0 912.325 35
-3 -2 -7 20677.6 867.848 33
-3 2 -8 28502.2 1148.70 39
3 -2 8 29462.3 1132.32 24
-3 2 -8 27193.1 1102.01 33
3 2 8 26604.2 1104.99 3
3 -2 8 27873.9 1124.80 40
3 -2 8 29405.0 1165.17 5
3 -2 8 25229.3 1113.17 34
-3 -2 -8 26629.5 1098.76 33
3 2 8 28426.9 1082.91 19
3 2 8 27681.0 1090.95 16
-3 2 -8 27944.9 1129.19 35
3 -2 9 50822.6 1996.03 3
-3 2 -9 52245.4 2002.55 33
3 -2 9 53305.7 2028.08 24
3 2 9 56494.7 2087.79 40
-3 2 -9 55820.4 2048.58 39
3 2 9 53794.7 2013.92 3
3 -2 9 56448.7 2067.00 5
-3 2 -9 56954.6 2030.12 35
3 -2 9 52642.7 2030.18 40
-3 -2 -9 51966.8 2002.48 33
3 2 9 53370.8 1987.61 16
3 2 9 54654.1 1979.91 19
3 -2 10 641.523 201.439 3
3 2 10 767.223 211.333 3
-3 -2 -10 627.335 173.284 33
-3 2 -10 568.015 171.198 33
3 -2 10 528.965 201.212 40
3 2 10 474.900 226.166 40
3 -2 10 707.795 197.276 24
-3 2 -10 451.571 178.696 39
3 2 10 723.842 178.950 16
3 -2 10 660.328 217.508 5
3 -2 11 1098.46 201.677 3
3 2 11 1006.55 206.845 3
-3 -2 -11 1170.40 181.220 37
3 -2 11 1067.76 215.158 40
3 2 11 1391.27 244.743 40
-3 2 -11 1048.80 175.853 33
3 -2 11 1077.05 216.353 5
-3 -2 -11 968.931 173.272 33
3 2 11 1270.82 178.104 16
3 -2 11 783.985 188.743 24
3 2 12 469.002 168.840 3
3 -2 12 434.734 163.242 3
3 2 12 556.695 185.724 40
3 -2 12 438.417 166.373 5
3 -2 12 319.434 155.461 40
-3 -2 -12 557.358 135.736 37
-3 2 -12 211.127 125.430 33
-3 -2 -12 219.762 127.794 33
3 -2 13 4685.38 255.395 3
3 2 13 5028.73 264.259 3
3 2 13 5225.55 301.196 40
-3 -2 -13 4542.54 261.290 37
3 -2 13 5078.51 270.967 5
3 3 -14 3514.90 208.374 22
3 -3 -14 4158.78 223.772 4
3 3 -13 3489.51 268.320 39
-3 -3 13 3873.15 309.927 5
3 -3 -13 4147.07 255.439 4
-3 3 13 3691.86 281.929 38
-3 3 13 3878.92 303.358 25
3 -3 -13 3705.94 238.397 7
-3 -3 13 3623.30 264.950 40
3 -3 -13 4090.08 252.489 37
-3 3 13 3791.00 269.417 8
3 3 -13 3972.28 259.461 22
3 3 -12 1085.33 199.301 35
-3 -3 12 1036.68 190.718 40
3 3 -12 1398.51 208.116 39
3 -3 -12 1334.58 182.165 37
-3 -3 12 1090.18 239.261 5
-3 3 12 985.158 194.239 8
3 -3 -12 1293.27 183.285 4
3 -3 -12 890.510 140.505 34
3 3 -12 1099.26 202.762 22
-3 3 12 1274.74 211.005 38
3 -3 -12 1092.97 175.277 7
-3 3 11 8064.13 505.371 38
-3 3 11 7673.77 443.448 8
3 -3 -11 8222.67 417.887 4
-3 -3 11 8015.36 441.529 40
-3 -3 11 6128.20 444.138 38
3 3 -11 8094.54 470.595 39
3 -3 -11 8367.32 441.527 37
3 3 -11 7389.58 455.583 35
3 -3 -11 7672.34 404.708 34
-3 -3 11 6850.56 485.686 5
3 -3 -11 8066.53 429.293 7
-3 3 10 -14.9837 201.909 38
3 -3 -10 57.5272 151.382 4
-3 -3 10 93.7780 166.908 40
3 3 -10 -57.3339 190.393 39
-3 3 10 96.0494 157.551 8
3 -3 -10 -57.8103 124.333 34
3 3 -10 -33.1851 180.550 35
3 -3 -10 63.2660 137.648 7
-3 -3 9 20534.9 855.341 40
3 3 -9 20061.9 903.134 39
-3 3 9 20556.0 862.464 8
3 3 -9 20474.2 894.362 35
3 -3 -9 20117.8 840.043 34
3 3 -9 18992.4 839.467 14
3 -3 -9 19993.3 858.742 7
-3 3 9 19549.5 883.116 41
3 -3 -9 20103.5 841.678 4
-3 -3 8 74322.4 2634.87 40
-3 3 8 64508.4 3328.01 29
3 -3 -8 72010.1 2643.91 7
3 3 -8 74259.1 2696.13 39
-3 3 8 75494.4 2763.69 38
3 3 -8 77841.2 3192.77 9
3 -3 -8 75711.6 2639.13 34
-3 3 8 73334.3 2643.96 8
-3 -3 8 65853.4 3138.70 32
-3 3 8 74564.8 3600.88 32
-3 3 8 73172.6 2701.80 41
-3 -3 8 62363.0 3050.14 29
3 -3 -8 72524.4 2631.09 4
3 3 -8 70860.5 2629.33 14
-3 3 7 28754.5 1840.02 29
-3 3 7 31027.3 1314.92 38
3 3 -7 31104.8 1633.73 9
-3 -3 7 32022.5 1209.74 40
3 -3 -7 31394.5 1230.61 37
3 3 -7 30518.2 1249.78 35
3 -3 -7 32189.6 1215.74 34
-3 -3 7 29742.7 1628.53 32
-3 3 7 32537.5 2001.37 32
-3 3 7 30484.8 1284.75 41
-3 3 6 42025.1 2271.75 29
3 3 -6 44320.8 1997.77 9
-3 3 6 41956.8 1660.99 41
3 -3 -6 42707.4 1585.27 34
3 -3 -6 42729.8 1600.77 37
-3 -3 6 43053.6 1979.45 32
3 3 -6 42471.3 1629.08 39
-3 3 6 41761.8 1676.81 38
3 3 -6 41702.4 1614.11 35
3 -3 -6 43168.9 1554.32 36
-3 3 6 43299.3 2335.09 32
3 -3 -6 41876.4 1844.43 31
-3 3 5 28120.1 1682.65 29
3 3 -5 28181.4 1395.44 9
3 3 -5 27323.3 1085.92 39
-3 3 5 26630.5 1120.61 38
3 -3 -5 26548.2 1057.85 37
3 -3 -5 27168.3 1048.34 34
3 -3 -5 27426.8 1026.20 36
3 3 -5 27601.2 1074.85 35
-3 3 5 25493.6 1631.90 32
-3 -3 5 26605.6 1365.11 32
3 -3 -5 26200.0 1277.46 31
-3 3 5 27297.0 1102.30 25
-3 -3 5 23952.2 1239.91 30
-3 3 5 28540.0 1132.74 41
3 3 -4 57987.2 2319.21 9
-3 3 4 55826.0 2410.22 27
-3 3 4 59502.7 2367.35 12
-3 3 4 54338.5 2022.61 25
3 -3 -4 54388.5 2440.29 2
3 3 -4 52824.0 2002.69 39
-3 3 4 53820.5 2037.44 38
3 -3 -4 53902.3 1986.07 37
3 -3 -4 57973.5 1967.04 36
3 3 -4 53771.7 1990.13 35
3 -3 -4 54419.7 1976.56 34
-3 3 4 52425.4 2556.05 32
3 -3 -4 58198.8 2250.96 31
3 3 -4 53326.6 2001.11 41
-3 -3 4 52013.5 2207.59 30
-3 3 3 9624.64 871.336 29
-3 3 3 9193.39 746.132 27
-3 3 3 9089.42 666.882 12
-3 3 3 9920.78 500.920 41
3 3 -3 9327.65 657.726 10
3 3 -3 10102.6 676.624 9
3 -3 -3 9455.78 437.890 37
3 -3 -3 8764.15 737.432 2
3 -3 -3 10193.7 632.236 31
-3 -3 3 8736.80 618.954 30
3 -3 -3 9363.44 547.009 30
-3 3 2 22045.6 1320.64 29
-3 3 2 21375.5 1208.44 27
-3 3 2 22060.5 1107.43 12
3 3 -2 21612.5 1048.55 9
-3 3 2 19525.2 852.944 41
3 3 -2 20093.7 1056.83 10
3 3 -2 20293.4 821.875 41
3 -3 -2 19571.3 1181.20 2
-3 -3 2 18706.8 977.238 31
3 -3 -2 21539.0 1029.80 31
-3 -3 2 19905.1 1042.03 30
3 -3 -2 20375.4 954.758 30
-3 3 1 1365.83 375.538 29
-3 3 1 1586.46 287.030 12
3 3 -1 1065.61 278.510 11
3 3 -1 966.898 250.411 9
3 -3 -1 1254.70 345.382 2
3 3 -1 1303.69 276.005 10
-3 3 1 808.306 295.725 27
-3 -3 1 1427.04 261.541 31
3 -3 -1 1230.27 241.084 31
3 -3 -1 1247.08 140.674 34
-3 -3 1 1189.39 260.063 30
3 -3 -1 1368.37 228.457 30
3 3 0 10892.4 744.095 11
-3 3 0 11300.5 879.137 29
3 3 0 11729.2 695.202 9
-3 3 0 11277.6 865.762 27
-3 3 0 11824.1 764.643 12
3 -3 0 11150.2 489.477 34
3 -3 0 10915.3 879.422 2
-3 -3 0 11334.0 731.144 31
3 -3 0 12363.6 725.699 31
-3 -3 0 12026.6 766.469 30
3 -3 0 10856.6 658.927 30
-3 3 -1 26991.5 1497.54 29
-3 3 -1 29940.8 1582.19 27
-3 3 -1 30606.2 1447.43 12
-3 3 -1 27876.7 1113.03 35
3 3 1 28985.8 1108.13 38
3 -3 1 27416.9 1063.80 36
3 -3 1 26676.0 1570.42 2
-3 -3 -1 30725.3 1413.89 31
3 -3 1 28825.2 1359.56 31
-3 -3 -1 31929.8 1458.32 30
3 -3 1 28497.5 1316.20 30
3 -3 1 27467.4 1069.37 34
3 3 1 28192.8 1390.31 11
3 -3 2 2033.45 484.781 2
-3 3 -2 1836.09 412.868 27
3 -3 2 2254.91 177.516 36
-3 3 -2 2612.88 381.035 12
3 3 2 2188.39 369.969 11
3 -3 2 1962.01 174.946 37
3 3 2 1833.15 322.375 10
-3 3 -2 1974.67 224.064 39
3 3 2 2080.09 205.749 38
-3 3 -2 2164.94 234.428 35
3 -3 2 1999.71 174.650 34
-3 -3 -2 2205.29 367.279 31
3 -3 2 2312.93 344.850 31
-3 -3 -2 1909.07 364.720 30
3 -3 2 2003.35 318.862 30
3 3 3 26350.3 1065.03 25
3 3 3 27159.0 1398.38 11
-3 3 -3 26061.1 1065.60 39
3 3 3 27171.6 1354.97 10
-3 3 -3 26903.5 1430.17 12
3 -3 3 25845.6 1319.95 30
3 3 3 25115.9 1032.96 38
3 -3 3 26633.3 1003.63 36
3 -3 3 27950.8 1361.83 1
3 -3 3 25265.3 1006.57 34
-3 -3 -3 27120.7 1404.30 31
3 -3 3 24477.9 1000.70 37
3 -3 3 26420.7 1646.56 2
-3 -3 -3 29839.4 1453.37 30
3 3 4 7640.44 443.802 25
-3 3 -4 6107.28 767.174 27
-3 3 -4 6831.62 686.237 12
3 3 4 9032.50 696.045 10
-3 3 -4 8059.27 447.375 35
3 3 4 7173.74 408.002 38
3 -3 4 7851.19 375.695 40
3 -3 4 6368.29 375.213 37
-3 -3 -4 7728.11 709.542 31
3 -3 4 7994.28 383.366 36
3 -3 4 8057.83 397.350 34
3 -3 4 8688.13 698.105 1
3 -3 4 7017.17 649.933 30
3 -3 4 7649.50 883.296 2
3 3 5 21761.3 1233.08 10
3 3 5 21376.3 942.825 40
3 -3 5 20826.2 882.321 34
-3 3 -5 19656.4 1436.97 27
-3 3 -5 18597.0 1348.33 12
3 -3 5 21241.0 865.225 40
3 3 5 21863.0 900.079 38
3 3 5 23675.6 967.700 25
-3 3 -5 21915.5 941.959 35
3 -3 5 22056.9 870.657 36
3 -3 5 22286.6 1281.39 1
-3 -3 -5 22290.9 1330.24 31
3 -3 5 21978.9 1305.41 31
3 -3 5 19110.5 1537.87 2
-3 3 -6 5000.40 377.362 39
3 -3 6 5708.86 631.001 1
-3 3 -6 3543.72 637.445 27
3 -3 6 4457.48 330.957 6
-3 3 -6 3464.98 589.461 12
3 -3 6 4044.83 297.500 40
3 3 6 5301.95 391.910 40
3 -3 6 4075.78 353.223 5
-3 -3 -6 4590.16 310.345 37
3 3 6 4473.35 297.900 19
3 -3 6 4380.74 290.702 36
-3 3 -6 4684.05 363.538 35
3 3 6 4695.95 319.272 18
3 -3 6 4768.67 313.895 34
3 3 6 4672.46 532.716 10
3 3 6 4634.41 326.178 16
3 3 6 5412.32 384.314 25
-3 -3 -6 5620.21 623.420 31
3 -3 6 4594.17 775.147 2
3 3 6 4485.76 585.079 11
3 -3 7 30793.9 1231.73 6
3 -3 7 29964.0 1195.95 36
3 -3 7 28940.3 1227.09 34
3 -3 7 31267.9 1227.09 40
3 3 7 30387.8 1301.06 40
3 -3 7 31673.8 1289.27 5
3 3 7 30352.8 1200.94 19
-3 3 -7 30766.1 1280.37 35
-3 3 -7 31900.4 1299.92 39
3 3 7 31627.3 1231.67 16
-3 -3 -7 32561.6 1231.15 37
3 3 7 34003.5 1328.59 25
-3 3 -8 9014.13 514.827 39
3 3 8 8227.97 461.849 16
3 3 8 8223.00 436.259 19
3 -3 8 8067.38 464.773 40
3 -3 8 8684.93 515.932 5
-3 -3 -8 8907.74 460.124 37
3 3 8 9622.10 550.056 40
-3 3 -8 8351.64 493.321 35
3 -3 8 8403.90 465.489 24
3 3 8 8712.58 527.806 25
3 3 9 3898.71 347.828 25
3 3 9 4054.63 306.641 16
-3 3 -9 3908.06 338.025 39
3 3 9 3630.79 357.982 40
-3 -3 -9 3884.83 291.751 37
3 -3 9 3257.94 304.270 40
3 3 9 3834.25 280.321 19
-3 3 -9 3896.72 323.982 35
3 -3 9 3933.52 305.367 24
3 3 10 1617.74 266.362 40
-3 3 -10 1557.95 222.477 39
3 -3 10 1160.43 204.189 40
-3 -3 -10 1079.25 183.405 37
-3 3 -10 1567.57 205.832 35
3 3 10 1536.03 191.267 19
3 3 10 1678.15 213.337 16
3 3 10 1523.84 229.781 25
3 3 11 2255.02 226.140 25
-3 -3 -11 1852.76 195.336 37
3 -3 11 1985.81 220.213 40
-3 3 -11 2216.94 208.645 35
3 3 11 2765.89 218.954 16
-3 3 -11 2205.67 218.047 39
3 -3 11 2666.38 260.670 5
-3 -3 -12 877.357 120.479 37
3 -3 12 976.282 164.760 5
3 3 12 1007.36 136.959 16
3 -3 13 1858.80 138.181 5
3 4 -13 753.383 102.755 22
3 -4 -13 721.509 106.872 4
3 4 -13 719.813 116.179 18
-3 -4 13 884.271 147.102 5
-3 -4 12 2263.15 206.095 6
-3 4 12 2943.00 261.526 25
-3 -4 12 3217.81 244.850 40
3 -4 -12 3456.69 204.957 34
-3 4 12 3674.03 263.223 38
-3 -4 12 4199.60 288.238 5
-3 4 12 3453.26 244.213 8
3 4 -12 3750.38 234.221 22
3 -4 -12 4168.96 227.992 4
3 4 -12 3246.47 252.488 39
3 4 -12 3813.66 249.026 18
-3 4 11 28238.4 1171.84 25
-3 -4 11 28036.3 1140.80 5
3 4 -11 28657.5 1136.65 39
3 4 -11 29057.2 1092.59 22
3 -4 -11 27977.9 1081.88 34
-3 4 11 27866.7 1156.94 38
-3 -4 11 28646.6 1117.06 40
3 -4 -11 27277.5 1077.75 7
3 -4 -11 30117.0 1114.89 37
3 -4 -11 27502.2 1082.93 4
-3 -4 10 13992.3 659.420 40
3 -4 -10 14105.3 641.214 7
-3 4 10 14392.3 724.832 25
3 4 -10 14779.5 656.813 22
3 -4 -10 14909.8 664.667 37
3 -4 -10 14768.2 638.920 34
-3 -4 10 15368.1 705.321 5
3 -4 -10 14385.0 635.932 4
-3 4 9 4459.78 391.089 25
-3 4 9 5033.01 353.696 41
-3 -4 9 5494.76 355.267 40
3 -4 -9 5391.33 331.946 34
-3 -4 9 4723.48 385.796 5
3 4 -9 5084.80 366.417 22
3 -4 -9 5273.85 332.491 7
3 4 -9 4038.36 364.542 35
-3 4 9 4955.76 392.173 38
3 -4 -9 5997.72 357.183 37
3 -4 -9 5406.50 335.342 4
-3 4 8 12096.4 652.534 38
-3 4 8 12017.3 644.576 25
-3 4 8 11771.2 605.234 41
-3 -4 8 11995.3 573.320 40
3 4 -8 11131.0 585.459 22
3 -4 -8 11501.8 573.108 37
-3 -4 8 10439.6 599.960 5
-3 4 8 12309.7 572.480 8
3 4 -8 11624.6 617.572 39
3 4 -8 10496.2 603.064 35
3 -4 -8 12329.4 568.355 34
3 -4 -8 11473.3 564.694 7
3 -4 -8 11405.4 556.479 4
-3 -4 7 2170.28 241.001 40
3 -4 -7 2035.27 235.787 4
-3 4 7 1765.92 258.827 41
-3 4 7 2092.25 288.604 38
3 -4 -7 1900.76 224.820 7
3 4 -7 1962.40 263.891 39
3 4 -7 2205.22 287.951 22
-3 4 7 1949.70 274.960 25
3 -4 -7 1804.35 225.329 37
3 4 -7 2147.38 265.709 35
3 -4 -7 1859.97 182.711 36
-3 4 7 2264.73 229.320 8
3 -4 -7 2144.23 223.835 34
3 -4 -6 60111.0 2293.25 4
-3 4 6 64514.6 2389.48 41
-3 4 6 61867.9 2373.39 25
3 4 -6 62713.4 2311.13 22
-3 4 6 61179.6 2380.17 38
3 -4 -6 62409.1 2309.72 37
3 -4 -6 63809.3 2266.42 36
3 4 -6 61767.4 2339.34 39
3 4 -6 62185.6 2320.86 35
-3 4 6 63505.4 2295.76 8
3 4 -6 64055.1 2312.01 18
3 -4 -6 61954.1 2311.64 7
3 4 -6 63188.0 2308.54 14
-3 4 5 57467.3 2219.84 38
-3 4 5 59574.1 3029.59 29
3 -4 -5 57941.2 2155.81 37
-3 4 5 57927.9 2140.90 8
-3 4 5 57817.9 2212.91 25
3 4 -5 58035.4 2161.68 22
3 4 -5 59639.1 2156.74 18
3 -4 -5 60039.1 2128.64 36
3 4 -5 58100.8 2176.24 39
3 4 -5 58630.8 2161.43 35
-3 -4 5 60199.3 2632.11 32
3 -4 -5 57266.9 2169.13 7
3 -4 -5 58098.1 2499.82 31
-3 4 5 59295.9 2242.11 41
-3 -4 5 55606.6 2493.89 30
-3 4 4 2107.75 543.131 29
3 -4 -4 2331.61 441.533 2
3 -4 -4 2440.60 214.001 34
-3 4 4 2819.46 424.289 12
-3 4 4 2163.11 253.927 25
-3 4 4 2512.62 259.361 38
3 -4 -4 2488.63 223.150 37
3 4 -4 2358.32 234.077 41
3 -4 -4 2457.18 208.774 36
3 4 -4 1968.61 231.751 39
-3 4 4 2498.88 220.430 8
3 4 -4 2278.70 229.311 35
3 4 -4 2651.99 246.737 18
3 -4 -4 2349.36 251.565 7
-3 -4 4 2307.96 421.917 32
3 -4 -4 2227.82 355.813 31
3 4 -4 2588.34 262.514 14
-3 -4 4 2381.50 379.597 30
-3 4 3 56686.7 2876.22 29
-3 4 3 57594.2 2527.15 12
3 -4 -3 55694.1 2605.47 2
-3 4 3 56114.0 2122.79 25
3 -4 -3 57930.3 2077.04 37
3 4 -3 53420.7 2070.66 39
-3 4 3 54805.7 2107.88 38
3 -4 -3 59478.6 2066.50 36
3 -4 -3 56017.9 2068.53 34
-3 4 3 57169.0 2159.56 41
3 -4 -3 58241.5 2435.97 31
-3 -4 3 55906.8 2436.52 30
3 -4 -2 5941.97 662.355 2
-3 4 2 4815.20 712.343 29
3 -4 -2 5895.42 340.964 34
-3 4 2 6311.56 680.959 27
-3 4 2 6574.69 637.014 12
-3 4 2 6245.44 409.402 41
3 4 -2 6268.70 383.990 41
3 4 -2 5614.62 573.248 10
-3 4 2 6768.55 394.048 25
-3 4 2 5891.39 362.373 38
3 -4 -2 6427.81 351.727 37
3 -4 -2 6593.07 345.334 36
3 -4 -2 6863.65 589.635 31
-3 -4 2 5308.16 567.550 30
3 -4 -2 6505.01 526.727 30
-3 4 1 15189.4 711.716 41
-3 4 1 14116.0 1103.50 27
-3 4 1 16446.5 1034.98 12
3 4 -1 14929.5 683.793 41
-3 4 1 15557.7 686.122 35
3 4 -1 14465.3 968.395 10
3 -4 -1 13629.3 1069.84 2
3 -4 -1 15238.0 647.497 37
-3 -4 1 13857.9 923.931 31
3 -4 -1 14554.1 924.215 31
-3 -4 1 16231.2 1013.68 30
3 -4 -1 13586.8 858.992 30
3 -4 -1 14928.3 646.846 34
3 4 0 3592.36 291.117 38
3 -4 0 2362.36 497.632 2
-3 4 0 3744.19 584.871 27
-3 4 0 3019.93 462.643 12
-3 4 0 3258.69 279.798 41
3 4 0 3260.22 263.513 41
3 4 0 2864.74 440.717 10
3 -4 0 3389.25 238.528 36
-3 4 0 3569.03 296.370 35
3 -4 0 3214.78 237.153 34
3 -4 0 2989.96 236.085 37
-3 -4 0 2865.34 425.578 31
3 -4 0 2487.83 385.730 31
3 -4 0 2758.41 368.923 30
-3 -4 0 3032.43 441.783 30
3 4 0 3215.16 457.315 11
-3 4 -1 8723.80 466.379 39
-3 4 -1 7616.95 837.174 27
-3 4 -1 8492.67 762.377 12
-3 4 -1 7602.41 447.064 41
3 4 1 8493.87 440.650 41
3 4 1 8000.28 477.034 25
3 4 1 8372.46 728.265 10
3 -4 1 8226.78 414.066 36
3 4 1 9104.87 478.334 38
3 -4 1 8466.57 420.228 34
-3 4 -1 8432.29 474.552 35
3 -4 1 7554.46 840.868 2
3 -4 1 8253.16 415.046 37
-3 -4 -1 8357.51 729.080 31
3 -4 1 8110.76 687.185 31
3 4 1 7496.22 712.162 11
-3 -4 -1 8075.79 735.656 30
3 -4 1 7250.35 631.948 30
-3 4 -2 2007.66 468.815 27
3 -4 2 1752.34 477.264 2
-3 4 -2 2139.47 411.789 12
-3 4 -2 2032.75 217.866 41
3 -4 2 2207.99 257.188 6
3 4 2 1970.00 254.834 25
3 4 2 1904.32 206.751 41
3 4 2 2238.44 435.046 11
3 -4 2 2357.30 204.996 36
3 4 2 2239.95 246.835 38
-3 4 -2 2310.75 265.164 35
3 -4 2 2079.33 199.762 34
3 -4 2 2205.28 397.309 1
-3 4 -2 1978.07 257.239 39
-3 -4 -2 2851.76 456.748 31
3 -4 2 2150.70 383.940 31
-3 -4 -2 2365.96 443.045 30
3 -4 2 1933.33 356.586 30
-3 4 -3 16494.1 753.530 39
3 4 3 15975.5 1113.48 11
3 -4 3 14308.9 1277.95 2
-3 4 -3 13335.2 1198.99 27
3 4 3 15124.9 668.732 19
-3 4 -3 14655.2 1111.47 12
3 4 3 16323.5 765.454 25
3 -4 3 16034.4 686.075 34
3 4 3 15791.1 1080.47 10
-3 4 -3 15533.1 744.375 35
3 4 3 16541.5 743.168 38
3 -4 3 17264.2 1102.17 1
3 -4 3 15761.2 675.023 36
-3 4 -3 15614.6 691.847 8
3 4 3 14941.9 667.226 18
3 4 3 16411.1 678.531 17
3 4 3 14420.6 685.144 16
-3 -4 -3 16425.6 1134.47 31
-3 -4 -3 15839.6 1121.83 30
3 -4 3 14783.2 1012.13 30
3 -4 4 3804.70 339.295 5
-3 4 -4 4568.17 361.168 39
3 -4 4 4390.61 357.026 6
3 4 4 4156.47 353.344 25
3 -4 4 4601.50 306.932 34
3 4 4 3991.26 331.907 38
3 -4 4 4618.12 292.492 36
3 4 4 4146.70 296.700 18
3 4 4 4668.47 296.909 17
3 4 4 4287.81 324.641 16
-3 4 -4 4335.33 358.068 35
3 -4 5 3663.39 278.796 40
3 -4 5 4701.18 359.056 6
-3 4 -5 4792.71 388.246 39
3 4 5 4418.13 372.345 25
3 -4 5 3829.47 345.247 5
3 4 5 4703.79 340.381 38
3 -4 5 4603.68 290.842 36
3 4 5 4078.47 300.137 19
3 4 5 4418.23 311.065 18
3 -4 5 4597.05 307.278 34
3 4 5 4376.01 326.314 16
3 -4 6 11693.2 595.065 6
3 4 6 11530.5 545.402 19
3 -4 6 12010.6 609.960 5
3 4 6 12076.0 638.636 25
3 -4 6 10015.2 527.839 40
-3 4 -6 11424.6 620.233 39
3 4 6 12107.8 582.277 38
3 -4 6 11342.2 538.363 36
3 4 6 11941.7 551.938 18
3 -4 6 10576.8 553.814 34
3 4 6 11688.6 573.843 16
3 -4 7 586.081 215.913 5
3 4 7 187.720 176.429 25
3 -4 7 621.140 151.672 40
3 4 7 230.666 143.820 38
3 -4 7 391.654 189.282 6
3 4 7 216.913 172.219 19
3 -4 7 324.078 149.723 34
-3 4 -7 398.573 203.255 35
3 -4 8 4621.43 322.234 6
3 4 8 4495.38 370.967 25
-3 4 -8 4453.11 361.603 39
3 4 8 5002.86 312.392 19
3 -4 8 4939.59 368.882 5
-3 4 -8 5420.97 366.192 35
3 -4 8 4103.11 307.499 40
3 -4 9 3500.64 243.011 6
3 4 9 3354.37 300.214 25
3 -4 9 4321.72 329.050 5
3 -4 9 3487.54 268.331 40
-3 4 -9 3905.79 309.467 39
-3 -4 -9 3450.72 244.726 37
3 4 9 4026.37 262.469 19
-3 4 -9 4111.24 304.618 35
-3 -4 -9 3626.52 259.828 34
3 4 9 4122.60 291.878 16
3 4 10 1492.04 159.174 19
-3 4 -10 1477.27 187.012 39
3 -4 10 1257.36 160.477 40
-3 -4 -10 1125.61 131.903 37
3 -4 10 1393.12 202.649 5
-3 4 -10 1486.10 181.060 35
-3 -4 -10 1084.30 146.110 34
3 4 10 1432.03 184.769 16
3 4 10 897.448 159.944 25
3 -4 11 5368.04 305.211 5
3 4 11 5955.79 287.169 16
3 -4 12 912.360 101.001 5
-3 5 11 17659.7 683.626 8
-3 -5 11 17723.6 694.810 6
3 5 -11 18139.4 681.474 20
3 5 -11 18606.8 674.532 18
-3 5 11 16369.0 658.078 16
3 -5 -11 17584.0 664.786 4
3 -5 -10 28.6947 92.9975 37
3 -5 -10 105.710 105.984 4
-3 5 10 64.7129 124.268 25
3 5 -10 105.116 139.829 22
-3 -5 10 25.9741 126.889 40
3 5 -10 91.1104 118.208 20
-3 5 10 177.927 124.594 38
3 5 -10 46.1693 117.697 18
3 5 -10 69.5988 126.204 39
-3 5 10 -5.72257 109.871 8
3 -5 -10 15.6882 86.8581 34
-3 5 10 190.307 119.735 16
3 -5 -9 11222.7 512.019 37
-3 5 9 10749.4 552.346 25
-3 5 9 11700.0 508.680 8
-3 -5 9 12031.1 532.727 40
3 -5 -9 10743.6 497.090 34
3 5 -9 11162.1 511.698 22
-3 5 9 11414.7 557.629 38
3 5 -9 11647.9 520.748 20
3 5 -9 9477.63 521.481 35
3 5 -9 11942.4 513.984 18
3 -5 -9 10878.1 482.441 7
-3 5 9 10674.4 482.202 16
3 -5 -9 10921.4 492.150 4
3 5 -9 10411.3 535.180 39
-3 5 8 4725.19 343.033 38
-3 5 8 4050.66 334.492 25
-3 -5 8 4771.72 316.135 40
3 5 -8 4637.09 323.210 22
-3 5 8 4707.90 290.019 8
-3 5 8 4200.08 302.633 41
3 5 -8 4451.23 310.996 20
3 5 -8 4341.35 319.872 39
3 5 -8 3567.57 304.315 35
3 -5 -8 4678.12 299.888 37
3 -5 -8 4188.04 274.467 7
-3 5 8 4050.46 270.459 16
3 -5 -8 4150.33 283.731 4
3 5 -8 4208.20 296.292 18
-3 5 7 145.902 166.848 25
3 -5 -7 228.948 159.818 4
-3 -5 7 25.8477 155.942 40
-3 5 7 219.117 171.115 38
3 5 -7 42.5050 209.258 22
3 5 -7 26.8523 166.843 20
3 5 -7 -17.8725 147.355 35
3 -5 -7 225.483 108.953 36
3 -5 -7 85.9562 136.462 37
3 5 -7 97.4800 162.678 39
-3 5 7 86.7070 133.121 8
3 5 -7 151.339 162.024 18
-3 5 7 88.9879 161.527 41
3 -5 -7 121.672 134.091 7
3 -5 -6 3024.49 270.409 4
3 5 -6 2649.02 263.719 18
3 5 -6 3299.67 311.623 22
-3 5 6 3127.33 298.053 41
-3 5 6 2765.13 297.074 25
-3 -5 6 2878.77 271.954 40
-3 5 6 3462.50 307.823 38
3 -5 -6 3325.01 258.650 37
-3 5 6 3481.76 261.362 8
3 5 -6 2568.18 275.615 39
3 -5 -6 3339.68 233.063 36
3 5 -6 1917.85 253.770 35
3 -5 -6 3126.02 262.260 7
3 -5 -6 2949.39 250.059 34
-3 5 5 17680.4 826.315 41
3 -5 -5 16902.1 752.193 4
3 5 -5 17213.7 772.195 22
-3 5 5 18246.5 744.836 8
3 -5 -5 18160.9 755.118 37
-3 5 5 17098.1 804.904 25
3 5 -5 14323.7 747.640 39
-3 5 5 17735.0 804.669 38
3 -5 -5 18275.9 737.829 36
3 -5 -5 17587.9 752.584 34
3 5 -5 16704.7 746.940 18
3 -5 -5 16602.3 758.085 7
3 -5 -4 7534.60 441.470 4
-3 5 4 7959.59 463.025 38
3 -5 -4 8251.10 426.980 37
3 -5 -4 8278.69 418.219 36
-3 5 4 8091.16 416.383 8
3 5 -4 7635.35 427.711 18
3 -5 -4 7662.66 421.389 34
3 -5 -4 7245.10 440.768 7
3 -5 -3 23370.5 1016.40 7
-3 5 3 25825.7 1078.87 41
3 5 -3 24075.0 975.081 18
-3 5 3 22651.3 996.931 38
3 -5 -3 23797.3 979.992 34
3 -5 -3 24355.6 975.156 37
3 -5 -3 23858.7 969.152 36
-3 5 3 24189.6 968.480 8
-3 5 2 38318.2 1430.92 8
3 5 -2 39095.4 1450.32 17
3 5 -2 40845.3 1499.75 41
-3 5 2 38228.1 1530.61 41
-3 5 2 34847.0 1444.86 38
3 -5 -2 36602.0 1488.84 7
3 5 -2 37127.2 1432.66 18
3 -5 -2 36645.1 1441.65 34
3 5 -1 6187.52 391.443 41
-3 5 1 6903.34 435.675 41
3 -5 -1 7027.33 395.848 6
3 5 -1 5449.00 356.533 20
-3 5 1 5861.89 348.599 8
3 5 -1 5121.47 341.677 18
3 -5 -1 5749.39 355.280 34
3 5 -1 4880.42 335.330 17
3 -5 -1 8100.24 460.471 7
3 -5 0 2728.13 267.827 6
3 5 0 2218.71 241.975 41
3 -5 0 2167.38 219.617 36
3 5 0 1841.51 215.681 20
-3 5 0 2090.89 212.804 8
3 5 0 1897.78 207.150 17
3 -5 0 2271.62 224.448 34
3 5 0 2016.90 224.328 18
-3 5 0 2489.47 276.232 41
3 -5 0 2789.85 299.514 7
3 5 1 140.611 129.506 17
3 -5 1 188.592 189.802 6
3 5 1 336.948 149.489 41
-3 5 -1 395.347 188.807 35
3 -5 1 221.952 132.915 34
-3 5 -1 218.634 133.663 8
3 -5 1 358.235 137.644 36
3 5 1 299.123 162.023 18
-3 5 -1 444.396 177.936 41
3 -5 2 20787.8 891.967 6
-3 5 -2 20417.8 863.491 41
3 5 2 19749.9 851.304 41
-3 5 -2 18751.2 863.620 39
3 5 2 22422.0 925.261 38
3 -5 2 20817.4 841.357 34
3 5 2 20079.9 828.692 19
-3 5 -2 19118.6 823.775 8
-3 5 -2 20827.0 893.908 35
3 5 2 19756.4 822.382 18
3 5 2 19806.9 831.509 17
3 -5 2 19420.1 829.550 36
3 5 2 18967.3 820.693 16
3 5 3 8387.03 450.966 16
3 -5 3 9021.95 503.663 6
3 5 3 7980.92 432.712 41
-3 5 -3 8048.06 485.726 39
3 5 3 9178.79 507.790 38
3 5 3 8158.12 434.670 19
3 5 3 8880.40 440.459 18
3 -5 3 8850.96 443.300 34
-3 5 -3 8577.27 497.523 35
3 5 3 8429.66 433.430 17
3 -5 3 8620.29 437.632 36
-3 5 -3 7381.58 417.742 8
3 -5 3 8739.48 523.948 7
3 5 4 13522.1 627.946 38
3 -5 4 11886.1 615.937 6
-3 5 -4 12725.8 622.519 35
-3 5 -4 11533.7 611.447 39
3 -5 4 12151.8 552.542 36
3 5 4 12325.5 639.487 25
-3 5 -4 10250.3 534.401 8
3 5 4 11620.1 545.832 18
3 -5 4 12638.5 564.513 34
3 5 4 11725.8 568.781 16
3 -5 4 12703.6 648.166 7
3 5 5 342.537 159.935 38
3 5 5 324.479 188.308 25
3 5 5 441.041 168.232 18
-3 5 -5 553.701 189.569 35
-3 5 -5 141.551 179.052 39
3 -5 5 388.235 131.221 36
3 5 5 478.878 190.091 16
3 -5 5 313.507 200.607 7
3 -5 6 6497.71 395.052 6
3 5 6 6662.87 429.500 25
-3 5 -6 6902.00 419.705 39
3 -5 6 6271.47 389.433 5
3 5 6 6365.48 384.801 38
3 5 6 6770.33 366.832 19
-3 5 -6 6463.03 409.010 35
3 5 6 7071.70 392.180 16
3 -5 6 6184.26 426.226 7
3 -5 7 1920.91 214.686 6
3 5 7 1793.32 221.770 25
3 5 7 2037.91 197.456 19
3 -5 7 1941.27 221.483 5
-3 5 -7 1771.48 220.296 39
-3 -5 -7 1482.80 176.129 34
-3 5 -7 1871.15 227.158 35
3 5 7 1800.84 216.905 16
3 -5 7 1734.28 228.543 7
-3 5 -8 1499.88 186.920 39
3 -5 8 1317.29 163.721 6
3 5 8 1225.04 169.321 25
-3 -5 -8 1142.68 138.760 34
3 5 8 1548.90 163.833 19
3 -5 8 1527.63 185.105 5
3 -5 8 919.800 168.540 7
3 5 8 1546.41 184.656 16
3 5 9 2284.22 172.008 16
3 -5 9 2188.94 170.850 5
-3 5 -9 2057.32 164.072 35
3 5 9 2071.64 144.586 19
-3 -6 9 8848.47 385.437 6
3 6 -9 8144.34 346.159 20
3 -6 -9 9037.69 340.011 4
-3 -6 8 8488.60 373.606 6
3 6 -8 8532.66 322.756 20
3 6 -8 8069.32 300.826 18
3 6 -8 7692.52 300.136 17
3 -6 -8 8512.69 308.688 4
-3 -6 7 380.006 124.764 40
3 6 -7 410.104 119.925 20
3 -6 -7 360.299 110.733 4
3 -6 -7 303.809 96.7144 34
-3 -6 7 378.676 167.847 6
-3 6 7 440.211 121.157 38
3 6 -7 390.852 110.342 18
-3 6 7 388.660 100.352 8
3 6 -7 251.721 96.0443 17
3 -6 -7 346.198 88.7667 7
3 6 -6 577.388 138.992 20
3 -6 -6 422.724 133.497 4
-3 -6 6 243.527 134.896 40
-3 -6 6 481.181 183.074 6
-3 6 6 635.593 140.185 41
-3 6 6 547.335 132.095 38
3 -6 -6 391.524 102.126 36
-3 6 6 442.011 106.735 8
3 6 -6 337.335 125.871 18
3 -6 -6 458.042 114.146 34
3 6 -6 507.028 117.306 17
3 -6 -6 372.238 107.361 7
3 -6 -5 5546.36 313.314 4
3 -6 -5 5299.97 302.673 34
-3 -6 5 5311.76 353.825 6
-3 6 5 5762.02 350.312 41
3 -6 -5 5356.57 293.317 36
-3 6 5 5219.66 323.176 38
3 6 -5 5823.79 320.627 20
-3 6 5 5821.27 295.512 8
3 6 -5 5508.81 299.758 18
3 6 -5 5699.04 308.528 17
3 -6 -5 5667.84 306.358 7
3 -6 -4 5132.77 311.320 4
-3 -6 4 4098.63 322.218 6
3 6 -4 4847.71 294.172 17
-3 6 4 4853.55 304.434 38
3 6 -4 5566.11 311.358 20
-3 6 4 5102.24 276.915 8
3 -6 -4 5510.73 293.227 36
3 6 -4 4746.10 283.794 18
3 -6 -4 5183.66 296.541 34
3 -6 -4 5106.71 302.147 7
3 -6 -3 3496.84 268.870 4
-3 6 3 3817.20 294.701 41
3 -6 -3 3561.87 266.546 7
3 -6 -3 3504.02 242.856 34
-3 6 3 3529.37 227.509 8
3 -6 -3 3670.17 245.085 36
3 6 -3 3522.73 243.530 18
3 6 -3 3390.62 244.761 17
-3 6 2 2115.84 231.461 41
-3 6 2 1653.14 160.002 8
3 6 -2 2306.77 204.631 18
3 -6 -2 1914.75 186.779 34
3 6 -2 2244.54 200.446 17
3 -6 -2 2014.41 221.092 7
3 6 -1 8886.15 358.989 19
-3 6 1 3240.57 296.678 41
3 -6 -1 3207.24 268.604 34
3 -6 -1 3698.59 270.981 36
3 6 -1 8022.31 364.502 18
3 6 -1 7832.74 345.948 17
3 -6 -1 3782.43 312.176 7
3 -6 0 36544.3 1375.74 6
-3 6 0 37231.5 1418.72 41
-3 -6 0 34652.0 1369.64 36
3 -6 0 36827.6 1378.93 36
3 6 0 36465.0 1355.38 19
3 6 0 35557.3 1353.24 18
3 -6 0 37600.0 1382.51 34
3 6 0 38098.8 1380.45 17
3 -6 0 37913.4 1435.30 7
3 -6 1 8044.12 410.907 6
-3 6 -1 7460.88 403.078 41
3 6 1 7705.39 379.712 19
-3 -6 -1 6921.93 389.169 36
3 -6 1 7644.67 385.868 36
3 6 1 7272.92 368.096 18
3 -6 1 7551.20 388.736 34
3 6 1 8044.23 386.414 17
3 -6 1 8094.37 449.108 7
3 -6 2 2215.74 228.126 6
-3 6 -2 1743.98 182.000 41
-3 -6 -2 1966.81 202.504 36
3 -6 2 2325.39 191.103 36
3 6 2 2092.52 199.552 19
3 6 2 1706.20 182.147 18
3 6 2 2283.96 191.898 17
3 -6 2 2069.86 243.775 7
3 -6 3 4807.42 310.417 6
-3 -6 -3 4818.34 295.323 36
3 6 3 4711.47 280.297 19
3 6 3 4387.79 260.625 18
3 -6 3 4619.03 267.379 36
3 -6 4 1921.90 162.024 36
3 -6 4 2247.45 213.705 6
-3 6 -4 1788.16 150.767 17
-3 6 -4 1652.25 178.114 35
-3 -6 -4 1504.31 172.384 36
3 6 4 2287.28 191.211 19
3 -6 5 5981.17 319.136 6
3 -6 5 6304.64 341.459 7
3 6 6 6021.47 282.336 19
3 -6 6 5236.46 306.298 7
3 -6 7 2482.79 159.089 6
3 6 7 2733.75 159.065 19
3 -7 -4 314.373 65.7053 4
3 7 -3 3188.41 158.401 17
3 -7 -3 3012.50 166.877 4
3 -7 -2 1480.61 125.920 4
3 -7 -2 1271.31 112.588 7
3 -7 -1 6802.17 299.488 7
3 -7 0 3405.35 190.480 7
3 -7 1 5101.43 246.541 7
3 -7 2 1464.81 116.051 4
3 -7 2 1385.82 118.489 7
-4 0 16 664.981 110.925 3
-4 0 15 1122.23 176.234 3
4 0 -15 1031.40 162.282 33
4 0 -15 1180.58 155.132 4
4 0 -14 905.845 184.700 33
-4 0 14 584.153 192.550 3
-4 0 14 546.598 164.395 38
-4 0 14 654.377 152.722 5
-4 0 13 6481.02 403.038 3
-4 0 13 6032.19 428.543 38
4 0 -13 5979.02 403.270 33
4 0 -12 4985.50 382.208 33
-4 0 12 5618.14 389.278 3
-4 0 12 4869.83 423.926 38
-4 0 11 38299.2 1585.28 38
4 0 -11 37403.3 1457.98 4
4 0 -11 37105.5 1493.78 7
4 0 -11 38956.9 1523.29 33
-4 0 11 39111.1 1494.31 3
-4 0 10 2031.54 454.214 29
4 0 -10 1816.13 423.715 23
-4 0 10 2082.72 308.088 38
4 0 -10 1762.78 387.765 9
4 0 -10 2115.51 218.830 4
4 0 -10 1938.08 222.262 7
4 0 -10 2095.24 252.629 33
-4 0 10 2028.78 558.128 32
-4 0 9 4374.95 621.232 29
4 0 -9 4386.96 596.285 23
-4 0 9 5315.16 408.562 38
4 0 -9 4796.54 524.647 9
-4 0 9 4232.97 677.363 32
4 0 -9 4521.12 335.572 33
4 0 -8 11909.5 526.811 39
4 0 -8 10738.6 867.897 23
4 0 -8 10340.6 744.972 9
-4 0 8 9252.42 885.974 29
4 0 -8 11323.3 545.887 33
-4 0 7 12984.8 991.176 29
4 0 -7 14059.7 811.206 9
4 0 -7 13095.0 602.725 33
-4 0 7 14171.9 1007.97 32
4 0 -7 14157.5 923.178 23
-4 0 6 14152.3 942.100 29
4 0 -6 12483.8 830.659 23
4 0 -6 11737.4 723.064 9
-4 0 6 13910.2 921.571 32
4 0 -5 14376.3 889.834 23
4 0 -5 15743.6 808.610 9
-4 0 5 16767.1 964.561 32
-4 0 4 4080.18 460.538 29
4 0 -4 3598.04 413.215 23
4 0 -4 3634.88 346.164 9
-4 0 4 3251.70 416.474 32
-4 0 3 30956.9 1484.33 29
4 0 -3 32476.7 1474.45 23
4 0 -3 30947.6 1298.39 9
-4 0 3 30199.5 1366.93 32
-4 0 2 -74.3735 210.828 29
4 0 -2 13.8539 139.050 2
-4 0 2 -19.5817 189.961 27
4 0 -2 144.198 233.576 23
4 0 -2 24.9795 184.146 9
-4 0 2 197.001 193.728 32
-4 0 1 24270.7 984.717 29
4 0 -1 18149.3 991.192 23
-4 0 1 23274.3 1025.07 27
4 0 -1 16167.3 744.008 1
4 0 -1 16101.1 845.026 9
4 0 -1 20733.4 891.356 2
-4 0 1 20591.7 853.090 32
-4 0 0 4913.28 409.115 29
-4 0 0 6300.95 481.490 27
4 0 0 5719.92 364.292 11
4 0 0 5920.05 533.546 23
4 0 0 5701.16 328.759 1
4 0 0 4873.00 394.671 2
-4 0 0 4162.29 314.970 32
-4 0 -1 82233.6 3477.16 29
4 0 1 100923. 3501.81 11
-4 0 -1 113694. 3695.52 28
4 0 1 95623.8 3769.68 23
-4 0 -1 106286. 3684.82 27
4 0 1 90380.4 3573.97 2
4 0 1 100079. 3485.66 1
-4 0 -2 69875.5 2756.12 28
-4 0 -2 69600.3 2740.44 27
4 0 2 71975.1 2637.62 1
4 0 2 70303.5 2599.29 11
4 0 2 68446.9 2870.92 23
4 0 2 67680.6 2719.47 2
-4 0 -3 1888.13 343.575 28
-4 0 -3 1955.57 314.018 27
4 0 3 1833.45 241.447 11
4 0 3 2046.62 293.892 1
4 0 3 1930.99 319.081 2
-4 0 -4 64164.1 2511.33 28
4 0 4 57306.5 2266.16 11
4 0 4 62469.4 2408.22 1
-4 0 -5 41996.9 1955.74 28
4 0 5 40096.8 1605.64 26
4 0 5 45041.8 1579.29 24
4 0 5 41429.0 1553.98 36
4 0 5 42796.1 1911.67 1
-4 0 -6 144.431 262.933 28
4 0 6 -132.620 275.272 1
4 0 6 121.112 161.860 40
4 0 6 160.142 133.313 36
4 0 6 104.302 190.129 26
-4 0 -7 1192.90 395.429 28
4 0 7 1151.75 192.335 36
4 0 7 1207.83 217.604 24
4 0 7 1136.79 214.276 40
4 0 7 1420.46 384.876 1
4 0 8 1522.34 216.552 19
4 0 8 1578.38 241.974 3
4 0 8 1390.74 425.519 1
-4 0 -8 1467.17 431.538 28
4 0 8 1310.05 245.051 24
4 0 8 1375.08 207.898 36
4 0 8 1375.47 236.725 40
-4 0 -8 1381.30 219.977 33
4 0 9 832.829 229.191 3
-4 0 -9 860.479 212.804 33
4 0 9 922.005 240.337 24
4 0 9 846.735 226.529 40
4 0 9 782.078 194.227 19
4 0 10 33772.3 1316.36 3
4 0 10 29743.0 1336.41 24
4 0 10 32861.0 1323.28 40
-4 0 -10 33977.5 1319.88 33
4 0 11 2021.15 267.429 3
4 0 11 1780.16 251.053 40
-4 0 -11 2110.49 238.065 33
4 0 12 20259.8 849.968 3
-4 0 -12 21072.8 855.978 33
4 0 12 20393.7 856.534 40
-4 0 -13 948.484 138.867 33
4 0 13 979.465 164.064 3
4 -1 -16 537.147 85.0874 4
4 -1 -15 46.8391 106.219 4
-4 -1 15 -55.5616 131.066 3
-4 1 15 40.3232 128.975 3
4 -1 -15 -82.9493 120.293 33
-4 -1 15 44.9979 118.664 5
4 1 -15 35.5711 116.231 33
4 -1 -14 189.079 137.825 4
-4 -1 14 304.188 172.694 3
-4 1 14 326.174 175.583 3
-4 1 14 47.6863 143.727 38
-4 -1 14 122.688 140.311 38
-4 -1 14 125.838 163.612 5
4 -1 -14 308.790 159.753 33
4 1 -14 210.655 156.554 33
-4 1 13 -25.9409 192.296 3
-4 -1 13 132.241 177.821 38
-4 1 13 63.4368 171.003 38
4 -1 -13 112.395 170.910 33
4 1 -13 258.681 183.038 33
-4 -1 13 102.997 195.675 3
-4 -1 12 9866.35 519.487 3
-4 1 12 9960.90 523.456 3
4 -1 -12 9081.71 519.122 7
4 1 -12 9305.67 507.877 4
4 -1 -12 10678.5 552.528 33
4 1 -12 10418.0 551.490 33
-4 1 12 10358.7 602.716 38
-4 -1 12 9644.97 578.030 38
-4 1 11 12479.5 711.552 38
4 1 -11 12943.3 611.657 4
4 1 -11 13480.8 621.250 39
4 -1 -11 11589.1 621.670 7
4 -1 -11 11514.8 571.715 37
-4 -1 11 13523.4 629.482 3
-4 -1 11 12281.2 686.507 38
4 1 -11 13089.8 648.921 33
-4 1 11 13728.7 636.775 3
4 -1 -11 13166.5 648.756 33
-4 -1 10 5779.98 717.799 29
-4 1 10 8931.00 549.240 38
4 1 -10 8211.67 448.764 39
4 -1 -10 6937.21 759.297 23
4 1 -10 7294.91 792.156 23
4 -1 -10 8966.39 475.611 33
4 1 -10 7702.12 751.365 9
4 -1 -10 7838.55 407.362 37
-4 1 10 6678.96 446.999 41
-4 -1 10 7088.45 494.253 38
4 -1 -10 7756.65 432.875 7
4 1 -10 8299.73 436.095 4
4 1 -10 7755.27 464.121 33
4 -1 -10 7356.11 412.297 4
-4 -1 10 5884.31 784.574 32
-4 1 10 7264.46 935.158 32
-4 1 10 7593.80 447.411 3
-4 -1 10 7935.99 451.038 3
-4 -1 9 5226.63 645.886 29
-4 1 9 4342.25 618.212 29
-4 1 9 5846.39 686.383 27
4 1 -9 4733.56 620.943 23
4 1 -9 5020.96 334.420 39
4 1 -9 5100.81 580.759 9
4 -1 -9 4552.80 291.369 37
4 -1 -9 3908.53 560.432 23
4 -1 -9 5193.83 350.838 33
4 1 -9 5059.58 353.137 33
-4 -1 9 4363.37 641.975 32
-4 1 9 4269.95 352.107 41
4 -1 -8 2258.20 421.462 23
-4 -1 8 2696.81 484.439 29
-4 1 8 2154.05 465.950 29
-4 1 8 3617.48 517.431 27
4 1 -8 2571.52 449.481 23
4 1 -8 2735.73 250.902 39
4 1 -8 2735.06 434.401 9
4 -1 -8 2709.51 210.734 37
4 1 -8 2858.55 252.652 35
4 -1 -8 3386.50 268.988 33
4 1 -8 2906.48 259.223 33
-4 1 8 2884.32 320.744 38
-4 -1 8 2888.64 526.082 32
-4 1 8 3408.50 603.448 32
-4 1 8 2439.21 269.619 41
-4 -1 7 13161.8 931.740 29
-4 1 7 11428.6 939.601 29
-4 1 7 11492.8 896.445 27
4 -1 -7 11091.8 843.601 23
4 1 -7 11854.4 867.354 23
4 1 -7 11944.4 550.243 39
4 -1 -7 11617.5 689.882 9
4 1 -7 12016.3 802.840 9
-4 1 7 13419.7 635.418 38
4 1 -7 12016.2 551.241 35
4 -1 -7 11590.0 550.983 33
4 1 -7 11579.9 548.981 33
-4 1 7 12552.6 1013.50 32
-4 -1 6 23062.5 1211.21 29
-4 1 6 22361.4 1232.63 27
4 -1 -6 21465.6 1156.66 23
4 -1 -6 20326.1 960.575 9
4 1 -6 18895.0 1053.53 9
-4 1 6 20524.7 1252.49 29
4 1 -6 18605.5 1116.91 23
-4 -1 6 21955.8 1183.07 32
-4 1 6 20187.9 1250.50 32
-4 1 5 1966.82 379.191 27
4 1 -5 2169.90 360.141 23
4 -1 -5 2040.13 340.840 23
4 -1 -5 2240.26 261.593 9
-4 -1 5 2473.78 370.612 32
-4 1 5 2523.22 451.608 32
-4 -1 4 57334.9 2198.45 29
-4 1 4 50710.9 2254.10 29
-4 1 4 52566.9 2221.66 27
4 1 -4 46889.7 2119.21 23
4 -1 -4 51347.4 2144.93 23
4 -1 -4 49128.5 1933.44 9
-4 -1 4 53446.8 2124.90 32
-4 1 4 50540.2 2194.33 32
-4 -1 3 110263. 3859.75 29
-4 1 3 97168.0 3896.32 29
-4 1 3 99835.3 3832.88 32
4 1 -3 98746.0 3838.67 23
4 -1 -3 95111.0 3813.50 2
-4 1 3 108039. 3693.96 12
4 -1 -3 106555. 3641.74 9
-4 -1 3 101717. 3756.08 32
4 -1 -3 104388. 3857.17 23
4 -1 -3 95949.0 3544.34 31
-4 1 2 112970. 3682.91 29
-4 1 2 102237. 3654.05 27
-4 1 2 97536.2 3399.82 12
4 -1 -2 100729. 3388.57 9
4 -1 -2 100611. 3589.93 2
4 1 -2 82222.7 3529.74 23
4 1 -2 90599.9 3463.57 9
-4 -1 2 87937.9 3426.32 32
-4 1 2 108048. 3547.63 32
4 -1 -2 97844.9 3330.52 31
4 -1 -2 98557.7 3597.90 23
-4 -1 2 72984.8 3311.88 30
-4 -1 2 95774.2 3530.30 29
-4 1 1 125339. 3896.21 29
4 1 -1 93891.4 3724.41 9
-4 1 1 111525. 3919.05 27
-4 1 1 97337.9 3652.50 12
4 1 -1 81230.7 3688.47 11
4 -1 -1 115119. 3940.88 23
4 1 -1 81699.0 3789.31 23
4 -1 -1 109920. 3884.05 2
-4 -1 1 90102.5 3658.63 32
-4 1 1 115528. 3728.30 32
4 -1 -1 105711. 3643.23 31
4 -1 -1 116070. 3667.76 30
-4 -1 1 96605.5 3740.38 29
-4 -1 0 223171. 7489.98 29
-4 1 0 271944. 7634.79 29
4 1 0 193365. 7481.39 11
-4 -1 0 174643. 7470.34 27
-4 1 0 257492. 7748.80 27
-4 1 0 209523. 7444.01 12
4 1 0 193074. 7475.88 10
4 -1 0 236709. 7749.11 23
4 1 0 188827. 7626.71 23
4 -1 0 240451. 7717.20 2
-4 -1 0 215449. 7430.48 32
4 -1 0 201159. 7452.70 31
4 1 0 206328. 7515.54 9
4 -1 0 226932. 7538.40 30
-4 -1 -1 42219.5 1541.27 29
-4 1 -1 45858.9 1641.37 29
-4 1 -1 37165.5 1659.72 28
-4 -1 -1 35619.3 1624.05 28
-4 -1 -1 31889.1 1535.08 27
-4 1 -1 42192.2 1773.05 27
-4 1 -1 38535.1 1562.97 12
4 -1 1 43440.0 1807.04 2
4 -1 1 37871.0 1766.97 23
4 1 1 38453.5 1577.80 10
4 1 1 35809.7 1724.97 23
4 1 1 36583.6 1582.51 11
4 -1 1 38893.9 1572.09 1
4 -1 1 35760.5 1567.58 31
4 -1 1 39785.7 1625.83 30
-4 1 -2 11760.0 713.183 28
-4 -1 -2 11164.3 708.054 28
-4 1 -2 10188.4 750.838 27
-4 1 -2 11001.3 647.169 12
4 1 2 12713.8 685.366 11
4 -1 2 11347.4 653.285 1
4 -1 2 11735.1 821.304 2
4 1 2 11747.6 644.048 10
4 -1 2 11609.5 714.299 30
-4 1 -3 74163.4 2990.97 28
-4 -1 -3 74019.4 2995.83 28
4 1 3 72866.0 2911.17 11
-4 1 -3 73484.0 3076.65 27
4 1 3 78229.2 2871.28 10
4 -1 3 79066.7 2938.73 1
4 -1 3 75008.9 3157.67 2
4 -1 4 15743.2 878.100 1
-4 1 -4 16078.7 935.484 28
-4 -1 -4 14305.1 907.614 28
-4 1 -4 14766.3 963.011 27
4 1 4 15015.0 772.207 10
4 1 4 15129.9 844.061 11
4 1 4 13752.4 620.137 36
4 1 5 35261.4 1339.83 40
4 -1 5 34327.6 1861.38 2
-4 -1 -5 34633.7 1706.01 28
4 -1 5 37211.9 1693.50 1
-4 1 -5 34595.8 1749.94 27
4 -1 5 34504.0 1395.28 26
4 1 5 33183.7 1368.75 26
4 1 5 37835.4 1633.67 11
4 1 5 33231.0 1338.59 24
-4 1 -5 37513.9 1742.06 28
-4 1 -5 33618.9 1328.82 39
4 -1 5 35143.7 1310.58 36
-4 1 -5 34730.6 1319.57 35
4 -1 5 35447.1 1333.10 34
4 1 5 33531.4 1329.99 36
-4 1 -6 -72.4650 303.686 28
-4 -1 -6 -144.309 310.824 28
4 1 6 218.487 201.341 11
4 -1 6 -9.07072 155.961 24
4 1 6 123.260 173.814 24
4 -1 6 231.943 292.524 2
4 -1 6 97.3257 152.305 40
4 1 6 48.6727 170.716 40
-4 1 -6 97.9345 146.416 39
4 -1 6 128.980 119.468 36
4 -1 6 -66.5831 254.246 1
4 -1 6 43.9695 138.094 34
4 1 7 2510.32 408.142 11
-4 1 -7 2715.31 263.470 39
-4 1 -7 3365.82 534.667 28
-4 -1 -7 3313.54 534.993 28
4 -1 7 2561.16 241.762 36
4 -1 7 2808.23 274.291 24
4 1 7 2674.47 292.508 24
4 -1 7 3010.96 270.940 40
4 1 7 2615.82 291.571 40
4 -1 7 3193.82 585.742 2
4 -1 7 3503.48 533.088 1
4 -1 8 16949.5 788.779 24
4 -1 8 17405.2 772.573 40
4 1 8 17329.3 798.430 40
4 1 8 15910.1 761.639 3
4 -1 8 17037.5 779.035 5
4 1 8 17111.7 735.638 19
4 -1 8 15814.2 737.578 36
4 -1 8 15984.2 759.963 3
-4 1 -8 17946.0 769.721 33
-4 -1 -8 18274.9 774.462 33
-4 -1 -9 30203.4 1178.55 33
4 -1 9 27773.2 1190.72 24
4 -1 9 28364.1 1171.38 40
4 1 9 30033.5 1210.17 40
4 -1 9 27288.4 1161.91 3
4 1 9 28451.2 1173.95 3
4 -1 9 29282.9 1173.77 5
4 1 9 29069.1 1135.94 19
4 -1 9 26084.8 1132.20 36
-4 1 -9 30435.7 1179.58 33
4 -1 10 15166.8 698.355 3
4 -1 10 13992.1 712.271 24
4 -1 10 14297.0 690.240 40
4 1 10 15520.5 724.857 40
4 1 10 15654.2 704.635 3
4 -1 10 14294.3 680.886 5
-4 1 -10 15163.0 691.209 33
4 1 10 13806.7 645.185 19
-4 -1 -10 14898.6 689.353 33
-4 -1 -11 4432.31 304.742 33
4 -1 11 3598.48 322.170 24
4 -1 11 3831.77 315.263 40
4 1 11 4469.35 334.219 40
4 -1 11 4187.37 325.236 3
4 1 11 4429.80 333.054 3
4 -1 11 3914.88 289.790 5
-4 1 -11 4729.88 310.469 33
4 -1 12 1219.74 183.711 40
4 1 12 1337.86 197.939 40
-4 -1 -12 1345.76 177.840 33
-4 1 -12 1344.55 177.377 33
4 -1 12 1293.85 200.476 3
4 1 12 1214.54 198.858 3
4 -1 13 155.642 126.286 3
4 1 13 151.274 129.562 3
4 2 -15 3988.64 214.483 22
-4 -2 15 4137.88 243.627 5
4 -2 -15 3784.13 222.160 4
-4 -2 14 3778.67 293.006 5
-4 2 14 4001.82 247.370 3
4 2 -14 3796.76 247.974 33
-4 2 14 3620.86 271.957 38
-4 -2 14 4190.36 252.428 3
4 -2 -14 4139.46 254.834 4
4 -2 -14 3431.62 245.662 33
4 -2 -13 3373.88 273.699 33
4 2 -13 3547.22 278.128 33
-4 2 13 3774.01 313.409 38
-4 -2 13 2892.53 286.164 38
-4 2 13 3621.24 271.171 8
4 -2 -13 3314.03 234.277 37
-4 -2 13 4059.20 278.005 3
-4 2 13 3645.52 271.045 3
4 -2 -13 3381.34 281.787 7
4 -2 -13 3357.97 266.939 4
-4 -2 12 251.365 181.900 38
4 2 -12 51.7586 162.608 4
4 -2 -12 129.428 150.062 4
4 -2 -12 -58.0411 156.735 33
4 2 -12 244.711 161.110 39
-4 2 12 104.963 176.392 3
-4 2 12 209.054 197.838 38
4 -2 -12 56.0507 124.738 37
-4 -2 12 -7.98423 177.788 3
-4 2 12 -35.6254 149.322 8
4 2 -12 39.6215 162.903 33
4 -2 -12 136.297 141.155 7
-4 2 11 19376.8 935.579 38
-4 2 11 19127.5 836.382 8
-4 -2 11 17608.8 804.910 40
4 -2 -11 20558.3 827.384 37
4 2 -11 19833.1 860.685 39
4 2 -11 19556.2 842.828 4
-4 -2 11 19087.1 824.895 3
4 -2 -11 18161.9 834.648 7
-4 2 11 20037.1 833.042 3
4 2 -11 19185.2 853.305 33
4 -2 -11 20268.7 858.102 33
-4 -2 11 18069.7 889.657 38
4 -2 -10 18311.0 789.299 33
-4 -2 10 16884.3 743.317 40
-4 2 10 16042.3 787.864 41
4 2 -10 17275.8 793.689 39
4 -2 -10 18249.9 760.576 37
-4 2 10 18088.1 765.304 8
4 2 -10 17457.0 802.787 35
4 2 -10 17589.9 775.969 4
4 -2 -10 16558.6 765.464 7
4 2 -10 17694.9 789.756 33
-4 -2 10 16764.2 756.201 3
-4 2 10 16708.1 758.668 3
-4 -2 9 13525.9 1089.27 29
-4 2 9 15005.4 1244.74 29
-4 2 9 17472.0 723.654 8
-4 -2 9 15740.4 697.777 40
4 2 -9 14860.8 1145.69 23
4 -2 -9 16505.5 1168.66 23
4 2 -9 17267.1 769.525 39
-4 2 9 17123.7 839.276 38
4 2 -9 16213.3 1142.02 9
4 -2 -9 18029.5 730.690 37
4 2 -9 17119.6 766.987 35
4 -2 -9 16132.5 680.710 34
4 2 -9 16407.7 725.752 4
4 -2 -9 17121.3 730.980 7
4 -2 -9 16244.8 736.619 33
4 2 -9 16819.0 746.659 33
-4 -2 9 15176.4 1189.62 32
-4 2 9 14747.6 760.761 41
-4 2 9 15844.4 1390.96 32
-4 2 9 15594.5 717.069 3
4 -2 -9 16827.9 707.863 4
4 2 -9 15366.3 703.332 14
-4 -2 8 189.520 283.089 29
-4 2 8 549.546 381.728 29
-4 2 8 409.987 213.835 38
-4 -2 8 477.835 138.536 40
4 2 -8 278.848 168.593 39
-4 2 8 286.373 172.046 41
4 2 -8 271.269 276.331 9
4 2 -8 406.445 179.403 35
4 -2 -8 375.278 134.748 37
4 2 -8 190.900 245.062 23
4 -2 -8 446.745 274.733 23
4 -2 -8 336.133 109.528 34
4 -2 -8 528.086 158.464 33
4 2 -8 449.296 170.776 33
-4 -2 8 40.0931 326.632 32
-4 2 8 687.599 442.705 32
-4 -2 7 1388.69 349.707 29
-4 2 7 1162.68 399.805 29
-4 2 7 1656.91 392.953 27
-4 2 7 1256.56 223.787 41
-4 -2 7 1371.22 161.165 40
4 2 -7 1358.57 341.824 23
4 2 -7 1249.88 199.753 39
-4 2 7 1398.07 236.708 38
4 2 -7 1454.95 367.301 9
4 -2 -7 1674.42 180.651 37
4 -2 -7 1259.19 318.019 23
4 -2 -7 1240.13 147.236 34
4 -2 -7 1413.56 184.892 33
4 2 -7 1394.07 187.914 33
-4 2 7 1542.75 497.523 32
-4 -2 6 5991.45 599.517 29
-4 2 6 5510.08 693.334 29
-4 2 6 6712.79 663.567 27
4 -2 -6 5297.40 557.381 23
4 2 -6 5577.20 575.482 23
-4 2 6 6584.64 408.949 38
4 2 -6 5210.80 560.333 9
-4 2 6 6679.31 405.755 41
4 -2 -6 6219.08 331.674 37
4 2 -6 5893.23 353.635 35
4 -2 -6 5809.76 306.853 34
-4 2 6 5465.26 709.916 32
4 -2 -5 34329.9 1307.44 37
-4 2 5 36731.9 1772.16 27
4 2 -5 37207.6 1640.82 9
4 -2 -5 35650.7 1641.51 23
4 2 -5 34508.6 1637.88 23
4 2 -5 33845.8 1324.17 35
-4 -2 5 38117.1 1653.89 32
-4 2 5 35199.5 1827.26 32
-4 2 4 16632.1 1122.60 29
-4 2 4 18652.3 1090.92 27
-4 2 4 20001.4 969.618 12
4 -2 -4 18289.4 999.767 23
4 -2 -4 18261.2 1074.75 2
4 2 -4 17311.7 993.199 23
4 2 -4 18057.6 984.431 9
-4 -2 4 18019.9 977.399 32
-4 2 4 18432.7 1119.32 32
4 -2 -4 17070.8 811.704 31
-4 2 3 14166.3 962.750 29
4 -2 -3 16121.9 886.739 23
-4 2 3 15380.3 943.720 27
-4 2 3 15949.7 816.700 12
4 2 -3 15151.0 841.100 9
4 2 -3 13724.0 838.871 23
4 -2 -3 13485.6 898.641 2
-4 -2 3 14658.9 813.598 32
-4 2 3 12602.8 872.855 32
4 -2 -3 14444.0 700.638 31
-4 -2 3 12791.1 700.881 30
-4 2 2 119275. 4724.23 29
-4 2 2 121641. 4701.93 27
-4 2 2 127324. 4524.38 12
4 -2 -2 128436. 4635.57 23
4 2 -2 120737. 4592.14 23
4 2 -2 124398. 4544.44 9
-4 2 2 108373. 4553.26 32
4 -2 -2 124712. 4429.31 31
-4 -2 2 118789. 4457.41 30
4 -2 -2 127500. 4370.11 30
-4 2 1 50682.6 2266.81 29
-4 2 1 53722.1 2113.10 12
4 2 -1 53028.7 2158.05 11
4 2 -1 49394.4 2117.99 10
4 -2 -1 58401.1 2261.86 23
4 2 -1 50202.4 2170.78 23
4 2 -1 52380.7 2124.60 9
-4 -2 1 46708.1 1990.70 31
4 -2 -1 54339.4 2049.99 31
-4 -2 1 52967.0 2103.13 30
4 -2 -1 53482.7 2012.70 30
-4 2 0 5056.19 519.922 29
-4 2 0 4636.29 407.301 28
-4 -2 0 3874.04 390.317 28
4 2 0 5106.35 461.051 11
-4 2 0 5846.89 452.098 12
4 2 0 4781.38 434.624 10
4 2 0 4212.56 469.869 23
4 -2 0 5199.28 516.340 23
-4 -2 0 4489.00 398.745 31
4 -2 0 5440.75 416.984 31
4 -2 0 5925.57 419.355 30
4 2 0 4818.66 449.163 9
-4 2 -1 1719.78 316.140 29
4 2 1 1837.43 307.487 11
-4 2 -1 1667.08 284.462 28
-4 -2 -1 1461.74 258.625 28
-4 2 -1 1626.99 381.251 27
4 -2 1 1897.26 410.924 2
-4 2 -1 1839.08 290.952 12
4 2 1 1946.70 299.537 10
4 -2 1 2023.07 284.275 31
4 -2 1 1786.26 277.752 30
-4 2 -2 20435.3 1045.40 28
-4 -2 -2 19523.7 1034.47 28
-4 2 -2 19524.6 1219.40 27
-4 2 -2 21336.5 1108.28 12
4 2 2 21879.5 1106.25 11
4 2 2 20448.9 1045.79 10
4 -2 2 21431.7 1071.28 1
4 -2 2 20116.4 1294.27 2
4 -2 2 20152.0 1067.43 31
4 -2 2 19604.9 1068.84 30
-4 2 -3 4490.45 461.451 28
-4 -2 -3 4290.78 452.860 28
4 2 3 4568.42 438.859 10
-4 2 -3 4040.53 560.206 27
-4 2 -3 4288.59 302.648 39
-4 2 -3 4450.34 489.138 12
4 2 3 5304.99 506.278 11
4 -2 3 3528.71 585.732 2
4 2 3 4206.09 296.032 40
4 -2 3 4650.73 477.261 1
-4 2 -3 4375.33 297.798 35
4 -2 3 3643.16 261.739 37
4 -2 3 4578.44 267.609 34
4 -2 3 4447.78 255.614 36
4 -2 3 3510.58 450.318 31
4 -2 3 4599.27 502.938 30
-4 2 -4 16585.3 1018.28 28
-4 -2 -4 18155.9 1043.89 28
-4 2 -4 17194.7 1191.43 27
-4 2 -4 18825.8 1104.31 12
4 2 4 15667.5 759.010 26
4 2 4 20348.5 1098.65 11
4 2 4 18201.3 772.846 40
4 2 4 19159.4 1000.35 10
4 -2 4 18083.7 728.191 36
-4 2 -4 17161.8 762.180 35
4 -2 4 18233.9 743.979 34
-4 2 -4 16927.5 766.677 39
4 -2 4 18690.3 1054.88 1
4 -2 4 15394.2 1258.90 2
4 -2 4 17343.8 1096.75 30
-4 2 -5 25102.1 1439.84 28
-4 -2 -5 27048.4 1461.20 28
4 2 5 28724.0 1151.82 40
-4 2 -5 28952.3 1677.22 27
-4 2 -5 26605.2 1521.89 12
4 2 5 30231.5 1507.72 11
4 2 5 29146.6 1387.71 10
4 -2 5 27987.3 1119.89 34
4 -2 5 28549.6 1097.68 36
-4 2 -5 27989.5 1138.56 35
-4 2 -5 27963.8 1146.72 39
4 -2 5 25208.8 1738.57 2
4 -2 5 30129.2 1505.74 1
4 -2 5 28371.2 1552.54 30
-4 2 -6 57422.0 2644.91 28
-4 -2 -6 57548.9 2637.75 28
-4 2 -6 60761.6 2863.60 27
4 -2 6 64255.1 2713.20 1
4 2 6 65419.6 2697.42 11
4 -2 6 57885.6 2177.01 40
-4 2 -6 60531.5 2237.66 39
4 2 6 60902.0 2247.87 40
4 -2 6 57427.5 2211.99 34
4 -2 6 59595.6 2180.61 36
-4 2 -6 61681.8 2229.75 35
4 -2 6 55337.2 2978.14 2
-4 2 -7 49046.0 2570.79 28
-4 2 -7 57963.9 2150.48 39
4 -2 7 61844.9 2149.93 24
4 -2 7 54336.1 2094.59 40
4 2 7 58102.8 2168.89 40
4 2 7 54935.7 2104.11 3
4 2 7 56543.8 2078.44 19
4 -2 7 53881.6 2637.40 1
-4 2 -7 58956.6 2138.41 35
4 -2 7 54176.1 2087.87 36
4 -2 7 56525.1 2130.45 34
-4 2 -7 57112.7 2099.02 33
-4 -2 -7 55586.8 2096.55 33
4 2 7 57909.2 2087.78 16
4 -2 7 59955.6 2159.02 5
4 -2 8 9204.66 512.824 24
4 2 8 10026.1 558.614 40
-4 2 -8 9508.31 525.139 39
4 -2 8 8364.65 486.970 3
4 2 8 9141.53 504.517 3
4 -2 8 9502.45 539.032 5
4 -2 8 8598.70 491.200 40
4 -2 8 9202.52 478.453 36
4 2 8 9356.77 473.308 19
-4 2 -8 9605.82 510.715 35
-4 2 -8 8697.58 477.817 33
-4 -2 -8 9104.50 481.349 33
4 2 8 9329.02 474.527 16
4 2 9 3150.63 270.251 19
-4 2 -9 3519.89 307.930 39
4 -2 9 3235.02 308.753 24
4 -2 9 2868.41 283.425 40
4 2 9 3644.52 347.087 40
4 -2 9 3123.02 294.911 3
4 2 9 3480.26 306.124 3
4 -2 9 3303.56 322.029 5
-4 2 -9 2876.37 267.833 33
-4 -2 -9 3289.32 277.905 33
4 2 9 3380.20 273.019 16
4 2 10 5105.19 322.007 19
4 -2 10 4814.16 359.876 24
4 -2 10 5263.39 345.709 3
4 -2 10 4899.82 349.950 40
-4 2 -10 5108.81 329.119 33
-4 -2 -10 5216.34 329.391 33
4 -2 10 5261.84 370.055 5
4 2 10 5205.02 312.534 16
4 2 10 5314.58 358.935 3
4 -2 11 864.708 181.335 24
4 -2 11 651.052 170.157 40
-4 2 -11 826.686 156.791 33
-4 -2 -11 748.048 148.708 37
4 -2 11 1022.82 193.149 5
-4 -2 -11 819.597 152.221 33
4 -2 11 778.271 182.163 3
4 2 11 700.885 179.117 3
4 -2 12 1190.92 160.046 5
4 -2 12 1039.66 151.726 40
-4 -2 -12 1078.86 135.338 37
4 -2 12 1252.23 153.446 3
4 2 12 1150.35 161.726 3
4 3 -14 171.530 109.352 22
4 -3 -14 136.444 97.3425 4
-4 -3 14 85.8626 137.716 5
4 3 -14 224.043 98.2343 18
4 -3 -13 63.1505 116.228 4
-4 3 13 98.4833 133.624 25
4 3 -13 26.5659 150.583 22
4 -3 -13 22.8675 94.6987 37
-4 -3 13 81.2272 174.952 5
-4 3 13 25.2740 118.644 8
-4 3 13 -26.4278 129.088 38
4 -3 -13 -5.78592 104.268 7
4 3 -12 1317.73 203.732 39
4 -3 -12 1146.25 179.858 4
-4 3 12 1391.45 217.234 25
-4 -3 12 1153.46 179.381 40
4 3 -12 1519.08 228.279 22
-4 -3 12 903.048 196.628 38
-4 3 12 1396.42 219.920 38
4 -3 -12 1334.49 170.436 37
-4 3 12 1133.90 187.547 8
-4 -3 12 1213.46 240.732 5
4 -3 -12 1063.28 173.028 7
4 -3 -11 1590.95 206.950 4
-4 3 11 1543.03 250.368 25
-4 -3 11 1546.90 210.857 40
4 3 -11 1776.34 241.638 39
4 -3 -11 1651.98 210.291 37
-4 3 11 1529.23 206.255 8
4 -3 -11 1469.47 169.598 34
4 -3 -11 1522.33 212.046 7
-4 3 10 10951.3 610.882 38
-4 3 10 8402.98 518.439 41
-4 -3 10 9646.26 498.562 40
4 -3 -10 9633.86 473.858 34
4 3 -10 9568.38 549.335 39
4 -3 -10 10850.4 527.314 37
-4 3 10 10403.4 511.418 8
4 3 -10 9900.59 545.843 35
4 -3 -10 10498.4 517.355 7
4 3 -10 9168.75 493.351 14
-4 3 9 4838.97 378.350 41
4 3 -9 5123.42 390.138 39
-4 3 9 5083.45 337.252 8
-4 3 9 6323.51 446.343 38
-4 -3 9 4700.37 330.537 40
4 -3 -9 5764.78 363.219 37
4 -3 -9 5784.98 327.805 34
4 -3 -9 4647.47 340.964 7
4 3 -9 4652.78 345.620 14
-4 -3 8 51083.3 1885.17 40
4 -3 -8 50213.9 1910.88 7
-4 3 8 48793.4 1978.85 41
-4 3 8 52582.9 2025.10 38
-4 3 8 53415.3 1907.83 8
4 3 -8 48594.6 1945.81 35
4 -3 -8 52902.8 1893.00 34
-4 3 8 51693.1 1984.50 25
4 3 -8 49440.3 1896.80 14
-4 3 7 4009.61 684.179 29
-4 -3 7 5577.01 325.405 40
-4 3 7 5605.65 388.888 25
4 3 -7 5348.19 382.003 39
-4 3 7 5078.77 408.953 38
4 3 -7 5271.81 626.997 9
-4 3 7 5578.01 333.832 8
-4 3 7 5395.34 403.932 41
4 3 -7 6262.98 386.802 35
4 -3 -7 5923.44 326.666 34
4 -3 -7 5242.46 345.491 7
-4 -3 7 5255.46 621.851 32
-4 3 7 5038.21 797.086 32
4 3 -7 5261.31 352.408 14
4 -3 -7 6011.67 350.116 4
-4 -3 7 4213.56 628.253 29
-4 3 6 1081.33 427.146 29
-4 3 6 1394.47 241.072 41
-4 3 6 1477.70 229.057 38
4 3 -6 1474.52 372.510 9
4 3 -6 1664.04 228.893 39
4 3 -6 1051.52 200.944 35
4 -3 -6 1347.24 170.316 34
-4 3 6 1655.10 514.172 32
-4 3 5 30750.1 1638.28 27
-4 3 5 28938.2 1205.84 38
4 3 -5 28687.3 1168.21 39
4 3 -5 30542.0 1527.33 9
4 -3 -5 29270.5 1150.38 37
4 -3 -5 30291.4 1107.73 36
4 3 -5 28586.2 1161.73 35
4 -3 -5 29673.9 1134.56 34
-4 3 5 29467.8 1752.58 32
-4 3 4 6505.72 771.895 29
-4 3 4 7043.58 692.266 27
-4 3 4 6002.32 551.328 12
-4 3 4 6618.04 407.022 41
-4 3 4 5866.61 369.221 38
4 3 -4 6384.30 600.118 9
4 -3 -4 6153.61 341.888 37
4 -3 -4 6462.31 313.747 36
4 3 -4 5634.21 341.354 35
4 -3 -4 6129.62 327.865 34
-4 -3 4 6073.26 574.032 32
-4 3 4 5337.12 679.684 32
4 -3 -4 6531.80 488.825 31
4 -3 -4 4946.80 619.722 2
4 3 -4 5910.45 359.467 39
-4 3 3 12692.2 1039.91 29
-4 3 3 11321.5 900.822 27
-4 3 3 11621.2 776.113 12
-4 3 3 12269.3 592.196 41
4 3 -3 10767.0 526.341 39
4 3 -3 10623.7 771.550 9
4 -3 -3 11941.3 900.202 2
4 -3 -3 11600.9 525.521 37
4 -3 -3 12118.0 503.200 36
4 -3 -3 11564.1 512.519 34
-4 -3 3 11723.1 803.035 32
4 -3 -3 11687.3 702.931 31
-4 -3 3 10562.0 709.941 30
-4 3 2 873.283 345.776 29
4 -3 -2 912.312 334.478 2
-4 3 2 741.707 171.204 41
-4 3 2 1001.02 335.826 27
-4 3 2 827.915 241.786 12
4 3 -2 654.888 257.444 10
4 3 -2 988.729 288.562 9
4 -3 -2 980.430 126.620 36
4 -3 -2 738.112 140.488 37
-4 3 2 773.343 163.269 35
4 -3 -2 792.667 129.811 34
4 -3 -2 782.374 200.305 31
-4 -3 2 950.093 249.218 30
-4 3 1 2329.69 446.797 29
4 -3 -1 1159.28 348.250 2
-4 3 1 1818.84 392.406 27
-4 3 1 2141.02 340.377 12
-4 3 1 2117.76 220.394 39
4 3 -1 2129.93 192.911 41
-4 3 1 1656.74 198.699 41
4 -3 -1 2271.49 176.445 36
4 3 -1 2225.20 353.741 9
-4 3 1 1887.59 214.335 35
4 -3 -1 2057.57 190.454 37
4 -3 -1 2151.94 307.242 31
4 -3 -1 2361.53 285.604 30
-4 -3 1 2065.13 346.139 30
-4 3 0 4582.01 579.775 29
4 3 0 4244.33 501.069 11
-4 3 0 4818.07 595.758 27
4 -3 0 4264.75 580.208 2
-4 3 0 4996.12 511.034 12
-4 3 0 4641.49 306.934 41
4 3 0 4304.65 273.416 41
4 3 0 4486.24 490.481 10
-4 3 0 5205.35 323.352 39
4 -3 0 4622.99 281.496 37
4 -3 0 5006.79 273.609 36
-4 3 0 5024.61 326.085 35
-4 -3 0 4526.77 464.706 31
4 -3 0 4499.13 446.773 31
-4 -3 0 4926.80 521.650 30
4 -3 0 4896.63 434.741 30
-4 3 -1 28715.4 1629.61 29
-4 3 -1 31647.4 1760.47 27
-4 3 -1 32648.8 1595.17 12
4 3 1 31529.4 1201.21 41
-4 3 -1 31825.3 1254.18 39
4 -3 1 31195.0 1207.24 34
4 3 1 32791.2 1234.91 38
4 3 1 31170.7 1551.69 10
4 -3 1 31599.3 1216.45 37
-4 3 -1 29402.4 1244.14 35
4 -3 1 33317.6 1840.86 2
-4 -3 -1 32822.1 1564.02 31
4 -3 1 33871.5 1541.42 31
-4 -3 -1 38118.5 1690.17 30
4 -3 1 33628.1 1498.27 30
-4 3 -2 25675.6 1337.82 12
-4 3 -2 22879.4 960.269 39
4 -3 2 21737.6 911.656 37
4 -3 2 21598.3 895.896 36
4 3 2 23194.0 1251.31 10
4 3 2 23735.4 930.671 38
4 -3 2 22838.3 912.200 34
4 -3 2 21730.0 1509.55 2
-4 -3 -2 22600.1 1276.77 31
4 -3 2 23027.6 1249.08 31
4 -3 2 22466.6 1209.07 30
-4 3 -3 4004.60 327.205 39
-4 3 -3 3659.78 596.078 27
-4 3 -3 4974.86 568.859 12
4 -3 3 4045.73 663.856 2
4 3 3 3747.63 475.925 10
4 3 3 4255.17 290.196 38
4 -3 3 4466.77 278.298 36
-4 3 -3 4428.96 330.717 35
4 -3 3 4520.94 292.600 34
-4 -3 -3 5119.03 571.364 31
4 -3 3 4591.64 521.792 31
-4 -3 -3 5019.77 592.663 30
4 -3 3 4960.57 538.274 30
4 3 3 4569.21 554.308 11
4 -3 3 3775.44 285.514 37
-4 3 -4 25649.8 1696.31 27
-4 3 -4 29262.9 1596.17 12
4 3 4 28772.1 1561.44 11
4 -3 4 27654.4 1081.98 36
4 3 4 26612.0 1445.50 10
4 3 4 28142.2 1096.59 38
-4 3 -4 26863.9 1139.80 35
4 -3 4 27776.2 1099.79 34
-4 -3 -4 28932.3 1568.68 31
4 -3 4 24553.6 1495.43 31
4 -3 4 26881.8 1507.29 30
-4 3 -5 30852.5 1261.03 39
4 3 5 29178.1 1168.13 19
-4 3 -5 27265.1 1812.81 27
4 -3 5 30612.9 1210.85 6
-4 3 -5 29444.4 1714.55 12
4 3 5 31260.1 1693.39 11
4 3 5 29321.8 1565.27 10
4 -3 5 30098.4 1181.07 36
4 -3 5 31109.7 1248.40 5
-4 3 -5 29233.8 1241.32 35
4 3 5 31301.5 1183.29 18
4 -3 5 30343.6 1202.49 34
4 3 5 30088.7 1194.68 16
-4 -3 -5 31505.3 1695.60 31
4 -3 5 30879.3 1703.48 30
4 -3 6 23334.2 987.559 6
-4 3 -6 24357.4 1048.72 39
-4 3 -6 24202.4 1040.77 35
4 -3 6 23812.1 1038.19 5
4 -3 6 23157.7 1001.36 34
4 3 6 23619.4 966.032 19
4 -3 6 24425.7 975.543 36
4 3 6 24737.4 980.433 18
4 3 6 23885.6 988.155 16
4 -3 7 17694.9 769.279 6
4 -3 7 17010.9 762.482 40
-4 3 -7 18875.4 843.918 39
4 -3 7 18398.9 839.886 5
-4 -3 -7 18470.4 770.346 37
4 -3 7 17601.3 764.376 36
4 3 7 18119.8 765.484 19
-4 3 -7 18895.3 834.573 35
4 -3 7 15550.9 799.933 34
4 3 7 17752.4 780.820 16
4 -3 8 34004.4 1376.88 34
-4 3 -8 36216.5 1423.37 39
4 3 8 36543.8 1350.26 19
4 -3 8 39070.1 1404.10 24
4 -3 8 31330.0 1339.81 40
4 -3 8 36868.6 1425.98 5
-4 -3 -8 32401.5 1349.97 37
4 -3 8 34091.5 1339.93 36
-4 3 -8 37676.2 1412.62 35
4 3 8 35527.1 1362.14 16
4 -3 9 713.609 184.141 24
4 -3 9 481.236 162.492 40
-4 3 -9 209.955 182.785 39
-4 -3 -9 299.157 132.540 37
4 3 9 583.881 169.549 19
-4 3 -9 567.561 174.631 35
4 3 9 557.812 180.562 16
4 -3 10 6003.36 371.138 5
4 -3 10 5542.21 345.258 24
4 -3 10 4635.44 315.219 40
-4 3 -10 5901.82 355.830 39
4 3 10 5842.11 318.814 19
-4 -3 -10 4976.87 316.949 37
-4 3 -10 5566.59 337.823 35
4 3 10 6080.43 327.784 16
-4 3 -11 1648.21 167.643 39
4 -3 11 1695.19 198.771 5
-4 -3 -11 1319.84 141.231 37
4 3 11 1266.82 147.467 19
4 3 11 1626.63 165.262 16
4 -3 12 808.974 123.064 5
-4 -4 13 1920.57 169.338 5
4 4 -13 1667.46 135.243 22
4 -4 -13 1597.44 128.792 4
-4 4 13 1477.27 134.319 16
4 -4 -12 40.7542 103.269 4
4 4 -12 37.7033 136.443 22
4 -4 -12 165.767 92.6825 37
4 4 -12 158.946 120.117 39
-4 -4 12 116.164 152.376 5
-4 4 12 -17.0095 107.110 8
4 -4 -12 143.025 94.4787 7
-4 4 11 8209.53 468.342 25
4 -4 -11 9293.63 434.676 7
-4 -4 11 8860.98 440.287 40
-4 -4 11 9867.85 487.884 5
4 4 -11 9423.51 474.017 39
4 4 -11 9553.12 450.985 22
-4 4 11 9531.75 492.911 38
-4 4 11 9244.10 443.229 8
4 -4 -11 8791.05 407.756 34
4 -4 -11 9569.79 427.139 4
-4 -4 10 9224.85 507.474 5
-4 -4 10 8307.91 447.684 40
-4 4 10 7727.07 448.549 41
-4 4 10 8459.84 495.334 25
4 4 -10 9064.25 478.106 22
-4 4 10 9278.01 516.678 38
4 -4 -10 9624.90 462.419 37
-4 4 10 8933.28 458.072 8
4 -4 -10 9087.11 430.953 34
4 -4 -10 8630.23 450.060 7
4 -4 -10 9313.69 443.838 4
-4 4 9 12006.5 603.164 41
-4 4 9 11111.2 609.539 25
-4 -4 9 11500.6 560.326 40
4 4 -9 12581.3 620.046 39
4 4 -9 11704.0 590.390 22
-4 4 9 11734.9 634.723 38
-4 4 9 12425.5 572.407 8
-4 -4 9 11069.0 608.268 5
4 -4 -9 12552.2 579.034 37
4 -4 -9 12257.3 550.939 34
4 -4 -9 11623.0 564.823 7
4 4 -9 10756.1 597.819 35
4 4 -8 1159.00 224.148 14
-4 4 8 950.920 218.049 25
-4 4 8 1004.46 222.804 41
-4 -4 8 869.003 190.464 40
4 4 -8 1059.94 253.998 22
-4 4 8 934.779 237.420 38
4 4 -8 752.540 212.958 39
4 -4 -8 1041.03 190.655 37
4 4 -8 931.848 218.818 35
4 4 -8 931.941 217.846 18
4 -4 -8 1076.71 169.391 34
4 -4 -8 854.733 182.910 7
-4 4 7 13972.9 695.406 25
-4 -4 7 14426.3 647.387 40
4 4 -7 14073.8 694.971 39
-4 4 7 14747.9 730.172 38
4 -4 -7 14250.9 663.110 37
4 4 -7 13641.0 677.004 35
4 -4 -7 13901.8 643.390 34
4 4 -7 14170.9 667.264 18
4 -4 -7 13760.4 662.313 7
-4 4 7 14872.3 730.846 41
4 4 -7 13762.3 663.383 14
4 -4 -6 23800.0 979.322 4
4 -4 -6 24273.4 979.353 34
-4 4 6 24677.1 1073.42 41
-4 4 6 23300.2 1023.51 25
4 4 -6 23377.1 1014.01 39
-4 4 6 22801.7 1038.93 38
4 -4 -6 24191.7 994.049 37
4 -4 -6 24383.2 938.332 36
4 4 -6 23475.3 993.154 35
4 4 -6 24376.1 992.196 18
4 -4 -6 22706.4 987.166 7
4 -4 -5 39035.0 1522.55 4
4 -4 -5 39851.1 1533.57 37
4 4 -5 38380.2 1541.33 39
-4 4 5 39101.7 1574.62 38
-4 4 5 40466.9 1522.97 8
4 -4 -5 42028.3 1496.87 36
4 4 -5 40589.1 1541.38 22
4 -4 -5 41004.8 1523.74 34
4 4 -5 39560.7 1526.99 18
4 4 -5 38857.2 1523.45 35
4 -4 -5 38568.4 1541.47 7
4 4 -5 40425.9 1541.75 14
-4 4 4 3336.36 661.128 29
4 -4 -4 3898.30 298.592 4
4 -4 -4 4328.20 599.972 2
-4 4 4 4114.03 283.788 8
-4 4 4 3760.29 495.396 12
-4 4 4 3913.46 350.891 41
4 4 -4 3435.51 288.541 39
4 4 -4 3701.41 319.891 22
-4 4 4 3518.67 295.444 38
4 -4 -4 4471.06 294.150 37
4 -4 -4 4245.82 263.934 36
4 4 -4 3927.74 302.891 20
4 4 -4 3164.07 281.058 18
4 -4 -4 4002.04 305.122 7
4 -4 -4 4010.53 441.508 31
4 4 -4 3485.40 306.053 14
-4 4 3 30683.0 2008.97 29
-4 4 3 34162.8 1321.02 8
-4 4 3 36194.9 1769.79 12
-4 4 3 34141.9 1404.12 41
4 4 -3 33513.6 1315.57 18
4 -4 -3 32007.8 1847.36 2
4 4 -3 34448.2 1331.77 22
4 -4 -3 34278.2 1329.54 37
4 4 -3 34792.3 1327.29 20
4 -4 -3 35413.2 1308.53 36
-4 -4 3 34552.5 1780.96 32
4 -4 -3 33935.6 1640.83 31
-4 -4 3 31967.9 1653.37 30
4 4 -3 34322.7 1333.14 14
-4 4 2 24241.8 1642.07 29
4 -4 -2 23773.3 963.965 6
-4 4 2 22530.7 1508.21 27
-4 4 2 25181.8 1387.46 12
-4 4 2 24322.8 1034.38 41
4 4 -2 21655.3 1322.64 10
4 -4 -2 22109.2 1458.88 2
4 -4 -2 22851.8 958.767 37
4 4 -2 24432.3 963.839 20
4 -4 -2 24425.2 953.061 36
4 -4 -2 24150.4 960.916 34
-4 4 2 24102.6 994.221 35
-4 4 2 23789.4 963.252 8
4 4 -2 24025.1 958.431 18
4 -4 -2 24372.8 1284.98 31
4 4 -2 22472.5 961.190 22
-4 -4 2 23323.7 1325.47 30
4 4 -2 23525.4 967.095 14
-4 4 1 5814.76 740.939 27
4 -4 -1 6684.39 380.695 6
-4 4 1 4587.12 571.372 12
-4 4 1 5503.38 387.521 41
4 4 -1 5023.30 347.182 41
4 4 -1 5316.60 595.681 10
4 -4 -1 5401.71 701.156 2
4 4 -1 5599.71 366.517 21
4 -4 -1 6324.18 348.235 37
4 -4 -1 5861.58 332.724 36
4 4 -1 4755.34 326.594 20
-4 4 1 6581.34 403.119 35
-4 4 1 5842.48 344.201 8
4 4 -1 5814.87 340.686 18
4 -4 -1 5631.93 333.691 34
4 4 -1 5321.04 320.356 17
4 -4 -1 6855.69 407.569 7
4 -4 -1 5401.20 549.263 31
-4 -4 1 5389.25 585.964 30
-4 4 0 1955.97 244.573 39
4 -4 0 2516.23 521.836 2
-4 4 0 1475.09 453.329 27
-4 4 0 1692.36 361.473 12
4 -4 0 1944.65 235.564 6
4 4 0 1502.59 195.140 41
4 4 0 1604.37 366.878 10
4 -4 0 1878.19 193.687 34
-4 4 0 1798.47 228.463 41
4 -4 0 1709.59 199.486 37
4 4 0 1300.53 181.660 20
-4 4 0 1905.47 246.315 35
-4 4 0 1549.07 198.739 8
4 4 0 1357.21 192.407 18
4 -4 0 1816.97 346.779 31
4 4 0 1843.78 235.555 21
4 4 0 1588.76 171.933 17
4 -4 0 1610.45 241.190 7
-4 -4 0 1869.99 386.845 30
4 -4 0 1688.01 321.091 30
4 -4 1 3101.29 281.944 6
4 -4 1 3120.29 587.203 2
-4 4 -1 2083.52 504.225 27
-4 4 -1 2576.36 273.143 39
-4 4 -1 2689.76 442.622 12
4 4 1 2672.15 476.846 11
-4 4 -1 1831.68 224.992 41
4 4 1 2242.65 219.044 41
4 4 1 2587.38 221.220 19
4 -4 1 2426.93 226.015 37
4 -4 1 2659.03 221.994 36
4 -4 1 2351.96 221.906 34
4 -4 1 3162.45 481.007 1
-4 4 -1 2637.09 282.810 35
-4 4 -1 2572.74 239.392 8
4 4 1 2423.04 234.683 18
4 4 1 2409.16 208.997 17
4 4 1 2428.77 242.464 16
4 4 1 2715.54 257.948 21
4 -4 1 2532.64 280.086 7
4 -4 1 2781.15 427.790 31
-4 -4 -1 3086.94 489.282 30
4 -4 1 2646.48 400.963 30
-4 4 -2 682.885 399.583 27
4 4 2 623.562 173.508 25
4 -4 2 861.094 209.341 6
4 4 2 785.815 178.044 38
4 -4 2 918.567 166.655 37
4 -4 2 886.755 161.791 36
4 4 2 800.352 174.249 19
-4 4 -2 993.135 219.598 39
-4 4 -2 984.791 223.858 35
4 4 2 1083.34 186.746 18
-4 4 -2 954.984 176.701 8
4 -4 2 975.019 173.383 34
4 -4 2 1065.29 339.585 1
4 4 2 728.409 142.973 17
4 4 2 813.398 195.515 16
-4 -4 -2 750.863 326.224 31
4 -4 2 910.395 311.016 31
4 -4 2 876.105 219.104 7
-4 -4 -2 1232.56 373.791 30
4 -4 2 580.912 261.718 30
-4 4 -3 17092.5 808.872 35
4 4 3 16847.6 790.075 25
-4 4 -3 17317.3 810.738 39
4 -4 3 17064.5 777.251 5
4 -4 3 17510.4 738.317 36
4 4 3 17947.0 781.522 38
4 -4 3 16477.3 735.259 37
4 4 3 16048.3 721.424 19
4 4 3 16814.9 732.582 18
-4 4 -3 17693.7 760.658 8
4 -4 3 16570.7 747.315 34
4 4 3 17571.7 726.120 17
4 4 3 16857.2 753.529 16
4 -4 3 17766.5 814.089 7
-4 4 -4 3730.03 350.474 39
4 -4 4 4206.04 348.257 6
4 4 4 4275.00 343.150 25
4 -4 4 4349.45 346.249 5
4 4 4 4550.65 324.022 38
4 -4 4 4565.38 300.535 36
4 4 4 4094.94 305.331 18
4 -4 4 4513.70 319.720 34
4 4 4 4615.37 337.909 16
4 -4 4 4165.55 357.497 7
4 -4 5 369.616 185.947 6
4 4 5 392.007 176.651 25
-4 4 -5 881.392 236.709 39
4 4 5 718.002 160.670 38
4 -4 5 495.444 154.288 36
4 -4 5 582.986 212.116 5
4 4 5 505.690 192.792 18
4 -4 5 378.548 168.758 34
4 4 5 813.053 206.111 16
4 -4 6 9758.41 523.805 6
4 -4 6 10526.6 562.002 5
4 4 6 10474.1 510.214 19
4 -4 6 10454.3 502.595 36
-4 4 -6 10483.4 562.192 35
4 -4 6 10139.1 519.498 34
4 -4 7 10020.2 502.560 6
4 -4 7 9258.48 480.698 36
4 -4 7 10166.7 553.134 5
4 -4 7 11550.3 537.485 24
4 4 7 11309.8 507.418 19
-4 4 -7 11143.1 560.610 35
4 -4 7 10174.4 514.226 34
4 -4 7 8757.18 523.075 7
4 -4 8 7805.30 396.556 6
-4 4 -8 8460.95 462.637 39
4 4 8 8250.02 413.167 19
4 -4 8 7583.83 426.535 24
-4 4 -8 8437.81 452.815 35
4 -4 8 9287.94 473.668 5
4 4 8 9061.14 440.873 16
4 -4 8 6484.64 397.226 7
4 -4 9 322.081 169.622 5
4 4 9 306.614 138.759 19
-4 4 -9 127.079 137.115 35
-4 -4 -9 188.143 100.930 34
-4 4 -9 235.039 144.467 39
4 4 9 311.693 156.450 16
4 -4 10 2057.85 193.928 5
-4 4 -10 1741.77 175.929 39
4 4 10 1609.13 157.232 19
4 4 11 6804.01 277.432 16
4 -4 11 5771.42 289.100 5
-4 -5 11 16155.5 655.430 6
4 5 -11 17020.1 631.962 18
4 -5 -11 16431.4 624.994 4
4 -5 -10 12551.6 515.034 34
-4 -5 10 12133.7 542.401 40
-4 5 10 12027.9 558.675 38
4 -5 -10 12557.4 529.997 37
4 5 -10 13077.4 534.070 18
4 5 -10 13098.9 535.405 22
-4 5 10 13618.8 538.483 8
4 -5 -10 12544.2 511.800 7
4 -5 -10 12645.1 516.254 4
4 5 -10 11788.1 552.300 39
4 -5 -9 1172.61 159.428 4
-4 5 9 1063.05 151.334 41
-4 -5 9 1043.27 166.430 40
4 5 -9 1164.00 205.041 22
-4 5 9 1184.31 183.418 38
4 -5 -9 1112.40 152.738 37
4 5 -9 1052.53 169.316 20
4 5 -9 1014.24 180.871 39
-4 5 9 938.057 149.606 8
4 5 -9 1156.99 172.677 18
4 -5 -9 1145.03 140.523 34
4 -5 -9 1298.00 150.853 7
-4 5 8 5170.04 341.848 41
4 5 -8 4922.07 338.935 39
-4 5 8 4719.73 344.666 38
4 -5 -8 5445.66 319.601 37
4 5 -8 5269.60 352.004 22
-4 5 8 5320.73 312.103 8
4 5 -8 5031.32 327.553 20
4 -5 -8 5599.88 307.227 34
4 5 -8 5154.52 325.467 18
-4 -5 8 5169.84 327.110 40
4 -5 -8 5464.69 311.151 7
4 -5 -8 5757.32 316.374 4
-4 5 7 1960.09 229.196 25
-4 -5 7 2801.07 245.360 40
4 5 -7 1887.41 240.645 39
4 5 -7 2621.10 281.867 22
-4 5 7 2085.86 242.742 38
4 -5 -7 2186.90 216.533 37
-4 5 7 2768.48 228.990 8
4 5 -7 2458.61 242.531 20
4 -5 -7 2362.54 211.201 34
4 5 -7 2325.05 244.021 18
-4 5 7 2380.94 254.420 41
4 -5 -7 1931.17 211.908 7
-4 -5 6 2434.12 246.631 40
-4 5 6 2441.56 277.052 41
-4 5 6 2149.75 249.582 38
4 -5 -6 2247.30 221.988 37
4 5 -6 2172.51 241.358 20
4 -5 -6 2540.74 198.373 36
-4 5 6 2783.26 229.426 8
4 5 -6 1809.91 236.308 39
4 5 -6 1898.98 233.069 18
4 -5 -6 2267.60 230.246 7
-4 5 5 18249.0 841.710 38
4 -5 -5 19537.6 825.392 37
4 5 -5 19851.6 832.595 20
-4 5 5 20696.0 822.114 8
4 5 -5 18598.4 818.327 18
4 -5 -5 18412.5 830.312 7
4 -5 -5 20255.8 798.388 36
4 -5 -4 11975.1 585.506 4
4 -5 -4 12269.0 574.785 37
-4 5 4 11623.4 638.536 41
-4 5 4 11662.7 583.713 38
4 -5 -4 12125.0 553.433 36
-4 5 4 13750.9 581.636 8
4 5 -4 11864.9 574.848 18
4 -5 -4 12171.1 572.879 34
4 5 -4 12334.3 583.715 20
4 5 -4 12158.2 563.251 17
4 -5 -4 12194.4 601.714 7
4 -5 -3 16588.9 738.044 4
-4 5 3 16528.7 797.327 41
4 5 -3 17285.0 729.639 20
4 -5 -3 16161.8 718.082 37
4 -5 -3 16741.5 711.155 36
4 5 -3 16365.0 720.392 18
4 -5 -3 16358.9 723.326 34
4 5 -3 16152.9 704.773 17
-4 5 3 17057.5 720.505 8
4 -5 -3 15577.8 749.900 7
4 -5 -2 16589.6 719.482 6
-4 5 2 16629.1 795.817 41
4 -5 -2 16641.3 729.072 37
4 5 -2 17032.3 736.044 20
4 -5 -2 17245.3 726.368 36
-4 5 2 17673.1 732.893 8
4 5 -2 16573.5 727.881 18
4 -5 -2 16092.6 728.902 34
4 5 -2 16246.9 713.033 17
4 -5 -2 17511.7 784.721 7
-4 5 1 1424.41 227.800 41
4 -5 -1 911.834 172.677 37
4 5 -1 995.429 188.869 20
4 5 -1 1104.96 170.939 19
-4 5 1 1149.41 181.937 8
4 5 -1 805.548 194.861 18
4 -5 -1 1050.51 185.996 34
4 5 -1 855.627 165.898 17
4 -5 0 7010.46 411.095 6
-4 5 0 6496.48 414.316 41
4 5 0 6102.57 355.986 19
-4 5 0 6395.00 375.150 8
-4 5 0 6643.18 420.722 35
4 5 0 6979.71 379.823 18
4 -5 0 6786.03 383.837 34
4 5 0 6847.49 368.808 17
4 -5 0 7149.28 442.235 7
4 -5 1 2047.45 251.291 6
-4 5 -1 2201.88 227.375 41
4 -5 1 1834.03 205.798 36
4 5 1 1902.87 211.401 19
-4 5 -1 1906.54 208.671 8
4 5 1 1909.83 220.358 18
-4 5 -1 1931.04 246.801 35
4 -5 1 2191.02 219.319 34
4 5 1 1845.27 196.305 17
4 5 1 1725.87 218.288 16
4 -5 1 1732.26 258.065 7
-4 5 -2 4240.89 330.265 39
4 -5 2 4123.63 329.325 6
-4 5 -2 4119.22 289.503 8
4 -5 2 4380.13 289.200 36
4 5 2 4397.61 294.268 19
4 5 2 4160.94 296.408 18
4 -5 2 4442.20 304.151 34
4 5 2 3938.20 274.928 17
4 5 2 4148.19 304.982 16
4 -5 2 4664.66 361.265 7
-4 5 -2 4387.65 347.003 35
4 -5 3 839.722 209.178 6
-4 5 -3 648.653 198.571 39
-4 5 -3 894.062 158.727 8
4 -5 3 990.468 163.974 36
4 5 3 1046.94 182.807 19
-4 5 -3 929.311 228.262 35
4 5 3 918.125 190.180 18
4 -5 3 777.728 161.648 34
4 5 3 664.402 188.392 16
4 -5 3 776.674 218.276 7
-4 5 -4 362.211 180.294 39
4 -5 4 293.107 130.042 36
4 5 4 349.590 163.470 19
-4 5 -4 351.036 190.094 35
4 5 4 276.971 163.414 18
-4 5 -4 427.494 131.108 8
4 -5 4 253.242 137.129 34
4 5 4 399.966 183.186 16
4 -5 4 554.507 203.830 7
-4 5 -5 8678.34 465.434 39
4 -5 5 9313.02 457.161 6
4 -5 5 7851.20 431.584 5
4 -5 5 7824.81 407.411 36
-4 5 -5 8555.54 466.084 35
4 5 5 8769.91 419.692 18
-4 5 -5 7653.69 403.748 8
4 5 5 8697.27 442.049 16
4 -5 5 7966.51 463.749 7
4 -5 5 7055.68 426.408 34
4 -5 6 2056.57 214.856 6
4 -5 6 1743.27 175.598 36
-4 5 -6 1824.58 219.370 39
4 -5 6 1848.50 209.083 5
4 5 6 1913.69 198.377 19
-4 5 -6 1911.28 228.034 35
-4 5 -6 1640.29 163.499 8
4 5 6 2206.33 228.358 16
4 -5 6 1814.89 219.600 7
4 -5 7 77.6595 119.648 6
-4 5 -7 126.789 128.224 39
4 5 7 -31.8704 128.130 19
4 -5 7 25.0448 137.150 5
4 5 7 -59.8365 148.710 16
4 -5 7 -12.6307 117.464 7
4 -5 8 16972.1 662.278 5
4 -5 8 15735.6 628.806 6
-4 5 -8 15559.5 669.168 39
4 5 8 17226.1 648.671 19
-4 5 -8 16162.9 671.594 35
4 5 8 17486.2 662.145 16
4 -5 9 6378.61 296.509 5
4 5 9 7221.67 293.236 19
4 -6 -8 172.086 79.5199 4
-4 -6 8 168.180 130.736 6
-4 6 8 128.361 69.4313 8
4 6 -8 89.4985 80.4984 18
4 -6 -8 97.2398 62.3670 7
4 -6 -7 540.633 109.587 4
-4 -6 7 572.493 159.418 6
-4 6 7 706.181 102.321 8
4 6 -7 719.561 115.957 18
4 6 -7 286.467 68.6674 17
4 -6 -7 625.007 98.8902 7
-4 -6 6 8267.22 439.720 6
-4 6 6 8250.58 427.305 41
-4 6 6 9981.77 397.874 8
4 6 -6 9337.42 406.584 20
4 -6 -6 9222.88 400.133 7
4 6 -6 8619.06 395.008 18
4 -6 -6 9199.34 401.625 34
4 6 -6 8721.33 380.063 17
-4 -6 6 7846.65 412.011 40
-4 -6 5 6409.06 386.334 6
4 -6 -5 7163.14 338.833 36
-4 -6 5 6998.97 373.931 40
4 6 -5 7375.52 360.500 20
-4 6 5 7961.21 351.316 8
4 6 -5 7063.19 352.774 18
4 -6 -5 7676.35 360.074 34
4 6 -5 7501.78 342.588 17
4 -6 -5 7360.70 360.074 7
-4 6 4 3771.10 278.091 41
-4 6 4 3870.44 227.425 8
4 -6 -4 3535.05 223.727 36
4 6 -4 3708.66 239.192 18
4 -6 -4 3606.50 232.526 34
4 6 -4 3443.61 221.926 17
4 -6 -4 3858.42 249.893 7
4 6 -4 3949.21 249.304 20
4 -6 -3 1333.72 151.616 36
4 -6 -3 1457.05 192.307 4
-4 6 3 1259.27 187.130 41
-4 6 3 1471.47 151.115 8
4 6 -3 1369.35 173.725 18
4 -6 -3 1367.85 159.110 34
4 6 -3 1460.93 154.359 17
4 -6 -3 1523.83 186.845 7
4 -6 -2 5962.12 337.283 4
-4 6 2 5599.73 302.567 8
-4 6 2 5443.24 351.989 41
4 -6 -2 5656.82 317.833 34
4 -6 -2 5943.20 316.412 36
4 6 -2 6417.53 328.630 18
4 6 -2 6307.24 313.190 17
4 -6 -2 5954.28 347.681 7
4 -6 -1 2768.25 241.041 4
4 -6 -1 2558.13 198.108 6
-4 6 1 2619.45 230.018 41
-4 6 1 2393.30 185.982 8
4 -6 -1 2104.93 196.147 34
4 6 -1 2439.05 198.426 17
4 -6 -1 2901.10 244.165 7
4 6 -1 2780.55 218.714 18
4 -6 0 7102.02 373.587 4
4 -6 0 6022.54 342.731 6
-4 6 0 6596.46 364.616 41
4 -6 0 7184.32 350.050 36
-4 6 0 6081.35 322.128 8
4 6 0 6876.30 330.483 19
4 6 0 6802.37 347.995 18
4 -6 0 7031.27 353.411 34
4 6 0 7535.42 346.144 17
4 -6 1 21483.9 456.208 6
-4 6 -1 18081.2 416.590 41
4 -6 1 20229.7 428.350 36
-4 -6 -1 18841.7 418.513 36
4 6 1 20675.7 398.053 19
4 6 1 20064.4 407.521 18
4 -6 1 19696.1 431.129 34
4 -6 2 10327.5 468.029 6
-4 -6 -2 9134.92 451.374 36
4 -6 2 9658.43 442.762 36
4 6 2 10257.4 441.991 19
4 6 2 10426.9 442.374 18
4 -6 2 9475.01 447.788 34
4 -6 2 10310.9 495.132 7
-4 -6 -3 661.932 129.928 36
4 -6 3 872.981 122.327 36
4 -6 3 852.490 159.683 6
4 6 3 589.947 134.618 19
4 6 3 666.810 139.969 18
4 -6 3 838.732 165.722 7
4 -6 4 269.435 124.844 6
-4 -6 -4 84.3780 95.9974 36
4 -6 4 166.713 89.9038 36
4 6 4 240.141 116.209 19
4 -6 4 208.093 122.063 7
4 6 5 2176.45 166.422 19
4 -6 5 2264.44 181.754 7
4 -6 6 3232.21 178.686 6
-5 0 16 223.695 78.4943 3
5 0 -15 9410.21 453.473 26
5 0 -15 9093.47 449.813 33
-5 0 15 10458.0 446.567 3
5 0 -15 10413.1 433.012 4
5 0 -14 13477.8 615.196 33
-5 0 14 12535.4 627.729 38
-5 0 14 11163.4 567.111 5
-5 0 14 14893.9 612.136 3
5 0 -14 15023.2 589.765 4
-5 0 13 6268.50 453.158 38
-5 0 13 7914.77 435.368 3
5 0 -13 7914.40 405.276 4
5 0 -13 6892.69 433.310 33
5 0 -12 -8.12610 148.511 4
-5 0 12 97.0288 204.150 3
-5 0 12 59.6043 211.503 38
5 0 -12 -127.941 194.967 33
-5 0 11 1984.12 266.984 41
-5 0 11 2761.02 354.550 38
5 0 -11 2349.13 241.082 4
5 0 -11 2613.77 291.706 33
-5 0 11 2897.05 298.077 3
5 0 -10 27942.3 1118.60 7
5 0 -10 28124.5 1148.16 33
5 0 -10 25877.4 1073.67 4
-5 0 9 5568.63 746.393 29
5 0 -9 4375.66 681.261 23
5 0 -9 5280.13 578.423 9
5 0 -9 5100.77 360.774 7
-5 0 9 6355.15 453.626 38
5 0 -9 6455.42 399.769 33
-5 0 9 5500.44 776.976 32
-5 0 8 7505.14 822.739 29
5 0 -8 7458.65 766.446 23
-5 0 8 8183.46 517.161 38
5 0 -8 7531.91 651.180 9
5 0 -8 7614.78 439.528 33
-5 0 8 7638.46 861.866 32
-5 0 7 99080.4 3964.71 29
5 0 -7 89560.0 3282.16 33
5 0 -7 90535.4 3785.47 23
5 0 -7 95110.3 3579.86 9
-5 0 7 91576.9 3864.41 32
5 0 -6 168.328 245.292 23
5 0 -6 190.067 213.534 9
5 0 -6 298.556 150.808 33
-5 0 6 460.276 315.865 32
-5 0 5 76561.0 3054.22 29
5 0 -5 66388.6 2699.37 9
5 0 -5 67076.8 2892.14 23
-5 0 5 71083.1 2918.63 32
-5 0 4 15056.5 956.283 29
-5 0 4 14037.4 944.914 27
5 0 -4 13273.6 904.955 23
5 0 -4 13112.8 750.080 9
-5 0 4 13303.3 855.128 32
-5 0 3 1101.01 343.616 29
-5 0 3 1144.14 320.525 27
5 0 -3 1119.48 316.026 23
5 0 -3 1134.05 257.094 9
-5 0 3 1382.81 320.876 32
-5 0 2 9643.90 679.319 29
-5 0 2 8222.55 657.968 27
5 0 -2 7223.89 518.810 2
5 0 -2 7751.04 643.741 23
-5 0 2 7655.77 531.637 32
-5 0 1 16990.1 911.211 29
-5 0 1 18299.5 975.105 27
5 0 -1 15119.6 965.970 23
5 0 -1 16135.6 815.248 2
5 0 -1 13868.9 654.984 1
5 0 0 1725.41 212.997 1
5 0 0 2080.96 404.334 23
-5 0 0 1798.55 294.160 29
5 0 0 1858.16 271.301 2
-5 0 0 2422.07 387.964 27
-5 0 -1 112546. 4069.12 28
5 0 1 103107. 3818.73 1
-5 0 -1 120621. 4118.93 27
5 0 1 103844. 3845.36 11
5 0 1 107560. 4220.19 23
5 0 1 95621.9 3909.22 2
-5 0 -2 87940.9 3347.18 28
-5 0 -2 87092.1 3323.09 27
5 0 2 82651.5 3138.73 1
5 0 2 82437.8 3484.83 23
5 0 2 78080.7 3213.89 2
-5 0 -3 1354.45 336.637 28
5 0 3 1210.05 276.280 2
5 0 3 1175.35 191.036 26
5 0 3 1147.23 253.992 1
-5 0 -4 11688.3 861.629 28
5 0 4 11433.3 574.823 26
5 0 4 11404.3 522.984 24
5 0 4 10665.6 514.139 36
5 0 4 10186.8 515.186 34
5 0 4 9582.33 734.785 1
-5 0 -5 267.841 314.827 28
5 0 5 307.113 191.715 26
5 0 5 314.467 171.145 24
5 0 5 579.448 166.457 40
5 0 5 406.394 269.604 1
5 0 5 261.325 149.255 36
-5 0 -6 1831.29 427.888 28
5 0 6 1501.20 263.088 26
5 0 6 1749.96 235.174 24
5 0 6 1596.89 228.081 40
5 0 6 1589.05 220.128 36
5 0 6 915.313 338.705 1
5 0 7 41.3801 205.684 3
5 0 7 125.284 280.407 1
5 0 7 262.375 173.596 40
5 0 7 165.668 148.158 21
5 0 7 245.414 166.179 36
5 0 7 158.550 173.686 19
5 0 8 10.6887 225.235 3
5 0 8 31.8611 179.290 40
5 0 8 117.138 175.136 19
-5 0 -8 32.8674 186.238 33
5 0 9 2560.63 313.489 24
5 0 9 2384.98 275.791 40
5 0 9 3259.19 299.135 3
-5 0 -9 3119.10 278.238 33
5 0 10 10773.6 553.018 3
5 0 10 9876.84 536.626 40
-5 0 -10 11136.3 548.775 33
5 0 11 134.728 151.281 40
-5 0 -11 328.586 137.976 33
5 0 11 321.828 194.272 3
5 0 12 1869.70 202.884 3
-5 0 -12 1970.64 182.140 33
5 0 13 -40.8106 79.9633 13
5 0 13 -31.5135 100.867 3
-5 -1 15 3486.20 214.744 3
-5 1 15 3119.03 209.122 3
-5 -1 14 4103.02 320.115 38
-5 -1 14 5143.76 323.921 5
5 -1 -14 5298.89 322.656 33
-5 -1 14 5062.62 311.600 3
-5 1 14 5577.36 319.121 3
5 1 -14 4848.75 297.772 4
-5 1 14 4483.37 326.328 38
5 1 -14 5038.86 320.614 33
-5 -1 13 20786.1 970.626 38
-5 1 13 21406.7 980.508 38
5 1 -13 22961.8 908.413 4
-5 -1 13 23340.0 929.371 3
-5 1 13 22212.3 922.695 3
5 -1 -13 22893.4 901.381 4
5 -1 -13 21595.7 940.597 33
5 1 -13 23148.6 952.706 33
-5 -1 12 12675.5 609.509 3
-5 -1 12 10959.2 657.657 38
-5 1 12 12111.4 681.068 38
5 -1 -12 13223.5 616.429 7
5 1 -12 12326.6 590.857 4
5 -1 -12 12788.0 630.992 33
5 1 -12 13230.3 640.609 33
-5 1 12 12419.9 605.354 3
5 -1 -12 12022.1 573.640 4
-5 -1 11 3574.79 375.210 38
5 -1 -11 3351.70 309.254 7
5 1 -11 4305.66 315.088 4
5 -1 -11 4311.76 346.071 33
5 1 -11 4774.72 365.952 33
5 -1 -11 4017.79 300.648 4
-5 -1 11 4418.33 342.392 3
-5 1 11 4499.17 343.881 3
-5 1 11 3240.37 321.924 41
-5 1 10 3427.99 330.565 41
5 1 -10 3861.17 317.897 39
-5 1 10 4376.35 400.091 38
-5 -1 10 2908.72 358.321 38
5 -1 -10 3386.63 258.545 37
5 1 -10 3981.63 295.835 4
5 -1 -10 4372.46 343.704 33
5 1 -10 4021.89 344.479 33
5 -1 -10 3671.25 283.757 4
5 1 -10 3379.63 300.101 15
-5 -1 9 11669.7 1047.03 29
-5 1 9 12718.3 659.225 41
-5 1 9 10761.0 1036.89 29
-5 1 9 12839.8 1098.22 27
5 -1 -9 11708.7 1022.68 23
5 1 -9 11226.6 1026.19 23
-5 1 9 12957.1 706.590 38
5 1 -9 11590.1 913.716 9
5 -1 -9 11805.5 550.961 37
5 1 -9 13463.7 621.608 39
5 -1 -9 12529.7 591.556 7
5 1 -9 11828.0 573.197 4
5 -1 -9 13461.6 628.653 33
5 1 -9 12800.1 626.734 33
5 -1 -9 12518.9 564.142 4
-5 1 9 12600.1 1187.80 32
5 1 -9 12133.3 591.800 15
-5 -1 8 13883.4 1124.47 29
-5 1 8 12184.5 1109.34 29
-5 1 8 15013.8 733.454 41
-5 1 8 15899.7 1202.01 27
5 -1 -8 14575.8 1084.44 23
5 1 -8 12575.7 1050.63 23
-5 1 8 16470.7 767.337 38
5 1 -8 13969.8 979.558 9
5 -1 -8 14479.4 621.069 37
5 1 -8 15274.0 680.390 39
5 -1 -8 14505.3 674.870 33
5 1 -8 14473.3 676.454 33
-5 -1 8 12506.7 1095.61 32
-5 1 8 12172.4 1143.33 32
-5 -1 7 4375.15 593.176 29
-5 1 7 3773.83 589.802 29
-5 1 7 4350.51 600.737 27
5 -1 -7 3330.83 508.246 23
5 1 -7 3830.71 545.150 23
-5 1 7 4564.39 360.549 38
5 1 -7 3247.28 464.354 9
5 -1 -7 3950.50 249.252 37
5 1 -7 4342.06 301.497 39
5 -1 -7 4129.78 298.247 33
5 1 -7 4276.19 306.531 33
-5 -1 7 3388.02 536.854 32
-5 1 7 4340.63 639.589 32
-5 1 6 39396.5 1503.13 38
-5 1 6 43416.0 2015.60 27
5 -1 -6 37126.5 1840.53 23
5 1 -6 37578.4 1852.86 23
5 -1 -6 36074.2 1567.54 9
5 1 -6 38550.5 1737.11 9
5 1 -6 38196.8 1428.27 39
5 1 -6 36025.6 1418.44 33
5 -1 -6 35719.5 1416.60 33
-5 -1 6 37893.0 1848.85 32
-5 1 6 39017.8 1964.09 32
-5 -1 5 40464.5 1855.09 29
-5 1 5 38131.8 1901.18 29
5 -1 -5 38443.6 1814.79 23
-5 1 5 40130.2 1905.41 27
5 1 -5 37130.3 1410.05 39
5 -1 -5 36024.8 1536.16 9
5 1 -5 36238.6 1673.02 9
5 1 -5 36039.8 1791.27 23
-5 -1 5 38457.4 1780.46 32
-5 1 5 36505.4 1840.90 32
-5 -1 4 26828.1 1319.09 29
-5 1 4 23052.8 1320.61 29
5 -1 -4 21704.9 1026.10 9
5 1 -4 22707.7 1153.06 9
-5 -1 4 24191.7 1210.79 32
-5 1 4 23911.0 1263.82 32
5 1 -4 21837.6 1248.81 23
5 -1 -4 22917.7 1262.94 23
-5 -1 3 97274.5 3728.47 29
-5 1 3 94513.2 3789.23 29
-5 1 3 102969. 3854.67 27
5 -1 -3 102682. 3815.48 23
5 -1 -3 102150. 3763.75 2
5 1 -3 82515.7 3701.87 23
5 -1 -3 95962.1 3494.17 9
-5 -1 3 89524.0 3601.77 32
-5 1 3 93104.4 3683.22 32
-5 -1 2 136883. 5110.77 29
-5 1 2 160519. 5251.06 29
-5 -1 2 111750. 5063.57 27
-5 1 2 171292. 5371.08 27
5 -1 -2 157426. 5312.36 23
5 1 -2 120080. 5170.03 23
5 -1 -2 138872. 5141.33 2
-5 -1 2 118515. 4980.62 32
-5 1 2 154593. 5068.93 32
-5 -1 1 149319. 5734.46 29
-5 1 1 200391. 5926.44 29
-5 -1 1 117591. 5704.74 27
-5 1 1 200689. 6080.22 27
5 -1 -1 185394. 6060.81 23
5 1 -1 136167. 5868.72 23
5 -1 -1 198149. 5974.32 2
-5 -1 1 143467. 5641.42 32
-5 -1 0 9830.37 634.613 29
-5 1 0 13692.7 752.378 29
-5 -1 0 8364.68 663.814 27
-5 1 0 12548.7 831.544 27
5 1 0 9884.00 653.580 11
5 -1 0 10450.5 621.353 1
5 -1 0 12132.1 874.923 23
5 1 0 10174.7 805.821 23
5 -1 0 12540.7 810.435 2
-5 1 -1 49330.2 2074.87 28
-5 -1 -1 43264.5 1997.35 28
5 -1 1 50282.1 1926.06 1
5 1 1 45339.8 1942.94 11
-5 1 -1 49004.8 2157.66 27
5 -1 1 44602.4 2175.57 23
5 1 1 43210.3 2141.18 23
5 -1 1 47491.5 2129.54 2
-5 1 -2 18346.0 1021.79 28
-5 -1 -2 18093.1 1022.68 28
-5 1 -2 17314.0 1087.26 27
5 1 2 17321.8 903.754 10
5 -1 2 16739.4 698.171 36
5 -1 2 17877.2 927.503 1
5 -1 2 15812.2 1061.37 2
5 1 2 17946.2 941.484 11
-5 1 -3 14112.7 910.286 28
-5 -1 -3 12636.3 875.048 28
-5 1 -3 13244.7 946.964 27
5 1 3 12795.3 793.375 11
5 -1 3 12431.1 623.745 26
5 1 3 12834.0 616.445 26
5 1 3 12937.9 750.202 10
5 1 3 12158.1 576.934 36
-5 1 -3 12831.4 579.470 35
5 -1 3 13313.0 573.243 34
5 -1 3 10823.7 927.734 2
5 -1 3 14086.2 832.909 1
5 -1 4 4487.24 310.554 34
-5 1 -4 4808.30 563.546 28
-5 -1 -4 5273.21 587.664 28
-5 1 -4 4756.05 593.717 27
5 -1 4 4450.96 500.918 1
5 -1 4 4872.64 372.174 26
5 1 4 4302.45 343.894 26
5 1 4 5088.03 499.482 11
5 1 4 4693.45 322.667 24
5 1 4 4736.43 317.835 40
-5 1 -4 5387.81 338.344 39
5 -1 4 4776.07 302.992 36
-5 1 -4 4579.46 312.488 35
5 -1 4 4507.85 603.785 2
5 -1 5 165.419 188.856 26
-5 1 -5 75.6839 268.639 28
-5 -1 -5 341.698 273.043 28
5 -1 5 463.970 306.917 2
5 1 5 110.889 199.419 11
5 1 5 306.148 172.391 24
5 1 5 242.594 174.987 40
-5 1 -5 162.137 157.729 39
5 -1 5 65.3297 249.535 1
5 1 5 193.606 189.590 26
5 -1 5 140.880 133.727 36
5 1 6 6064.09 369.940 19
5 -1 6 6118.10 400.375 3
-5 1 -6 6687.40 743.675 28
-5 -1 -6 6136.25 694.326 28
5 1 6 5806.13 415.497 24
5 1 6 7071.16 413.933 40
-5 1 -6 5996.25 386.916 39
5 1 6 6110.93 399.468 3
5 -1 6 6719.83 411.463 5
5 -1 6 6460.64 383.940 36
5 -1 6 5381.68 648.681 1
5 -1 6 5350.57 730.715 2
5 -1 6 5986.82 373.413 40
5 -1 7 1243.92 219.850 3
5 1 7 1370.25 225.672 3
5 -1 7 874.956 221.202 24
5 1 7 760.773 228.366 24
5 -1 7 691.840 184.268 40
5 1 7 830.590 217.294 40
-5 1 -7 874.790 201.658 39
5 -1 7 651.224 183.312 36
5 -1 7 828.796 212.127 5
5 1 7 509.683 179.861 19
5 -1 8 3515.90 326.678 24
5 1 8 3028.79 314.031 40
5 -1 8 3479.50 310.937 3
5 -1 8 2906.68 280.045 40
5 1 8 3461.64 320.131 3
5 -1 8 3289.50 264.251 21
5 1 8 3222.80 284.850 19
5 -1 8 2748.35 275.284 36
5 -1 8 3101.88 299.867 5
-5 1 -8 3684.58 302.222 33
-5 -1 -8 3582.79 294.861 33
5 1 9 1722.31 248.609 3
5 -1 9 914.686 232.332 24
5 -1 9 755.345 198.548 40
5 1 9 1060.95 229.750 40
5 -1 9 1008.51 176.132 21
5 -1 9 851.282 203.161 5
5 -1 9 870.821 185.370 36
5 1 9 983.589 199.382 19
-5 1 -9 1635.53 209.915 33
-5 -1 -9 1436.64 200.774 33
5 -1 9 1083.86 229.713 3
5 -1 10 978.386 215.368 24
5 -1 10 796.321 184.741 40
5 1 10 929.931 209.539 40
5 -1 10 798.262 185.240 5
5 1 10 755.043 178.245 19
-5 1 -10 898.189 186.458 33
-5 -1 -10 1074.26 187.378 33
5 -1 10 732.451 213.222 3
5 1 10 704.926 220.715 3
5 -1 11 5240.89 329.716 40
5 -1 11 6414.83 358.452 3
5 1 11 5480.53 351.424 40
5 1 11 6530.33 363.653 3
-5 1 -11 5476.61 334.600 33
-5 -1 -11 6083.82 344.404 33
-5 -1 -12 78.4103 83.9845 37
5 -1 12 160.131 138.899 3
5 1 12 241.009 141.882 3
5 2 -15 776.788 114.714 22
-5 -2 15 740.030 128.897 5
-5 -2 14 2071.96 176.111 3
-5 2 14 1657.74 185.770 38
-5 -2 14 2017.18 222.542 5
-5 2 14 1756.16 168.683 3
5 -2 -13 2499.45 229.003 26
5 2 -13 2171.41 221.436 26
-5 -2 13 1990.66 250.558 38
-5 2 13 2303.94 209.846 8
-5 -2 13 2439.36 224.203 3
-5 2 13 2775.89 227.212 3
5 -2 -13 2258.18 226.586 7
-5 2 13 2264.01 252.375 38
5 -2 -13 1959.66 173.497 37
5 -2 -13 2296.59 223.310 33
5 2 -13 2355.70 223.703 33
-5 -2 12 18873.2 940.300 38
-5 2 12 20499.7 880.687 8
5 -2 -12 20927.1 857.866 37
-5 -2 12 22665.7 887.062 3
-5 2 12 21812.3 880.357 3
5 -2 -12 21890.9 905.536 7
5 2 -12 21948.8 908.172 33
5 -2 -12 20840.3 898.430 33
5 -2 -12 21959.2 869.172 4
-5 2 11 7168.97 469.265 41
5 2 -11 8861.79 491.692 39
-5 -2 11 7286.30 519.901 38
5 -2 -11 7939.79 428.439 37
-5 2 11 9121.49 555.030 38
5 2 -11 8429.60 460.839 4
5 -2 -11 9070.82 472.275 7
-5 -2 11 8840.88 467.533 3
5 -2 -11 8675.51 478.271 33
5 2 -11 8107.24 477.322 33
-5 2 11 7843.14 452.794 3
-5 2 11 8084.00 448.427 8
5 -2 -11 8910.65 442.830 4
5 2 -10 47296.7 1775.46 39
-5 2 10 47981.5 1866.94 38
5 -2 -10 45905.0 1719.90 37
-5 2 10 47310.3 1726.43 8
5 2 -10 45937.7 1732.13 4
5 -2 -10 45990.1 1743.24 7
5 -2 -10 46447.6 1755.94 33
5 2 -10 46298.5 1759.32 33
-5 -2 10 44450.3 1723.35 3
-5 2 10 44112.0 1719.86 3
5 -2 -10 46319.8 1709.75 4
-5 2 10 43893.5 1786.02 41
5 2 -10 43787.0 1700.73 14
5 2 -9 63.3209 170.279 14
5 2 -9 16.9108 149.594 4
5 -2 -9 46.5860 143.910 4
-5 2 9 -13.4606 182.747 41
-5 2 9 218.759 228.292 38
5 -2 -9 8.78204 127.949 37
5 2 -9 122.249 183.234 39
-5 2 9 91.0982 129.039 8
5 -2 -9 457.790 162.333 33
5 2 -9 363.550 168.315 33
5 2 -9 91.2252 193.695 15
-5 -2 8 3522.49 585.998 29
-5 2 8 4615.39 721.868 29
-5 2 8 5768.79 706.548 27
5 -2 -8 4429.60 600.665 23
5 2 -8 4971.41 645.668 23
5 2 -8 5204.79 366.297 39
-5 2 8 5512.80 423.217 38
5 -2 -8 5472.97 326.549 37
-5 2 8 5225.40 314.080 8
5 -2 -8 5290.36 345.848 33
5 2 -8 4956.16 351.001 33
5 2 -8 4613.27 344.881 15
-5 2 8 4121.48 718.952 32
-5 2 8 5154.02 398.247 41
5 -2 -8 5335.66 323.129 4
5 2 -8 4993.50 329.557 14
-5 -2 7 281.042 289.175 29
-5 2 7 316.162 332.724 29
-5 2 7 754.751 210.032 41
-5 2 7 723.927 338.023 27
5 2 -7 397.327 171.267 39
5 -2 -7 770.128 310.801 23
5 2 -7 908.272 318.716 23
-5 2 7 536.211 200.783 38
5 2 -7 537.468 307.446 9
5 -2 -7 617.197 146.498 37
5 -2 -7 564.596 161.864 33
5 2 -7 354.396 158.638 33
-5 -2 7 197.067 294.575 32
-5 2 7 108.032 346.674 32
-5 2 6 15718.9 1118.60 27
5 -2 -6 14475.1 642.017 26
5 2 -6 14433.3 653.763 26
5 -2 -6 14210.5 593.757 34
5 -2 -6 14771.4 1019.56 23
5 2 -6 13617.2 1013.91 23
-5 2 6 14817.9 711.930 38
5 2 -6 14347.3 972.867 9
5 -2 -6 14500.6 629.374 37
5 -2 -6 14009.9 634.615 33
-5 -2 6 13830.7 993.315 32
-5 2 6 13898.7 1132.40 32
5 2 -6 14379.4 641.665 33
-5 -2 5 3813.98 510.138 29
-5 2 5 3839.70 601.299 29
-5 2 5 3571.10 540.515 27
5 -2 -5 3292.54 243.886 26
5 2 -5 3243.25 253.129 26
5 -2 -5 4008.85 494.422 23
5 2 -5 3407.72 274.919 39
5 2 -5 2387.01 435.192 23
-5 2 5 3207.46 284.062 38
-5 2 5 3949.57 318.145 41
5 2 -5 3436.66 459.873 9
5 -2 -5 3453.74 240.155 37
5 -2 -5 3270.71 213.420 34
5 -2 -5 3034.72 240.687 33
5 2 -5 3073.63 246.085 33
-5 -2 5 3170.09 453.583 32
-5 2 5 3887.24 570.539 32
-5 -2 4 36000.9 1652.68 29
-5 2 4 30879.8 1727.29 29
-5 2 4 32431.0 1277.97 41
-5 2 4 34952.2 1733.99 27
-5 2 4 32000.6 1457.94 12
5 -2 -4 34432.3 1643.28 23
5 2 -4 29852.3 1230.15 39
5 2 -4 32138.8 1624.45 23
5 -2 -4 32349.2 1214.04 37
5 -2 -4 31046.5 1182.60 34
5 2 -4 34724.5 1568.85 9
-5 -2 4 33412.8 1555.81 32
-5 2 4 29905.1 1639.25 32
-5 2 3 106254. 4431.81 29
-5 2 3 112001. 4435.18 27
-5 2 3 116568. 4169.80 12
5 -2 -3 117484. 4379.75 23
5 2 -3 109668. 4354.47 23
5 2 -3 112075. 4242.31 9
-5 2 3 109487. 3943.37 41
5 -2 -3 107163. 3881.32 37
-5 -2 3 116789. 4239.34 32
-5 2 3 103202. 4267.87 32
-5 -2 3 124582. 4366.37 29
-5 2 2 2710.41 444.708 29
5 -2 -2 3137.01 462.814 2
-5 2 2 2926.16 463.306 27
-5 2 2 3178.55 352.217 12
5 -2 -2 3211.89 461.730 23
5 2 -2 3047.16 413.556 9
5 2 -2 2605.85 449.635 23
-5 -2 2 3545.75 391.016 32
5 -2 -2 3498.41 321.792 31
-5 -2 2 3348.94 342.618 30
-5 -2 2 4101.44 455.995 29
-5 2 1 12227.4 905.247 29
5 -2 -1 12600.8 928.504 2
-5 2 1 12854.5 766.482 12
5 -2 -1 13508.8 941.306 23
5 2 -1 12467.4 918.158 23
5 2 -1 14013.7 851.268 9
-5 -2 1 14017.0 791.689 32
5 -2 -1 13940.2 754.060 31
-5 -2 1 12332.2 773.984 30
-5 -2 1 16639.4 893.342 29
-5 2 0 29652.1 1502.38 29
5 -2 0 29186.2 1598.12 2
-5 2 0 29194.1 1401.91 28
-5 -2 0 24552.0 1337.06 28
5 -2 0 27857.5 1115.73 37
-5 2 0 28477.4 1580.13 27
-5 2 0 30544.7 1386.66 12
5 2 0 30331.2 1449.58 11
5 2 0 30433.4 1424.85 10
5 -2 0 30481.1 1580.80 23
5 2 0 27007.4 1496.87 23
5 -2 0 29246.6 1105.09 34
5 -2 0 29312.2 1099.28 36
5 -2 0 30094.6 1348.50 31
5 -2 0 31689.1 1384.13 30
-5 -2 0 33934.6 1422.27 29
-5 2 -1 18640.6 1028.79 28
-5 -2 -1 16031.1 993.048 28
-5 2 -1 18600.0 1212.07 27
-5 2 -1 18143.4 1019.03 12
5 2 1 19616.3 1046.53 10
5 -2 1 19700.4 1039.33 1
5 -2 1 18342.3 765.759 37
5 -2 1 19426.0 752.498 36
5 2 1 20267.4 1090.85 11
-5 2 -1 18013.1 791.241 35
5 -2 1 18942.0 1244.28 2
5 -2 1 18920.5 758.365 34
-5 -2 -1 18333.3 1010.28 31
5 -2 1 19455.7 1019.43 31
5 -2 1 17668.1 1022.86 30
-5 2 -2 21747.8 1142.61 28
-5 -2 -2 19191.1 1104.66 28
-5 2 -2 21262.9 1322.32 27
-5 2 -2 20936.1 1140.74 12
5 2 2 19646.3 851.429 26
5 2 2 21335.6 1118.78 10
5 -2 2 22188.6 1126.38 1
-5 2 -2 19564.2 846.358 35
5 -2 2 20420.9 821.245 34
5 -2 2 19379.7 1336.73 2
5 -2 2 18990.2 822.762 37
5 2 2 20182.1 1135.80 11
5 -2 2 20469.0 1146.93 30
-5 2 -3 4056.84 485.062 28
-5 -2 -3 3425.40 473.363 28
-5 2 -3 4303.12 611.015 27
-5 2 -3 4048.39 496.518 12
5 -2 3 4001.29 342.712 26
5 2 3 3919.58 317.001 26
5 -2 3 4114.74 625.094 2
5 2 3 4753.12 478.365 10
5 2 3 4424.60 319.559 40
-5 2 -3 4395.83 329.888 39
5 2 3 5281.39 562.795 11
5 -2 3 4070.21 291.928 37
5 -2 3 4945.47 290.013 36
-5 2 -3 4514.68 321.108 35
5 -2 3 4747.98 501.543 1
5 -2 3 5073.00 556.762 30
5 -2 4 2759.72 436.743 1
-5 2 -4 2644.38 421.135 28
-5 -2 -4 3586.60 472.428 28
-5 2 -4 4065.25 598.343 27
-5 2 -4 3474.71 457.899 12
5 -2 4 2948.58 310.065 26
5 2 4 2621.51 280.875 26
5 -2 4 3178.48 586.540 2
5 2 4 3500.83 475.630 11
5 2 4 2529.66 278.129 40
-5 2 -4 2910.24 284.445 39
5 2 4 2347.55 363.300 10
5 -2 4 2807.85 241.373 36
-5 2 -4 2788.35 274.293 35
-5 2 -5 26810.0 1109.30 35
-5 2 -5 23268.0 1448.48 28
-5 -2 -5 25645.2 1483.96 28
5 -2 5 25516.0 1482.43 1
-5 2 -5 25471.9 1662.73 27
-5 2 -5 24271.2 1475.22 12
5 2 5 28112.2 1125.32 40
-5 2 -5 26032.5 1115.27 39
5 -2 5 27897.6 1081.31 36
5 2 5 27716.4 1056.95 18
5 -2 5 26562.6 1101.86 34
5 2 5 26668.6 1063.16 16
5 -2 5 24510.0 1724.75 2
5 2 5 26407.8 1479.22 11
5 2 6 53406.7 1999.06 40
5 2 6 51069.0 1952.86 3
-5 2 -6 51330.3 1988.49 39
5 -2 6 53842.2 1993.36 5
5 -2 6 52183.4 1943.57 36
5 2 6 51808.3 1921.87 19
-5 2 -6 50851.7 1970.36 35
5 -2 6 52165.9 1976.32 34
5 2 6 51679.6 1927.23 16
5 -2 7 15180.0 723.335 36
5 -2 7 18060.1 780.499 24
5 2 7 18234.1 800.737 40
5 -2 7 15639.6 732.657 3
5 2 7 14702.0 736.283 3
-5 2 -7 15307.3 761.563 39
5 -2 7 17356.4 781.263 5
5 2 7 16101.4 713.276 19
-5 2 -7 16934.8 755.134 35
5 -2 7 16348.4 763.112 34
-5 2 -7 16985.3 725.736 33
-5 -2 -7 16322.3 724.559 33
5 2 7 15136.4 704.263 16
5 -2 8 3119.83 279.198 36
5 -2 8 3814.97 336.510 24
5 2 8 3946.54 349.247 40
5 -2 8 3163.24 305.916 3
5 2 8 3637.32 318.785 3
-5 2 -8 3451.13 320.386 39
5 -2 8 4095.06 345.414 5
5 2 8 3529.06 290.017 19
-5 2 -8 3601.94 286.753 33
-5 -2 -8 3436.69 285.531 33
5 2 8 3843.57 283.650 16
5 -2 9 15437.1 698.948 24
5 -2 9 13729.5 647.637 3
5 2 9 13957.9 656.933 3
5 2 9 15434.3 700.905 40
-5 2 -9 14697.4 672.974 39
5 -2 9 15271.2 686.213 5
5 2 9 14816.4 641.206 19
5 -2 9 13060.2 634.619 36
-5 2 -9 13328.3 633.679 33
-5 -2 -9 13706.5 639.092 33
5 2 9 14182.1 618.121 16
5 -2 10 378.852 171.041 5
5 -2 10 322.346 170.674 24
5 2 10 295.539 180.516 40
5 -2 10 265.233 132.603 21
-5 -2 -10 203.913 108.711 37
5 2 10 310.155 150.608 19
-5 2 -10 75.1830 124.908 33
-5 -2 -10 164.927 122.557 33
5 -2 10 347.216 165.966 3
5 2 10 132.323 170.079 3
5 -2 11 2921.35 206.031 13
5 2 11 3412.96 217.555 13
5 -2 11 3231.43 222.215 3
5 2 11 3446.27 235.481 3
-5 -2 -11 2677.37 203.076 37
5 2 11 2816.27 208.785 19
5 3 -14 507.944 112.180 22
-5 -3 14 601.848 136.331 5
5 3 -14 459.797 84.4883 18
5 3 -13 1151.88 177.027 22
5 -3 -13 1345.13 133.362 37
-5 3 13 897.036 139.713 8
-5 -3 13 1123.20 199.443 5
5 3 -13 1026.55 146.242 18
5 -3 -13 955.978 142.791 7
-5 3 12 8402.24 478.742 38
5 -3 -12 8172.43 413.345 37
-5 3 12 7971.80 424.316 8
-5 -3 12 9222.65 498.661 5
5 3 -12 9363.23 455.184 22
-5 -3 12 6892.84 458.808 38
5 3 -12 9121.43 431.378 18
5 -3 -12 9739.13 446.030 7
-5 3 11 2120.33 232.638 41
5 3 -11 2279.66 263.095 39
5 3 -11 3025.73 291.583 22
-5 3 11 3010.45 305.223 38
5 -3 -11 2721.98 233.518 37
5 -3 -11 2477.49 239.462 7
5 -3 -11 2578.16 227.731 4
5 3 -11 2161.59 226.425 14
-5 3 11 2751.63 240.923 8
5 3 -10 16687.2 780.889 39
-5 3 10 17476.4 831.680 38
-5 3 10 16053.6 774.632 41
5 -3 -10 16672.8 736.447 37
-5 3 10 17324.0 732.392 8
5 -3 -10 16459.9 737.682 7
5 -3 -10 16559.0 714.092 4
5 3 -10 15989.8 722.105 14
-5 -3 9 20477.4 848.583 40
5 3 -9 20858.8 933.208 39
-5 3 9 22171.0 989.449 38
5 -3 -9 21783.0 894.207 37
-5 3 9 21076.5 874.420 8
5 -3 -9 19946.0 838.067 34
5 -3 -9 21140.2 890.695 7
-5 3 9 21184.6 951.804 41
5 -3 -9 20540.7 860.099 4
5 3 -9 19886.4 872.809 14
-5 -3 8 39836.1 1529.48 40
-5 3 8 42618.0 1676.53 38
5 -3 -8 41788.7 1581.04 37
-5 3 8 41255.6 1557.01 8
-5 3 8 41056.0 1659.41 41
5 -3 -8 40784.2 1532.26 34
5 -3 -8 41380.8 1576.03 7
5 -3 -8 40102.4 1545.36 4
5 3 -8 40866.7 1565.25 14
5 3 -7 78.7360 186.877 14
5 -3 -7 241.627 158.265 4
-5 3 7 42.6868 190.406 41
-5 -3 7 208.236 130.437 40
5 3 -7 188.379 184.063 39
-5 3 7 263.219 191.462 38
5 -3 -7 112.456 141.592 37
-5 3 7 50.1416 129.901 8
5 -3 -7 217.810 120.859 34
5 3 -7 98.6419 188.184 15
5 -3 -6 665.586 162.238 4
5 3 -6 727.255 199.036 39
5 3 -6 1199.65 210.546 22
-5 3 6 627.753 195.360 38
5 3 -6 571.227 337.266 9
-5 3 6 724.434 152.414 8
5 3 -6 586.000 170.052 18
5 -3 -6 674.296 137.469 34
-5 -3 6 656.245 333.412 32
-5 3 6 662.029 407.377 32
5 3 -6 561.129 195.230 15
-5 3 5 15189.3 1273.92 29
-5 3 5 16794.7 1206.29 27
5 3 -5 15895.9 724.505 39
-5 3 5 16788.0 781.776 41
-5 3 5 15659.7 732.802 38
5 -3 -5 15830.3 671.374 34
5 3 -5 15169.7 1046.62 9
-5 -3 5 15864.0 1068.20 32
-5 3 5 13283.6 1150.31 32
-5 -3 5 15470.7 1132.05 29
-5 3 4 15877.9 1283.90 29
-5 3 4 17621.4 1247.27 27
-5 3 4 17332.5 1025.12 12
-5 3 4 17713.0 806.229 41
5 -3 -4 16625.8 1186.96 2
5 3 -4 17241.5 749.488 39
5 3 -4 16513.3 1072.37 9
5 -3 -4 17385.7 693.352 36
5 -3 -4 17558.2 714.536 34
5 -3 -4 16289.6 728.139 37
-5 -3 4 15533.2 1048.71 32
-5 3 3 10378.8 985.657 29
-5 3 3 11031.3 953.541 27
-5 3 3 11522.8 805.100 12
-5 3 3 11073.9 589.425 41
5 3 -3 11439.0 844.357 9
5 -3 -3 12051.7 972.201 2
5 -3 -3 11246.5 540.742 37
5 -3 -3 12660.0 517.707 36
5 -3 -3 11778.7 527.287 34
-5 -3 3 12462.9 851.617 32
-5 3 2 28907.8 1656.00 29
-5 3 2 27752.5 1606.37 27
-5 3 2 28071.1 1392.35 12
-5 3 2 25883.2 1100.56 41
-5 3 2 26163.6 1079.67 39
5 3 -2 27972.4 1414.42 9
5 -3 -2 26337.3 1559.72 2
5 -3 -2 26841.7 1059.77 37
5 -3 -2 27761.6 1034.46 36
-5 3 2 25575.1 1082.22 35
5 -3 -2 26231.0 1039.18 34
-5 -3 2 27931.7 1401.66 32
5 -3 -2 29375.6 1319.68 31
-5 -3 2 25302.4 1330.31 30
-5 3 1 4792.24 631.641 29
-5 3 1 5382.49 681.252 27
-5 3 1 4607.66 510.171 12
5 3 -1 4666.07 541.255 10
-5 3 1 6018.76 372.620 39
5 -3 -1 5840.33 336.082 37
5 -3 -1 6442.78 716.897 2
5 -3 -1 5932.16 315.195 36
-5 3 1 5814.09 367.942 35
5 -3 -1 6150.87 326.746 34
5 -3 -1 5557.81 500.395 31
-5 -3 1 5412.31 556.344 30
-5 3 1 5563.34 358.139 41
-5 3 0 9560.23 877.429 29
-5 3 0 11065.6 973.351 27
-5 3 0 11138.2 809.717 12
5 3 0 10252.1 833.675 11
-5 3 0 11023.2 554.160 39
5 3 0 10155.9 807.364 10
5 -3 0 11404.6 504.861 36
-5 3 0 10741.5 550.765 35
5 -3 0 11700.9 528.378 37
-5 3 0 10469.4 528.266 41
5 -3 0 11190.1 765.323 31
-5 -3 0 11308.0 852.988 30
5 -3 0 10640.9 748.681 30
-5 3 -1 128.843 192.715 12
5 3 1 35.3135 240.541 11
5 3 1 -64.4728 206.659 10
-5 3 -1 329.303 181.258 39
5 -3 1 82.8579 125.870 37
5 -3 1 93.9154 241.789 1
5 -3 1 170.469 198.987 31
-5 -3 -1 109.621 234.245 30
5 -3 1 -27.6608 201.430 30
-5 3 -2 156.797 306.970 27
5 -3 2 329.451 346.376 2
-5 3 -2 314.676 224.329 12
5 3 2 186.059 246.293 11
5 3 2 299.130 242.199 10
-5 3 -2 414.534 190.713 39
5 -3 2 302.244 139.524 37
5 -3 2 230.348 133.960 34
5 -3 2 689.210 307.113 1
5 -3 2 220.876 212.042 31
-5 -3 -2 237.825 288.774 30
5 -3 2 217.521 214.870 30
5 3 3 34185.5 1809.85 11
-5 3 -3 31915.6 1974.60 27
5 -3 3 36248.2 1347.54 6
-5 3 -3 36006.4 1814.16 12
5 3 3 34509.5 1736.94 10
5 -3 3 34568.0 1366.46 5
5 -3 3 32193.6 1326.27 37
5 -3 3 33731.6 1311.81 36
5 3 3 32715.4 1292.21 19
-5 3 -3 33375.3 1368.97 35
5 3 3 36042.9 1309.08 18
5 -3 3 37937.0 1803.36 1
5 -3 3 34464.4 1334.58 34
5 -3 3 31313.1 2033.23 2
-5 -3 -3 32913.7 1766.67 31
5 -3 3 30628.7 1746.68 31
-5 -3 -3 36695.2 1894.30 30
5 -3 3 32846.6 1753.49 30
-5 3 -4 36020.5 1491.95 35
5 -3 4 38060.7 1454.21 6
5 -3 4 38777.6 1500.17 5
5 -3 4 37802.8 1441.12 36
5 3 4 37211.2 1422.28 19
5 3 4 38648.4 1430.75 18
5 -3 4 38392.4 1461.65 34
5 3 4 36144.3 1443.15 16
-5 -3 -4 36773.8 1931.03 31
5 -3 4 33507.4 1896.05 30
5 -3 5 47849.2 1773.23 6
-5 3 -5 45865.4 1833.42 39
5 -3 5 48146.5 1830.22 5
5 -3 5 46956.8 1770.42 36
-5 3 -5 46365.9 1827.37 35
5 -3 5 46564.4 1794.35 34
5 3 5 47373.1 1778.16 16
5 -3 6 37824.6 1426.15 6
-5 3 -6 36990.7 1501.09 39
5 -3 6 36996.5 1439.94 36
5 -3 6 38820.1 1503.38 5
5 3 6 37621.5 1426.08 19
-5 3 -6 37599.9 1494.14 35
5 -3 6 35219.3 1474.51 34
5 3 6 36971.7 1441.57 16
5 -3 7 3321.05 274.886 36
5 -3 7 3387.02 335.040 5
5 -3 7 3115.08 297.143 24
-5 3 -7 3298.30 320.320 39
-5 3 -7 3471.69 312.869 35
5 3 7 3353.37 277.706 19
5 -3 7 3168.26 295.324 34
5 3 7 2928.34 279.280 16
5 -3 8 13934.7 643.532 24
-5 3 -8 13054.6 644.455 39
-5 -3 -8 11662.0 570.502 37
5 3 8 14437.4 607.008 19
5 -3 8 12029.6 589.031 36
-5 3 -8 14438.7 639.628 35
5 3 8 13850.3 609.357 16
5 -3 9 2965.81 269.752 24
-5 3 -9 3319.22 274.844 39
-5 -3 -9 2934.46 217.931 37
5 3 9 3093.30 246.343 19
-5 3 -9 3442.07 263.765 35
5 3 9 3957.25 258.897 16
5 -3 10 564.783 146.302 24
-5 3 -10 818.389 147.659 39
5 -3 10 537.753 127.645 21
-5 -3 -10 498.149 99.0491 37
5 -3 10 603.639 162.339 5
5 3 10 1073.03 144.366 19
5 3 10 621.545 139.632 16
5 -3 11 934.815 127.424 5
5 3 11 663.285 98.2239 19
5 -4 -13 318.354 74.9455 4
5 4 -13 440.370 91.3814 22
5 4 -13 320.965 72.3290 18
-5 4 13 306.513 78.2842 16
5 4 -12 5276.96 285.325 22
-5 4 12 4840.87 297.479 38
-5 -4 12 5349.64 305.184 5
-5 4 12 5125.94 274.559 8
5 4 -12 5185.13 270.449 20
5 -4 -12 5041.07 266.054 7
5 4 -12 5500.09 273.441 18
-5 4 11 8546.46 460.592 38
5 -4 -11 8827.56 419.850 37
-5 -4 11 9517.87 463.384 5
-5 4 11 9178.57 423.536 8
5 4 -11 9512.14 429.099 18
5 -4 -11 8748.00 419.570 7
5 4 -11 9401.77 442.385 22
-5 4 10 5180.25 343.982 41
-5 -4 10 4957.08 317.275 40
5 4 -10 5704.99 364.317 22
-5 4 10 5640.08 374.856 38
-5 4 10 6032.09 332.535 8
-5 -4 10 6114.70 382.470 5
5 -4 -10 5246.11 295.261 34
5 4 -10 5787.02 341.910 18
5 -4 -10 5630.49 329.391 7
5 -4 -9 596.221 160.806 4
-5 4 9 432.212 173.055 41
-5 -4 9 569.186 153.771 40
5 4 -9 425.062 189.846 39
-5 4 9 576.711 194.426 38
-5 -4 9 334.734 195.834 5
-5 4 9 489.892 152.297 8
5 4 -9 346.459 178.259 18
5 -4 -9 525.265 127.927 34
5 -4 -9 559.679 153.593 7
-5 4 8 10385.1 569.898 41
-5 -4 8 10315.1 495.272 40
5 4 -8 9445.48 539.408 39
-5 4 8 9804.04 561.277 38
5 -4 -8 10293.9 515.073 37
-5 4 8 10310.1 501.348 8
5 -4 -8 9974.39 483.051 34
5 4 -8 9996.26 519.754 18
5 -4 -8 10283.3 510.745 7
5 -4 -8 10116.9 490.028 4
5 4 -8 9995.08 519.142 14
5 -4 -7 792.201 181.379 4
-5 -4 7 824.556 168.797 40
-5 4 7 914.557 233.399 41
5 4 -7 678.520 214.547 39
5 4 -7 1044.47 243.929 22
-5 4 7 853.118 208.557 38
5 -4 -7 1082.02 195.517 37
-5 4 7 1155.49 183.469 8
5 4 -7 971.512 207.924 18
5 -4 -7 920.660 162.427 34
5 -4 -7 792.727 177.257 7
5 -4 -6 2649.60 252.055 4
5 4 -6 2059.00 272.285 39
5 4 -6 2436.10 290.750 22
-5 4 6 2717.99 284.163 38
5 -4 -6 2734.34 250.196 37
5 4 -6 2375.30 251.948 20
-5 4 6 2605.94 237.081 8
5 -4 -6 2618.04 225.672 34
5 -4 -6 2310.46 250.517 7
5 -4 -5 4470.74 314.297 4
-5 4 5 4528.91 382.287 41
5 4 -5 4088.62 334.312 39
-5 4 5 3756.02 315.829 38
5 -4 -5 4925.93 327.189 37
5 4 -5 4349.60 315.716 20
5 -4 -5 4504.34 274.231 36
-5 4 5 4910.79 309.545 8
5 4 -5 4700.26 354.897 22
5 -4 -5 4459.66 298.167 34
5 4 -5 4347.62 344.868 14
5 4 -4 2231.52 267.827 14
5 -4 -4 2083.05 238.718 4
-5 4 4 2741.09 303.599 41
5 4 -4 2455.52 284.067 22
5 -4 -4 2503.60 241.521 37
5 4 -4 2491.35 241.808 20
5 -4 -4 2737.33 213.662 36
5 -4 -4 2895.99 232.864 34
5 -4 -4 2791.51 271.325 7
5 -4 -3 7245.40 417.000 4
5 -4 -3 7013.32 396.163 6
-5 4 3 7477.85 473.585 41
5 -4 -3 7398.49 421.885 37
5 4 -3 7364.46 407.707 20
5 -4 -3 8260.64 397.836 36
-5 4 3 7578.49 439.110 35
5 -4 -3 7710.43 408.959 34
5 -4 -3 8068.89 447.136 7
5 4 -3 7249.37 433.681 14
5 4 -3 7244.82 430.525 22
5 -4 -2 7004.20 391.385 6
-5 4 2 7383.31 445.752 41
5 4 -2 7175.41 423.921 21
5 -4 -2 6574.12 382.731 37
5 4 -2 6486.62 372.470 20
5 -4 -2 7152.66 373.690 36
-5 4 2 7162.23 425.585 35
5 4 -2 6066.52 348.369 17
5 4 -2 6691.00 400.396 22
5 4 -2 5819.41 374.854 16
5 -4 -2 7139.24 421.499 7
5 4 -2 6722.43 398.928 14
5 -4 -1 4182.26 304.656 6
-5 4 1 3834.39 308.952 41
5 4 -1 3386.55 307.052 21
5 -4 -1 3853.77 282.003 37
5 4 -1 3303.75 257.169 20
5 -4 -1 4322.62 270.917 36
-5 4 1 3376.40 311.129 35
-5 4 1 3549.95 278.294 8
5 4 -1 2857.78 226.974 17
5 4 -1 3054.25 276.315 16
5 -4 -1 3653.20 307.107 7
-5 4 1 3825.69 305.817 39
5 -4 0 7996.28 440.884 6
-5 4 0 6857.00 426.354 41
-5 4 0 7414.69 452.664 39
5 4 0 7376.07 438.934 21
5 -4 0 7945.98 425.052 37
5 -4 0 8101.35 412.501 36
5 4 0 7206.94 385.160 19
-5 4 0 7500.54 463.747 35
-5 4 0 8258.65 431.473 8
5 -4 0 7224.99 411.499 34
5 4 0 7211.65 378.335 17
5 4 0 6941.24 417.751 16
5 -4 0 8751.96 475.257 7
5 -4 1 16623.0 738.927 6
-5 4 -1 16032.2 752.307 39
5 4 1 16061.3 710.281 21
5 -4 1 15030.9 699.797 37
5 4 1 15656.7 675.163 19
-5 4 -1 15103.0 749.862 35
-5 4 -1 16537.3 723.561 8
5 4 1 16307.9 697.358 18
5 -4 1 15594.1 702.284 34
5 4 1 15133.6 663.319 17
5 4 1 16478.2 717.804 16
5 -4 1 16370.0 752.169 7
5 -4 2 49214.6 1921.39 5
-5 4 -2 50200.0 1959.18 39
5 -4 2 50740.2 1897.51 36
5 4 2 52499.1 1898.19 21
5 -4 2 48533.9 1902.66 37
5 4 2 49298.8 1872.43 19
-5 4 -2 49287.6 1959.32 35
-5 4 -2 54009.6 1935.27 8
5 4 2 51614.8 1893.92 18
5 -4 2 52686.7 1919.47 34
5 4 2 52219.9 1916.12 16
5 -4 2 52854.2 1957.56 7
5 -4 3 19431.0 813.366 6
5 -4 3 18051.6 803.979 5
5 -4 3 18133.9 765.176 36
5 4 3 17422.4 748.332 19
5 4 3 17585.3 761.695 18
-5 4 -3 17753.8 785.442 8
5 -4 3 16951.6 773.256 34
5 4 3 16906.9 776.474 16
-5 4 -3 17125.5 819.827 39
5 -4 3 17138.2 804.925 7
5 -4 4 1534.59 234.223 6
-5 4 -4 1527.78 259.021 39
5 -4 4 1479.75 202.618 36
5 -4 4 1843.82 250.627 5
5 4 4 1598.61 206.812 19
5 4 4 1793.55 227.758 18
-5 4 -4 1501.04 214.069 8
5 -4 4 1552.72 217.120 34
5 4 4 1749.89 249.388 16
5 -4 4 1506.21 231.356 7
5 -4 5 2468.36 248.497 6
-5 4 -5 2610.36 285.254 39
5 -4 5 2669.38 290.248 5
5 -4 5 2097.80 229.027 36
5 4 5 2971.55 265.964 18
-5 4 -5 2489.97 284.938 35
5 -4 5 2145.59 243.091 34
5 -4 5 1980.56 242.526 7
5 -4 6 4832.37 318.834 6
5 -4 6 6124.21 381.466 5
5 -4 6 3875.26 308.884 36
-5 4 -6 5762.24 374.670 35
5 -4 6 5025.91 336.312 34
5 -4 7 18360.2 754.612 6
5 -4 7 21713.3 819.879 24
-5 4 -7 18464.9 821.670 39
5 -4 7 19778.8 826.096 5
5 -4 7 18398.1 769.603 36
5 4 7 19079.2 777.245 19
-5 4 -7 19133.9 818.179 35
5 -4 7 16068.7 791.996 34
5 4 7 19126.8 793.479 16
5 -4 8 4979.07 309.435 24
5 -4 8 5062.39 325.680 5
-5 4 -8 4865.26 320.156 39
5 4 8 5345.98 296.624 19
-5 4 -8 4442.70 303.483 35
-5 4 -8 4203.36 276.714 8
5 4 8 5553.35 308.894 16
5 -4 9 15008.7 606.864 5
-5 4 -9 14571.3 601.662 39
5 4 9 15533.6 577.326 19
5 4 9 15749.1 588.196 16
5 -4 10 6259.31 287.998 5
5 4 10 6632.90 272.036 16
-5 -5 11 2797.32 180.207 6
-5 5 11 2533.06 149.464 8
5 5 -11 2258.44 136.449 20
5 5 -10 21014.8 793.075 20
5 -5 -10 20963.1 791.468 7
-5 5 9 1898.20 180.731 41
-5 -5 9 1578.08 173.381 40
-5 5 9 1982.93 191.044 38
5 -5 -9 1824.70 165.879 37
5 5 -9 1740.82 170.735 20
5 5 -9 1985.40 185.393 18
5 -5 -9 1990.68 157.585 34
5 -5 -9 1779.32 163.957 7
5 -5 -8 446.320 137.661 4
-5 -5 8 512.852 142.658 40
5 -5 -8 438.497 118.856 37
-5 5 8 482.519 150.271 41
-5 5 8 364.399 137.764 38
5 5 -8 523.583 146.114 20
5 5 -8 491.094 152.979 18
5 -5 -8 465.819 114.084 34
5 -5 -8 512.740 135.432 7
-5 5 7 2701.81 266.803 41
-5 -5 7 2693.14 240.641 40
-5 5 7 3262.71 258.131 38
5 -5 -7 3242.75 239.295 37
5 5 -7 2843.44 237.250 20
5 5 -7 3195.10 255.173 18
5 -5 -7 3021.11 220.151 34
5 -5 -7 2899.19 237.023 7
5 -5 -7 3128.92 230.405 4
-5 -5 6 3342.94 263.009 40
5 5 -6 3280.80 297.827 22
-5 5 6 2999.86 253.357 38
5 -5 -6 3298.09 253.861 37
5 5 -6 3369.51 263.385 20
-5 5 6 3544.11 252.057 8
5 -5 -6 3113.63 209.041 36
5 5 -6 3372.16 273.489 18
5 -5 -6 3505.11 247.761 34
5 5 -6 2721.62 207.557 17
5 -5 -6 3700.26 266.494 7
5 -5 -6 3813.02 265.719 4
5 -5 -5 6737.68 378.398 4
-5 5 5 6734.71 436.033 41
5 -5 -5 7187.23 390.949 37
5 5 -5 7099.32 387.194 20
5 -5 -5 7561.41 358.594 36
-5 5 5 7299.74 383.826 8
5 5 -5 7033.98 391.194 18
5 -5 -5 7119.53 376.808 34
5 5 -5 6086.55 344.836 17
5 -5 -5 6809.31 393.221 7
5 -5 -4 1802.76 212.820 4
-5 5 4 1738.14 246.547 41
5 -5 -4 1625.49 200.070 37
5 -5 -4 1592.58 175.387 36
5 5 -4 1660.81 201.140 20
-5 5 4 1576.37 189.677 8
5 5 -4 1357.60 214.247 18
5 5 -4 1565.22 164.661 17
5 -5 -3 14625.4 644.035 4
5 -5 -3 13584.2 606.122 6
-5 5 3 14766.2 704.916 41
5 -5 -3 13605.4 635.426 37
5 5 -3 14383.2 629.653 20
5 -5 -3 14238.9 620.127 36
-5 5 3 15760.7 649.618 8
5 5 -3 14313.8 641.868 18
5 5 -3 13401.4 600.025 17
5 -5 -2 177.639 185.365 4
-5 5 2 23.0470 155.372 41
5 -5 -2 -42.7405 130.665 37
5 5 -2 426.436 154.166 20
5 -5 -2 -15.5118 123.839 36
-5 5 2 33.0975 131.414 8
5 5 -2 289.823 187.943 18
5 -5 -2 127.647 145.080 34
5 5 -2 454.878 129.578 17
5 -5 -2 188.626 178.208 7
5 -5 -2 200.497 148.650 6
5 -5 -1 6188.22 372.795 4
5 -5 -1 6486.31 367.825 6
-5 5 1 6156.29 386.623 41
5 -5 -1 6054.40 355.194 37
5 -5 -1 5899.45 344.258 36
-5 5 1 6250.35 357.799 8
-5 5 1 5597.83 377.799 35
5 5 -1 5497.76 353.048 18
5 -5 -1 6026.25 352.674 34
5 5 -1 5836.60 326.005 17
5 -5 -1 6428.40 396.808 7
5 -5 0 2027.50 235.330 6
-5 5 0 2133.76 223.640 41
5 -5 0 1933.78 207.050 37
5 5 0 2031.61 194.516 19
-5 5 0 1963.31 213.467 8
-5 5 0 1943.92 252.829 35
5 5 0 2008.67 221.230 18
5 -5 0 1933.87 210.418 34
5 5 0 1885.40 181.484 17
5 5 0 1870.12 221.008 16
5 -5 0 2289.03 264.110 7
5 -5 1 31278.3 1218.13 6
5 -5 1 29962.6 1186.14 37
5 -5 1 31425.3 1191.30 36
5 5 1 29417.0 1159.38 19
-5 5 -1 30778.1 1199.18 8
-5 5 -1 29675.7 1232.11 35
5 5 1 30673.9 1187.46 18
5 -5 1 31486.4 1204.08 34
5 5 1 30528.6 1165.35 17
5 5 1 30526.5 1187.14 16
5 -5 1 30666.5 1239.77 7
5 -5 2 1353.31 215.979 6
5 -5 2 1042.53 167.059 36
-5 5 -2 1426.00 187.667 8
5 5 2 1287.06 182.176 19
-5 5 -2 1469.76 233.246 35
5 5 2 1210.52 198.537 18
-5 5 -2 1346.43 206.440 39
5 -5 2 1315.87 183.071 34
5 5 2 1380.07 214.347 16
5 -5 2 1508.23 225.425 7
-5 5 -3 2888.30 266.635 39
5 -5 3 2335.89 221.006 36
5 5 3 2857.75 230.443 19
-5 5 -3 2627.88 227.029 8
5 5 3 2680.94 246.595 18
5 -5 3 3010.90 245.763 34
5 5 3 2824.74 262.101 16
-5 5 -3 3082.70 276.941 35
5 -5 3 3143.02 270.254 7
-5 5 -4 125.905 150.131 39
5 -5 4 214.039 122.228 36
5 5 4 257.179 141.978 19
-5 5 -4 167.526 160.452 35
-5 5 -4 53.5070 115.109 8
5 5 4 360.887 169.151 18
5 -5 4 30.7443 127.728 34
5 5 4 131.867 166.858 16
5 -5 4 200.598 148.544 7
5 -5 5 2544.24 216.168 6
5 -5 5 2251.75 216.455 5
-5 5 -5 2058.50 222.974 39
5 -5 5 2006.49 186.977 36
5 5 5 2678.68 217.352 19
-5 5 -5 2709.81 236.440 35
-5 5 -5 2185.59 187.116 8
5 -5 5 2073.33 203.839 34
5 5 5 2494.15 232.806 16
5 -5 5 2359.97 214.789 7
5 -5 6 171.298 115.462 6
5 -5 6 101.669 120.288 24
-5 5 -6 244.942 132.674 39
5 -5 6 51.9164 131.191 5
5 -5 6 45.2883 91.1051 36
-5 5 -6 22.0806 84.2196 8
5 -5 6 132.142 105.673 34
5 5 6 121.525 143.701 16
5 -5 7 2692.71 171.247 6
5 -5 7 2631.07 194.908 5
5 5 7 3058.75 192.252 19
5 5 7 2877.41 207.551 16
5 5 8 7458.58 320.261 19
5 6 -8 1234.45 96.6072 18
-5 6 7 9492.69 371.114 8
5 6 -7 8773.13 364.859 20
5 6 -7 9150.01 369.562 18
5 -6 -7 9069.01 370.274 7
5 -6 -7 9073.93 365.314 4
-5 -6 6 1346.31 166.947 6
5 6 -6 1343.20 133.058 20
-5 6 6 1493.40 129.737 8
5 6 -6 1441.55 141.819 18
5 -6 -6 1556.47 138.278 7
5 -6 -6 1648.43 140.575 4
-5 -6 5 4100.16 274.447 6
-5 6 5 5209.76 301.210 41
-5 6 5 6082.84 270.791 8
5 6 -5 5656.19 274.322 18
5 -6 -5 5274.01 277.456 7
-5 -6 5 4168.80 273.480 40
5 -6 -5 5577.30 270.088 4
-5 6 4 1827.60 179.484 41
-5 -6 4 1425.30 160.558 40
-5 6 4 2008.30 148.489 8
5 -6 -4 1796.21 135.254 36
5 6 -4 2152.36 164.932 18
5 -6 -4 2000.39 153.602 34
5 -6 -4 1942.43 164.152 7
5 -6 -4 2300.53 167.770 4
5 -6 -3 4053.14 245.781 4
-5 6 3 3869.99 263.049 41
5 -6 -3 3515.76 224.466 36
-5 6 3 3988.72 230.957 8
5 6 -3 4911.81 263.077 18
5 -6 -3 3785.57 236.756 34
5 6 -3 4515.05 222.673 17
5 -6 -3 3728.62 253.225 7
5 -6 -2 16152.2 657.171 4
-5 6 2 14562.2 670.277 41
5 6 -2 17471.1 662.651 18
5 -6 -2 16311.5 651.672 36
5 -6 -2 15215.3 655.173 34
5 6 -2 17136.2 635.402 17
-5 6 2 16245.5 646.037 8
5 -6 -1 9110.64 386.630 4
5 -6 -1 7771.92 355.843 6
-5 6 1 7464.20 379.391 41
5 -6 -1 8161.81 369.777 36
-5 6 1 7783.66 355.626 8
5 6 -1 6569.81 359.537 18
5 -6 -1 7177.53 366.041 34
5 -6 0 7571.60 355.619 4
5 -6 0 7326.86 346.115 6
-5 6 0 7181.74 330.817 8
5 6 0 7165.67 347.525 18
5 -6 0 7246.07 352.818 34
5 -6 0 8024.08 382.153 7
5 -6 1 6359.45 240.245 4
5 -6 1 6556.84 249.857 6
5 -6 1 6208.83 238.396 36
-5 6 -1 5963.86 212.118 8
5 6 1 6637.43 244.865 18
5 -6 1 6693.44 254.794 34
5 -6 1 6577.26 274.003 7
5 -6 2 1410.14 147.680 6
5 -6 2 1149.71 128.683 4
5 -6 2 1262.47 123.285 36
5 6 2 1081.25 124.409 19
5 6 2 1475.02 146.101 18
5 -6 2 1155.96 127.814 34
5 -6 2 1163.52 146.391 7
5 -6 3 2583.73 180.351 6
5 6 3 2481.18 167.324 19
5 -6 3 2424.37 181.993 7
5 -6 4 674.313 106.023 6
5 6 4 792.244 105.442 19
5 -6 4 589.309 100.291 7
5 6 5 2778.52 153.057 19
-6 0 15 8955.11 379.135 3
6 0 -15 8013.11 360.031 4
6 0 -14 2788.33 236.301 26
-6 0 14 2217.21 236.122 38
-6 0 14 3017.06 240.043 3
6 0 -14 2678.74 212.765 4
6 0 -14 2985.63 236.028 33
-6 0 13 62513.3 2488.30 38
6 0 -13 68248.8 2399.38 4
-6 0 13 68945.2 2430.28 3
6 0 -13 65767.1 2450.28 33
6 0 -12 671.870 173.130 4
-6 0 12 552.476 182.180 41
-6 0 12 1148.36 238.493 3
6 0 -12 1058.09 222.241 33
-6 0 11 1025.17 228.233 41
-6 0 11 1533.41 291.550 38
6 0 -11 1661.56 209.419 4
6 0 -11 1729.65 265.467 33
6 0 -11 1581.72 229.821 7
-6 0 10 17631.4 871.146 38
6 0 -10 16088.6 763.589 7
6 0 -10 16369.6 716.374 4
6 0 -10 16764.3 787.597 33
6 0 -9 355.164 143.402 4
-6 0 9 610.107 231.979 38
6 0 -9 152.071 247.919 9
6 0 -9 335.084 200.824 33
6 0 -9 409.378 158.963 7
-6 0 8 21176.5 1580.18 29
-6 0 8 22585.8 1585.40 27
6 0 -8 22153.2 1499.58 23
-6 0 8 25512.2 1080.49 38
6 0 -8 20660.4 1250.93 9
6 0 -8 24106.1 999.745 33
-6 0 8 20642.1 1532.75 32
6 0 -7 7197.04 808.286 23
6 0 -7 8273.74 679.223 9
-6 0 7 10279.1 556.599 38
6 0 -7 8768.22 480.170 33
-6 0 7 8313.70 884.268 32
-6 0 6 991.073 421.959 29
-6 0 6 1233.48 387.689 27
6 0 -6 1019.56 188.316 26
6 0 -6 791.988 326.895 23
6 0 -6 923.218 279.959 9
6 0 -6 782.048 184.759 33
-6 0 6 613.733 356.932 32
-6 0 5 10972.9 974.006 29
-6 0 5 10846.2 929.361 27
6 0 -5 10134.5 522.613 26
6 0 -5 10898.6 882.093 23
6 0 -5 9218.52 688.061 9
6 0 -5 11123.7 529.214 33
-6 0 5 10081.1 873.174 32
-6 0 4 4522.27 631.536 29
-6 0 4 3453.75 547.784 27
6 0 -4 4482.39 307.037 26
6 0 -4 3811.92 544.313 23
6 0 -4 4401.39 455.607 9
6 0 -4 4353.69 306.290 33
-6 0 4 3604.87 531.164 32
-6 0 3 3048.20 511.143 29
-6 0 3 3253.38 509.636 27
6 0 -3 3164.22 258.847 26
6 0 -3 2607.70 483.103 23
6 0 -3 3006.76 375.848 9
6 0 -3 2875.84 248.690 33
-6 0 3 2498.37 404.148 32
-6 0 2 5264.80 568.977 29
-6 0 2 5636.77 607.532 27
6 0 -2 4438.89 304.010 26
6 0 -2 4692.85 595.960 23
-6 0 1 19441.9 1121.21 29
-6 0 1 22340.8 1249.50 27
6 0 -1 20433.1 865.952 26
6 0 -1 20424.7 1044.62 2
6 0 -1 19291.1 1282.10 23
-6 0 0 2469.98 405.292 28
-6 0 0 2418.75 445.802 27
6 0 0 2690.30 255.926 26
6 0 0 2384.89 481.323 23
-6 0 -1 14380.7 959.469 28
-6 0 -1 15337.9 996.667 27
6 0 1 14783.3 672.638 26
6 0 1 12875.8 1049.01 23
6 0 1 13110.3 605.394 36
-6 0 -2 20610.1 1202.40 28
6 0 2 19809.2 862.984 26
6 0 2 20228.4 791.292 24
6 0 2 18593.5 791.848 36
6 0 2 17495.3 779.609 34
-6 0 -3 2764.77 474.207 28
6 0 3 2927.08 299.477 26
6 0 3 3516.03 265.495 24
6 0 3 3112.63 258.705 36
6 0 3 2438.43 239.381 34
-6 0 -4 2075.07 457.414 28
6 0 4 2389.30 246.307 24
-6 0 -4 2337.41 250.472 39
6 0 4 2177.82 290.032 26
-6 0 -5 2970.41 535.744 28
6 0 5 3234.59 339.908 26
6 0 5 3183.93 293.507 24
6 0 5 3577.09 322.911 3
6 0 5 3452.15 275.691 21
6 0 5 3415.82 287.002 19
6 0 5 3540.64 300.352 36
6 0 6 2561.34 336.712 26
6 0 6 2311.86 281.981 24
6 0 6 2534.49 250.826 21
6 0 6 2421.43 265.511 19
6 0 6 2303.35 267.968 36
6 0 6 2552.73 289.231 3
6 0 7 22925.5 967.584 19
6 0 7 23576.9 1019.67 24
6 0 7 22554.7 957.506 40
6 0 7 23972.4 1007.87 3
6 0 7 23326.1 934.093 21
6 0 7 22298.9 991.727 36
6 0 8 16831.8 833.103 24
6 0 8 16078.6 771.460 40
6 0 8 17938.7 816.998 3
6 0 8 18621.8 742.828 21
6 0 9 9663.31 514.180 3
-6 0 -9 10324.7 508.276 33
6 0 10 10882.8 525.195 3
-6 0 -10 12367.0 531.001 33
6 0 11 5.95223 122.011 13
-6 0 -11 -6.15623 114.066 33
6 0 11 -133.016 154.401 3
6 0 12 569.860 98.9273 13
6 0 12 566.064 114.707 3
-6 -1 15 1486.68 139.141 3
-6 1 15 1233.31 131.192 3
-6 -1 15 1133.01 127.868 5
6 -1 -15 1248.63 119.977 4
6 -1 -14 21094.8 867.434 26
6 1 -14 20569.0 865.034 26
-6 1 14 19758.1 883.801 38
-6 -1 14 18615.9 873.106 38
-6 -1 14 24856.4 863.088 3
-6 1 14 22567.8 849.978 3
6 -1 -14 22280.8 837.222 4
6 -1 -14 21948.2 865.935 33
6 1 -14 22097.0 866.695 33
6 -1 -13 5649.36 359.078 26
6 1 -13 5796.55 367.999 26
-6 -1 13 5349.79 387.955 38
6 1 -13 5630.17 327.577 4
-6 -1 13 6031.52 359.474 3
-6 1 13 5941.71 354.049 3
6 -1 -13 5809.34 319.910 4
6 -1 -13 5796.92 363.366 33
6 1 -13 5208.08 356.904 33
6 1 -12 1336.51 193.080 4
6 -1 -12 1535.63 193.650 4
-6 1 12 794.447 195.534 41
-6 -1 12 1568.39 246.505 3
-6 1 12 1359.62 229.783 3
-6 -1 12 1183.19 255.456 38
-6 1 12 1268.99 262.026 38
6 -1 -12 1961.79 231.522 33
6 1 -12 1801.30 235.329 33
-6 1 11 23066.4 1105.95 41
-6 1 11 28075.3 1203.93 38
6 1 -11 26539.5 1062.38 4
6 -1 -11 27154.1 1096.91 7
6 -1 -11 27444.8 1121.31 33
6 1 -11 27898.0 1125.38 33
6 -1 -11 25908.4 1049.54 4
-6 -1 11 27392.1 1092.75 3
-6 1 11 26154.8 1083.15 3
-6 1 10 12394.2 691.378 41
-6 -1 10 12849.5 727.260 38
-6 1 10 15090.0 760.879 38
6 1 -10 12609.5 606.622 4
6 -1 -10 13393.9 636.406 7
6 -1 -10 14388.9 677.701 33
6 1 -10 13936.1 673.520 33
6 -1 -10 13064.8 599.499 4
6 1 -10 13061.6 628.344 15
6 1 -10 12905.7 601.860 14
6 1 -9 12018.1 586.279 14
-6 1 9 12809.6 694.452 41
-6 1 9 14189.4 741.780 38
6 -1 -9 12906.8 613.201 7
6 -1 -9 12650.6 642.030 33
6 1 -9 13545.7 655.856 33
6 -1 -9 12579.7 579.814 4
6 1 -9 13286.4 620.010 15
6 1 -8 4031.42 298.742 14
-6 -1 8 3465.23 666.957 29
-6 1 8 3103.02 643.125 29
-6 1 8 4565.98 377.551 41
-6 1 8 4046.69 659.657 27
6 1 -8 4474.13 566.911 9
6 -1 -8 3640.12 634.827 23
6 1 -8 3487.60 634.300 23
-6 1 8 4674.82 397.667 38
6 -1 -8 4351.64 317.788 7
6 -1 -8 5290.58 353.100 33
6 1 -8 5229.75 357.175 33
6 -1 -8 4634.84 287.525 4
-6 -1 8 3638.17 645.749 32
-6 1 8 5569.10 781.105 32
6 1 -8 4407.56 326.797 15
-6 1 7 28491.1 1738.05 27
6 -1 -7 28545.7 1136.73 26
6 1 -7 27090.6 1137.47 26
6 -1 -7 27840.0 1632.85 23
6 1 -7 27526.5 1634.88 23
-6 1 7 29828.8 1204.24 38
6 1 -7 27583.0 1468.18 9
6 -1 -7 25889.6 1054.70 37
6 -1 -7 27535.6 1123.60 33
6 1 -7 28209.1 1128.37 33
-6 -1 7 26912.5 1627.07 32
-6 1 7 25699.1 1695.63 32
6 1 -6 4756.77 632.166 23
-6 -1 6 6771.49 766.750 29
-6 1 6 5383.34 728.917 29
-6 1 6 6312.89 768.544 27
6 -1 -6 6425.94 377.265 26
6 1 -6 5851.21 380.398 26
6 -1 -6 5599.66 659.494 23
-6 1 6 7241.75 436.175 38
6 1 -6 6315.36 624.041 9
6 -1 -6 5853.25 327.368 37
6 -1 -6 7069.00 391.517 33
6 1 -6 6542.63 386.863 33
-6 -1 6 5389.48 665.758 32
-6 1 6 6352.19 753.693 32
-6 -1 5 3765.79 587.722 29
-6 1 5 3567.74 612.586 29
6 -1 -5 3837.07 282.313 26
6 1 -5 3554.13 287.222 26
6 -1 -5 3675.03 241.068 37
6 1 -5 4844.74 621.148 23
6 -1 -5 3800.71 547.360 23
-6 1 5 3949.37 315.314 38
6 1 -5 3903.05 482.693 9
6 -1 -5 3819.32 290.336 33
6 1 -5 4097.54 295.257 33
-6 -1 5 3684.18 517.849 32
-6 1 5 3709.41 545.707 32
-6 -1 4 5154.37 600.457 29
-6 1 4 4763.97 639.359 29
-6 -1 4 4740.21 580.796 27
-6 1 4 4622.00 624.395 27
6 -1 -4 4949.11 326.362 26
6 1 -4 3986.20 298.458 26
6 -1 -4 4882.24 612.170 23
6 1 -4 4614.26 595.447 23
6 1 -4 4168.22 485.168 9
6 -1 -4 4315.79 266.497 37
6 -1 -4 4461.27 310.016 33
6 1 -4 4040.90 294.791 33
-6 -1 4 4173.21 507.268 32
-6 1 4 4487.24 550.152 32
-6 -1 3 1661.00 371.240 29
-6 1 3 1544.17 403.659 29
6 -1 -3 1579.48 335.154 2
-6 -1 3 1354.60 342.634 27
-6 1 3 1264.48 372.643 27
6 -1 -3 1537.82 198.260 26
6 1 -3 1100.40 189.148 26
6 -1 -3 1429.05 403.017 23
6 1 -3 1372.72 399.075 23
6 1 -3 1301.46 307.293 9
-6 1 3 1636.37 208.729 41
6 -1 -3 1556.79 156.467 37
6 -1 -3 1447.01 192.925 33
6 1 -3 1116.63 188.913 33
-6 -1 3 1275.35 317.047 32
-6 -1 2 115913. 4866.91 29
-6 1 2 157099. 5068.64 29
-6 -1 2 96230.5 4817.99 27
-6 1 2 166475. 5244.40 27
6 -1 -2 151811. 4552.16 26
6 1 -2 111669. 4501.63 26
6 -1 -2 166744. 5269.85 23
6 1 -2 112498. 5013.47 23
6 1 -2 119574. 4808.11 9
6 -1 -2 167927. 5065.76 2
6 -1 -2 125119. 4460.06 37
-6 -1 2 117392. 4756.86 32
-6 -1 1 7029.10 629.827 29
-6 1 1 9984.40 726.444 29
-6 -1 1 5860.08 630.194 27
-6 1 1 11274.0 873.691 27
6 -1 -1 10129.6 483.014 26
6 1 -1 8602.76 461.390 26
6 -1 -1 9252.33 859.665 23
6 1 -1 6876.36 775.000 23
6 -1 -1 8019.49 561.679 1
6 -1 -1 11125.5 787.654 2
6 -1 -1 8531.41 412.051 37
-6 1 0 1628.95 364.997 28
-6 -1 0 932.386 301.229 28
6 -1 0 1419.99 331.763 2
-6 1 0 1391.68 351.748 27
6 -1 0 1448.20 224.657 26
6 -1 0 1625.16 446.963 23
6 1 0 1078.49 195.988 26
6 -1 0 1410.97 161.237 36
6 -1 0 1085.36 163.284 37
6 1 0 1493.55 410.343 23
6 -1 0 1111.67 145.899 34
6 -1 0 1716.85 273.865 1
-6 1 -1 15084.9 977.733 28
-6 -1 -1 11941.9 891.039 28
-6 1 -1 15349.0 1059.04 27
6 -1 1 14899.8 681.711 26
6 1 1 14032.0 661.410 26
6 1 1 14017.8 852.406 11
6 -1 1 12803.8 1065.79 23
6 -1 1 14131.8 610.075 37
6 -1 1 14298.4 599.368 36
6 -1 1 13060.6 947.236 2
6 1 1 12331.8 602.472 36
6 -1 1 13185.7 590.827 34
6 -1 1 13662.5 801.208 1
6 1 1 12900.4 1053.41 23
6 -1 2 2657.33 369.442 1
-6 1 -2 2738.96 448.144 28
-6 -1 -2 3288.91 477.001 28
-6 1 -2 3444.97 516.372 27
6 -1 2 3075.55 487.000 2
6 -1 2 3097.89 236.262 36
6 -1 2 3459.32 299.544 26
6 1 2 2804.64 281.792 26
6 1 2 2729.44 378.704 11
6 1 2 2345.29 238.979 36
-6 1 -2 3262.18 266.348 35
6 -1 2 2745.63 232.507 34
6 -1 3 1784.10 261.597 26
-6 1 -3 1731.27 407.886 28
-6 -1 -3 1275.27 352.470 28
-6 1 -3 1359.34 388.999 27
6 -1 3 1900.42 409.540 2
6 -1 3 1546.41 330.710 1
6 1 3 1394.26 202.854 24
-6 1 -3 1769.86 231.726 39
6 1 3 1427.18 213.461 36
-6 1 -3 1840.19 220.779 35
6 -1 3 1705.85 202.561 34
6 1 3 1710.76 249.696 26
-6 1 -4 53594.3 2447.41 28
-6 -1 -4 52024.4 2431.02 28
6 -1 4 52498.9 1981.59 26
6 1 4 48718.4 1960.20 26
6 1 4 48207.4 1895.54 24
6 1 4 50298.6 1875.87 40
-6 1 -4 49863.9 1908.41 39
6 -1 4 49992.2 2287.80 1
6 -1 4 50690.0 1888.43 36
-6 1 -4 51580.8 1892.91 35
6 -1 4 49993.7 1899.12 34
-6 1 -5 528.155 320.777 28
-6 -1 -5 439.765 304.097 28
6 -1 5 521.253 230.202 26
6 1 5 489.445 208.525 26
6 -1 5 308.077 175.674 24
6 1 5 403.622 199.625 24
6 1 5 556.449 183.702 40
-6 1 -5 486.316 189.211 39
6 1 5 356.377 165.458 21
6 -1 5 421.217 170.493 36
6 -1 5 472.347 196.850 5
6 -1 5 309.206 172.527 34
6 -1 5 427.932 287.731 1
6 -1 5 317.281 209.600 3
6 1 5 333.573 212.106 3
6 -1 6 5348.76 379.859 24
6 1 6 4417.46 369.254 24
6 -1 6 4650.43 362.392 3
6 1 6 4594.36 370.224 3
6 1 6 4631.10 352.024 40
-6 1 -6 4853.73 362.737 39
6 -1 6 4951.45 362.639 5
6 1 6 4340.75 309.630 21
6 -1 6 4374.37 324.939 21
6 1 6 5005.01 335.855 19
6 -1 6 4252.05 335.621 36
6 1 7 785.713 206.234 40
6 -1 7 633.786 188.144 21
6 -1 7 950.580 211.687 5
6 -1 7 606.817 190.981 36
6 1 7 843.904 200.179 19
6 -1 7 912.588 239.795 3
6 1 7 551.158 218.751 3
6 -1 8 6845.95 431.713 3
6 1 8 6713.55 435.631 3
6 1 8 6753.93 418.632 40
6 -1 8 6677.65 406.918 5
6 -1 8 6232.09 375.617 21
6 1 8 7133.26 404.356 19
6 -1 8 5889.71 407.574 36
-6 1 -8 7615.11 425.019 33
-6 -1 -8 7210.17 420.577 33
6 -1 9 15641.1 694.850 3
6 -1 9 14583.6 711.448 24
6 1 9 15298.8 695.975 3
6 1 9 15248.1 684.126 40
6 -1 9 14489.6 656.031 5
6 -1 9 14298.5 624.793 21
6 1 9 15376.4 664.601 19
-6 1 -9 15392.3 682.557 33
-6 -1 -9 15962.7 690.069 33
6 -1 10 4975.30 314.120 13
6 -1 10 5100.42 327.959 3
6 1 10 5306.16 333.784 3
6 -1 10 4615.51 338.870 24
6 1 10 4739.62 314.792 40
-6 1 -10 4919.88 311.526 33
-6 -1 -10 5618.33 320.477 33
6 -1 11 4675.87 264.269 13
6 1 11 4315.87 261.290 13
6 -1 11 4797.75 275.985 3
6 1 11 4929.23 284.334 3
-6 -1 -11 4078.30 243.864 37
-6 1 -11 4786.37 265.406 33
-6 -1 -11 4566.83 262.139 33
6 2 -14 2462.48 185.310 22
6 -2 -14 2004.30 154.042 4
6 -2 -13 41.8711 117.352 4
-6 -2 13 -16.5807 148.171 3
-6 2 13 179.872 135.957 3
6 -2 -13 187.814 115.107 26
6 2 -13 287.792 125.024 26
-6 -2 13 19.1779 143.550 38
6 2 -13 27.2337 61.1741 18
6 -2 -13 220.547 128.741 33
6 2 -13 240.694 131.690 33
6 -2 -13 -13.6814 120.773 7
-6 2 12 5884.30 383.739 41
6 -2 -12 6264.74 391.986 26
6 2 -12 6770.56 400.308 26
-6 -2 12 6180.56 433.539 38
-6 2 12 7176.15 458.235 38
6 2 -12 6688.19 351.769 18
6 -2 -12 6098.26 391.992 7
-6 -2 12 7728.28 398.309 3
-6 2 12 7583.73 388.018 3
6 -2 -12 7058.92 398.154 33
6 2 -12 7200.45 406.286 33
6 -2 -12 7684.56 368.281 4
-6 2 11 10667.7 569.123 41
6 -2 -11 10839.1 546.874 26
6 2 -11 10325.4 544.237 26
-6 -2 11 9103.64 578.517 38
-6 2 11 10771.7 609.884 38
6 -2 -11 10279.6 494.855 37
-6 2 11 10720.5 511.420 8
6 -2 -11 10938.7 543.683 33
6 2 -11 10630.9 544.944 33
-6 -2 11 11653.0 541.994 3
-6 2 11 10486.8 520.773 3
6 -2 -11 11208.2 506.336 4
6 2 -11 10174.6 509.170 14
6 2 -10 1010.37 208.554 14
6 -2 -10 1142.55 183.701 4
6 -2 -10 970.081 198.807 26
6 2 -10 1198.27 214.644 26
-6 2 10 1130.22 236.531 41
-6 2 10 1397.52 269.589 38
6 -2 -10 1407.13 180.278 37
-6 2 10 1438.69 183.485 8
6 -2 -10 1125.41 207.987 33
6 2 -10 1357.72 226.916 33
6 2 -10 1258.06 237.899 15
6 -2 -9 7803.37 457.116 26
6 2 -9 7095.36 456.618 26
-6 2 9 7560.63 503.632 41
-6 2 9 8675.26 544.795 38
6 -2 -9 7855.85 417.228 37
-6 2 9 7850.53 414.474 8
6 -2 -9 7798.48 435.481 7
6 -2 -9 8313.77 461.696 33
6 2 -9 8134.83 464.211 33
6 2 -9 7695.73 458.559 15
6 -2 -9 7715.30 412.049 4
6 2 -9 7019.94 428.980 14
6 2 -8 1658.76 229.032 14
6 -2 -8 1463.13 194.318 4
6 -2 -8 1817.16 224.737 26
6 2 -8 1306.79 224.692 26
-6 2 8 1866.99 279.318 41
-6 2 8 1817.10 271.904 38
6 -2 -8 1825.40 204.935 37
-6 2 8 1578.93 181.490 8
6 -2 -8 1520.82 225.962 33
6 2 -8 1755.65 238.139 33
6 2 -8 2024.14 257.930 15
6 -2 -8 1351.43 196.194 7
-6 2 7 8040.71 884.518 27
6 -2 -7 8553.55 456.713 26
6 2 -7 8129.48 467.673 26
6 -2 -7 7501.30 792.947 23
6 2 -7 6966.65 785.108 23
-6 2 7 9322.73 532.258 38
6 -2 -7 8939.39 438.963 37
-6 2 7 8322.42 414.722 8
6 2 -7 7732.52 420.582 18
6 -2 -7 7757.55 439.620 7
6 -2 -7 8431.86 455.353 33
6 2 -7 7740.80 459.193 33
-6 -2 7 7683.68 810.392 32
-6 2 7 7243.95 890.213 32
6 -2 -7 8492.47 420.327 4
6 2 -7 8231.45 445.839 14
-6 -2 6 4099.55 615.061 29
-6 2 6 4581.36 712.453 29
-6 2 6 4461.81 660.357 27
6 -2 -6 4663.58 317.568 26
6 2 -6 3976.55 326.819 26
-6 2 6 4768.96 367.263 41
6 2 -6 4675.53 619.033 23
6 -2 -6 4135.06 572.202 23
-6 2 6 4529.70 353.720 38
6 -2 -6 5078.85 301.972 37
6 -2 -6 4442.08 315.837 33
6 2 -6 4135.63 317.651 33
-6 -2 6 4087.93 588.732 32
-6 2 6 3973.89 642.020 32
-6 -2 5 1642.60 412.057 29
-6 2 5 1435.17 436.112 29
-6 2 5 1006.05 376.946 27
6 -2 -5 1460.77 189.161 26
6 2 -5 1305.07 199.932 26
-6 2 5 1693.18 236.608 41
6 -2 -5 926.494 340.802 23
6 2 -5 971.175 363.500 23
6 2 -5 1580.36 370.502 9
6 -2 -5 1403.37 174.026 37
6 -2 -5 1327.64 192.943 33
6 2 -5 1308.20 194.667 33
-6 -2 5 1497.27 383.432 32
-6 -2 4 48845.2 2253.28 29
-6 2 4 44292.5 2317.49 29
-6 2 4 47599.5 2343.77 27
6 -2 -4 47207.7 1750.00 26
6 2 -4 44592.8 1744.46 26
6 -2 -4 48123.4 2265.73 2
-6 2 4 47873.2 1799.90 41
6 -2 -4 47436.4 2266.72 23
6 2 -4 48897.1 2299.97 23
6 2 -4 47665.7 2126.32 9
6 -2 -4 48037.6 1728.37 37
6 -2 -4 47704.0 1692.19 34
6 -2 -4 43793.4 1726.07 33
6 2 -4 43305.2 1722.71 33
-6 -2 4 48641.2 2159.98 32
-6 -2 3 68521.6 2811.53 29
-6 2 3 60456.7 2343.51 41
-6 2 3 63289.3 2895.95 29
-6 2 3 64562.3 2922.90 27
6 -2 -3 65753.6 2333.41 26
6 2 -3 60793.2 2323.73 26
6 -2 -3 66075.9 2876.87 23
6 2 -3 60422.8 2828.17 23
6 -2 -3 65559.3 2852.29 2
6 2 -3 63479.6 2692.26 9
6 -2 -3 65317.9 2298.16 37
6 -2 -3 64777.6 2270.99 34
-6 -2 3 66850.6 2699.28 32
-6 -2 2 46092.2 2129.81 29
-6 2 2 43427.9 2209.32 29
6 -2 -2 50508.4 1768.56 26
6 2 -2 42739.0 1736.78 26
6 -2 -2 47941.0 2310.78 23
6 2 -2 43260.0 2216.92 23
6 2 -2 42769.1 2060.10 9
6 -2 -2 43587.3 2192.27 2
6 -2 -2 47855.5 1720.01 37
6 -2 -2 50848.0 1700.50 36
-6 2 2 41942.8 1737.57 41
6 -2 -2 45876.6 1689.26 34
-6 -2 2 45881.7 2027.88 32
-6 -2 1 18683.6 1109.43 29
-6 2 1 16582.5 1166.73 29
-6 2 1 17584.9 1098.92 28
-6 -2 1 13916.0 1001.03 28
-6 2 1 19704.9 1295.77 27
6 -2 -1 20299.7 845.612 26
6 2 -1 18850.1 821.159 26
6 -2 -1 18374.4 1249.38 23
6 2 -1 16293.3 1191.42 23
6 -2 -1 17432.5 1195.28 2
6 -2 -1 19667.0 796.316 37
6 -2 -1 20746.5 782.336 36
6 -2 -1 19084.6 768.727 34
-6 2 0 30097.4 1544.89 28
-6 -2 0 28594.7 1499.04 28
-6 2 0 30915.5 1742.50 27
6 -2 0 31678.8 1250.32 26
6 2 0 29946.4 1219.05 26
6 2 0 26906.3 1660.66 23
6 -2 0 31580.5 1481.73 1
6 -2 0 30757.9 1708.71 2
6 -2 0 30850.0 1173.03 36
6 -2 0 30937.6 1735.53 23
6 -2 0 30489.7 1165.70 34
-6 -2 0 29415.2 1500.27 30
-6 2 -1 18566.4 1142.72 28
-6 -2 -1 18003.9 1126.69 28
-6 2 -1 18984.8 1320.20 27
6 -2 1 20474.1 883.434 26
6 2 1 18870.6 856.533 26
6 2 1 20018.9 1181.89 11
6 -2 1 21332.9 1124.80 1
6 -2 1 20028.3 813.367 36
-6 2 -1 19437.0 852.618 35
6 -2 1 17975.0 1285.59 2
6 -2 1 20329.8 816.126 34
-6 2 -2 53619.3 2397.09 28
-6 -2 -2 55804.7 2421.02 28
-6 2 -2 55946.0 2671.15 27
6 -2 2 53358.2 2049.29 26
6 2 2 52425.0 2029.27 26
-6 2 -2 52943.7 2020.22 39
6 -2 2 52134.4 1990.53 37
6 -2 2 54393.7 1976.33 36
-6 2 -2 51064.1 2005.41 35
6 -2 2 55469.4 2660.36 2
6 -2 2 53632.1 1978.73 34
6 -2 2 58508.6 2377.96 1
6 2 2 57664.0 2442.20 11
-6 2 -3 29980.8 1654.36 28
-6 -2 -3 29787.3 1649.48 28
6 2 3 30758.0 1654.05 11
-6 2 -3 28252.7 1819.66 27
6 -2 3 32862.1 1327.78 26
6 2 3 31669.2 1303.87 26
-6 2 -3 31097.0 1289.64 39
6 2 3 32665.9 1240.81 21
6 2 3 32363.0 1228.21 19
-6 2 -3 31762.0 1285.86 35
6 -2 3 30873.6 1884.56 2
6 -2 3 32310.8 1262.91 34
6 2 3 32246.7 1245.12 16
6 -2 3 32973.2 1646.20 1
6 2 4 9516.25 805.929 11
-6 2 -4 8408.42 780.539 28
6 -2 4 8820.14 775.054 1
6 -2 4 9011.88 456.733 6
6 -2 4 8678.20 478.957 13
6 2 4 8688.02 484.602 13
-6 2 -4 8772.85 916.433 27
6 -2 4 9395.85 558.321 26
6 2 4 9245.43 529.446 26
6 2 4 8231.80 493.860 3
-6 2 -4 8993.81 517.689 39
6 2 4 9689.92 477.174 21
6 -2 4 9733.87 484.700 36
6 2 4 9444.40 464.274 19
-6 2 -4 8986.31 510.680 35
6 2 4 8880.60 454.904 18
6 -2 4 7970.94 920.448 2
6 2 4 9131.02 474.146 16
6 -2 5 15199.6 702.021 13
6 2 5 15408.5 710.118 13
6 -2 5 14469.0 701.216 3
6 2 5 16848.0 741.456 40
-6 2 -5 15205.5 738.310 39
6 -2 5 16334.2 748.393 5
6 2 5 15554.9 674.592 21
6 2 5 14406.4 709.209 3
6 -2 5 14703.2 694.069 36
-6 2 -5 15958.5 734.129 35
6 2 5 14978.2 685.516 16
6 -2 6 32079.8 1304.86 13
6 2 6 33381.3 1317.15 13
6 -2 6 36453.0 1358.96 24
6 -2 6 30898.3 1301.69 3
6 2 6 30727.3 1309.45 3
6 2 6 35417.5 1352.79 40
-6 2 -6 34464.9 1356.58 39
6 -2 6 34775.5 1352.60 5
6 2 6 31864.7 1286.01 19
6 -2 6 32986.0 1313.76 36
-6 2 -6 33793.5 1331.60 35
6 -2 6 31805.5 1332.99 34
6 2 6 32953.1 1284.68 16
6 -2 7 2442.72 256.679 13
6 2 7 2478.49 265.380 13
6 -2 7 3025.80 288.272 3
6 -2 7 3240.84 308.706 24
6 2 7 2821.90 296.922 3
6 2 7 3053.93 308.516 40
-6 2 -7 2729.87 292.197 39
6 -2 7 3027.01 300.089 5
6 2 7 2602.17 264.458 19
6 -2 7 3042.03 276.256 36
-6 2 -7 2548.58 247.245 33
-6 -2 -7 2498.63 247.994 33
6 2 7 2846.84 256.119 16
6 -2 8 1444.19 201.929 13
6 2 8 1154.61 199.287 13
6 -2 8 1429.47 227.206 24
6 2 8 1554.97 238.982 40
-6 2 -8 1575.48 220.849 39
6 -2 8 1562.95 206.192 21
6 2 8 1832.56 219.754 19
6 -2 8 1523.66 230.978 5
6 -2 8 1033.54 201.470 36
-6 2 -8 1255.10 184.672 33
-6 -2 -8 1269.84 186.318 33
6 2 8 1550.61 195.490 16
6 -2 8 1535.62 224.954 3
6 2 8 1424.37 234.202 3
6 -2 9 1691.56 180.405 13
6 2 9 1672.78 182.417 13
6 -2 9 1483.55 216.061 24
6 -2 9 1326.40 173.136 21
6 -2 9 1495.96 211.879 5
6 -2 9 1164.67 178.103 36
6 2 9 1474.45 200.863 19
-6 2 -9 1491.53 177.523 33
-6 -2 -9 1465.18 173.727 33
6 -2 9 1380.66 204.264 3
6 2 9 1421.90 216.530 3
6 -2 10 12180.7 335.671 13
6 2 10 12799.8 350.187 13
6 -2 10 12700.2 350.389 3
6 2 10 12712.4 360.885 3
6 -2 10 11512.1 403.696 24
6 -2 10 14017.2 373.601 5
-6 -2 -10 11113.7 321.076 37
6 2 10 13619.5 358.343 19
6 3 -14 1405.90 117.741 22
-6 -3 14 1434.49 134.532 5
6 -3 -13 394.429 102.945 4
6 3 -13 185.130 137.987 22
-6 3 13 268.005 85.9706 8
-6 -3 13 470.670 162.420 5
6 3 -13 319.593 85.1866 18
6 -3 -13 391.517 107.473 7
6 -3 -12 1245.17 149.650 4
-6 -3 12 838.730 180.302 38
-6 3 12 1126.98 183.762 38
6 -3 -12 1085.68 134.196 37
-6 3 12 1087.38 142.421 8
-6 -3 12 1277.79 221.552 5
6 3 -12 1074.17 149.588 18
6 -3 -12 864.066 152.839 7
-6 3 11 1758.08 220.105 41
-6 -3 11 1405.60 234.563 38
-6 3 11 1976.53 244.699 38
6 -3 -11 1676.82 178.016 37
-6 3 11 1659.32 182.941 8
6 3 -11 1711.40 193.845 18
6 -3 -11 1817.30 206.537 7
6 -3 -11 1861.17 188.957 4
6 3 -11 1711.96 210.623 14
6 3 -10 4099.96 337.020 22
-6 3 10 3702.88 339.107 38
-6 3 10 3972.12 280.848 8
6 -3 -10 3798.29 278.789 37
6 3 -10 3965.56 284.514 18
6 -3 -10 3894.49 266.326 4
-6 3 10 3977.74 334.842 41
6 3 -10 3530.18 294.094 14
-6 3 9 11654.0 625.229 41
6 3 -9 11727.8 583.176 22
-6 3 9 11263.0 623.474 38
6 -3 -9 10945.2 545.487 37
-6 3 9 11058.1 533.035 8
6 3 -9 11401.4 543.060 18
6 -3 -9 11136.7 523.360 4
6 3 -9 11274.1 558.173 14
6 3 -8 896.882 214.159 14
6 -3 -8 865.974 170.805 4
-6 3 8 984.054 236.647 41
6 3 -8 849.907 232.267 22
-6 3 8 813.161 223.857 38
6 -3 -8 859.676 178.867 37
-6 3 8 693.622 156.054 8
6 3 -8 706.093 179.186 18
6 -3 -8 732.414 135.496 34
6 -3 -8 974.215 181.707 7
6 3 -7 5343.77 383.184 22
-6 3 7 5248.20 394.550 38
6 -3 -7 5751.99 350.226 37
-6 3 7 5220.00 324.735 8
6 -3 -7 5498.54 309.914 34
6 3 -7 4716.98 335.291 18
6 -3 -7 5531.15 349.453 7
6 3 -7 5220.35 368.162 15
6 -3 -7 5321.33 327.832 4
6 3 -7 5066.34 363.619 14
6 3 -6 24655.8 1027.14 22
-6 3 6 24226.9 1063.54 38
6 -3 -6 26565.8 1037.45 37
-6 3 6 24865.4 1004.01 8
6 -3 -6 25558.0 992.550 34
6 3 -6 25493.5 1010.90 18
-6 3 6 25038.6 1120.82 41
6 -3 -6 25818.2 1032.74 7
6 3 -6 23579.5 1025.01 15
6 -3 -6 24910.7 994.434 4
6 -3 -5 12306.6 567.368 6
-6 3 5 11554.5 1081.77 27
-6 3 5 13367.3 685.279 41
6 3 -5 12644.5 604.047 22
6 3 -5 13109.7 608.479 21
6 -3 -5 13196.3 604.471 37
-6 3 5 13133.1 586.713 8
6 3 -5 13032.8 586.940 18
6 -3 -5 13198.8 572.516 34
6 3 -5 11277.2 590.942 16
6 -3 -5 12975.7 607.013 7
6 3 -5 12616.3 605.403 15
6 3 -5 13174.7 617.826 14
6 -3 -5 12834.5 577.804 4
-6 -3 4 42344.9 2193.48 29
-6 3 4 38842.1 2346.74 29
6 -3 -4 42767.0 1635.31 6
-6 3 4 44060.1 2332.42 27
-6 3 4 46823.9 1749.72 41
6 3 -4 44623.0 2111.90 9
6 3 -4 42158.1 1634.37 22
6 3 -4 44129.7 1656.42 21
6 -3 -4 46718.3 1616.92 36
-6 3 4 43745.1 1644.32 8
6 3 -4 44601.2 1637.19 18
6 -3 -4 45231.8 1637.14 34
6 3 -4 40257.6 1643.15 16
6 -3 -4 45814.6 1673.64 7
-6 -3 4 43185.0 2102.85 32
6 3 -4 42413.9 1647.49 15
6 3 -4 44380.5 1663.55 14
-6 -3 3 6823.55 705.514 29
-6 3 3 6012.68 775.724 29
6 -3 -3 7309.15 387.650 6
-6 3 3 6779.80 792.788 27
-6 3 3 7023.57 433.689 41
-6 3 3 6598.79 411.322 39
6 3 -3 5329.58 626.246 9
6 3 -3 6422.73 394.243 21
6 -3 -3 7296.98 358.892 36
-6 3 3 7013.06 378.991 8
6 3 -3 6775.01 372.307 18
6 -3 -3 7148.70 369.021 34
6 3 -3 5933.00 392.731 16
-6 -3 3 7005.04 656.573 32
6 -3 -3 7128.16 398.539 7
6 3 -3 6510.43 386.249 15
6 3 -3 6917.50 403.829 14
-6 -3 2 16173.4 1087.92 29
-6 3 2 12428.4 1117.69 29
6 -3 -2 15340.4 677.309 6
-6 3 2 15486.0 1221.22 27
-6 3 2 15250.3 717.311 41
6 -3 -2 12863.8 665.174 5
-6 3 2 15346.7 712.829 39
6 -3 -2 15544.5 686.218 37
6 -3 -2 16116.1 656.917 36
-6 3 2 15567.3 716.114 35
-6 3 2 16091.8 679.325 8
6 3 -2 15668.5 659.762 18
6 -3 -2 15592.2 661.279 34
6 3 -2 14618.5 678.704 16
-6 -3 2 15670.6 1005.88 32
-6 3 1 22847.0 1508.65 29
6 -3 -1 25988.8 1010.23 6
-6 3 1 21588.0 1532.66 27
-6 3 1 23212.9 1013.84 41
6 -3 -1 22801.7 1001.90 5
-6 3 1 25402.4 1043.93 39
6 3 -1 25017.0 1005.95 21
6 -3 -1 22975.6 1535.12 2
6 -3 -1 24852.3 1006.55 37
6 -3 -1 25769.8 983.498 36
-6 3 1 23565.7 1031.93 35
-6 3 1 25831.1 1006.23 8
6 3 -1 25212.1 975.003 18
6 -3 -1 25631.6 990.084 34
6 3 -1 23140.3 994.829 16
-6 -3 1 23106.4 1309.99 32
6 -3 0 6623.40 417.286 5
-6 3 0 7553.79 443.129 39
6 -3 0 5823.81 619.652 1
6 3 0 7191.07 414.024 21
6 -3 0 7275.44 404.020 37
6 -3 0 6134.79 772.022 2
6 -3 0 7581.78 385.507 36
-6 3 0 6997.92 400.689 8
6 3 0 6776.45 375.460 18
6 -3 0 7521.79 393.059 34
6 3 0 6503.28 403.893 16
6 -3 1 13205.7 614.310 6
-6 3 -1 12092.8 1108.15 27
6 3 1 12086.7 938.338 10
6 -3 1 12954.2 635.827 5
-6 3 -1 12263.2 639.921 39
6 3 1 13393.6 616.660 21
6 -3 1 12567.5 609.363 37
6 -3 1 12640.2 929.854 1
6 -3 1 12782.7 588.678 36
6 -3 1 11787.3 1105.21 2
6 3 1 12883.1 570.035 19
6 3 1 13001.0 579.975 18
-6 3 -1 13360.0 616.362 8
6 -3 1 13269.8 602.715 34
-6 -3 -1 13210.5 1006.56 30
6 -3 2 12656.5 594.214 6
-6 3 -2 11616.6 621.646 39
6 -3 2 11880.2 613.859 5
6 3 2 12583.7 591.478 21
6 -3 2 11712.4 588.039 37
6 3 2 12105.1 553.856 19
-6 3 -2 11567.3 614.628 35
6 3 2 12449.9 562.449 18
6 -3 3 48595.8 1781.76 6
6 -3 3 45121.0 1811.53 5
6 3 3 48728.4 1770.38 21
6 -3 3 47723.6 1775.63 36
6 3 3 46103.5 1747.66 19
-6 3 -3 45544.2 1824.23 35
6 3 3 48270.2 1755.01 18
6 3 3 46090.3 1778.92 16
6 -3 4 43905.7 1616.65 6
-6 3 -4 41172.5 1675.17 39
6 -3 4 45001.0 1682.43 5
6 3 4 44836.7 1606.33 21
6 -3 4 43127.3 1627.89 36
6 3 4 40645.2 1594.68 19
-6 3 -4 41530.0 1673.02 35
6 3 4 41861.4 1597.11 18
6 -3 4 41795.6 1642.64 34
6 3 4 41367.3 1622.10 16
6 -3 5 10108.3 487.226 6
-6 3 -5 9411.07 552.156 39
6 -3 5 10106.7 552.038 5
6 -3 5 9936.16 504.948 36
-6 3 -5 9677.61 548.589 35
6 -3 5 9634.50 530.953 34
6 3 5 9434.55 507.442 16
6 -3 6 17597.5 740.155 6
6 -3 6 20505.5 835.975 24
-6 3 -6 17498.8 824.841 39
6 -3 6 18217.0 831.709 5
6 -3 6 17101.5 784.404 36
-6 3 -6 18809.1 828.213 35
6 -3 6 17674.3 811.151 34
6 3 6 18307.4 786.782 16
6 -3 7 460.286 175.661 24
-6 3 -7 322.618 182.312 39
6 -3 7 560.031 153.313 36
6 3 7 439.950 173.435 19
-6 3 -7 455.115 173.919 35
6 -3 7 491.737 172.091 34
6 3 7 291.951 172.576 16
6 -3 8 9494.88 484.621 24
-6 3 -8 9623.65 487.880 39
6 3 8 9571.27 455.156 19
6 -3 8 8138.53 445.520 36
-6 3 -8 9481.29 467.775 35
6 3 8 10365.5 457.347 16
6 -3 9 2195.70 208.721 24
6 -3 9 2275.02 212.954 5
-6 3 -9 2042.67 196.463 39
6 -3 9 2070.28 179.697 21
6 3 9 2417.00 194.905 19
6 3 9 2155.31 183.752 16
6 -3 10 949.915 93.4178 21
6 -3 10 971.125 131.230 5
6 3 10 964.129 121.695 19
-6 4 12 2907.01 155.063 8
6 4 -12 2740.25 145.009 18
6 -4 -12 2765.76 157.301 7
6 -4 -12 2838.11 146.975 4
6 -4 -11 599.888 113.995 4
-6 -4 11 512.035 149.154 38
-6 4 11 511.574 130.634 38
6 -4 -11 590.444 109.963 37
6 4 -11 432.808 109.782 20
-6 -4 11 535.603 161.324 5
-6 4 11 604.984 115.459 8
6 4 -11 632.093 126.799 18
6 -4 -11 594.154 121.941 7
6 -4 -10 1393.80 156.948 4
-6 4 10 1067.07 177.123 41
-6 4 10 1329.24 189.064 38
6 -4 -10 1725.33 169.777 37
-6 4 10 1488.56 167.300 8
6 4 -10 1580.64 170.956 20
6 4 -10 1694.08 181.765 18
6 -4 -10 1438.75 171.575 7
-6 4 9 3942.84 309.846 41
6 4 -9 3804.63 309.286 22
-6 4 9 3554.41 297.174 38
6 -4 -9 4709.24 279.198 37
-6 4 9 3826.08 261.677 8
6 4 -9 3672.92 265.991 20
6 4 -9 3978.61 271.840 18
6 -4 -9 3319.96 226.570 34
6 -4 -9 4002.21 271.943 7
6 -4 -9 3607.66 247.617 4
6 4 -9 3339.79 283.820 14
6 4 -8 749.265 207.072 14
6 -4 -8 622.453 152.630 4
-6 4 8 567.458 191.529 41
6 4 -8 475.088 215.657 22
-6 4 8 400.812 160.889 38
6 4 -8 518.953 152.439 20
-6 4 8 664.872 154.878 8
6 4 -8 514.485 168.023 18
6 -4 -8 628.631 131.841 34
6 4 -7 2942.51 293.929 22
-6 4 7 2430.12 254.294 38
6 4 -7 2680.74 241.064 20
-6 4 7 2944.94 239.925 8
6 4 -7 3021.67 259.783 18
6 -4 -7 2783.28 219.989 34
6 -4 -7 2995.17 243.406 4
-6 4 6 7025.26 479.860 41
-6 -4 6 6863.32 390.186 40
6 4 -6 7459.17 444.741 22
6 -4 -6 7642.79 424.422 37
6 4 -6 6845.22 399.959 20
-6 4 6 8537.33 420.892 8
6 4 -6 7889.83 424.258 18
6 -4 -6 7490.64 397.408 34
6 -4 -6 8193.40 432.813 7
6 4 -6 7975.63 453.661 14
6 -4 -6 7965.55 406.945 4
-6 4 5 13469.9 698.333 41
6 4 -5 13722.5 633.794 22
6 -4 -5 12664.9 620.663 37
6 4 -5 11980.2 587.621 20
-6 4 5 13682.4 615.386 8
6 4 -5 13774.6 619.410 18
6 -4 -5 13608.0 604.876 34
6 -4 -5 13994.2 633.604 7
6 4 -5 13220.0 641.832 14
6 -4 -5 13814.5 603.608 4
-6 4 4 9212.71 539.206 41
6 -4 -4 9176.64 460.574 4
6 -4 -4 8979.86 448.186 6
6 4 -4 8786.53 481.032 22
6 -4 -4 9125.92 480.371 37
6 4 -4 8210.92 442.552 20
6 -4 -4 9902.21 446.503 36
-6 4 4 9475.09 470.284 8
-6 4 4 8507.23 492.927 35
6 4 -4 8834.74 468.542 18
6 -4 -4 9614.66 465.338 34
6 -4 -4 9760.93 492.688 7
6 4 -4 9518.54 503.522 14
6 -4 -3 14425.8 646.936 4
6 -4 -3 14391.3 648.713 6
-6 4 3 14875.2 724.387 41
6 -4 -3 14788.7 675.412 37
6 4 -3 14421.8 633.022 20
6 -4 -3 15429.8 640.808 36
-6 4 3 15503.9 670.143 8
-6 4 3 14729.7 699.180 35
6 4 -3 14005.6 653.213 22
6 4 -3 15372.8 664.652 18
6 -4 -3 14480.0 654.341 34
6 4 -3 13669.5 658.122 16
6 -4 -3 15204.1 687.552 7
6 4 -3 13966.3 667.381 14
6 -4 -2 10718.5 519.522 4
6 -4 -2 10850.1 533.810 6
-6 4 2 10506.5 566.769 41
6 4 -2 11262.1 565.813 21
6 -4 -2 10216.6 536.953 37
6 -4 -2 11900.6 520.014 36
-6 4 2 11336.8 575.599 35
-6 4 2 11200.3 536.772 8
6 4 -2 11168.0 533.271 18
6 -4 -2 10399.8 525.245 34
6 4 -2 9803.51 529.092 16
6 -4 -2 11717.0 566.832 7
6 4 -2 10039.8 528.670 14
6 -4 -1 7955.40 430.118 6
-6 4 1 7339.78 431.507 41
-6 4 1 7153.66 439.064 39
6 4 -1 7051.97 439.093 21
6 -4 -1 6782.10 405.751 37
6 -4 -1 6580.32 381.322 36
-6 4 1 7553.90 461.826 35
6 4 -1 6989.49 396.060 18
6 -4 -1 7376.69 402.972 34
6 4 -1 6530.11 413.386 16
6 -4 -1 7538.58 434.604 7
6 -4 0 24224.2 995.218 6
-6 4 0 23131.4 1015.91 39
6 4 0 24665.1 999.689 21
6 -4 0 23863.0 990.818 37
6 -4 0 23444.4 969.814 36
-6 4 0 23191.6 1029.45 35
6 4 0 24499.7 973.214 18
6 4 0 23267.7 985.859 16
6 -4 0 24747.7 1007.11 7
6 -4 1 88269.2 3162.65 6
6 -4 1 82362.5 3148.70 5
-6 4 -1 86813.6 3192.52 39
6 4 1 93232.2 3156.01 21
6 -4 1 86409.8 3154.55 37
6 4 1 86674.2 3103.45 19
-6 4 -1 85550.6 3196.18 35
6 4 1 88471.4 3128.75 18
6 4 1 87622.6 3152.30 16
6 -4 1 89645.4 3167.23 7
6 -4 2 14639.1 694.321 5
-6 4 -2 14075.0 714.443 39
6 4 2 15912.7 683.510 21
6 -4 2 14743.6 680.930 37
6 4 2 14579.9 645.308 19
-6 4 -2 14643.4 724.894 35
6 -4 2 15156.5 687.468 34
6 4 2 15826.5 700.074 16
6 -4 2 15071.3 687.900 7
6 -4 3 2623.75 258.116 6
6 -4 3 2980.04 290.052 5
-6 4 -3 2948.68 295.860 39
6 4 3 2736.51 249.282 21
6 -4 3 2370.65 237.819 36
6 4 3 2439.00 236.228 19
-6 4 -3 2609.26 256.228 8
6 -4 3 2648.92 252.474 34
6 4 3 2546.24 274.683 16
6 -4 4 306.694 159.493 6
-6 4 -4 557.527 186.600 39
6 -4 4 401.486 202.002 5
6 -4 4 377.144 140.581 36
6 4 4 591.572 172.444 19
-6 4 -4 478.002 200.439 35
-6 4 -4 372.299 166.592 8
6 -4 4 428.412 156.795 34
6 -4 5 8353.47 416.178 6
6 -4 5 8517.07 461.159 5
6 -4 5 6694.51 413.615 36
6 4 5 8139.23 416.380 19
-6 4 -5 8081.84 458.945 35
-6 4 -5 8837.91 440.060 8
6 -4 5 8404.73 441.426 34
6 -4 6 39477.8 1488.13 6
6 -4 6 44203.4 1555.52 24
6 -4 6 40115.0 1546.15 5
6 -4 6 39104.5 1513.45 36
-6 4 -6 41359.5 1552.91 35
-6 4 -6 42155.6 1529.47 8
6 -4 6 39136.9 1536.83 34
6 4 6 41292.4 1527.48 16
6 -4 7 2736.50 227.981 24
6 -4 7 2976.63 245.339 5
-6 4 -7 2744.44 237.517 39
6 4 7 2791.89 218.778 19
6 -4 7 2491.59 200.350 36
-6 4 -7 3033.43 239.135 35
-6 4 -7 2658.94 209.881 8
6 4 7 3080.96 236.561 16
6 -4 8 11160.6 494.917 5
6 4 8 11733.9 480.077 19
-6 4 -8 10134.3 468.139 8
6 -4 9 3112.87 179.920 5
6 -4 9 2837.11 157.948 21
6 4 9 2713.65 163.660 19
-6 5 10 7264.46 316.453 8
6 5 -10 7296.65 310.465 18
6 -5 -10 7189.56 313.250 7
6 -5 -10 7620.41 303.999 4
6 -5 -9 851.918 112.120 4
6 5 -9 709.717 103.309 20
-6 5 9 813.110 121.388 8
6 5 -9 890.360 129.176 18
6 -5 -9 803.047 115.255 7
-6 5 8 2209.68 207.453 41
6 -5 -8 2039.46 175.704 37
6 5 -8 2191.05 169.999 20
-6 5 8 2377.13 179.416 8
6 -5 -8 2136.10 160.408 34
6 -5 -8 2261.48 182.834 7
6 -5 -8 2246.96 168.404 4
6 -5 -7 1702.82 173.729 37
6 5 -7 1966.19 175.872 20
-6 5 7 1890.04 172.843 8
6 -5 -7 1922.76 165.548 34
6 -5 -7 2275.86 190.291 7
6 -5 -7 2053.46 174.336 4
6 -5 -6 257.200 126.105 4
-6 5 6 185.118 152.729 41
-6 -5 6 153.190 122.211 40
6 -5 -6 174.016 115.604 37
6 5 -6 247.148 118.417 20
6 -5 -6 279.805 110.069 34
-6 5 5 3933.70 309.816 41
6 -5 -5 4118.93 269.964 37
6 5 -5 4100.27 259.796 20
6 -5 -5 3954.79 233.360 36
6 -5 -5 3901.62 254.572 34
6 -5 -5 3944.01 260.209 4
6 -5 -4 5639.41 313.506 4
-6 5 4 5414.81 360.340 41
6 -5 -4 5051.40 313.011 37
6 5 -4 4628.12 289.754 20
6 -5 -4 5294.74 291.337 36
6 -5 -4 5556.91 312.538 34
6 -5 -4 5602.82 331.371 7
6 -5 -3 5737.13 325.505 4
6 -5 -3 5008.53 303.720 6
-6 5 3 5492.55 363.259 41
6 -5 -3 5606.04 332.885 37
6 -5 -3 6011.28 317.095 36
-6 5 3 6305.31 339.068 8
6 -5 -3 5555.77 324.017 34
6 -5 -3 5791.63 347.606 7
6 -5 -2 8344.03 413.664 4
6 -5 -2 8442.62 414.840 6
-6 5 2 7638.53 441.708 41
6 -5 -2 7733.71 420.479 37
6 -5 -2 8751.30 412.534 36
-6 5 2 8020.87 417.935 8
-6 5 2 7764.23 439.874 35
6 -5 -2 8762.87 449.074 7
6 -5 -1 42387.3 1525.53 4
6 -5 -1 41516.6 1538.86 6
-6 5 1 37588.6 1543.81 41
6 -5 -1 40897.2 1543.41 37
6 -5 -1 42119.7 1534.38 36
-6 5 1 42714.6 1547.52 8
-6 5 1 40221.0 1567.98 35
6 5 -1 41984.6 1535.88 18
6 -5 -1 40089.1 1540.79 34
6 5 -1 38972.3 1516.25 16
6 -5 -1 43039.9 1570.40 7
6 -5 0 13604.4 596.116 4
6 -5 0 14129.7 625.465 6
6 -5 0 13012.8 605.732 37
6 -5 0 14086.2 611.812 36
-6 5 0 14442.7 622.208 8
-6 5 0 13907.9 650.210 35
6 5 0 13767.9 611.746 18
6 -5 0 13811.1 616.120 34
6 5 0 13593.1 614.235 16
6 -5 0 15289.8 647.250 7
6 -5 1 2546.42 234.219 6
6 5 1 2457.61 199.128 19
-6 5 -1 2656.49 221.017 8
-6 5 -1 2566.53 255.009 35
6 5 1 2472.10 233.752 18
6 -5 1 2534.00 219.770 34
6 5 1 2416.01 243.981 16
6 -5 1 2358.00 226.996 7
6 -5 2 7769.78 392.755 6
-6 5 -2 6098.66 379.900 39
6 -5 2 7183.27 368.227 36
6 5 2 6389.79 348.898 19
-6 5 -2 7204.94 370.714 8
-6 5 -2 7120.20 406.697 35
6 5 2 7099.31 375.913 18
6 -5 2 7287.56 378.900 34
6 5 2 6987.91 391.418 16
6 -5 2 7079.07 381.383 7
-6 5 -3 2415.80 222.626 39
6 -5 3 2239.65 194.746 36
6 5 3 2490.33 199.267 19
-6 5 -3 2580.42 206.219 8
-6 5 -3 2166.46 227.935 35
6 5 3 2628.05 226.199 18
6 -5 3 2183.59 206.318 34
6 5 3 2712.71 236.793 16
6 -5 3 2112.99 197.187 7
6 -5 4 2747.54 208.592 6
6 -5 4 2230.54 197.065 5
-6 5 -4 2445.04 217.683 39
6 -5 4 2223.19 187.223 36
-6 5 -4 2792.17 199.958 8
-6 5 -4 2331.36 218.790 35
6 -5 4 2112.00 201.410 34
6 5 4 2529.38 228.961 16
6 5 4 2679.31 201.414 19
6 -5 5 578.294 117.153 6
6 -5 5 512.455 125.877 24
-6 5 -5 431.415 125.880 39
6 -5 5 437.062 122.511 5
6 -5 5 581.683 111.209 36
6 5 5 549.832 130.228 19
-6 5 -5 573.676 111.728 8
6 -5 5 454.299 118.333 34
6 5 5 819.185 156.264 16
6 -5 6 1038.28 105.109 6
6 -5 6 1090.68 122.315 5
-6 5 -6 925.307 98.7088 8
6 5 6 901.058 124.329 19
6 5 6 1171.62 144.698 16
6 -5 7 1135.37 98.8955 21
-6 6 6 7957.19 317.168 8
6 6 -6 7593.68 316.767 18
6 -6 -6 7355.63 319.210 7
6 -6 -6 7379.12 303.025 4
6 -6 -5 76.4430 74.7274 4
-6 6 5 110.763 77.2485 8
6 6 -5 135.331 89.8246 18
-6 6 4 8734.67 361.409 8
6 6 -4 8433.40 363.731 18
6 -6 -4 8128.50 347.696 4
-6 6 3 5156.94 265.476 8
6 -6 -3 5470.46 281.485 7
6 -6 -3 5524.35 261.038 4
-6 6 2 16926.1 587.453 8
6 6 -2 16968.4 593.743 18
6 -6 -2 15745.8 595.450 34
6 -6 -2 17251.8 606.595 7
6 -6 -1 2349.84 156.313 6
-6 6 1 2722.33 161.156 8
6 -6 -1 2261.20 166.666 34
-6 6 0 287.260 81.7196 8
6 6 0 208.737 107.891 18
6 -6 0 300.019 95.6343 6
6 -6 0 308.010 97.7733 7
6 -6 1 3165.43 183.297 6
-6 6 -1 3033.78 168.878 8
6 6 1 3372.23 189.606 18
6 -6 1 2877.77 180.270 7
6 -6 2 4368.86 209.182 6
6 -6 2 3714.62 188.439 7
6 -6 3 683.528 85.7856 6
-7 0 15 1614.01 126.159 3
7 0 -14 1967.39 181.452 26
-7 0 14 2334.37 191.731 3
7 0 -13 7329.18 393.758 26
7 0 -13 6591.11 332.681 4
-7 0 13 7659.63 382.549 3
7 0 -13 7652.00 396.613 33
-7 0 12 9818.03 554.827 41
7 0 -12 11748.9 582.436 26
-7 0 12 12449.2 633.309 38
7 0 -12 9654.00 510.972 4
7 0 -12 12845.4 587.487 33
-7 0 12 12723.3 567.046 3
7 0 -11 4359.76 353.177 26
-7 0 11 3631.11 338.772 41
-7 0 11 4760.92 396.626 38
7 0 -11 3546.11 276.039 4
7 0 -11 4556.40 347.807 33
7 0 -10 444.363 170.068 14
7 0 -10 639.789 205.742 26
-7 0 10 574.844 237.451 38
7 0 -10 761.848 228.133 33
7 0 -10 565.952 174.807 7
7 0 -10 636.561 196.200 15
7 0 -9 151.215 165.438 14
7 0 -9 61.7340 174.720 26
-7 0 9 201.894 229.704 38
7 0 -9 71.6771 196.961 33
7 0 -9 76.3582 146.254 7
7 0 -9 232.452 183.395 15
7 0 -8 36492.9 1395.16 14
7 0 -8 35823.0 1471.14 26
-7 0 8 38782.9 1539.84 38
7 0 -8 35515.5 1421.97 7
7 0 -8 35144.9 1455.64 33
7 0 -8 37737.8 1405.65 15
-7 0 7 70219.3 3407.17 29
7 0 -7 69101.2 2543.51 14
7 0 -7 64982.9 2584.85 13
-7 0 7 75896.9 3460.31 27
7 0 -7 72000.9 2626.64 26
7 0 -7 71628.6 3313.70 23
7 0 -7 66920.1 2913.13 9
-7 0 7 80597.8 2710.67 38
7 0 -7 71454.7 2615.74 33
-7 0 7 74524.4 3336.89 32
7 0 -7 73799.0 2567.53 15
7 0 -7 66846.3 2574.28 6
-7 0 6 20299.0 1479.18 29
7 0 -6 18833.2 857.524 13
-7 0 6 20216.1 1456.82 27
7 0 -6 20339.6 889.010 26
7 0 -6 19700.2 1391.86 23
7 0 -6 18317.2 1116.60 9
-7 0 6 23585.4 946.246 38
7 0 -6 19527.1 876.609 33
-7 0 6 17729.8 1332.84 32
-7 0 5 7395.95 879.147 29
-7 0 5 6763.36 816.819 27
7 0 -5 7259.46 438.244 26
7 0 -5 6687.82 794.376 23
7 0 -5 6393.51 607.364 9
7 0 -5 7401.50 431.869 33
-7 0 4 2153.33 511.693 29
-7 0 4 2498.26 506.963 27
7 0 -4 1688.84 237.887 26
7 0 -4 1558.64 458.937 23
7 0 -4 1217.29 304.778 9
7 0 -4 1577.71 234.006 33
-7 0 3 77651.5 3459.64 27
7 0 -3 74089.5 2810.93 26
7 0 -3 74039.9 3418.36 23
-7 0 2 61375.1 2607.73 29
-7 0 2 66690.5 2777.40 27
7 0 -2 54906.1 2138.56 26
7 0 -2 51430.2 2686.18 23
-7 0 1 15273.7 1070.10 27
7 0 -1 13141.1 626.609 26
7 0 -1 12839.8 1092.14 23
7 0 -1 9933.89 528.656 37
7 0 -1 12237.0 547.600 36
-7 0 0 13057.5 973.347 28
-7 0 0 12416.5 1030.44 27
7 0 0 13621.4 650.915 26
7 0 0 10918.4 1049.91 23
7 0 0 10765.7 550.755 36
-7 0 -1 56626.9 2482.61 28
7 0 1 54923.3 2010.09 26
7 0 1 48005.0 2600.48 23
7 0 1 48852.6 1916.12 36
-7 0 -2 22839.0 1406.22 28
7 0 2 22406.5 995.332 26
7 0 2 22576.4 906.566 24
7 0 2 20296.6 911.315 36
-7 0 -3 29341.2 1674.36 28
7 0 3 27732.1 1140.58 13
7 0 3 28743.2 1220.28 26
7 0 3 25437.0 1132.95 3
7 0 3 29092.2 1128.99 24
7 0 3 27113.2 1116.88 5
7 0 3 28799.6 1112.50 19
7 0 3 26553.4 1131.50 36
7 0 4 498.703 167.081 13
7 0 4 -15.0873 217.711 26
7 0 4 94.6731 166.143 24
7 0 4 198.582 175.478 21
7 0 4 300.250 174.268 5
7 0 4 -42.7871 168.044 36
7 0 4 117.942 182.795 19
7 0 4 43.9858 209.249 3
7 0 5 9820.34 537.469 13
7 0 5 9233.73 592.884 26
7 0 5 9501.07 543.668 3
7 0 5 10006.4 534.946 24
7 0 5 9286.25 482.855 21
7 0 6 4132.52 338.103 13
7 0 6 4266.47 358.290 3
7 0 6 3962.67 340.452 24
7 0 6 3622.02 288.347 21
7 0 6 3970.96 319.120 19
7 0 6 3925.73 336.164 36
7 0 7 3801.68 320.216 13
7 0 7 3823.09 340.217 3
7 0 7 3433.40 328.171 24
7 0 7 3674.30 274.769 21
7 0 8 3316.11 286.319 13
7 0 8 3328.36 305.965 3
7 0 8 3525.17 312.682 24
7 0 8 3248.28 235.178 21
-7 0 -8 3565.59 289.322 33
7 0 9 228.008 150.277 13
-7 0 -9 247.442 138.468 33
7 0 9 301.161 178.677 3
-7 0 -10 -156.486 116.721 33
7 0 10 -63.0569 141.853 3
7 0 11 3481.29 191.574 13
-7 -1 14 13153.7 495.109 3
-7 1 14 12103.6 485.713 3
7 -1 -13 2070.90 213.066 26
7 1 -13 2271.53 219.173 26
-7 1 13 2041.53 237.922 38
7 -1 -13 2156.24 178.179 4
-7 -1 13 2363.55 224.425 3
-7 1 13 2535.98 224.976 3
7 -1 -13 2173.45 215.510 33
7 1 -13 2422.25 223.470 33
7 -1 -12 3350.69 280.061 26
7 1 -12 3627.90 293.749 26
-7 -1 12 3034.19 319.709 38
-7 1 12 3225.55 316.405 38
7 1 -12 2855.18 233.150 4
7 -1 -12 3118.18 266.152 7
7 -1 -12 3394.42 237.528 4
7 -1 -12 4002.90 294.959 33
7 1 -12 3193.33 288.441 33
-7 -1 12 3695.55 297.336 3
-7 1 12 3994.72 296.914 3
-7 1 12 3031.06 280.394 41
-7 -1 12 3063.55 279.515 41
-7 1 11 5043.74 380.033 41
7 -1 -11 4880.05 359.100 26
7 1 -11 4698.24 357.369 26
-7 -1 11 4370.26 390.130 38
-7 1 11 5350.58 420.889 38
7 -1 -11 4308.38 332.770 7
7 -1 -11 4602.37 298.874 4
7 -1 -11 5719.58 371.509 33
7 1 -11 4261.77 346.842 33
7 1 -11 4842.29 339.295 15
7 1 -11 4949.64 315.754 14
7 -1 -10 16959.8 788.610 26
7 1 -10 16907.9 789.506 26
-7 -1 10 16845.3 842.426 38
-7 1 10 17740.8 852.461 38
-7 1 10 16044.1 814.103 41
7 -1 -10 16481.2 750.111 7
7 -1 -10 17304.8 785.254 33
7 1 -10 17380.2 786.262 33
7 -1 -10 16083.7 699.432 4
7 1 -10 16594.4 743.741 15
7 1 -10 16414.1 722.876 14
7 1 -9 33420.5 1305.66 14
7 -1 -9 32089.3 1271.76 14
7 -1 -9 33759.5 1372.93 26
7 1 -9 34037.0 1376.98 26
-7 -1 9 33382.3 1433.17 38
-7 1 9 35379.2 1458.91 38
7 -1 -9 33587.7 1333.13 7
7 -1 -9 34346.4 1367.06 33
7 1 -9 34687.1 1369.74 33
7 1 -9 33740.5 1323.58 15
-7 1 9 33130.9 1425.15 41
7 1 -8 1734.02 231.084 14
7 -1 -8 1713.20 205.148 14
7 -1 -8 1442.59 205.147 6
7 -1 -8 1891.14 249.617 26
7 1 -8 1534.24 251.467 26
-7 1 8 2017.75 294.046 38
7 -1 -8 1842.20 218.903 7
7 -1 -8 1908.09 258.256 33
7 1 -8 1947.67 260.390 33
7 1 -8 1960.02 248.994 15
-7 -1 7 1153.05 477.920 29
7 1 -7 1881.87 230.009 14
-7 1 7 1225.32 506.389 29
-7 -1 7 2141.50 497.872 27
-7 1 7 2071.61 526.963 27
7 -1 -7 2177.17 247.662 26
7 -1 -7 1512.73 208.254 6
7 1 -7 1857.00 252.077 26
-7 1 7 1827.04 290.481 41
7 -1 -7 1872.41 471.644 23
7 1 -7 1580.76 469.944 23
-7 1 7 1851.94 279.839 38
7 1 -7 1197.20 353.117 9
7 -1 -7 1944.57 208.249 7
7 -1 -7 1958.04 254.852 33
7 1 -7 1867.67 248.035 33
-7 -1 7 984.613 413.248 32
-7 1 7 2076.55 530.842 32
7 1 -7 1930.24 238.284 15
7 1 -6 2751.31 260.081 14
7 -1 -6 2466.18 239.421 6
-7 -1 6 2099.85 522.515 29
-7 1 6 2964.80 582.678 29
7 1 -6 2190.82 253.350 13
7 -1 -6 2455.45 260.478 13
-7 -1 6 2372.49 511.962 27
-7 1 6 3153.39 590.186 27
7 -1 -6 3326.42 285.288 26
7 1 -6 2402.03 269.678 26
7 -1 -6 2819.33 535.474 23
7 1 -6 2197.54 500.217 23
-7 1 6 2792.42 298.019 38
7 1 -6 2257.37 411.848 9
7 -1 -6 2476.39 209.447 37
7 -1 -6 2987.07 276.116 33
7 1 -6 2950.94 280.138 33
-7 -1 6 2544.74 516.516 32
-7 1 6 2651.68 308.068 41
7 1 -6 2488.36 253.079 15
7 -1 -6 2786.48 250.814 15
-7 -1 5 10540.5 992.778 29
-7 1 5 9128.57 1010.27 29
-7 -1 5 9922.07 938.550 27
7 -1 -5 10600.0 555.822 26
7 1 -5 10025.5 553.132 26
7 -1 -5 9738.72 964.563 23
7 1 -5 8907.88 927.023 23
7 1 -5 9146.38 782.627 9
7 -1 -5 10453.5 485.372 37
7 -1 -5 11336.5 557.681 33
7 1 -5 10014.7 535.957 33
-7 -1 5 9203.74 861.885 32
-7 1 5 12039.8 613.750 41
-7 -1 4 7306.60 801.281 29
-7 1 4 7893.77 887.094 29
-7 1 4 10061.0 520.279 41
-7 -1 4 6901.38 774.523 27
-7 1 4 9911.16 976.259 27
7 -1 -4 9891.86 500.451 26
7 1 -4 7582.66 471.734 26
7 -1 -4 8424.01 904.394 23
7 1 -4 8132.14 874.480 23
7 1 -4 7049.93 686.249 9
7 -1 -4 8249.92 416.791 37
7 -1 -4 8541.30 475.410 33
7 1 -4 7834.36 454.328 33
-7 -1 3 8506.32 831.555 29
-7 1 3 10544.5 894.935 29
-7 -1 3 7342.97 800.694 27
-7 1 3 11193.8 994.563 27
7 -1 -3 11982.1 559.190 26
7 1 -3 8848.43 528.925 26
-7 1 3 11987.8 549.397 41
7 -1 -3 10338.6 975.961 23
7 1 -3 7403.84 898.153 23
7 1 -3 8694.32 756.761 9
7 -1 -3 9881.25 470.737 37
-7 -1 2 17096.1 1296.80 29
-7 1 2 28816.7 1494.69 29
-7 -1 2 16993.9 1323.17 27
-7 1 2 31840.7 1667.60 27
7 -1 -2 29223.6 1077.90 26
7 1 -2 23180.8 1041.51 26
7 -1 -2 31303.1 1483.89 2
7 -1 -2 29679.4 1659.54 23
7 1 -2 20135.8 1473.49 23
7 -1 -2 24316.3 971.697 37
-7 1 1 113403. 4307.68 28
-7 -1 1 76804.5 4080.10 28
-7 1 1 128134. 4567.82 27
7 -1 -1 113498. 3844.90 26
7 1 -1 97223.7 3811.30 26
7 -1 -1 106405. 4506.46 23
7 1 -1 86982.5 4364.16 23
7 -1 -1 111164. 4259.97 2
7 -1 -1 102201. 3741.64 37
7 -1 -1 118794. 3758.24 36
-7 1 0 42433.0 1990.51 28
-7 -1 0 35311.8 1898.75 28
-7 1 0 42448.1 2108.01 27
7 -1 0 42272.6 1564.59 26
7 1 0 36479.6 1526.83 26
7 -1 0 38238.5 2133.21 23
7 1 0 34467.7 2073.15 23
7 -1 0 33330.8 1843.17 2
7 -1 0 38640.5 1465.33 37
7 -1 0 40212.6 1471.78 36
7 -1 0 37651.7 1446.10 34
-7 1 -1 5365.16 635.557 28
-7 -1 -1 5030.42 609.315 28
-7 1 -1 4392.60 628.165 27
7 -1 1 5482.84 396.772 26
7 1 1 5255.82 394.267 26
7 -1 1 5012.51 331.419 37
7 -1 1 5021.75 337.115 36
7 -1 1 5036.88 322.717 34
7 -1 2 1636.83 259.152 26
-7 1 -2 1451.63 390.996 28
-7 -1 -2 1690.36 405.723 28
7 -1 2 1593.49 217.061 13
7 1 2 1431.70 217.879 13
-7 1 -2 1388.64 419.077 27
7 1 2 1638.06 264.615 26
7 1 2 1296.79 209.587 21
7 -1 2 1442.21 216.018 21
7 -1 2 1406.93 232.754 5
7 -1 2 1333.20 199.712 36
7 1 2 1401.75 199.656 19
-7 1 -2 1683.17 231.851 35
7 -1 2 1309.89 197.969 34
7 1 2 1410.87 210.836 16
7 -1 2 1642.30 251.484 3
7 1 2 1189.81 229.194 3
-7 1 -3 7087.85 760.523 28
-7 -1 -3 7755.22 793.367 28
7 -1 3 7076.63 425.750 13
7 1 3 7356.30 431.197 13
7 -1 3 8300.45 505.605 26
7 1 3 7578.27 486.380 26
7 -1 3 6373.61 429.346 3
7 -1 3 6721.39 437.351 5
-7 1 -3 7778.12 454.968 39
7 1 3 6583.36 438.412 3
7 1 3 6949.93 409.147 21
7 -1 3 7306.76 410.403 21
7 1 3 6730.94 397.934 19
7 -1 3 6916.21 414.124 36
-7 1 -3 6892.32 419.426 35
7 -1 3 6612.01 409.945 34
7 1 3 7002.67 401.878 16
7 -1 4 25938.0 1095.88 13
7 1 4 27406.6 1107.22 13
7 -1 4 27047.5 1177.40 26
7 1 4 26105.9 1162.82 26
7 -1 4 25168.2 1096.66 3
7 1 4 25979.1 1103.81 3
7 -1 4 29069.3 1111.49 24
7 1 4 22852.5 1076.52 24
7 -1 4 27268.9 1105.35 5
-7 1 -4 26713.9 1113.46 39
7 1 4 26648.3 1061.08 21
7 1 4 26485.8 1065.73 19
7 -1 4 26515.1 1091.45 34
7 -1 5 38277.7 1498.98 13
7 1 5 40094.6 1509.18 13
7 -1 5 37232.5 1572.89 26
7 1 5 39654.5 1580.02 26
7 -1 5 37348.0 1497.83 3
7 1 5 37469.3 1499.83 3
7 -1 5 40536.2 1513.14 24
7 1 5 33196.5 1480.71 24
7 -1 5 38778.4 1495.91 5
-7 1 -5 38684.0 1506.65 39
7 1 5 39458.2 1454.25 21
7 -1 5 36620.3 1450.37 21
7 -1 5 36922.9 1495.54 36
7 -1 6 1386.44 205.496 13
7 1 6 1152.40 194.500 13
7 -1 6 332.888 194.756 24
-7 1 -6 560.778 193.657 39
7 1 6 687.413 181.652 21
7 -1 6 527.557 186.829 21
7 -1 6 594.399 190.939 5
7 -1 6 549.756 193.887 36
7 -1 6 531.935 231.323 3
7 1 6 660.819 237.152 3
7 -1 7 8540.95 481.277 13
7 1 7 9893.98 501.755 13
7 -1 7 8087.98 485.238 3
7 1 7 8101.16 490.545 3
7 -1 7 8618.72 505.433 24
7 -1 7 8803.76 472.453 5
7 1 7 9076.40 438.743 21
7 -1 7 9065.35 448.248 21
7 1 7 8562.77 464.656 19
7 -1 7 7986.93 481.732 36
-7 1 -7 10056.7 496.683 33
-7 -1 -7 9798.64 493.593 33
7 -1 8 8808.07 456.475 13
7 1 8 8795.47 458.844 13
7 -1 8 8468.77 462.131 3
7 1 8 8683.75 471.818 3
7 -1 8 8011.44 473.035 24
7 -1 8 8345.37 426.045 5
7 -1 8 8330.79 408.110 21
7 1 8 7956.02 432.140 19
-7 1 -8 8575.89 447.228 33
-7 -1 -8 8528.45 448.979 33
7 -1 9 4669.96 296.333 13
7 1 9 4783.68 299.021 13
7 -1 9 4659.88 311.230 3
7 1 9 4698.70 312.126 3
7 -1 9 4579.36 252.577 21
-7 1 -9 4780.74 294.264 33
-7 -1 -9 4710.50 293.408 33
7 -1 10 1624.98 159.440 13
7 1 10 1662.83 160.220 13
7 -2 -14 1309.35 104.723 4
-7 2 13 1101.17 138.461 3
7 -2 -13 1040.01 126.164 4
-7 -2 13 1277.33 152.885 3
7 2 -13 1159.53 177.955 22
-7 -2 13 761.017 164.751 38
-7 2 13 1062.82 163.425 38
7 -2 -12 11253.4 524.850 26
7 2 -12 9708.62 515.140 26
-7 2 12 9950.51 521.998 41
-7 2 12 10258.6 555.883 38
7 -2 -12 11338.1 515.740 7
-7 -2 12 12652.1 516.233 3
-7 2 12 11820.3 496.614 3
7 -2 -12 11367.7 477.640 4
7 -2 -12 11269.4 515.522 33
7 2 -12 10476.4 513.526 33
7 2 -12 10246.5 481.393 14
7 -2 -11 9040.94 467.019 26
7 2 -11 8762.96 468.723 26
-7 2 11 7825.46 483.315 41
-7 -2 11 7597.08 503.584 38
-7 2 11 8804.72 514.597 38
7 -2 -11 8881.87 454.052 7
7 -2 -11 8383.15 453.664 33
7 2 -11 8055.12 457.255 33
7 -2 -11 8395.62 416.711 4
-7 -2 11 9566.15 464.564 3
-7 2 11 9033.32 442.675 3
7 2 -11 8722.82 438.111 14
7 -2 -10 16154.7 742.481 26
7 2 -10 16228.6 754.461 26
-7 -2 10 15481.7 798.072 38
-7 2 10 16106.8 798.206 38
7 -2 -10 15544.5 684.778 37
7 -2 -10 18062.0 737.930 7
7 -2 -10 15977.3 734.426 33
7 2 -10 16388.0 742.365 33
7 -2 -10 16407.8 684.578 4
7 2 -10 16342.1 732.944 15
-7 2 10 17228.5 801.979 41
7 2 -10 16835.2 721.631 14
7 2 -9 1582.63 228.222 14
7 -2 -9 1457.44 182.047 4
7 -2 -9 1429.03 216.748 26
7 2 -9 1035.46 205.614 26
-7 2 9 1574.43 265.499 41
-7 2 9 1600.07 265.758 38
7 -2 -9 1377.28 177.467 37
7 -2 -9 1475.64 224.735 33
7 2 -9 1194.99 217.740 33
7 2 -9 1139.55 239.268 15
7 -2 -9 1421.68 200.684 7
7 -2 -8 9533.78 514.171 26
7 2 -8 9255.00 521.030 26
-7 2 8 8580.05 548.894 38
7 -2 -8 9827.09 469.878 37
7 -2 -8 10169.6 494.855 7
7 -2 -8 8923.98 498.590 33
7 2 -8 8643.56 499.790 33
7 -2 -8 9172.06 447.717 4
7 2 -8 9288.93 508.758 15
7 2 -8 9052.12 496.578 14
7 -2 -7 16981.9 757.092 6
7 -2 -7 18830.3 824.910 26
7 2 -7 18724.9 829.339 26
-7 2 7 18143.8 886.521 41
-7 2 7 17689.8 846.413 38
7 -2 -7 18785.9 776.319 37
7 -2 -7 17714.3 781.052 7
7 -2 -7 18978.3 813.438 33
7 2 -7 17736.2 805.303 33
7 2 -7 18208.6 796.338 14
7 -2 -6 44177.5 1674.31 6
7 -2 -6 46051.3 1739.25 26
7 2 -6 44891.3 1746.77 26
7 2 -6 43423.9 1672.62 21
7 -2 -6 45903.9 1690.10 37
-7 2 6 44796.1 1800.48 41
7 -2 -6 46018.9 1692.75 7
7 -2 -6 43662.5 1712.22 33
7 2 -6 45577.6 1720.53 33
7 2 -6 45026.0 1702.37 15
7 2 -5 9519.98 485.798 14
-7 -2 5 9595.41 939.478 29
-7 2 5 7919.33 915.635 29
7 2 -5 6737.72 453.205 13
7 -2 -5 8728.73 448.728 6
7 -2 -5 8613.50 469.856 13
-7 -2 5 6944.08 787.074 27
-7 2 5 8163.70 938.921 27
7 -2 -5 9976.17 506.963 26
7 2 -5 9013.76 504.548 26
-7 2 5 9236.90 536.018 41
7 -2 -5 8516.80 881.640 23
7 2 -5 8040.61 872.278 23
7 2 -5 9179.90 465.966 21
7 -2 -5 10177.8 468.552 37
7 2 -5 8615.39 479.232 16
7 -2 -5 9221.02 459.156 7
-7 -2 5 7796.84 787.311 32
7 2 -5 8865.54 472.865 15
7 2 -4 6922.30 400.281 14
-7 -2 4 7503.50 789.632 29
-7 2 4 6244.25 785.898 29
7 2 -4 4941.65 369.413 13
7 -2 -4 7172.85 387.145 6
-7 2 4 6167.86 795.483 27
7 -2 -4 7607.77 433.535 26
7 2 -4 6582.20 426.384 26
7 -2 -4 7352.39 795.941 23
7 2 -4 6628.70 787.130 23
-7 2 4 7161.89 449.188 41
7 2 -4 7090.87 698.609 9
7 2 -4 6528.94 390.223 21
7 -2 -4 7865.89 400.930 37
-7 2 4 6999.13 361.317 8
7 2 -4 5949.56 402.422 16
-7 -2 4 7583.60 729.523 32
7 2 -4 6597.05 392.207 15
7 -2 -4 6699.80 372.881 15
7 2 -3 6906.29 397.946 14
-7 -2 3 6655.77 730.101 29
-7 2 3 5276.05 698.652 29
7 -2 -3 7444.20 392.635 6
7 -2 -3 8118.03 440.862 26
7 2 -3 6428.58 424.508 26
-7 2 3 6458.62 415.020 41
7 -2 -3 6523.46 404.891 5
7 -2 -3 5898.21 730.143 2
7 2 -3 6638.45 685.489 9
7 -2 -3 5173.00 789.474 23
7 2 -3 5169.16 776.653 23
7 2 -3 6144.82 385.964 21
7 -2 -3 7241.09 390.464 37
7 -2 -3 7922.85 365.311 34
7 2 -3 5788.97 392.504 16
7 2 -3 5892.93 377.071 15
-7 2 2 15334.1 1125.26 28
-7 -2 2 12653.6 1023.98 28
7 -2 -2 19059.0 766.796 6
-7 2 2 16760.7 1288.50 27
7 -2 -2 19445.2 825.385 26
7 2 -2 16458.5 796.232 26
-7 2 2 16012.7 771.846 41
7 -2 -2 17153.9 780.033 5
7 -2 -2 14647.6 1278.89 23
7 -2 -2 13377.2 1195.38 2
7 2 -2 10366.3 1180.97 23
7 2 -2 15874.5 746.105 21
7 -2 -2 18701.7 762.529 37
7 -2 -2 20623.4 749.185 36
7 -2 -2 19304.5 738.812 34
-7 2 1 4423.10 607.078 28
-7 -2 1 3347.00 528.398 28
-7 2 1 5267.92 691.261 27
7 -2 -1 5506.90 385.557 26
7 2 -1 5198.60 369.735 26
7 -2 -1 5267.88 364.444 5
7 -2 -1 3597.71 671.252 23
7 -2 -1 4681.12 622.428 2
7 2 -1 5143.03 343.375 21
7 -2 -1 5597.92 337.511 37
7 -2 -1 5134.66 318.900 36
-7 2 1 5500.15 322.846 8
7 -2 -1 5477.37 312.786 34
7 2 -1 4364.73 334.242 16
-7 2 0 6675.74 682.469 28
7 -2 0 7956.20 428.668 6
7 2 0 6612.84 414.742 13
-7 2 0 6643.39 812.693 27
7 -2 0 8241.55 488.991 26
7 2 0 7563.64 469.836 26
7 -2 0 8074.57 466.439 5
7 -2 0 6818.84 748.809 2
7 -2 0 7752.50 424.334 21
7 -2 0 7772.18 426.995 37
7 -2 0 8623.35 421.122 36
-7 2 0 8030.95 471.117 35
-7 2 0 7699.90 413.003 8
7 -2 0 7838.92 408.608 34
7 2 0 6717.23 422.449 16
-7 2 -1 86370.2 3594.40 28
7 -2 1 90021.5 3099.99 6
7 -2 1 83366.0 3097.69 13
7 2 1 82658.3 3100.18 13
-7 2 -1 85645.8 3858.50 27
7 -2 1 89113.0 3182.35 26
7 2 1 87539.9 3169.81 26
7 -2 1 85642.4 3139.54 5
7 2 1 90464.5 3110.52 21
7 -2 1 78703.1 3708.64 2
7 -2 1 88010.8 3099.88 36
7 2 1 87542.6 3069.26 19
-7 2 -1 83301.9 3138.01 35
7 2 1 83778.8 3045.02 18
7 -2 1 86920.3 3098.31 34
7 2 1 86681.9 3104.29 16
7 -2 2 66283.1 2389.03 6
7 -2 2 63673.6 2404.58 13
7 2 2 64944.3 2414.03 13
7 -2 2 64410.1 2479.12 26
7 2 2 65654.4 2474.78 26
-7 2 -2 63448.5 2449.32 39
7 2 2 69455.1 2411.97 21
7 -2 2 66711.5 2409.69 36
7 2 2 65858.2 2377.51 19
-7 2 -2 64351.8 2441.49 35
7 2 2 64580.1 2352.62 18
7 -2 2 67027.2 2411.99 34
7 2 2 66189.5 2405.37 16
7 -2 3 13086.0 601.751 6
7 -2 3 12941.5 630.649 13
7 2 3 13380.3 644.564 13
7 -2 3 12811.1 695.617 26
7 2 3 13642.6 693.597 26
-7 2 -3 12534.7 663.424 39
7 2 3 14011.3 633.815 21
7 2 3 13447.8 611.973 19
-7 2 -3 14123.1 674.669 35
7 2 3 13682.6 590.777 18
7 -2 3 13069.8 638.583 34
7 2 3 13823.3 637.578 16
7 -2 4 1905.42 199.659 6
7 -2 4 2029.49 241.054 13
7 2 4 2280.06 255.083 13
7 -2 4 1951.84 297.832 26
7 2 4 1914.58 283.848 26
-7 2 -4 2393.14 282.186 39
7 2 4 2008.18 242.499 21
7 2 4 2141.15 238.204 19
7 -2 4 2091.61 280.446 5
-7 2 -4 2329.53 272.409 35
7 -2 4 1708.52 246.088 34
7 2 4 2172.31 256.582 16
7 -2 5 3588.11 295.659 13
7 2 5 3446.25 298.332 13
7 -2 5 3353.30 314.745 3
7 2 5 3009.39 313.611 3
7 -2 5 3661.96 317.142 24
7 -2 5 3897.04 336.498 5
-7 2 -5 3733.23 330.020 39
7 2 5 3469.02 284.429 21
7 2 5 3445.38 286.115 19
7 -2 5 3744.08 301.566 36
-7 2 -5 3688.19 312.731 35
7 -2 5 3744.97 320.778 34
7 2 5 3350.92 285.792 16
7 -2 6 8254.32 466.458 13
7 2 6 8512.85 473.164 13
7 -2 6 8262.85 468.864 3
7 -2 6 9815.15 506.991 5
-7 2 -6 10266.9 518.378 39
7 2 6 9059.33 440.370 21
7 -2 6 8964.22 454.424 21
7 -2 6 8166.04 475.459 36
-7 2 -6 8545.61 451.897 33
-7 -2 -6 9028.60 460.788 33
7 2 6 8541.10 451.503 16
7 2 6 7697.22 473.646 3
7 -2 7 4356.15 301.251 13
7 2 7 4178.89 305.293 13
7 -2 7 3770.53 308.540 3
7 2 7 4468.21 328.464 3
7 -2 7 4568.72 326.813 5
-7 2 -7 4946.46 334.534 39
7 -2 7 4529.67 294.530 21
7 2 7 4547.51 310.565 19
7 -2 7 3323.18 300.607 36
-7 2 -7 4452.82 291.387 33
-7 -2 -7 4174.26 285.310 33
7 2 7 4557.56 286.460 16
7 -2 8 1565.24 179.210 13
7 2 8 1713.52 186.000 13
7 -2 8 1700.65 216.399 24
-7 2 -8 1501.91 188.568 39
7 -2 8 1578.87 176.184 21
7 2 8 1644.39 197.114 19
7 -2 8 1491.11 200.778 5
7 -2 8 1391.67 185.612 36
-7 -2 -8 1585.34 171.047 33
-7 2 -8 1400.46 163.563 33
7 -2 9 761.950 119.908 13
7 2 9 762.581 126.797 13
7 -2 9 829.823 158.107 24
7 -2 9 926.688 127.455 21
7 -2 9 900.420 137.407 5
7 2 9 748.940 143.410 19
7 3 -13 3967.69 215.170 22
-7 -3 13 4311.43 240.582 5
7 -3 -13 3546.62 181.994 4
-7 -3 12 9530.63 547.395 38
7 3 -12 13518.4 537.042 22
-7 3 12 11706.2 552.656 38
-7 -3 12 15235.1 584.398 5
7 -3 -12 12564.6 496.971 4
-7 3 11 2854.07 252.892 41
7 3 -11 3812.27 274.681 22
-7 3 11 3384.39 275.580 38
7 -3 -11 3519.01 220.206 37
-7 3 11 3041.57 211.355 8
7 3 -11 3138.31 206.116 18
7 -3 -11 3456.44 217.188 4
7 3 -11 3179.05 247.428 14
-7 3 10 10927.7 573.363 41
7 3 -10 12014.5 546.769 22
-7 3 10 10207.1 558.395 38
7 -3 -10 10848.9 501.722 37
-7 3 10 10737.3 491.954 8
7 3 -10 11017.2 485.748 18
7 -3 -10 11540.0 523.971 7
7 -3 -10 11105.5 486.353 4
7 3 -10 11194.9 528.070 14
-7 3 9 17837.7 840.638 41
7 3 -9 18517.8 780.168 22
-7 3 9 16578.4 804.290 38
7 -3 -9 18015.4 758.361 37
-7 3 9 17593.5 736.890 8
7 3 -9 17924.2 733.195 18
7 -3 -9 18677.3 769.540 7
7 -3 -9 17594.1 725.793 4
7 3 -9 18241.7 774.914 14
7 3 -8 14957.8 663.736 22
-7 3 8 12667.3 673.704 38
7 -3 -8 14014.0 638.120 37
-7 3 8 13094.8 615.062 8
7 3 -8 14264.0 615.359 18
7 -3 -8 14316.9 643.253 7
7 3 -8 14796.2 669.942 15
7 -3 -8 14193.6 603.995 4
7 3 -8 15014.6 664.462 14
-7 3 7 10843.5 608.886 41
7 3 -7 10352.7 526.684 22
7 -3 -7 10269.3 513.193 37
-7 3 7 9706.39 485.102 8
7 3 -7 10744.3 497.275 18
7 -3 -7 11036.9 521.812 7
7 3 -7 9765.47 534.692 15
7 -3 -7 10233.5 477.536 4
7 -3 -6 14062.7 643.476 6
-7 3 6 15935.3 778.508 41
7 3 -6 14910.6 675.942 22
7 -3 -6 15532.3 689.208 37
-7 3 6 14698.8 657.497 8
7 3 -6 15131.5 654.833 18
7 -3 -6 15241.5 641.986 34
7 -3 -6 15665.0 683.239 7
7 3 -6 14786.6 696.150 15
7 3 -6 16559.3 714.828 14
7 -3 -5 9981.33 491.650 6
-7 3 5 10575.9 591.379 41
7 3 -5 10725.8 533.594 21
7 -3 -5 10782.9 525.137 37
-7 3 5 10531.7 496.319 8
7 3 -5 9933.68 489.585 18
7 -3 -5 10405.9 483.334 34
7 3 -5 9309.84 522.769 16
7 -3 -5 10729.9 518.686 7
7 3 -5 10710.7 538.617 15
7 3 -5 10201.5 537.872 14
7 -3 -4 15225.5 673.237 6
-7 3 4 15223.4 749.806 41
-7 3 4 15275.7 721.801 39
7 3 -4 15562.5 701.231 21
7 -3 -4 15541.5 699.017 37
-7 3 4 15216.0 669.455 8
7 3 -4 14422.3 651.539 18
7 -3 -4 15806.1 663.950 34
7 3 -4 14034.6 689.492 16
7 -3 -4 15995.3 689.132 7
7 3 -4 15211.9 694.304 15
7 3 -4 16262.5 709.506 14
7 -3 -3 7818.68 420.777 6
-7 3 3 7538.58 464.851 41
-7 3 3 8070.14 469.061 39
7 3 -3 7914.45 454.945 21
7 -3 -3 7725.42 395.178 36
-7 3 3 8008.35 474.419 35
-7 3 3 7663.73 410.507 8
7 3 -3 7457.11 401.664 18
7 -3 -3 7906.13 404.513 34
7 3 -3 7384.47 444.189 16
7 -3 -3 8088.98 429.206 7
7 3 -3 7529.66 428.759 15
7 3 -3 7578.60 437.423 14
7 -3 -2 13447.6 611.627 6
-7 3 2 12300.6 629.120 41
7 -3 -2 11762.8 612.981 5
-7 3 2 12995.6 650.340 39
7 3 -2 13170.6 631.789 21
7 -3 -2 13095.9 586.602 36
-7 3 2 13531.4 659.991 35
-7 3 2 13401.9 601.799 8
7 3 -2 13061.7 579.008 18
7 -3 -2 13794.4 598.671 34
7 3 -2 12795.4 625.872 16
7 3 -2 12647.9 601.572 14
-7 3 1 136.522 192.068 39
7 -3 -1 201.812 188.413 5
7 -3 -1 -7.96485 123.391 36
-7 3 1 44.7422 131.552 8
7 3 -1 133.426 141.909 18
7 -3 -1 75.4965 132.087 34
7 3 -1 74.8294 201.765 16
7 -3 -1 36.2838 159.427 6
-7 3 0 652.826 212.036 39
7 3 0 611.776 216.024 21
7 -3 0 484.392 171.557 37
7 -3 0 484.516 207.555 5
7 -3 0 689.321 159.344 36
7 3 0 403.065 153.680 18
-7 3 0 493.348 158.776 8
7 -3 0 336.354 146.181 34
7 -3 1 3222.13 277.893 6
7 -3 1 3159.18 305.610 5
-7 3 -1 3294.86 319.489 39
7 3 1 3308.42 306.985 21
7 -3 1 3714.62 292.523 37
7 -3 1 3654.11 276.841 36
7 3 1 3254.83 253.255 19
-7 3 -1 3213.54 309.816 35
7 3 1 2948.26 255.356 18
-7 3 -1 3824.78 292.951 8
7 -3 1 3015.35 267.518 34
7 -3 2 4230.27 304.780 6
7 -3 2 4113.58 345.257 5
-7 3 -2 4390.95 350.285 39
7 3 2 4246.16 330.996 21
7 -3 2 4414.31 307.994 36
7 3 2 3757.99 283.269 19
-7 3 -2 4275.25 349.216 35
7 3 2 4034.34 290.237 18
-7 3 -2 4134.91 317.526 8
7 -3 2 4132.52 310.494 34
7 3 2 3757.05 322.962 16
7 -3 3 23897.8 972.558 6
7 -3 3 22723.5 1017.78 5
7 3 3 25597.7 991.143 21
7 3 3 23652.3 962.936 19
-7 3 -3 22884.9 1027.00 35
7 3 3 24141.5 956.980 18
7 -3 3 24072.8 1008.30 34
7 3 3 24212.1 1002.09 16
7 -3 4 47369.6 1751.46 6
7 -3 4 46872.9 1817.21 5
-7 3 -4 45704.5 1824.54 39
7 3 4 51240.4 1769.12 21
7 -3 4 45508.3 1781.07 36
7 3 4 47408.9 1760.08 19
-7 3 -4 45529.4 1817.40 35
7 3 4 47941.0 1784.79 16
7 -3 5 6383.08 346.101 6
7 -3 5 6235.70 411.202 5
-7 3 -5 6304.90 415.044 39
7 3 5 6700.25 378.407 19
7 -3 5 6416.83 383.400 36
-7 3 -5 7360.79 429.463 35
7 3 5 7302.42 398.727 16
7 -3 6 1848.31 222.945 24
-7 3 -6 1684.38 227.636 39
7 -3 6 1373.56 197.458 36
-7 3 -6 2076.62 229.550 35
7 -3 6 1486.13 213.383 34
7 3 6 1852.01 218.858 16
7 -3 7 5393.23 336.943 24
-7 3 -7 6234.91 348.451 39
7 -3 7 4804.60 307.373 36
-7 3 -7 5332.15 322.926 35
7 3 7 5732.87 311.845 16
7 -3 8 3907.88 273.660 24
7 -3 8 4458.61 276.511 5
7 -3 8 4693.45 250.856 21
7 3 8 4825.18 266.331 19
7 3 8 4879.65 255.495 16
7 -3 9 3675.09 207.204 5
7 -3 9 3939.61 187.961 21
7 3 9 3526.92 201.006 19
7 -4 -11 515.950 84.6312 4
7 4 -11 527.567 131.088 22
-7 4 11 541.105 89.5097 8
7 4 -11 431.687 86.0967 18
-7 4 10 6783.74 389.577 41
7 4 -10 8522.16 387.457 22
7 -4 -10 7917.67 365.084 37
-7 4 10 7961.75 357.778 8
7 4 -10 7732.97 350.083 18
7 -4 -10 7885.65 341.603 4
-7 4 9 2379.00 233.819 41
7 4 -9 2135.59 226.421 22
7 -4 -9 2432.34 194.766 37
-7 4 9 2255.91 187.623 8
7 4 -9 2376.27 191.409 18
7 -4 -9 2432.46 196.082 7
7 -4 -9 2325.42 176.025 4
7 4 -9 2172.51 226.967 14
7 4 -8 5692.10 342.528 22
7 -4 -8 5484.79 317.542 37
-7 4 8 5577.48 307.010 8
7 4 -8 5897.07 316.940 18
7 -4 -8 5346.14 316.500 7
7 -4 -8 5269.03 289.080 4
-7 4 7 19842.6 908.785 41
7 4 -7 20740.9 844.969 22
-7 4 7 20041.5 829.902 8
7 4 -7 20465.4 824.778 18
7 -4 -7 20115.8 809.041 34
7 -4 -7 20946.1 845.463 7
7 -4 -7 20865.3 807.198 4
7 4 -7 21117.8 866.411 14
-7 4 6 2984.78 300.012 41
7 4 -6 2901.52 267.536 22
-7 4 6 2934.59 229.636 8
7 4 -6 3000.21 244.089 18
7 -4 -6 3123.49 223.328 34
7 -4 -6 3215.17 248.659 7
7 -4 -6 2938.58 219.732 4
7 4 -6 2862.67 284.024 14
7 4 -5 2134.24 258.231 14
7 -4 -5 2157.95 199.475 6
-7 4 5 2100.36 258.787 41
7 4 -5 2066.64 235.783 22
-7 4 5 2120.51 206.900 8
-7 4 5 1865.80 230.608 35
7 4 -5 2202.33 220.594 18
7 -4 -5 2236.03 198.865 34
7 -4 -5 2194.01 216.329 7
7 -4 -5 2164.26 193.175 4
7 -4 -4 3395.84 251.246 6
-7 4 4 3213.62 305.717 41
7 -4 -4 3500.65 273.737 37
7 -4 -4 3103.54 222.792 36
-7 4 4 3487.69 257.756 8
-7 4 4 3016.67 286.690 35
7 4 -4 3198.88 264.012 18
7 -4 -4 3401.40 247.484 34
7 4 -4 2656.24 269.890 16
7 -4 -4 3739.66 272.843 7
7 4 -4 3410.10 294.169 14
7 4 -3 1260.00 218.153 14
7 -4 -3 1404.58 189.512 6
-7 4 3 1486.82 218.200 41
7 -4 -3 1296.10 188.663 37
7 -4 -3 1353.81 161.388 36
-7 4 3 1479.28 231.423 35
7 4 -3 1862.50 210.702 18
-7 4 3 1522.29 191.710 8
7 -4 -3 1418.77 178.142 34
7 4 -3 1768.87 242.857 16
7 -4 -3 1708.06 202.454 7
7 -4 -2 4577.29 308.750 6
-7 4 2 3926.86 317.397 41
-7 4 2 4187.44 323.420 39
7 -4 -2 4767.02 316.240 37
7 -4 -2 4508.40 291.520 36
-7 4 2 4714.65 349.127 35
-7 4 2 5128.46 313.794 8
7 4 -2 4545.75 305.741 18
7 -4 -2 4666.76 300.925 34
7 4 -2 4611.82 340.037 16
7 -4 -2 4405.76 307.291 7
7 -4 -1 8314.91 435.003 6
7 -4 -1 7100.91 420.713 5
-7 4 1 7895.26 458.067 39
7 4 -1 8843.55 474.266 21
7 -4 -1 7756.52 434.057 37
7 -4 -1 7595.00 411.561 36
-7 4 1 8013.44 473.339 35
-7 4 1 8117.14 433.118 8
7 4 -1 8194.73 417.062 18
7 -4 -1 8453.03 429.489 34
7 4 -1 7557.01 446.557 16
7 -4 -1 8071.02 427.009 7
7 -4 0 9922.11 505.875 6
7 -4 0 9467.38 508.277 5
-7 4 0 10002.0 539.662 39
7 4 0 11194.5 548.516 21
7 -4 0 10875.4 526.925 37
7 -4 0 10373.7 502.891 36
-7 4 0 10627.9 556.652 35
-7 4 0 10772.5 519.529 8
7 4 0 10138.8 496.067 18
7 -4 0 10539.0 512.176 34
7 4 0 10209.8 532.628 16
7 -4 0 9960.11 494.167 7
7 -4 1 9750.52 507.009 5
-7 4 -1 9988.15 534.401 39
7 4 1 11389.8 529.780 21
7 -4 1 9589.43 499.662 37
7 -4 1 9977.48 492.311 36
7 4 1 9228.40 460.275 19
-7 4 -1 9582.07 534.694 35
-7 4 -1 11177.9 519.635 8
7 4 1 10093.0 487.732 18
7 -4 1 10024.1 502.703 34
7 4 1 10355.3 527.080 16
7 -4 2 3080.57 252.534 6
7 -4 2 2505.06 261.514 5
-7 4 -2 2737.95 274.402 39
7 4 2 2758.95 262.577 21
7 4 2 2219.62 216.968 19
-7 4 -2 2917.40 258.649 8
7 4 2 2705.78 245.294 18
7 4 2 2889.03 280.240 16
7 -4 3 9938.26 481.747 6
7 -4 3 10029.8 513.591 5
-7 4 -3 9545.45 519.403 39
7 4 3 10836.2 491.283 21
7 4 3 9362.86 465.517 19
-7 4 -3 10302.4 530.842 35
7 4 3 10830.2 484.949 18
7 -4 4 37.4988 125.263 6
-7 4 -4 129.530 152.894 39
7 -4 4 83.4694 167.009 5
7 -4 4 36.2513 119.236 36
7 4 4 -42.2110 135.524 19
-7 4 -4 91.8901 152.219 35
7 -4 4 121.349 129.406 34
7 -4 5 2894.26 201.921 6
7 -4 5 3255.09 248.813 24
7 -4 5 3053.47 250.392 5
7 4 5 3031.12 229.253 19
7 -4 5 2698.92 217.650 36
-7 4 -5 2907.37 243.653 35
7 -4 5 2679.84 230.991 34
7 4 5 3354.53 257.214 16
7 -4 6 738.520 143.841 24
-7 4 -6 897.644 151.361 39
7 -4 6 885.845 141.306 21
7 -4 6 977.669 160.682 5
7 -4 6 713.098 123.924 36
7 4 6 948.543 145.996 19
-7 4 -6 780.911 142.899 35
-7 4 -6 775.365 130.670 8
7 4 6 981.714 163.041 16
7 -4 7 7260.14 347.310 5
7 -4 7 7520.68 327.058 21
-7 4 -7 7201.89 330.533 8
7 4 7 8159.25 346.726 16
-7 5 9 4283.41 203.581 8
7 5 -9 3928.82 194.930 18
-7 5 8 2661.42 165.351 8
7 5 -8 2302.27 161.039 18
7 -5 -8 2297.69 136.995 4
7 -5 -7 697.786 101.369 4
-7 5 7 744.731 141.426 41
7 -5 -7 627.325 112.693 37
-7 5 7 925.465 121.930 8
7 5 -7 789.586 127.929 18
7 -5 -7 609.734 113.181 7
7 -5 -6 939.757 115.643 4
-7 5 6 861.537 155.608 41
7 -5 -6 886.695 132.245 37
-7 5 6 1079.99 138.834 8
7 5 -6 929.157 142.877 18
7 -5 -6 918.493 120.176 34
7 -5 -6 949.688 131.624 7
7 -5 -5 311.961 93.0759 4
-7 5 5 590.889 150.570 41
7 -5 -5 527.358 119.676 37
-7 5 5 688.990 127.955 8
7 5 -5 437.129 132.542 18
7 -5 -5 590.258 116.267 34
7 -5 -5 537.384 128.172 7
7 -5 -4 2890.40 171.595 6
-7 5 4 2844.95 227.371 41
7 -5 -4 3287.25 209.377 37
7 5 -4 3443.92 212.108 18
7 -5 -4 3245.20 194.974 34
7 -5 -4 3361.07 208.006 7
7 -5 -3 11410.6 499.646 6
-7 5 3 11087.1 537.674 41
7 -5 -3 11007.5 519.663 37
7 -5 -3 11461.4 497.830 36
7 -5 -3 11836.0 517.379 34
7 -5 -3 12170.9 524.468 7
7 -5 -2 5664.54 273.323 6
-7 5 2 4331.96 267.655 41
7 -5 -2 4944.81 276.814 37
7 -5 -2 5686.54 269.273 36
-7 5 2 4984.41 301.572 35
7 -5 -2 5840.20 282.582 34
7 -5 -2 5668.77 286.177 7
7 -5 -1 22144.2 836.109 6
7 -5 -1 20380.2 834.578 37
7 -5 -1 20814.7 827.701 36
-7 5 1 20413.6 857.198 35
7 5 -1 20981.5 827.666 18
7 5 -1 19841.0 824.448 16
7 -5 -1 22292.0 838.089 7
7 -5 0 2898.27 216.641 6
7 -5 0 2615.20 205.474 36
-7 5 0 2888.26 244.323 35
7 5 0 2912.73 222.814 18
7 5 0 2627.99 236.960 16
7 -5 0 2664.75 201.384 7
7 -5 1 6155.62 254.626 6
7 -5 1 5373.40 236.173 36
-7 5 -1 6328.97 255.256 8
-7 5 -1 5240.86 268.674 35
7 -5 1 5473.38 248.853 34
7 5 1 5710.34 273.193 16
-7 5 -2 161.690 119.099 39
7 5 2 -3.70533 66.6458 19
-7 5 -2 263.628 130.095 35
-7 5 -2 158.537 106.715 8
7 -5 2 322.280 110.557 34
7 5 2 321.568 155.671 16
7 -5 3 2334.15 173.734 6
7 -5 3 1931.05 151.898 21
7 -5 3 1886.43 162.902 36
7 5 3 2075.41 159.331 19
-7 5 -3 2350.20 169.238 8
-7 5 -3 2165.34 185.821 35
7 -5 3 1968.56 174.903 34
7 5 3 2400.60 202.371 16
7 -5 4 131.391 88.3939 21
7 -5 4 138.056 88.6171 5
7 5 4 169.355 95.7775 19
-7 5 -4 245.372 85.4999 8
7 5 4 204.640 124.465 16
7 -5 4 213.998 86.9384 6
7 -5 5 889.964 93.3990 21
7 5 5 902.072 98.6910 19
-7 5 -5 931.446 90.9149 8
7 5 5 1074.90 122.812 16
-7 6 3 4638.67 208.525 8
-7 6 2 12192.3 462.124 8
7 6 -2 12108.5 465.833 18
7 6 -1 1175.22 106.661 18
7 6 0 1960.43 125.875 18
-8 0 14 66.2782 97.1600 3
8 0 -13 286.981 122.006 26
-8 0 13 492.072 146.704 3
-8 0 13 369.510 135.573 38
8 0 -13 334.923 124.142 33
8 0 -12 508.467 161.105 26
-8 0 12 705.473 178.676 3
-8 0 12 451.864 175.079 38
-8 0 12 353.362 149.548 41
8 0 -12 492.117 160.181 33
8 0 -11 2415.51 269.158 26
-8 0 11 2700.32 296.091 38
8 0 -11 3128.97 270.386 33
-8 0 11 2137.97 263.283 41
8 0 -10 687.241 176.581 14
8 0 -10 653.338 197.505 26
-8 0 10 639.509 214.762 41
-8 0 10 548.159 218.801 38
8 0 -10 785.502 208.887 33
8 0 -10 559.445 188.638 15
8 0 -9 108.554 167.286 14
8 0 -9 49.9951 179.188 26
-8 0 9 263.245 215.652 38
8 0 -9 105.186 194.091 33
8 0 -9 81.9685 176.587 15
8 0 -8 31161.1 1182.17 14
8 0 -8 29528.2 1246.35 26
-8 0 8 28847.9 1292.98 38
8 0 -8 29495.5 1230.52 33
8 0 -8 28687.4 1171.90 15
8 0 -7 116.739 171.242 14
8 0 -7 204.982 188.822 13
8 0 -7 257.436 198.308 26
-8 0 7 96.3496 194.769 38
8 0 -7 -106.178 190.681 33
8 0 -7 180.584 180.708 15
8 0 -6 6831.98 440.478 6
8 0 -6 7460.92 429.233 14
8 0 -6 7038.32 448.276 13
8 0 -6 7575.94 480.085 26
8 0 -6 8090.44 476.215 33
8 0 -6 8129.21 438.583 15
8 0 -5 223.540 179.222 13
8 0 -5 382.201 168.280 6
8 0 -5 194.261 187.678 26
8 0 -5 358.083 183.377 15
-8 0 4 36932.2 2137.96 29
8 0 -4 35239.2 1366.88 13
-8 0 4 32112.6 1993.32 27
8 0 -4 38896.5 1450.35 26
8 0 -4 33442.1 2077.68 23
8 0 -4 31670.1 1325.17 15
8 0 -3 96579.6 3700.13 6
8 0 -3 110232. 3723.94 13
-8 0 3 134878. 4708.99 27
8 0 -3 122914. 3818.71 26
8 0 -3 121868. 4706.12 23
8 0 -3 92607.5 3645.97 21
8 0 -2 1165.50 186.916 13
-8 0 2 1090.87 408.901 27
8 0 -2 784.997 187.956 6
8 0 -2 1150.70 236.760 26
8 0 -2 1049.50 420.392 23
8 0 -2 699.252 179.171 21
8 0 -2 923.320 209.061 15
8 0 -1 32699.9 1264.05 6
-8 0 1 34703.0 1824.54 28
8 0 -1 34730.4 1300.79 13
8 0 -1 32961.1 1377.83 26
8 0 -1 29055.2 1996.06 23
8 0 -1 29709.4 1240.43 21
8 0 -1 33305.4 1279.62 16
8 0 -1 30488.8 1266.46 15
-8 0 0 397.793 325.893 28
8 0 0 145.801 173.463 13
8 0 0 173.992 139.739 6
8 0 0 141.981 213.229 26
8 0 0 -60.8410 357.220 23
8 0 0 449.490 184.015 21
8 0 0 189.221 174.389 5
8 0 0 141.823 140.453 36
8 0 1 23250.1 989.919 13
8 0 1 23080.4 1061.47 26
8 0 1 22506.8 975.551 5
8 0 1 20691.7 959.235 36
8 0 2 21500.9 934.556 13
8 0 2 22367.0 1015.75 26
8 0 2 20782.2 911.600 5
8 0 2 23008.4 909.821 21
8 0 2 19600.3 910.245 36
8 0 3 144.397 177.663 13
8 0 3 92.5925 216.877 26
8 0 3 146.290 158.403 24
-8 0 -3 32.5259 176.534 39
8 0 3 113.162 166.087 5
8 0 3 -128.822 167.659 36
8 0 4 -11.0128 175.687 13
8 0 4 -30.7829 231.041 26
8 0 4 82.2121 168.157 24
8 0 4 83.7339 176.184 21
8 0 4 78.6329 164.366 5
8 0 4 32.6939 177.440 36
8 0 5 9645.73 521.466 13
8 0 5 10257.8 599.153 26
8 0 5 8905.62 514.449 24
8 0 5 10311.8 493.878 21
8 0 5 9067.80 529.605 3
8 0 6 13620.0 636.829 13
8 0 6 12763.1 637.560 3
8 0 6 14286.4 593.143 21
8 0 7 711.814 177.401 13
8 0 7 586.684 149.582 21
-8 0 -7 583.876 168.497 33
8 0 8 16656.5 491.532 13
-8 0 -8 17700.2 496.598 33
8 0 9 -4.91222 100.212 13
-8 -1 14 763.695 102.005 3
-8 1 14 636.035 94.2658 3
8 1 -14 634.441 97.9148 22
-8 -1 14 695.173 107.750 5
8 -1 -13 15990.6 632.716 26
-8 -1 13 13236.4 635.411 38
-8 1 13 13180.5 628.448 38
-8 -1 13 16465.9 606.876 3
-8 1 13 14683.9 592.703 3
8 -1 -13 14211.0 609.494 33
8 -1 -12 4551.42 303.767 26
8 1 -12 4467.18 305.767 26
-8 -1 12 3597.92 317.083 38
-8 1 12 4107.37 317.247 38
8 -1 -12 4423.32 297.173 33
8 1 -12 4652.27 300.967 33
-8 -1 12 5184.40 300.705 3
-8 1 12 4734.48 286.578 3
-8 -1 12 3142.37 279.968 41
-8 1 12 3553.30 291.046 41
8 -1 -11 5422.26 351.628 26
8 1 -11 5054.81 349.135 26
-8 1 11 4053.39 345.108 41
-8 -1 11 4225.63 373.607 38
-8 1 11 4735.13 368.769 38
8 -1 -11 4666.21 318.554 7
8 -1 -11 5599.57 348.041 33
8 1 -11 4949.43 345.284 33
8 1 -11 4901.58 317.855 15
8 1 -11 4938.49 306.016 14
8 -1 -10 16765.9 732.740 14
8 -1 -10 19901.0 840.136 26
8 1 -10 18471.1 828.832 26
-8 1 10 17095.1 849.638 41
-8 -1 10 17853.0 863.639 38
-8 1 10 18732.9 864.436 38
8 -1 -10 18243.9 775.656 7
8 -1 -10 18762.7 816.868 33
8 1 -10 18766.9 817.875 33
8 1 -10 17971.9 781.150 15
8 1 -10 18247.4 769.011 14
8 1 -9 10562.1 543.349 14
8 -1 -9 10762.0 517.075 14
8 -1 -9 11383.7 595.812 26
8 1 -9 11960.0 611.015 26
-8 -1 9 10889.4 629.029 38
-8 1 9 12181.7 641.554 38
8 -1 -9 11497.8 551.622 7
8 -1 -9 11864.9 593.335 33
8 1 -9 10683.0 581.531 33
8 1 -9 11357.1 565.701 15
8 1 -8 2664.28 271.185 14
8 -1 -8 2304.08 237.330 14
8 -1 -8 2763.73 289.039 26
8 1 -8 2728.83 285.947 26
-8 1 8 2387.75 321.783 41
-8 1 8 2636.88 309.595 38
-8 -1 8 1786.48 290.881 38
8 -1 -8 1996.87 223.925 7
8 -1 -8 2273.13 270.238 33
8 1 -8 2072.86 269.664 33
8 1 -8 2389.80 274.706 15
8 -1 -8 2472.99 239.580 15
8 -1 -8 1887.82 233.261 6
8 1 -7 9573.83 496.452 14
8 -1 -7 8785.42 482.225 6
8 -1 -7 8638.18 458.049 14
8 -1 -7 9278.92 524.442 26
8 1 -7 9202.33 536.394 26
-8 -1 7 7465.07 542.067 38
8 -1 -7 8560.26 504.409 33
8 1 -7 9668.72 520.383 33
8 1 -7 8901.65 490.326 15
8 -1 -7 9600.52 480.685 15
-8 1 7 8526.94 564.465 41
8 1 -6 1148.78 222.434 13
8 -1 -6 1433.31 230.090 13
8 -1 -6 1326.46 206.769 6
8 -1 -6 1616.54 246.782 26
8 1 -6 1347.41 240.601 26
-8 1 6 1425.77 262.695 41
8 -1 -6 1563.59 242.335 33
8 1 -6 1343.02 241.203 33
8 1 -6 1349.29 235.048 15
8 -1 -6 1380.77 217.108 15
8 1 -5 7779.52 455.139 14
8 -1 -5 8165.45 447.910 6
8 1 -5 7252.24 457.748 13
8 -1 -5 7641.27 466.840 13
8 -1 -5 8284.64 503.722 26
8 1 -5 7358.13 494.902 26
8 -1 -5 8055.17 444.196 15
-8 -1 4 16681.1 1398.30 29
8 1 -4 23438.8 958.221 14
-8 1 4 21471.3 1527.16 29
8 -1 -4 23728.5 964.208 6
8 1 -4 20721.7 968.197 13
8 -1 -4 24258.4 985.052 13
-8 -1 4 16502.5 1383.34 27
8 -1 -4 27329.8 1057.10 26
8 1 -4 23656.3 1042.12 26
-8 1 4 28854.7 1058.45 41
8 1 -4 19069.0 923.619 21
8 -1 -4 22928.8 926.206 37
8 1 -4 23528.2 959.198 15
8 -1 -4 24212.4 952.140 15
8 1 -3 6474.99 394.727 14
8 1 -3 7120.84 408.144 13
8 -1 -3 8163.16 418.472 13
-8 1 3 7794.43 867.348 27
8 -1 -3 8347.13 472.414 26
8 1 -3 6102.50 448.431 26
-8 1 3 8505.16 455.223 41
8 -1 -3 6477.96 866.630 23
8 1 -3 3471.86 785.528 23
8 1 -3 5300.87 381.765 21
8 -1 -3 6875.30 374.379 37
8 1 -3 6130.51 422.542 16
8 1 -3 6613.44 403.395 15
8 -1 -3 7083.28 397.498 15
8 1 -2 44346.7 1695.00 14
8 -1 -2 49999.0 1720.62 6
-8 1 2 52053.8 2323.03 28
-8 -1 2 35726.5 2129.01 28
8 1 -2 40918.3 1709.22 13
8 -1 -2 52058.0 1751.62 13
-8 1 2 58518.7 2590.08 27
8 -1 -2 55247.2 1839.29 26
8 1 -2 47395.3 1806.97 26
8 -1 -2 54851.5 2613.06 23
8 1 -2 35473.2 2392.74 23
8 1 -2 42323.0 1693.83 21
8 -1 -2 49489.1 1707.38 37
8 1 -2 44522.2 1724.26 16
8 1 -2 44600.6 1703.78 15
8 1 -2 35598.9 1691.08 6
8 1 -1 25010.5 1023.11 14
8 -1 -1 27531.7 1047.74 6
8 -1 -1 28814.8 1083.06 13
8 1 -1 24178.9 1056.86 13
-8 1 1 27042.6 1731.01 27
8 -1 -1 26861.5 1137.75 26
8 1 -1 24387.4 1117.43 26
8 -1 -1 27238.1 1089.57 5
8 1 -1 17836.4 1620.87 23
8 1 -1 23993.2 1032.35 21
8 -1 -1 25931.8 1018.48 21
8 -1 -1 26637.5 1043.13 37
8 -1 -1 30718.7 1059.95 36
8 1 -1 25687.4 1057.79 16
8 1 -1 25225.4 1034.85 15
8 1 -1 21225.3 1016.88 6
8 -1 0 31943.7 1184.92 6
8 -1 0 29288.4 1206.93 13
8 1 0 27281.2 1187.59 13
8 -1 0 28972.6 1267.65 26
8 1 0 28066.4 1252.28 26
8 -1 0 33622.4 1238.44 5
8 1 0 27030.5 1164.87 21
8 -1 0 30890.0 1176.32 21
8 -1 0 30770.6 1188.61 36
8 1 0 28931.7 1192.05 16
8 1 0 29206.0 1167.94 15
8 1 1 2214.92 298.123 26
8 -1 1 1993.49 214.797 6
8 -1 1 2540.13 250.552 13
8 1 1 2868.00 261.817 13
8 -1 1 2066.30 247.781 21
8 1 1 2180.36 235.416 19
8 -1 1 2206.64 272.316 5
8 -1 1 1807.41 233.118 36
-8 1 -1 2244.58 276.061 35
8 -1 1 1664.60 210.933 34
8 1 1 1853.20 250.105 16
8 -1 1 2039.33 294.031 26
8 1 1 1871.65 226.405 15
8 -1 2 16639.9 747.813 6
8 -1 2 18046.2 811.204 13
8 1 2 17907.5 814.658 13
8 -1 2 17819.4 876.784 26
8 1 2 17443.0 870.052 26
8 -1 2 19553.9 801.643 24
8 -1 2 17598.0 816.302 5
-8 1 -2 19968.2 858.717 39
8 -1 2 20372.5 799.539 21
8 1 2 18623.1 785.548 19
8 -1 2 17216.6 791.807 36
-8 1 -2 18409.1 820.575 35
8 -1 2 17116.2 777.811 34
8 1 2 17180.4 780.080 16
8 -1 3 27795.8 1192.30 13
8 1 3 29477.8 1204.42 13
8 -1 3 30441.9 1284.77 26
8 1 3 30321.7 1280.91 26
8 -1 3 30249.0 1190.47 24
8 -1 3 28319.2 1196.99 5
-8 1 -3 30091.8 1225.63 39
8 1 3 31513.5 1183.95 21
8 -1 3 30646.7 1170.31 21
8 1 3 29853.8 1168.62 19
8 -1 3 28493.2 1190.80 36
8 -1 3 27386.0 1169.50 34
8 1 3 28087.6 1153.65 16
8 -1 4 46719.9 1780.22 13
8 1 4 47397.4 1785.18 13
8 -1 4 45604.4 1855.44 26
8 1 4 46070.1 1853.03 26
8 -1 4 46373.9 1772.00 24
8 -1 4 46149.7 1768.56 5
-8 1 -4 44821.4 1780.27 39
8 1 4 49428.3 1749.94 21
8 1 4 47012.2 1746.80 19
8 -1 4 42930.0 1764.60 36
8 -1 5 11177.3 574.662 13
8 1 5 12223.0 591.074 13
8 -1 5 10401.9 574.671 24
8 -1 5 11620.9 568.953 5
-8 1 -5 12016.8 588.408 39
8 1 5 12237.4 552.412 21
8 -1 5 11638.5 549.160 21
8 1 5 11351.1 561.617 19
8 -1 6 4804.26 340.553 13
8 1 6 5182.85 344.711 13
8 -1 6 5060.12 351.569 24
8 -1 6 4882.01 329.400 5
8 1 6 5034.51 316.050 21
8 -1 6 5111.15 312.739 21
8 -1 6 4889.44 342.212 36
8 -1 7 -30.9629 141.475 13
8 1 7 7.86967 147.216 13
8 -1 7 26.6076 152.487 24
8 1 7 108.162 124.016 21
8 -1 7 -16.6840 141.590 21
8 -1 7 95.5578 128.642 5
-8 1 -7 93.1210 138.699 33
-8 -1 -7 38.2876 133.416 33
8 -1 8 2098.37 192.746 13
8 1 8 2181.52 195.018 13
8 -1 8 1627.03 197.586 24
8 -1 8 2082.62 169.829 21
-8 1 -8 2346.60 191.766 33
-8 -1 -8 2286.50 189.984 33
8 -1 9 -4.08184 87.1663 13
8 1 9 -62.6573 95.8259 13
8 2 -13 3110.74 193.754 22
8 2 -12 48.9356 117.156 14
-8 -2 12 89.2541 128.711 3
-8 2 12 170.002 117.773 3
-8 -2 12 125.917 113.107 41
-8 2 12 180.151 114.283 41
8 2 -12 154.469 140.583 22
-8 -2 12 68.3863 130.621 38
-8 2 12 192.987 121.596 38
8 -2 -12 59.0661 102.219 7
8 -2 -11 2393.03 222.545 26
8 2 -11 2055.45 226.572 26
-8 2 11 2141.74 235.320 41
-8 -2 11 2178.33 253.672 38
-8 2 11 2178.94 237.162 38
8 2 -11 2552.29 234.045 22
8 -2 -11 2419.41 208.827 7
8 -2 -11 2159.81 207.075 33
-8 -2 11 2768.35 227.025 3
-8 2 11 2547.47 206.104 3
8 2 -11 2480.35 225.338 14
8 2 -10 200.346 168.165 14
8 -2 -10 185.353 149.543 26
8 2 -10 206.435 151.791 26
-8 2 10 177.898 167.377 41
-8 -2 10 36.0153 180.874 38
-8 2 10 332.780 167.636 38
8 -2 -10 216.290 158.111 33
8 2 -10 280.135 193.728 15
8 -2 -10 236.776 136.747 7
8 -2 -9 8387.02 402.807 14
8 -2 -9 8176.72 469.868 26
8 2 -9 8417.06 484.334 26
-8 -2 9 7709.17 499.287 38
-8 2 9 7995.82 490.168 38
8 -2 -9 8699.86 439.920 7
8 -2 -9 8565.82 459.779 33
8 2 -9 8602.27 470.824 15
8 2 -9 8784.60 461.419 14
8 -2 -8 21384.8 891.076 6
8 -2 -8 20685.5 871.186 14
8 -2 -8 23964.6 967.118 26
8 2 -8 22442.0 960.079 26
-8 2 8 22233.7 1009.06 41
8 2 -8 21019.0 886.840 22
8 -2 -8 20935.6 879.744 37
8 -2 -8 23223.7 909.136 7
8 2 -8 22468.7 936.287 15
8 2 -8 23044.6 927.452 14
8 -2 -7 46383.9 1755.84 6
8 -2 -7 48240.1 1822.65 26
8 2 -7 45815.7 1817.77 26
-8 2 7 48244.6 1886.80 41
8 -2 -7 45620.6 1746.77 37
8 -2 -7 48986.5 1763.17 7
8 -2 -6 32547.1 1291.04 6
8 -2 -6 34998.6 1363.71 26
8 2 -6 33575.5 1359.27 26
-8 2 6 35552.9 1415.60 41
8 2 -6 31569.1 1281.66 21
8 -2 -6 31937.3 1287.14 37
8 -2 -6 34816.3 1289.54 7
8 2 -6 33525.9 1316.40 15
8 2 -5 5666.90 371.936 14
8 -2 -5 5147.35 338.660 6
8 2 -5 4130.54 339.652 13
8 -2 -5 4739.74 345.696 13
8 -2 -5 6037.57 393.950 26
8 2 -5 4551.20 373.639 26
-8 2 5 5511.78 410.656 41
8 2 -5 4649.99 338.869 21
8 -2 -5 5450.08 333.935 37
8 2 -5 5223.56 367.357 15
8 -2 -5 5250.28 331.286 15
8 2 -4 6595.55 403.153 14
8 -2 -4 6697.63 382.493 6
8 2 -4 4801.69 372.879 13
8 -2 -4 6631.22 393.823 13
8 -2 -4 7038.98 438.738 26
8 2 -4 5305.19 409.284 26
8 2 -4 6111.83 387.050 21
8 -2 -4 6818.70 384.277 37
-8 2 4 6149.53 426.634 41
8 2 -4 6151.64 393.333 15
8 -2 -4 6516.99 369.135 15
8 2 -3 2986.31 284.671 14
8 -2 -3 3246.05 282.308 6
8 2 -3 2529.82 265.561 13
8 -2 -3 3787.61 284.302 13
8 -2 -3 4265.28 341.672 26
8 2 -3 2850.47 303.684 26
-8 2 3 2875.31 290.401 41
8 2 -3 3059.62 291.478 21
8 -2 -3 3046.86 264.782 37
8 2 -3 3030.04 289.923 15
8 2 -2 10586.9 547.253 14
8 2 -2 9417.57 541.129 13
8 -2 -2 11339.9 563.845 13
8 -2 -2 12508.7 639.215 26
8 2 -2 10631.4 602.248 26
8 -2 -2 11368.2 594.364 5
8 2 -2 10448.4 556.180 21
8 -2 -2 12505.7 569.531 37
8 -2 -2 12571.8 537.246 36
-8 2 2 12507.7 533.037 8
8 -2 -2 11750.6 530.590 34
8 2 -2 9666.60 558.247 16
8 2 -2 10464.3 547.841 15
8 -2 -1 6563.69 375.543 6
8 2 -1 4357.77 347.389 13
8 -2 -1 5100.47 359.021 13
8 -2 -1 5566.47 420.646 26
8 2 -1 4945.49 405.013 26
8 -2 -1 5988.40 403.129 5
8 2 -1 5624.33 384.127 21
8 -2 -1 6032.07 366.413 37
8 -2 -1 5353.21 353.150 36
-8 2 1 6569.16 427.604 35
-8 2 1 5999.40 345.554 8
8 -2 -1 6204.94 347.807 34
8 2 -1 5051.72 380.790 16
8 2 -1 5048.89 352.179 15
8 -2 0 44309.9 1652.61 6
8 -2 0 41073.3 1651.71 13
8 2 0 40553.0 1652.92 13
8 -2 0 42827.6 1728.79 26
8 2 0 42996.0 1727.65 26
8 -2 0 42719.6 1699.82 5
8 -2 0 43727.9 1640.71 21
8 -2 0 44784.5 1678.89 37
8 -2 0 46227.3 1667.56 36
-8 2 0 42980.8 1711.30 35
-8 2 0 46144.4 1654.96 8
8 -2 0 45733.3 1654.67 34
8 2 0 42150.1 1666.54 16
8 -2 1 6077.09 360.543 6
8 -2 1 5968.81 380.334 13
8 2 1 5887.88 385.767 13
8 -2 1 5237.38 421.162 26
8 2 1 5769.49 431.942 26
-8 2 -1 5976.93 426.965 39
8 2 1 6925.75 419.179 21
8 -2 1 6435.37 379.581 21
8 2 1 5697.85 356.040 19
8 -2 1 6404.17 376.716 36
-8 2 -1 6412.02 418.718 35
-8 2 -1 6203.60 376.287 8
8 -2 1 5787.19 367.006 34
8 2 1 6090.66 398.693 16
8 -2 2 29295.4 1121.38 6
8 -2 2 27757.9 1144.85 13
8 2 2 29369.9 1160.69 13
8 -2 2 27773.8 1214.36 26
8 2 2 28271.1 1216.29 26
-8 2 -2 28013.6 1194.95 39
8 2 2 30469.7 1163.36 21
8 -2 2 28990.0 1143.62 21
8 2 2 27422.5 1118.37 19
8 -2 2 27260.8 1150.69 36
-8 2 -2 28158.1 1183.56 35
8 -2 2 29036.4 1151.47 34
8 2 2 28975.0 1152.94 16
8 -2 3 3650.67 257.577 6
8 -2 3 3572.10 293.100 13
8 2 3 3858.61 308.455 13
8 -2 3 3141.87 332.319 26
8 2 3 4045.48 361.616 26
8 -2 3 3705.43 326.901 5
-8 2 -3 4160.78 342.884 39
8 2 3 4144.03 319.992 21
8 -2 3 4092.09 298.388 21
8 2 3 3854.37 287.414 19
8 -2 3 3049.82 279.589 36
-8 2 -3 3728.60 316.363 35
8 -2 3 3380.65 293.016 34
8 2 3 3707.16 310.383 16
8 -2 4 1020.03 186.063 13
8 2 4 908.442 194.012 13
8 -2 4 864.110 198.309 24
-8 2 -4 1282.52 234.153 39
8 2 4 1107.33 206.232 21
8 -2 4 897.250 194.176 21
8 -2 4 949.345 221.018 5
8 2 4 1206.60 202.120 19
-8 2 -4 1116.02 207.289 35
8 -2 4 616.452 182.658 34
8 2 4 1205.47 208.891 16
8 -2 5 814.628 174.912 13
8 2 5 1029.00 184.325 13
8 -2 5 845.573 192.470 24
-8 2 -5 686.757 198.812 39
8 2 5 875.302 183.375 21
8 -2 5 914.316 210.712 5
8 -2 5 479.021 163.608 36
8 2 5 769.604 184.317 19
8 2 5 597.748 172.837 16
8 -2 6 15435.2 671.571 13
8 2 6 15858.9 677.085 13
8 -2 6 16258.3 709.292 24
8 -2 6 15672.7 689.316 5
-8 2 -6 17080.4 713.540 39
8 2 6 16792.8 648.884 21
8 -2 6 14877.5 689.734 36
-8 2 -6 15424.9 663.047 33
-8 -2 -6 14983.9 658.914 33
8 2 6 15878.2 652.436 16
8 -2 7 4098.09 249.428 13
8 2 7 3898.92 251.363 13
8 -2 7 3966.42 285.500 24
8 -2 7 4309.24 269.419 5
-8 2 -7 4275.87 270.717 39
8 -2 7 4711.52 258.398 21
8 -2 7 3863.20 266.848 36
-8 2 -7 3635.20 235.804 33
8 -2 8 3441.02 158.544 13
8 -2 8 3806.74 177.825 5
8 3 -12 1416.43 137.858 22
-8 -3 12 1768.02 158.637 5
8 -3 -12 1524.55 127.111 7
-8 3 11 4013.37 266.246 41
-8 -3 11 3583.07 276.738 38
8 3 -11 4152.35 251.233 22
8 -3 -11 4451.44 244.672 7
8 3 -11 4321.24 252.414 14
-8 3 10 6425.14 390.631 41
8 3 -10 7155.98 357.592 22
8 -3 -10 6508.34 326.726 37
8 -3 -10 7408.81 350.152 7
8 3 -10 7136.49 370.420 14
8 3 -9 6474.23 370.732 22
8 -3 -9 6924.97 354.826 37
-8 3 9 6783.95 334.773 8
8 -3 -9 7314.19 369.058 7
8 3 -9 7192.90 395.650 14
-8 3 8 739.238 199.030 41
8 3 -8 345.371 173.567 22
8 -3 -8 404.120 126.178 37
-8 3 8 312.899 164.464 35
-8 3 8 418.900 116.055 8
8 3 -8 357.614 115.667 18
8 3 -8 314.737 190.423 15
8 -3 -8 367.745 131.412 7
8 -3 -7 45.4772 122.013 6
-8 3 7 39.0328 181.629 41
8 -3 -7 64.5125 128.666 37
-8 3 7 9.65441 160.320 35
-8 3 7 117.435 116.872 8
8 3 -7 5.44256 124.714 18
8 3 -7 255.655 204.403 15
8 -3 -7 143.005 125.594 7
8 -3 -6 36161.4 1386.06 6
-8 3 6 36986.5 1495.72 41
8 -3 -6 36359.2 1411.92 37
-8 3 6 35981.7 1381.03 8
-8 3 6 38230.1 1460.09 35
8 3 -6 35299.6 1358.63 18
8 -3 -6 37824.0 1399.68 7
8 3 -6 37510.5 1426.36 15
8 3 -6 38649.7 1436.45 14
8 -3 -5 29972.0 1170.67 6
-8 3 5 28667.6 1248.90 41
8 3 -5 29427.9 1192.82 21
8 -3 -5 29792.3 1192.83 37
-8 3 5 29684.9 1161.80 8
-8 3 5 30928.2 1239.17 35
8 3 -5 29614.8 1139.34 18
8 -3 -5 31558.8 1174.17 7
8 3 -5 30985.9 1200.53 15
8 3 -5 30810.1 1204.90 14
8 -3 -4 54386.6 2037.41 6
-8 3 4 52811.9 2099.83 41
-8 3 4 57984.6 2096.44 39
8 3 -4 55785.9 2061.03 21
8 -3 -4 55599.8 2062.81 37
-8 3 4 53893.9 2024.43 8
-8 3 4 58422.3 2120.50 35
8 3 -4 53795.5 1997.82 18
8 -3 -4 56340.0 2019.09 34
8 3 -4 50538.2 2049.99 16
8 -3 -4 59593.2 2035.42 7
8 3 -4 56682.8 2053.87 15
8 3 -4 56099.8 2057.51 14
8 -3 -3 16374.7 724.075 6
-8 3 3 14900.8 746.104 41
-8 3 3 16817.3 780.129 39
8 3 -3 16912.7 755.284 21
8 -3 -3 18144.5 753.501 37
-8 3 3 17578.5 789.190 35
-8 3 3 16717.8 714.754 8
8 3 -3 16061.4 683.985 18
8 -3 -3 17587.8 710.423 34
8 3 -3 15859.2 747.679 16
8 3 -3 16543.8 729.202 15
8 3 -3 16639.8 733.236 14
8 -3 -2 3685.78 283.279 6
-8 3 2 3254.71 317.750 39
8 3 -2 3751.87 324.507 21
8 -3 -2 3393.23 282.496 37
8 -3 -2 3418.06 253.275 36
-8 3 2 3537.32 328.057 35
-8 3 2 3617.65 264.057 8
8 3 -2 3211.96 244.553 18
8 -3 -2 3618.71 260.433 34
8 3 -2 2919.46 297.895 16
-8 3 1 1299.44 235.787 39
8 -3 -1 963.341 215.239 5
8 -3 -1 1192.56 171.274 36
-8 3 1 1198.20 184.397 8
8 3 -1 792.658 161.257 18
8 -3 -1 1175.57 174.531 34
8 -3 0 9963.48 483.223 6
8 -3 0 7741.51 484.665 5
-8 3 0 9482.87 526.975 39
8 3 0 10749.5 530.274 21
8 -3 0 8859.05 447.609 21
8 -3 0 8709.09 470.120 36
-8 3 0 9189.81 520.448 35
-8 3 0 10623.5 494.446 8
8 3 0 9466.35 449.393 18
8 -3 0 9346.25 473.697 34
8 -3 1 2594.00 234.662 6
8 -3 1 2531.83 278.620 5
-8 3 -1 2921.83 294.215 39
8 3 1 2691.84 284.449 21
8 -3 1 2480.37 228.865 21
8 3 1 2147.75 211.950 19
8 -3 1 2363.82 234.066 36
-8 3 -1 2600.61 282.987 35
8 3 1 2291.44 225.691 18
-8 3 -1 2858.12 250.052 8
8 -3 1 2410.28 239.450 34
8 3 1 2454.09 278.391 16
8 -3 2 1521.39 186.705 6
8 3 2 1287.93 232.119 21
8 -3 2 1490.16 196.823 21
8 -3 2 1293.60 236.077 5
8 -3 2 1175.59 186.091 36
8 3 2 1110.72 181.064 19
-8 3 -2 1367.03 233.113 35
8 3 2 1147.94 179.357 18
-8 3 -2 1159.04 192.035 8
8 -3 2 1231.61 191.696 34
8 3 2 1131.08 230.565 16
8 -3 3 2123.82 199.228 6
8 -3 3 2293.33 257.487 5
-8 3 -3 1712.51 242.300 39
8 3 3 2071.10 240.886 21
8 -3 3 2010.15 216.978 21
8 3 3 1982.13 212.107 19
8 -3 3 1954.72 213.247 36
-8 3 -3 2206.83 232.458 8
-8 3 -3 1995.16 242.523 35
8 -3 3 1703.14 215.351 34
8 3 3 1918.31 244.275 16
8 -3 4 3197.84 219.585 6
8 -3 4 3196.43 272.508 24
8 -3 4 3208.00 286.456 5
-8 3 -4 3175.78 285.193 39
8 3 4 3433.54 254.793 21
8 -3 4 3428.38 252.406 21
8 3 4 3195.71 249.261 19
-8 3 -4 3143.86 281.325 35
-8 3 -4 3222.72 262.380 8
8 -3 4 3015.76 258.643 34
8 3 4 3379.02 277.443 16
8 -3 5 19511.4 767.452 24
-8 3 -5 17907.3 766.810 39
8 -3 5 17750.7 722.665 21
8 3 5 16612.0 722.005 19
8 -3 5 17307.9 741.380 36
-8 3 -5 17828.5 754.568 35
-8 3 -5 18717.5 747.775 8
8 3 5 17579.2 732.966 16
-8 3 -6 595.665 145.083 39
8 -3 6 514.062 130.336 21
8 -3 6 438.581 125.410 36
8 3 6 424.574 133.675 19
-8 3 -6 505.754 126.326 35
-8 3 -6 439.200 125.563 8
8 3 6 615.050 146.674 16
8 -3 7 3112.37 203.850 5
-8 3 -7 2497.66 182.564 8
8 3 7 3109.46 182.020 16
-8 3 -8 1092.28 90.2696 8
-8 4 10 2232.54 137.877 8
8 -4 -10 2590.97 156.962 7
-8 4 9 12274.8 263.767 8
8 -4 -9 12407.2 287.637 7
-8 4 8 384.678 141.689 41
8 4 -8 185.251 120.133 22
8 -4 -8 334.139 110.945 37
-8 4 8 283.487 101.207 8
8 4 -8 388.518 106.499 18
8 -4 -8 398.934 112.147 7
-8 4 7 10236.0 545.879 41
8 -4 -7 11295.5 509.320 37
-8 4 7 11778.4 496.181 8
8 4 -7 11386.7 483.030 18
8 -4 -7 11682.1 501.285 7
8 4 -7 12160.7 534.890 14
8 -4 -6 7605.62 371.167 6
-8 4 6 7807.60 448.841 41
8 -4 -6 7956.92 405.139 37
-8 4 6 8439.65 392.568 8
8 4 -6 7973.47 380.301 18
8 -4 -6 8449.87 396.110 7
8 4 -6 9105.91 438.884 14
8 -4 -5 8892.54 413.606 6
-8 4 5 8221.74 470.181 41
-8 4 5 9113.83 423.100 8
-8 4 5 8254.98 454.862 35
8 4 -5 9083.71 412.646 18
8 -4 -5 8558.78 405.453 34
8 -4 -5 9325.53 425.701 7
8 4 -5 8674.07 451.147 14
8 -4 -4 3908.03 255.855 6
-8 4 4 3398.41 285.994 41
-8 4 4 4266.45 265.980 8
-8 4 4 3674.83 295.140 35
8 4 -4 3904.85 257.786 18
8 -4 -4 4163.30 255.604 34
8 -4 -4 4149.00 257.051 7
8 4 -4 3919.89 288.970 14
8 -4 -3 8159.38 407.975 6
-8 4 3 7305.81 425.774 41
8 -4 -3 7994.50 421.330 37
-8 4 3 8366.57 411.062 8
-8 4 3 8458.62 455.184 35
8 4 -3 8482.91 396.678 18
8 -4 -3 8242.91 404.197 34
8 4 -3 7738.19 434.380 16
8 -4 -3 8005.50 392.867 7
8 -4 -2 2264.60 210.422 6
-8 4 2 1997.22 223.649 39
8 -4 -2 2039.66 209.273 37
8 -4 -2 2260.13 194.196 36
-8 4 2 2161.61 205.559 8
8 4 -2 1879.22 201.122 18
-8 4 2 1921.68 236.331 35
8 -4 -2 1761.21 187.167 34
8 4 -2 2011.30 250.910 16
8 -4 -1 4222.66 280.739 6
-8 4 1 4052.16 299.868 39
8 4 -1 4290.96 327.476 21
8 -4 -1 3980.03 281.346 37
8 -4 -1 4046.21 263.979 36
-8 4 1 4215.57 276.903 8
-8 4 1 4587.31 320.950 35
8 4 -1 4051.03 263.310 18
8 -4 -1 3730.81 267.425 34
8 4 -1 3584.27 307.356 16
-8 4 0 1635.41 214.174 39
8 4 0 2104.38 253.320 21
8 -4 0 1630.25 191.809 37
8 -4 0 1469.22 198.633 5
8 -4 0 1526.17 177.043 36
-8 4 0 1964.03 199.143 8
8 4 0 1716.33 191.832 18
-8 4 0 1637.67 222.357 35
8 -4 0 1700.70 189.433 34
8 4 0 1956.50 241.830 16
8 -4 1 2235.75 227.369 5
-8 4 -1 2084.32 229.103 39
8 4 1 2422.38 247.991 21
8 -4 1 2352.02 205.917 36
-8 4 -1 2517.71 216.500 8
8 4 1 2473.78 207.980 18
8 -4 1 2329.86 214.272 34
8 4 1 2444.62 255.779 16
8 -4 2 4647.85 272.626 6
8 -4 2 4262.95 290.565 5
-8 4 -2 4119.34 300.285 39
8 4 2 4685.67 294.727 21
8 -4 2 4333.93 252.464 21
8 4 2 3558.10 239.574 19
8 -4 2 4173.19 273.046 36
-8 4 -2 4218.86 306.922 35
-8 4 -2 5024.54 286.925 8
8 4 2 4934.74 271.402 18
8 -4 2 4360.80 282.275 34
8 -4 3 14036.5 557.051 6
8 -4 3 13412.4 585.013 5
-8 4 -3 12933.6 593.442 39
8 -4 3 12922.2 544.951 21
8 4 3 12232.0 543.031 19
-8 4 -3 13311.9 597.876 35
-8 4 -3 15086.9 585.421 8
8 -4 3 13277.2 583.105 34
8 -4 4 424.807 98.5712 6
-8 4 -4 140.837 123.753 39
8 -4 4 381.304 119.888 21
8 -4 4 317.040 135.603 5
8 -4 4 327.509 107.845 36
8 4 4 183.850 115.241 19
-8 4 -4 340.229 128.937 35
-8 4 -4 351.911 112.355 8
8 4 4 294.370 148.834 16
8 -4 5 4139.84 239.765 5
8 -4 5 3944.58 218.171 21
8 4 5 3935.09 222.100 19
-8 4 -5 4337.59 231.111 8
8 4 5 4415.92 246.613 16
8 -4 6 3953.98 207.905 5
8 -4 6 4089.95 193.864 21
8 4 6 3684.50 197.293 19
8 4 6 4491.55 212.154 16
-8 5 7 763.468 90.3577 8
8 5 -7 531.506 80.2150 18
8 -5 -7 615.567 81.1414 7
-8 5 6 2623.23 159.124 8
8 5 -6 2318.19 152.167 18
8 -5 -6 2473.36 152.864 7
-8 5 5 6410.72 287.859 8
8 5 -5 5932.70 278.754 18
8 -5 -5 5722.54 274.316 7
8 -5 -4 3102.84 180.210 6
8 -5 -4 3100.01 203.061 37
-8 5 4 3591.89 203.506 8
8 5 -4 3364.90 199.811 18
8 -5 -4 3534.41 191.928 7
8 -5 -3 2975.06 157.909 6
8 -5 -3 2792.01 171.303 37
8 -5 -2 5697.57 282.607 6
8 -5 -2 5136.20 288.175 37
-8 5 2 6393.39 295.423 8
8 5 -2 6309.00 291.470 18
8 -5 -2 5691.80 290.900 34
8 -5 -1 4041.91 227.732 6
-8 5 1 4230.45 232.666 8
8 5 -1 4238.94 228.118 18
8 -5 -1 3563.15 225.801 34
8 -5 0 620.371 111.903 6
-8 5 0 526.010 106.164 8
8 5 0 576.635 118.414 18
8 5 0 531.523 136.811 16
8 -5 1 1220.52 125.806 6
8 5 1 1119.37 148.208 16
8 5 2 392.624 116.949 16
8 -5 3 208.902 62.6949 6
8 5 3 134.780 87.3836 16
-9 0 13 362.266 109.045 3
9 0 -12 4012.53 263.872 26
-9 0 12 3133.40 243.315 41
-9 0 12 2908.11 245.698 38
-9 0 12 3926.25 241.562 3
9 0 -11 43.0060 124.726 14
9 0 -11 9.16730 141.993 26
-9 0 11 66.3744 138.517 41
-9 0 11 -9.47591 144.320 38
9 0 -10 600.951 168.516 14
9 0 -10 596.115 172.338 26
-9 0 10 616.236 189.440 38
9 0 -10 562.798 174.988 33
9 0 -10 635.365 170.765 15
9 0 -9 7.21444 161.067 14
9 0 -9 -83.0362 167.828 26
-9 0 9 286.708 195.056 41
-9 0 9 -11.8974 175.953 38
9 0 -9 169.853 168.986 15
9 0 -8 19360.0 800.359 14
9 0 -8 18984.2 868.417 26
9 0 -8 18528.3 799.580 15
-9 0 8 17384.5 888.247 41
9 0 -7 2968.23 286.135 14
9 0 -7 2643.96 312.985 26
-9 0 7 2775.26 332.127 41
9 0 -7 2816.97 283.421 15
9 0 -6 21748.8 987.744 13
9 0 -6 22159.9 1042.26 26
-9 0 6 26015.9 1118.34 41
9 0 -6 24909.0 983.471 15
9 0 -5 159788. 5898.24 13
9 0 -5 168234. 5972.07 26
9 0 -5 164000. 5872.19 15
9 0 -4 28386.3 1228.05 6
9 0 -4 29813.8 1211.37 14
9 0 -4 31055.9 1244.06 13
9 0 -4 32250.4 1314.85 26
9 0 -4 29208.2 1215.07 15
9 0 -3 73186.8 2663.36 6
9 0 -3 73989.7 2638.59 14
9 0 -3 77244.8 2686.12 13
9 0 -3 83716.3 2787.22 26
9 0 -3 64663.3 2606.76 21
9 0 -2 47.2239 163.685 14
9 0 -2 534.052 181.708 13
9 0 -2 -27.5994 158.954 6
9 0 -2 261.552 203.578 26
9 0 -2 112.874 177.406 21
9 0 -2 81.3339 187.633 15
9 0 -1 32971.5 1367.36 6
9 0 -1 35492.5 1336.88 14
9 0 -1 34152.0 1402.71 13
9 0 -1 35029.5 1480.18 26
9 0 -1 35247.4 1356.10 21
9 0 -1 35483.2 1380.37 15
9 0 0 515.686 197.673 13
9 0 0 854.200 175.109 6
9 0 0 654.985 242.548 26
9 0 0 855.332 201.560 21
9 0 0 909.445 213.485 15
9 0 1 388.022 182.158 13
9 0 1 179.530 222.086 26
9 0 1 181.125 186.502 21
9 0 1 251.052 178.122 15
9 0 2 12785.1 664.269 13
9 0 2 13462.9 740.405 26
-9 0 -2 15935.5 709.607 39
9 0 2 15761.8 663.812 21
9 0 2 12966.1 630.728 15
9 0 3 3431.73 298.134 13
9 0 3 3577.94 348.224 26
-9 0 -3 3720.13 303.037 39
9 0 3 3321.00 266.844 15
9 0 4 3982.31 310.509 13
9 0 4 3538.44 347.012 26
9 0 4 4143.72 294.507 21
9 0 4 3648.11 256.108 15
9 0 5 12822.7 610.103 13
9 0 5 13636.0 586.062 21
9 0 6 13840.2 625.397 13
9 0 6 14614.6 595.753 21
-9 0 -6 14571.4 626.010 33
9 0 7 9880.71 450.009 13
9 0 7 10106.2 420.274 21
-9 0 -7 10031.6 450.457 33
9 0 8 2664.29 169.289 13
-9 -1 13 5997.04 258.870 3
-9 1 13 5383.23 252.216 3
-9 -1 12 2561.59 196.567 3
-9 1 12 2492.54 187.214 3
9 1 -12 2174.38 164.110 14
9 -1 -11 3204.41 247.739 26
9 1 -11 3079.17 247.136 26
-9 -1 11 2114.00 233.737 41
-9 1 11 2520.36 249.703 41
-9 -1 11 2544.77 252.138 38
-9 1 11 2658.71 237.744 38
9 1 -11 2905.50 219.260 14
9 -1 -10 8400.94 397.091 14
9 -1 -10 8976.44 468.146 26
9 1 -10 8782.95 469.624 26
-9 -1 10 8201.55 477.693 38
-9 1 10 7474.52 451.061 38
9 1 -10 8111.61 428.614 15
9 1 -10 8335.07 421.224 14
9 1 -9 1355.41 212.622 14
9 -1 -9 1559.28 194.029 14
9 -1 -9 1348.50 220.931 26
9 1 -9 1557.98 228.913 26
-9 1 9 1295.88 239.518 41
-9 -1 9 1299.29 229.873 38
9 1 -9 1144.25 219.665 15
9 1 -8 10915.8 523.885 14
9 -1 -8 10192.8 495.331 14
9 -1 -8 10290.6 556.007 26
9 1 -8 10364.2 565.304 26
-9 1 8 10197.7 587.500 41
-9 -1 8 9069.23 561.134 38
9 1 -8 9596.08 515.748 15
9 -1 -8 10367.8 497.601 15
9 -1 -7 25735.3 1062.54 6
9 1 -7 26274.8 1057.04 14
9 -1 -7 24567.5 1025.20 14
9 -1 -7 24836.7 1105.53 26
9 1 -7 25490.2 1111.53 26
-9 1 7 27089.6 1148.05 41
9 1 -7 24402.3 1051.28 15
9 -1 -7 29030.9 1047.98 15
9 -1 -6 27043.9 1056.47 6
9 -1 -6 24696.3 1020.79 14
9 1 -6 22157.1 1044.74 13
9 -1 -6 22388.4 1050.49 13
9 -1 -6 26036.1 1113.57 26
9 1 -6 24094.3 1101.26 26
9 -1 -6 28634.0 1044.72 15
9 1 -5 46686.5 1767.56 14
9 -1 -5 47296.2 1774.78 6
9 1 -5 41773.9 1766.66 13
9 -1 -5 46833.8 1785.89 13
9 -1 -5 49146.3 1857.76 26
9 1 -5 41466.4 1815.83 26
9 -1 -5 47393.4 1749.73 15
9 1 -4 21331.2 884.937 14
-9 1 4 26860.4 970.962 41
9 1 -4 19885.9 892.293 13
9 -1 -4 21214.7 897.905 13
9 -1 -4 24116.3 982.708 26
9 1 -4 19336.5 938.479 26
9 1 -4 16911.6 842.590 21
9 1 -4 20037.5 881.551 15
9 -1 -4 21037.5 873.933 15
9 1 -3 59084.7 2175.79 14
9 -1 -3 59741.4 2188.45 6
9 1 -3 57920.8 2204.72 13
9 -1 -3 63301.4 2213.27 13
9 -1 -3 67438.0 2301.76 26
9 1 -3 54025.8 2266.84 26
9 1 -3 52779.6 2156.00 21
9 -1 -3 60722.2 2162.38 37
9 1 -3 58793.8 2186.59 15
9 -1 -3 60543.9 2181.12 15
9 1 -2 23815.5 995.176 14
9 -1 -2 26129.5 1021.87 6
9 1 -2 24202.0 1033.36 13
9 -1 -2 26145.8 1045.57 13
9 -1 -2 28496.9 1133.86 26
9 1 -2 24524.3 1099.87 26
9 1 -2 24060.5 1010.94 21
9 -1 -2 22330.8 968.544 21
9 1 -2 24909.4 1041.38 16
9 1 -2 25776.2 1020.60 15
9 -1 -2 25143.2 1023.06 15
9 -1 -1 15969.5 663.032 6
9 -1 -1 13978.3 688.832 13
9 1 -1 12765.1 665.826 13
9 -1 -1 14234.2 747.201 26
9 1 -1 14076.4 744.627 26
9 1 -1 14300.0 662.169 21
9 -1 -1 14138.5 634.649 21
9 1 -1 14329.2 678.956 16
9 1 -1 13642.8 649.950 15
9 -1 0 277.405 176.474 13
9 1 0 292.039 181.143 13
9 -1 0 389.782 157.257 6
9 -1 0 99.6236 204.848 26
9 1 0 159.221 216.825 26
9 1 0 238.826 199.177 21
9 -1 0 351.910 180.294 21
9 -1 0 181.924 142.042 36
-9 1 0 394.570 189.912 35
9 1 0 224.694 196.265 16
9 1 0 284.788 184.031 15
9 -1 1 2318.80 213.618 6
9 -1 1 2245.38 262.000 13
9 1 1 1999.79 253.628 13
9 -1 1 2483.62 295.346 26
9 1 1 2388.33 305.874 26
9 -1 1 2255.00 270.237 5
-9 1 -1 2387.10 302.983 39
9 1 1 2486.03 272.343 21
9 -1 1 2295.39 256.913 21
9 -1 1 1594.79 232.655 36
-9 1 -1 2224.59 263.979 35
9 1 1 2309.51 257.407 16
9 1 1 2488.69 243.425 15
9 -1 2 443.216 175.951 13
9 1 2 378.566 184.059 13
9 -1 2 447.176 225.017 26
9 1 2 425.224 212.517 26
-9 1 -2 464.299 201.110 39
9 -1 2 385.764 181.038 21
9 -1 2 374.900 188.440 5
9 -1 2 178.048 160.523 36
9 1 2 381.975 184.144 16
9 -1 3 2399.90 252.452 13
9 1 3 2073.68 244.213 13
9 1 3 2417.38 305.577 26
9 -1 3 2077.22 285.992 26
9 -1 3 2143.56 225.834 24
-9 1 -3 2276.12 261.932 39
9 -1 3 2630.95 247.738 21
9 1 3 2222.64 250.755 21
9 -1 3 2100.34 241.728 5
9 -1 3 1870.67 237.645 36
9 -1 4 21394.2 885.877 13
9 1 4 21818.6 892.557 13
9 -1 4 20142.4 938.840 26
9 1 4 21137.0 947.661 26
9 -1 4 20821.2 868.812 5
9 -1 4 19499.8 864.139 24
-9 1 -4 21483.8 893.637 39
9 1 4 23917.0 876.985 21
9 -1 4 19037.6 877.797 36
9 -1 5 837.425 176.718 13
9 1 5 1206.41 190.641 13
9 -1 5 992.155 175.535 24
9 1 5 1199.73 180.401 21
9 -1 5 765.650 160.717 5
9 -1 6 3630.58 250.864 13
9 1 6 4141.71 260.190 13
9 1 6 3837.03 232.945 21
9 -1 6 3718.56 238.506 21
-9 1 -6 3637.33 246.648 33
-9 -1 -6 3724.28 246.392 33
9 -1 7 1315.17 145.090 13
9 1 7 1468.07 149.761 13
9 -1 7 1174.97 133.818 21
9 -1 8 1794.70 127.705 13
9 1 8 2119.94 132.502 13
9 2 -12 115.096 85.4316 14
9 2 -11 1135.79 156.233 14
-9 -2 11 928.050 152.152 41
-9 2 11 1173.19 133.398 3
-9 2 11 1070.25 153.278 41
-9 -2 11 910.782 155.488 38
9 -2 -10 2086.91 203.454 26
9 2 -10 1976.51 204.181 26
-9 -2 10 1942.81 226.360 38
9 -2 -10 1961.39 170.487 7
9 2 -10 2128.05 221.112 15
-9 -2 10 2379.01 215.846 3
9 2 -10 2329.91 217.187 14
9 -2 -9 12916.7 552.985 14
9 -2 -9 13869.6 622.058 26
9 2 -9 12793.5 616.785 26
-9 2 9 12810.8 650.323 41
-9 -2 9 12356.7 638.114 38
9 -2 -9 12885.0 561.406 7
9 2 -9 14458.7 616.071 15
9 2 -9 14653.1 609.865 14
9 -2 -8 17301.8 702.667 14
9 -2 -8 17396.9 766.573 26
9 2 -8 17294.4 773.230 26
-9 2 8 17296.7 810.029 41
-9 -2 8 15417.4 773.771 38
9 -2 -8 16986.1 699.952 7
9 2 -8 18500.4 754.004 14
9 -2 -8 16982.5 721.440 6
9 -2 -7 12731.1 567.447 6
9 -2 -7 12116.3 543.178 14
9 -2 -7 12561.9 606.632 26
9 2 -7 12156.2 607.620 26
-9 2 7 12808.6 645.336 41
-9 -2 7 10620.0 600.849 38
9 -2 -7 11144.8 524.836 37
9 -2 -6 2619.10 248.422 6
9 -2 -6 2233.39 260.890 26
9 2 -6 2261.44 270.475 26
-9 2 6 2587.18 291.366 41
9 2 -6 2530.20 246.487 21
9 -2 -6 2068.85 203.262 37
9 2 -6 2644.92 272.653 15
9 -2 -6 2537.84 233.208 15
9 2 -6 3058.99 284.554 14
9 -2 -5 10768.2 492.586 6
9 2 -5 7847.96 474.841 13
9 -2 -5 9871.24 495.089 13
9 -2 -5 9750.69 532.396 26
9 2 -5 8744.37 519.644 26
-9 2 5 9378.81 531.256 41
9 2 -5 8404.84 469.936 21
9 -2 -5 9245.19 464.532 37
9 2 -5 8694.21 491.268 15
9 -2 -5 10270.2 472.368 15
9 2 -5 9611.07 501.056 14
9 -2 -4 14010.8 617.097 6
9 2 -4 10575.1 596.769 13
9 -2 -4 14391.0 628.384 13
9 -2 -4 15365.2 688.695 26
9 2 -4 11527.6 647.617 26
-9 2 4 12775.2 643.881 41
9 2 -4 11264.7 597.110 21
9 -2 -4 13884.4 608.110 37
9 2 -4 13405.7 624.921 15
9 -2 -4 14767.9 604.684 15
9 2 -4 12821.7 616.788 14
9 2 -3 1327.49 214.330 14
9 -2 -3 1792.28 198.205 13
9 2 -3 1496.79 201.869 13
9 -2 -3 2188.15 238.916 26
9 2 -3 1849.31 243.341 26
9 2 -3 963.908 227.508 21
9 -2 -3 1190.10 185.266 37
9 2 -3 1288.49 258.940 16
9 2 -3 1396.92 229.108 15
9 -2 -3 1260.69 209.694 15
9 2 -2 14319.3 701.919 13
9 -2 -2 17318.9 731.865 13
9 -2 -2 18815.5 805.313 26
9 2 -2 13855.7 748.483 26
9 2 -2 15839.6 728.805 21
9 -2 -2 19534.0 740.580 37
-9 2 2 19387.9 803.388 35
9 2 -2 13116.7 715.154 16
9 2 -2 16219.0 714.670 15
9 -2 -2 16406.6 718.143 15
9 2 -2 14954.9 693.080 14
9 -2 -1 3050.75 260.092 6
9 2 -1 2372.33 252.907 13
9 -2 -1 2902.67 265.218 13
9 -2 -1 3264.92 306.686 26
9 2 -1 2713.35 294.918 26
9 2 -1 2785.54 295.660 21
9 -2 -1 2736.69 240.408 21
9 -2 -1 3023.36 251.106 36
-9 2 1 3163.75 307.538 35
9 2 -1 2581.47 296.159 16
9 2 -1 3318.32 273.375 15
9 -2 0 9380.98 462.041 6
9 2 0 8395.84 465.923 13
9 -2 0 8560.71 462.507 13
9 -2 0 8502.91 516.106 26
9 2 0 8292.54 521.373 26
9 -2 0 8594.36 500.254 5
9 -2 0 9663.20 460.842 21
9 -2 0 9758.04 482.603 36
-9 2 0 9879.26 525.868 35
-9 2 0 9442.76 454.067 8
9 -2 0 8345.91 453.670 34
9 2 0 8672.35 491.251 16
9 -2 1 7181.62 370.147 6
9 -2 1 6589.49 385.281 13
9 2 1 6436.84 386.776 13
9 -2 1 5978.10 431.157 26
9 2 1 6076.07 435.151 26
9 -2 1 6676.18 381.935 24
-9 2 -1 7388.82 449.575 39
9 -2 1 7863.96 391.253 21
9 -2 1 6017.87 392.391 36
-9 2 -1 7250.05 429.130 35
-9 2 -1 6618.58 369.770 8
9 -2 1 5574.77 366.244 34
9 2 1 6697.12 406.399 16
9 -2 2 4919.72 285.684 6
9 -2 2 4516.45 309.937 13
9 2 2 5118.58 330.244 13
9 -2 2 4094.68 349.425 26
9 2 2 4186.93 358.170 26
9 -2 2 4926.03 320.437 24
-9 2 -2 5019.85 358.589 39
9 2 2 5543.99 353.074 21
9 -2 2 5011.37 316.842 21
9 2 2 4136.62 287.316 19
9 -2 2 4446.33 316.828 36
-9 2 -2 5392.47 347.943 35
-9 2 -2 4211.95 291.297 8
9 -2 2 4052.92 304.401 34
9 2 2 4629.27 330.533 16
9 -2 3 958.336 168.774 13
9 2 3 913.132 179.646 13
9 -2 3 846.818 129.252 6
9 -2 3 645.446 196.160 26
9 2 3 710.119 201.313 26
9 -2 3 861.595 168.189 24
-9 2 -3 744.008 196.050 39
9 2 3 900.933 204.456 21
9 -2 3 1035.23 183.867 21
9 -2 3 771.272 196.732 5
9 -2 3 543.909 162.331 36
9 2 3 889.738 168.366 19
-9 2 -3 990.073 188.080 35
-9 2 -3 730.818 149.138 8
9 2 3 895.763 194.633 16
9 -2 4 4232.00 272.305 13
9 2 4 4015.47 272.661 13
9 -2 4 4331.85 295.474 5
9 -2 4 3780.79 278.770 24
-9 2 -4 3806.11 296.325 39
9 2 4 4611.66 288.182 21
9 -2 4 4035.16 268.019 21
9 2 4 3839.87 268.749 19
9 -2 4 3632.09 274.193 36
-9 2 -4 3918.90 261.077 8
9 2 4 4020.52 273.252 16
9 -2 5 5866.84 294.748 13
9 2 5 5461.78 295.615 13
9 -2 5 5568.69 313.030 5
9 -2 5 5028.98 312.265 24
-9 2 -5 5658.97 329.343 39
9 2 5 5644.73 297.334 21
9 -2 5 5778.99 296.410 21
-9 2 -5 4443.26 277.261 8
-9 2 -5 4853.73 284.382 33
9 2 5 4893.13 280.957 16
9 -2 6 817.453 111.214 13
9 -2 6 847.315 133.262 5
-9 2 -6 834.244 111.194 8
9 -2 7 573.536 94.3559 21
-9 2 -7 400.230 70.3351 8
9 -3 -10 1318.98 119.705 7
9 3 -10 1430.23 163.474 14
9 3 -9 741.157 165.991 14
-9 3 9 909.023 162.931 41
-9 -3 9 537.780 147.717 38
9 -3 -9 799.827 117.117 7
9 -3 -8 7414.31 342.934 14
-9 3 8 7950.19 432.200 41
-9 -3 8 6896.43 414.616 38
9 -3 -8 7479.23 355.930 37
-9 3 8 6755.66 383.795 35
9 -3 -8 7948.36 355.388 7
9 -3 -7 2282.58 192.621 6
-9 3 7 2480.98 256.822 41
9 -3 -7 2600.74 204.053 37
-9 3 7 2321.59 240.859 35
9 -3 -7 2516.32 183.527 7
9 3 -7 2806.66 254.789 15
9 3 -7 2604.54 250.375 14
9 -3 -6 4353.30 273.892 6
-9 3 6 3814.26 322.404 41
9 -3 -6 4526.82 279.226 37
-9 3 6 4565.44 250.545 8
-9 3 6 4266.92 321.890 35
9 3 -6 4747.46 321.303 15
9 3 -6 4564.60 317.172 14
9 -3 -5 14611.1 634.254 6
-9 3 5 13722.7 676.915 41
9 3 -5 14512.5 654.885 21
9 -3 -5 14923.0 644.507 37
-9 3 5 13748.4 601.578 8
9 3 -5 15060.6 659.646 15
9 3 -5 15394.2 662.571 14
9 -3 -4 6240.27 344.574 6
-9 3 4 5090.94 356.150 41
-9 3 4 5585.04 383.085 39
9 3 -4 6554.33 385.331 21
9 -3 -4 6086.30 353.622 37
-9 3 4 5860.13 313.063 8
-9 3 4 7285.73 416.798 35
9 3 -4 5772.68 357.858 15
9 -3 -4 5651.27 320.540 15
9 3 -4 6296.37 362.902 14
9 -3 -3 2875.68 244.738 6
-9 3 3 2649.67 268.356 39
9 3 -3 3042.04 284.469 21
9 -3 -3 3022.00 245.000 37
-9 3 3 2920.52 214.989 8
-9 3 3 2732.96 274.105 35
9 3 -3 2787.51 282.456 16
9 3 -3 2539.46 243.959 15
9 -3 -3 2762.91 227.029 15
9 3 -3 2762.08 241.005 14
9 -3 -2 5048.06 304.408 6
-9 3 2 4405.26 331.647 39
9 3 -2 4373.91 331.871 21
9 -3 -2 4231.87 302.478 37
-9 3 2 4641.48 276.989 8
9 -3 -2 4047.21 277.536 34
9 -3 -2 3858.85 279.457 15
-9 3 1 1637.61 230.317 39
9 -3 -1 1687.35 201.758 37
9 -3 -1 1505.59 180.242 36
-9 3 1 1776.02 185.223 8
-9 3 1 1725.99 232.154 35
9 -3 -1 1528.18 183.454 34
9 -3 0 1508.45 185.434 6
-9 3 0 1397.38 219.246 39
9 3 0 1272.64 227.887 21
9 -3 0 1244.90 169.971 36
9 3 0 1265.82 152.775 18
-9 3 0 1408.97 221.899 35
-9 3 0 1283.64 169.640 8
9 -3 0 1237.21 169.673 34
9 3 0 1305.84 228.147 16
9 -3 1 6063.69 327.726 6
9 -3 1 5729.83 365.209 5
-9 3 -1 5584.34 368.011 39
9 3 1 6988.54 380.640 21
9 -3 1 5660.35 310.434 21
9 -3 1 5408.84 333.264 36
-9 3 -1 6248.18 375.705 35
-9 3 -1 6195.34 335.683 8
9 -3 1 5406.62 330.479 34
9 3 1 6145.62 374.147 16
9 -3 2 66.7664 114.047 6
9 -3 2 -86.2222 139.158 24
9 3 2 -40.5031 166.865 21
9 -3 2 -15.8487 131.293 21
9 -3 2 15.9369 157.833 5
9 -3 2 -6.88275 118.063 36
9 3 2 57.3587 101.618 19
-9 3 -2 -35.1197 151.621 35
-9 3 -2 -57.9703 114.160 8
9 -3 2 132.445 121.709 34
9 3 2 -71.2929 168.408 16
9 -3 3 3633.01 215.964 6
9 -3 3 3614.52 255.255 24
9 -3 3 4020.19 272.338 5
-9 3 -3 3652.71 273.908 39
9 3 3 4292.81 266.271 21
9 -3 3 3904.97 239.081 21
9 3 3 3109.63 222.584 19
9 -3 3 3199.97 244.610 36
-9 3 -3 3868.26 271.608 35
-9 3 -3 3652.33 245.283 8
9 -3 3 3346.83 242.209 34
9 3 3 3967.84 273.153 16
9 -3 4 5283.82 292.621 24
-9 3 -4 5200.42 304.153 39
9 -3 4 6090.50 274.801 21
9 3 4 4942.00 266.411 19
9 -3 4 5168.50 284.897 36
-9 3 -4 5180.39 294.127 35
-9 3 -4 5510.86 276.604 8
9 3 4 6046.22 294.247 16
9 -3 5 7012.58 311.620 21
-9 3 -5 6689.33 311.812 8
9 3 5 6763.75 316.742 16
-9 3 -6 12974.0 533.511 8
9 -3 6 14161.1 535.620 15
-9 4 8 1218.15 87.8040 8
9 -4 -8 5.24312 33.0548 7
-9 4 7 5176.71 168.967 8
9 4 -7 5176.85 223.031 14
9 -4 -6 5250.64 258.049 6
-9 4 6 4903.73 299.696 41
9 -4 -6 5073.06 278.766 37
-9 4 6 5784.41 262.899 8
9 4 -6 5504.98 295.272 14
9 4 -5 79.3965 130.306 14
9 -4 -5 144.572 102.233 6
-9 4 5 176.465 108.594 41
9 -4 -5 168.026 98.5339 37
-9 4 5 255.139 126.378 35
-9 4 5 239.229 96.5683 8
9 4 -5 -9.51002 50.5274 18
9 -4 -4 1993.00 158.639 6
9 -4 -4 1483.16 152.040 37
-9 4 4 2094.84 148.366 8
-9 4 4 1785.52 187.591 35
9 -4 -3 1351.68 156.705 6
-9 4 3 1264.64 144.323 8
9 4 -3 1326.19 146.892 18
-9 4 3 1421.17 185.332 35
9 -4 -3 1291.84 133.599 34
9 -4 -2 2706.65 198.143 6
-9 4 2 2645.29 187.075 8
-9 4 2 2539.30 226.343 35
9 4 -2 1995.57 167.696 18
9 -4 -2 2361.75 183.278 34
9 4 -2 2108.48 227.132 16
9 -4 -1 1322.42 155.577 6
-9 4 1 1559.51 176.591 39
9 -4 -1 1137.93 130.290 36
-9 4 1 1309.81 146.728 8
9 4 -1 1575.03 146.839 18
-9 4 1 1399.81 180.826 35
9 -4 -1 1503.77 152.581 34
9 4 -1 1556.71 201.133 16
9 -4 -1 1003.06 140.492 15
-9 4 0 418.531 137.652 39
9 -4 0 289.833 103.366 36
-9 4 0 253.493 104.127 8
9 4 0 571.269 116.810 18
9 -4 0 355.767 107.732 34
9 4 0 310.635 162.565 16
9 -4 0 185.652 117.546 15
9 -4 1 3339.19 201.018 6
-9 4 -1 3219.19 226.669 39
9 -4 1 2631.70 195.502 36
-9 4 -1 3302.31 203.901 8
9 -4 1 2905.10 204.114 34
9 -4 2 7308.43 324.622 6
-9 4 -2 7427.02 335.813 8
9 -4 3 8751.42 347.639 6
-9 4 -3 9150.19 367.556 8
9 4 3 9403.85 386.816 16
-9 4 -4 5124.88 217.715 8
9 4 4 5415.14 235.824 16
-9 5 3 463.423 71.1903 8
9 -5 -2 4827.21 216.682 6
-9 5 2 5090.02 221.114 8
9 -5 -1 821.847 80.5958 6
-9 5 1 734.871 76.5619 8
-10 0 12 6188.22 274.198 3
10 0 -11 307.429 101.190 14
-10 0 11 396.188 126.439 3
10 0 -10 3137.08 253.278 26
-10 0 10 3124.89 261.365 41
10 0 -10 3050.37 216.671 15
10 0 -10 3430.50 228.273 14
10 0 -9 667.829 161.206 14
10 0 -9 679.851 170.999 26
-10 0 9 583.181 175.245 41
10 0 -9 857.648 169.646 15
10 0 -8 1825.28 216.655 14
10 0 -8 2003.61 237.025 26
-10 0 8 1552.99 238.035 41
10 0 -8 1347.32 201.594 15
10 0 -7 323.683 186.125 14
10 0 -7 244.615 180.112 26
-10 0 7 150.750 176.804 41
10 0 -7 274.168 176.066 15
10 0 -6 1054.19 201.866 13
10 0 -6 826.495 211.506 26
-10 0 6 944.486 226.014 41
10 0 -6 836.900 206.819 15
10 0 -5 13449.5 617.423 14
10 0 -5 13717.1 693.221 26
-10 0 5 15469.9 692.255 41
10 0 -5 13366.6 624.044 15
10 0 -4 1744.83 227.910 14
10 0 -4 1951.77 243.605 13
10 0 -4 2435.42 278.365 26
10 0 -3 4140.63 293.666 14
10 0 -3 4569.09 313.066 13
10 0 -3 5131.57 365.917 26
10 0 -3 3361.03 271.256 21
10 0 -3 3154.09 288.081 6
10 0 -2 29073.1 1215.26 6
10 0 -2 30666.9 1187.44 14
10 0 -2 32187.7 1244.67 13
10 0 -2 32954.7 1320.92 26
10 0 -2 30670.7 1193.67 21
10 0 -2 30974.4 1215.28 15
10 0 -1 5564.06 330.619 14
10 0 -1 5737.12 377.252 13
10 0 -1 6289.44 428.879 26
10 0 -1 5937.23 366.773 21
10 0 -1 6389.62 376.524 15
10 0 -1 5685.54 351.302 6
10 0 0 1364.56 215.268 13
10 0 0 1194.28 244.406 26
10 0 0 1503.00 217.467 21
10 0 0 1293.81 213.278 15
10 0 1 3170.05 283.319 13
10 0 1 3223.82 322.880 26
-10 0 -1 4014.40 321.113 39
10 0 1 3521.77 289.403 21
10 0 1 3535.85 273.959 15
10 0 2 5467.11 356.896 13
10 0 2 5273.85 407.207 26
-10 0 -2 6364.62 375.401 39
10 0 2 5858.60 329.026 15
10 0 3 7833.00 401.906 13
10 0 3 6965.82 439.665 26
10 0 3 7131.89 346.468 15
10 0 4 9496.15 454.932 13
10 0 5 200.151 117.066 13
10 0 5 235.615 115.159 21
-10 0 -5 203.098 105.801 33
10 0 6 209.359 90.6924 13
10 0 6 233.277 85.4554 21
-10 -1 11 5522.37 266.023 3
-10 1 11 5268.07 258.763 3
10 1 -11 4701.01 255.967 14
10 -1 -10 4006.38 237.131 14
10 -1 -10 4894.17 289.211 26
10 1 -10 4016.79 275.142 26
-10 -1 10 3732.45 282.568 41
-10 1 10 3914.99 287.112 41
10 1 -10 4183.68 261.880 15
10 1 -10 5091.48 269.867 14
10 1 -9 1027.78 178.257 14
10 -1 -9 881.477 157.708 14
10 -1 -9 827.750 169.126 26
10 1 -9 804.091 173.609 26
-10 -1 9 571.184 165.729 41
-10 1 9 842.560 177.405 41
10 1 -9 878.287 180.983 15
10 -1 -9 1031.03 149.395 15
10 -1 -8 4921.58 288.583 14
10 -1 -8 3995.04 311.942 26
10 1 -8 4109.57 317.251 26
-10 -1 8 3244.69 309.961 41
-10 1 8 3768.72 329.462 41
10 1 -8 4271.96 301.286 15
10 -1 -8 4457.71 278.704 15
10 1 -8 4118.26 293.724 14
10 -1 -7 1149.82 190.054 14
10 -1 -7 1012.11 200.114 26
10 1 -7 944.003 200.999 26
-10 -1 7 755.826 205.295 41
-10 1 7 700.422 201.081 41
10 1 -7 1231.05 220.316 15
10 -1 -7 1097.87 188.505 15
10 -1 -6 11708.9 558.863 6
10 1 -6 11267.5 551.826 14
10 -1 -6 11853.7 536.831 14
10 -1 -6 11395.1 595.172 26
10 1 -6 10160.5 579.041 26
-10 -1 6 8621.23 561.794 41
-10 1 6 14003.1 625.565 41
10 -1 -6 12650.9 542.132 15
10 1 -5 3748.22 293.240 14
10 -1 -5 3195.22 272.990 6
10 1 -5 3154.66 292.164 13
10 -1 -5 3311.19 281.843 13
10 -1 -5 3518.92 321.116 26
10 1 -5 3104.13 309.498 26
-10 1 5 3640.58 303.027 41
10 -1 -5 3584.02 272.156 15
10 1 -4 17534.9 742.747 14
10 -1 -4 18547.0 738.834 14
10 1 -4 15156.7 758.297 13
10 -1 -4 19386.4 770.504 13
10 -1 -4 20005.9 834.785 26
10 1 -4 16463.7 808.474 26
10 1 -4 13658.8 707.135 21
10 1 -4 17186.3 752.866 15
10 -1 -4 18791.0 749.167 15
10 1 -3 5057.85 335.551 14
10 -1 -3 5604.37 349.411 6
10 -1 -3 5704.08 333.747 14
10 1 -3 5150.00 355.583 13
10 -1 -3 6147.99 357.491 13
10 -1 -3 6583.77 410.838 26
10 1 -3 5044.04 403.048 26
10 1 -3 4606.84 335.173 21
10 1 -3 4983.80 351.798 15
10 -1 -3 5762.83 345.690 15
10 1 -2 3335.15 271.445 14
10 -1 -2 3904.20 286.650 6
10 -1 -2 4558.96 282.423 14
10 1 -2 3331.72 295.622 13
10 -1 -2 4522.68 316.084 13
10 -1 -2 4203.00 341.740 26
10 1 -2 3805.19 349.474 26
10 1 -2 3175.10 293.983 21
10 -1 -2 3499.30 261.387 21
-10 1 2 4458.40 333.897 35
10 1 -2 3730.73 302.881 15
10 -1 -2 4388.47 305.823 15
10 -1 -1 11113.3 494.293 6
10 -1 -1 9904.56 469.615 14
10 1 -1 9001.47 501.194 13
10 -1 -1 10288.5 519.670 13
10 -1 -1 8648.23 554.559 26
10 1 -1 8562.37 551.849 26
10 1 -1 9971.64 504.380 21
10 -1 -1 10227.4 481.242 21
-10 1 1 12745.9 553.853 35
10 1 -1 9520.78 503.432 15
10 -1 0 1188.63 164.770 14
10 1 0 1154.18 204.987 13
10 -1 0 1138.21 197.178 13
10 -1 0 1205.63 173.536 6
10 -1 0 1134.35 225.518 26
10 1 0 1069.04 235.741 26
-10 1 0 1728.44 242.122 39
10 1 0 1293.77 221.217 21
10 -1 0 1014.74 186.577 21
-10 1 0 1587.52 214.757 35
10 1 0 1179.31 195.223 15
10 -1 0 1061.26 211.284 15
10 -1 1 663.526 172.822 13
10 1 1 715.146 174.300 13
10 -1 1 780.277 138.762 6
10 -1 1 637.183 202.300 26
10 1 1 530.837 197.701 26
-10 1 -1 1095.25 207.727 39
10 1 1 697.426 193.296 21
10 -1 1 921.498 180.603 21
10 1 1 844.070 162.182 15
10 -1 1 890.229 189.031 15
10 -1 2 5470.03 333.095 13
10 1 2 5346.78 328.514 13
10 -1 2 5093.97 367.588 26
10 1 2 4815.83 369.256 26
-10 1 -2 5004.29 345.080 39
10 -1 2 5877.97 324.815 21
10 -1 2 5099.86 311.341 15
10 -1 3 12880.6 571.358 13
10 1 3 13374.1 578.462 13
10 -1 3 11474.8 610.042 26
10 1 3 12285.7 622.601 26
-10 1 -3 12464.2 580.211 39
10 1 3 13768.4 574.788 21
10 -1 3 13972.7 564.828 21
10 -1 3 12481.8 544.569 15
10 -1 4 4828.15 287.317 13
10 1 4 5332.16 295.071 13
10 1 4 5481.98 293.138 21
10 -1 4 5195.87 282.945 21
10 -1 4 4899.69 260.646 15
10 -1 5 540.233 109.429 13
10 1 5 592.572 109.899 13
10 1 5 324.459 114.003 21
10 -1 6 4964.91 237.049 13
10 1 6 4796.25 235.917 13
10 2 -10 452.045 123.127 14
-10 2 10 2.71190 44.2998 3
10 -2 -9 8534.50 363.138 14
-10 2 9 7843.49 422.797 41
10 2 -9 9145.16 405.059 15
10 2 -9 8997.28 405.492 14
10 -2 -8 8232.24 428.143 26
10 2 -8 7520.27 421.044 26
-10 2 8 8589.59 452.510 41
10 -2 -7 21142.6 829.728 14
10 -2 -7 20106.5 869.924 26
10 2 -7 18130.5 859.833 26
-10 2 7 20626.8 892.718 41
10 2 -7 22155.3 864.412 15
10 2 -7 23231.7 867.082 14
10 -2 -7 22658.9 853.037 6
10 2 -6 1023.33 201.225 14
10 -2 -6 916.909 165.905 14
10 -2 -6 932.434 170.537 6
10 -2 -6 844.789 176.933 26
10 2 -6 674.397 176.044 26
-10 2 6 862.821 176.541 41
10 2 -6 1126.35 204.132 15
10 -2 -6 816.458 156.401 15
10 -2 -5 7984.02 382.841 6
10 -2 -5 7003.59 415.147 26
10 2 -5 5319.62 387.205 26
-10 2 5 6004.58 380.962 41
10 2 -5 5773.71 353.781 21
10 2 -5 6206.49 381.949 15
10 -2 -5 7511.02 357.501 15
10 2 -5 6657.61 375.013 14
10 -2 -4 8386.65 414.265 6
10 2 -4 6308.34 409.804 13
10 -2 -4 8969.62 420.639 13
10 -2 -4 8476.04 460.552 26
10 2 -4 6306.99 435.119 26
10 2 -4 7422.72 416.248 21
-10 2 4 10560.3 495.760 35
10 2 -4 7534.99 419.720 15
10 -2 -4 8476.93 406.580 15
10 2 -4 7189.61 406.814 14
10 2 -3 1456.16 191.734 14
10 -2 -3 1920.28 203.787 13
10 2 -3 1421.28 199.091 13
10 -2 -3 1747.54 227.806 26
10 2 -3 1047.25 217.692 26
-10 2 3 2011.84 253.186 39
10 2 -3 1680.06 228.799 21
-10 2 3 2112.22 252.162 35
10 2 -3 1532.33 214.080 15
10 -2 -3 1720.73 201.939 15
10 -2 -2 3742.54 263.614 6
10 2 -2 3068.85 259.825 13
10 -2 -2 3920.45 269.103 13
10 -2 -2 3918.58 319.730 26
-10 2 2 4144.38 328.055 39
10 2 -2 3323.12 287.478 21
-10 2 2 4009.13 313.014 35
10 2 -2 3600.42 269.098 15
10 -2 -2 3719.26 271.732 15
10 -2 -1 12556.0 521.215 6
10 2 -1 10206.5 505.220 13
10 -2 -1 11001.2 514.039 13
10 -2 -1 10844.8 558.001 26
10 2 -1 9234.80 547.183 26
10 2 -1 11010.0 537.645 21
-10 2 1 11724.7 561.958 35
10 2 -1 9952.94 528.276 16
10 2 -1 11350.2 502.544 15
10 -2 -1 11502.6 529.734 15
10 -2 0 2173.80 193.464 6
10 2 0 1909.80 197.335 13
10 -2 0 2088.18 200.084 13
10 -2 0 2245.50 241.501 26
10 2 0 1918.08 238.148 26
-10 2 0 2068.49 240.920 39
10 -2 0 2157.20 197.279 21
10 2 0 2135.79 248.638 21
-10 2 0 1922.30 226.550 35
10 2 0 1875.48 233.853 16
10 -2 0 2242.89 224.448 15
10 -2 1 9641.34 425.201 6
10 2 1 9753.16 444.842 13
10 -2 1 9291.00 438.337 13
10 -2 1 8288.79 472.872 26
10 2 1 8035.27 479.387 26
-10 2 -1 9773.40 489.585 39
10 -2 1 10583.6 446.348 21
10 -2 1 8380.81 452.775 36
-10 2 -1 10192.0 480.367 35
10 2 1 9049.47 454.359 16
10 2 2 597.118 133.745 13
10 -2 2 690.273 133.889 13
10 -2 2 -16.2586 57.0210 6
-10 2 -2 568.412 161.549 39
10 2 2 767.398 179.653 21
10 -2 2 719.203 142.917 21
10 -2 2 616.237 131.591 36
-10 2 -2 631.401 149.137 35
10 2 2 704.383 161.340 16
10 -2 2 568.030 150.932 15
10 2 3 894.592 133.745 13
10 -2 3 1087.12 131.032 13
-10 2 -3 1250.95 169.846 39
10 2 3 1135.95 168.403 21
10 -2 3 1208.97 151.197 21
10 -2 3 824.262 138.200 36
10 2 3 1099.68 148.762 16
10 -2 3 1005.02 147.683 15
10 2 4 6180.73 214.204 21
10 -2 4 6309.69 207.880 21
10 -2 4 5652.92 194.647 15
10 -2 5 241.903 86.2726 21
10 -3 -8 1835.30 135.162 14
10 3 -8 2183.20 178.320 14
10 -3 -7 2568.30 177.683 14
10 3 -7 2955.54 216.856 14
10 -3 -6 3087.29 205.070 6
10 -3 -6 3283.58 206.268 14
-10 3 6 2358.33 208.268 41
-10 3 6 3603.50 250.709 35
10 3 -6 2820.69 225.584 15
10 3 -6 3109.98 227.796 14
10 -3 -5 15148.3 586.503 6
10 -3 -5 12940.2 571.750 37
-10 3 5 16292.2 639.504 35
10 3 -5 12955.3 582.954 15
10 3 -5 13505.4 579.128 14
10 -3 -4 8464.74 289.090 6
-10 3 4 8135.57 317.865 39
10 3 -4 8341.27 315.515 21
-10 3 4 8768.70 345.035 35
10 -3 -4 6953.95 239.709 15
10 -3 -3 954.397 148.653 6
-10 3 3 1044.20 169.574 39
10 3 -3 1094.82 192.423 21
10 -3 -3 873.167 144.807 15
-10 3 2 457.081 156.056 39
10 3 -2 624.806 179.613 21
-10 3 2 316.081 153.687 35
-10 3 2 427.358 94.4936 8
10 -3 -2 335.349 130.647 15
10 -3 -1 18022.1 709.765 6
-10 3 1 16643.9 737.660 39
-10 3 1 18523.5 688.451 8
-10 3 1 17736.1 749.762 35
10 -3 -1 17234.4 704.075 15
10 -3 0 10923.6 450.391 6
-10 3 0 10276.2 487.579 39
-10 3 0 10665.8 434.483 8
-10 3 0 9718.89 485.679 35
10 3 0 10007.4 475.058 16
10 -3 0 10150.2 452.810 15
10 -3 1 4085.65 217.859 6
10 3 1 4545.59 261.610 21
10 -3 1 3438.65 202.021 21
-10 3 -1 3387.69 204.792 8
-10 3 -1 3787.85 254.443 35
10 3 1 4036.59 256.185 16
10 -3 1 3842.24 232.144 15
10 3 2 3058.83 194.233 21
10 -3 2 2402.60 153.874 21
-10 3 -2 2031.68 140.417 8
10 3 2 2720.58 193.948 16
10 -3 2 2738.98 176.591 15
10 3 3 3095.55 173.874 21
10 -3 3 3108.28 165.825 21
10 3 3 3248.05 185.740 16
10 -4 -5 2291.12 133.813 6
10 -4 -5 2043.46 136.473 14
10 -4 -4 4549.24 220.677 6
10 -4 -3 6374.00 279.775 6
-10 4 3 5970.01 257.683 8
10 -4 -2 2294.03 147.276 6
-10 4 2 1898.67 124.535 8
-10 4 1 1029.63 91.0848 8
10 -4 0 5888.98 256.280 6
11 0 -10 516.307 94.9457 14
11 0 -9 740.362 131.114 14
11 0 -9 826.310 125.866 15
11 0 -8 -9.47221 125.881 14
11 0 -8 22.9817 115.328 26
11 0 -8 -4.64638 125.222 15
11 0 -7 -34.5509 132.676 26
-11 0 7 -7.18980 119.668 41
11 0 -7 -37.9673 136.095 15
11 0 -6 3675.34 253.995 14
11 0 -6 3269.59 288.045 26
11 0 -6 3628.79 258.815 15
11 0 -5 6620.70 349.096 14
11 0 -5 5886.87 360.420 13
11 0 -5 6961.73 405.386 26
11 0 -5 6501.14 358.115 15
11 0 -4 20157.6 814.213 14
11 0 -4 20724.6 851.730 13
11 0 -4 21422.1 896.637 26
11 0 -3 3041.20 228.963 14
11 0 -3 4055.98 270.758 13
11 0 -3 4128.62 296.730 26
11 0 -3 2903.09 224.875 21
-11 0 3 3501.98 257.858 35
11 0 -3 3312.84 258.414 15
11 0 -2 1672.99 167.166 14
11 0 -2 1766.80 200.586 13
11 0 -2 1340.65 218.708 26
11 0 -2 1430.56 179.120 21
11 0 -2 1663.29 203.057 15
11 0 -1 1286.14 190.142 13
11 0 -1 1193.39 209.532 26
-11 0 1 2076.28 222.967 39
11 0 -1 1663.98 189.398 21
11 0 -1 1696.08 196.755 15
11 0 0 5554.85 341.245 13
11 0 0 5537.86 382.183 26
-11 0 0 7440.37 387.949 39
11 0 0 7194.87 350.544 21
11 0 0 7141.78 345.320 15
11 0 1 5375.40 309.537 13
11 0 1 4826.89 341.595 26
11 0 1 6281.75 316.760 21
11 0 1 5925.89 291.442 15
11 0 2 171.543 110.560 13
11 0 2 153.876 125.718 26
11 0 2 200.578 127.399 21
11 0 3 7172.24 330.160 13
11 0 4 12122.2 473.335 13
11 1 -10 889.199 101.426 14
11 -1 -9 4088.43 219.176 14
11 1 -9 4062.26 229.512 15
11 1 -9 4011.32 231.304 14
11 1 -8 4942.93 287.860 15
11 -1 -8 5053.09 270.695 15
11 -1 -7 27019.9 944.843 14
11 -1 -7 22352.9 973.017 26
11 1 -7 21994.4 970.757 26
11 1 -7 23814.9 947.625 15
11 -1 -7 27128.0 939.816 15
11 -1 -6 15866.3 698.157 26
11 -1 -6 17179.9 652.383 15
11 1 -6 16203.2 657.995 14
11 -1 -5 3700.11 243.073 14
11 -1 -5 3371.12 274.611 26
11 1 -5 2684.65 262.336 26
11 1 -5 3343.84 253.906 15
11 -1 -5 3670.30 245.182 15
11 1 -5 3495.15 250.672 14
11 -1 -4 7072.67 337.640 14
11 1 -4 5286.21 354.584 13
11 -1 -4 7105.08 351.999 13
11 -1 -4 7316.03 393.537 26
11 1 -4 5400.39 380.476 26
11 1 -4 4391.24 305.518 21
-11 1 4 8889.35 396.552 35
11 1 -4 6170.29 350.325 15
11 -1 -4 7262.09 345.585 15
11 1 -4 5867.27 330.768 14
11 -1 -3 2660.61 203.528 14
11 1 -3 2051.32 216.156 13
11 -1 -3 3243.09 228.145 13
11 -1 -3 2543.63 241.927 26
11 1 -3 2072.01 243.049 26
11 1 -3 1706.87 200.654 21
-11 1 3 3125.55 242.620 35
11 1 -3 2137.99 217.451 15
11 -1 -3 2668.71 215.861 15
11 -1 -3 2249.81 205.167 6
11 1 -3 1956.04 188.881 14
11 -1 -2 6553.06 329.360 14
11 1 -2 5760.06 355.219 13
11 -1 -2 6875.02 365.438 13
11 -1 -2 6153.88 395.349 26
11 1 -2 5183.35 386.760 26
-11 1 2 9349.46 425.629 39
11 1 -2 5894.44 348.887 21
-11 1 2 8289.46 390.929 35
11 1 -2 6622.95 358.282 15
11 -1 -2 7096.53 347.397 6
11 1 -1 1127.98 168.331 13
11 -1 -1 1110.72 164.954 13
11 -1 -1 1090.32 185.581 26
11 1 -1 1054.28 186.361 26
-11 1 1 1744.39 207.609 39
11 1 -1 1143.66 180.374 21
11 -1 -1 1246.26 155.770 21
-11 1 1 1264.21 169.713 35
11 1 -1 1291.54 172.351 15
11 1 0 48.5422 121.814 13
11 -1 0 24.0630 120.571 13
11 -1 0 76.6463 137.277 26
11 1 0 190.907 146.158 26
-11 1 0 88.4041 129.478 39
11 1 0 44.7013 146.423 21
11 -1 0 87.3785 121.675 21
11 1 0 15.8848 71.4421 15
11 -1 0 77.6402 130.024 15
11 1 1 988.625 146.457 13
11 -1 1 1138.79 147.066 13
11 -1 1 846.256 157.657 26
11 1 1 878.694 167.095 26
-11 1 -1 1191.39 166.185 39
11 1 1 1206.52 168.120 21
11 -1 1 1167.43 148.824 21
11 -1 1 925.104 142.491 15
11 1 2 10318.4 457.316 13
11 -1 2 10796.7 460.786 13
11 -1 2 11920.8 463.083 21
11 -1 2 10614.7 442.303 15
11 1 3 7485.05 339.283 13
11 -1 3 7796.67 341.279 13
11 1 3 8203.33 347.638 21
11 -1 3 8385.24 342.304 21
11 -2 -8 15351.1 586.800 14
11 2 -8 15876.3 605.162 14
11 -2 -7 1767.79 148.470 14
11 2 -7 1516.35 165.524 15
11 2 -7 1580.26 159.873 14
11 2 -6 5360.75 299.761 15
11 -2 -6 5362.61 266.891 15
11 2 -6 5279.77 287.482 14
-11 2 5 11831.5 482.628 35
11 2 -5 8267.62 425.419 15
11 -2 -5 10406.1 414.016 15
11 2 -5 8087.17 408.682 14
11 -2 -5 10507.1 436.192 6
11 -2 -4 6618.86 308.207 14
-11 2 4 7377.39 361.994 39
11 2 -4 4734.23 296.716 21
-11 2 4 7342.15 356.687 35
11 2 -4 4787.01 302.271 15
11 -2 -4 6565.86 305.718 15
11 -2 -3 3536.71 229.754 6
11 -2 -3 3907.23 229.518 14
-11 2 3 4599.43 279.847 39
11 2 -3 3246.97 236.391 21
-11 2 3 3988.58 268.644 35
11 2 -3 2688.93 217.192 15
11 -2 -3 3798.17 232.482 15
11 -2 -2 4728.90 253.055 6
11 -2 -2 4494.88 238.700 14
11 -2 -2 4133.79 244.873 13
-11 2 2 5032.04 299.527 39
11 2 -2 4346.23 265.529 21
-11 2 2 4899.53 286.332 35
11 -2 -2 4635.41 256.751 15
11 -2 -1 8121.04 269.189 6
11 -2 -1 7146.48 241.096 14
11 2 -1 7522.69 292.435 21
-11 2 1 7464.27 304.782 35
11 -2 -1 7570.46 281.862 15
11 -2 0 1433.07 118.980 6
11 -2 0 1275.46 120.863 13
-11 2 0 1405.75 159.572 39
11 -2 0 1201.85 117.281 21
11 2 0 1528.66 162.943 21
11 -2 1 605.468 90.4080 13
11 -2 1 672.327 104.882 21
11 2 2 454.633 108.431 21
11 -2 2 508.854 87.6079 21
11 -2 2 536.770 95.1109 15
11 -3 -6 128.798 68.1266 14
11 -3 -5 11162.2 436.689 14
11 -3 -4 10319.6 420.511 6
11 -3 -3 12974.7 500.636 14
11 -3 -2 13130.1 480.362 6
11 -3 -2 12847.9 467.560 14
11 -3 -1 932.490 96.5247 6
11 -3 -1 802.164 97.5961 15
11 -3 0 818.903 87.8794 15
12 0 -7 796.974 103.180 15
12 0 -6 2097.55 156.884 15
12 0 -6 2111.89 148.319 14
12 0 -5 72.0759 97.2089 14
12 0 -4 1890.64 134.204 14
12 0 -3 4695.47 241.143 13
12 0 -3 4136.00 230.285 15
12 0 -2 5283.49 266.998 13
12 0 -2 5270.53 255.032 15
12 0 -1 2974.88 185.317 13
12 0 -1 3224.14 178.337 15
12 0 0 18554.3 695.026 13
12 1 -6 1366.59 131.061 15
12 -1 -6 1853.58 124.676 15
12 -1 -5 39.3177 83.6487 14
12 1 -5 25.6515 96.9150 15
12 -1 -5 100.656 90.4383 15
12 -1 -4 1531.84 118.799 14
12 1 -4 1204.02 131.897 15
12 -1 -4 1646.32 134.272 15
12 1 -3 2794.61 182.011 15
12 -1 -3 3848.61 193.691 15
12 -1 -2 2554.38 156.420 13
12 1 -2 1810.30 136.974 21
12 1 -1 3340.16 185.428 13
12 -1 -1 3794.00 190.444 13
12 1 -1 3464.09 187.196 21
12 -1 -1 4029.15 195.956 15
