#------------------------------------------------------------------------------
#$Date: 2019-10-31 01:42:17 +0200 (Thu, 31 Oct 2019) $
#$Revision: 220553 $
#$URL: file:///home/coder/svn-repositories/cod/cif/4/12/73/4127325.cif $
#------------------------------------------------------------------------------
#
# This file is available in the Crystallography Open Database (COD),
# http://www.crystallography.net/
#
# All data on this site have been placed in the public domain by the
# contributors.
#
data_4127325
loop_
_publ_author_name
'Reiers\/olmoen, Ann Christin'
'Cs\'ok\'as, D\'aniel'
'P\'apai, Imre'
'Fiksdahl, Anne'
'Erd\'elyi, M\'at\'e'
_publ_section_title
;
 Mechanism of Au(III)-Mediated Alkoxycyclization of a 1,6-Enyne.
;
_journal_name_full               'Journal of the American Chemical Society'
_journal_paper_doi               10.1021/jacs.9b09108
_journal_year                    2019
_chemical_absolute_configuration 'not measured'
_chemical_formula_sum            'C12 H15 Au B Br2 F4 N2 O3'
_chemical_formula_weight         678.86
_space_group_crystal_system      monoclinic
_space_group_IT_number           4
_space_group_name_Hall           'P 2yb'
_space_group_name_H-M_alt        'P 1 21 1'
_symmetry_space_group_name_Hall  'P 2yb'
_symmetry_space_group_name_H-M   'P 1 21 1'
_atom_sites_solution_hydrogens   geom
_audit_creation_method           SHELXL-2017/1
_audit_update_record
;
2019-07-05 deposited with the CCDC.    2019-07-16 downloaded from the CCDC.
;
_cell_angle_alpha                90
_cell_angle_beta                 102.663(2)
_cell_angle_gamma                90
_cell_formula_units_Z            2
_cell_length_a                   7.6982(7)
_cell_length_b                   9.3376(8)
_cell_length_c                   15.6254(14)
_cell_measurement_reflns_used    5759
_cell_measurement_temperature    296(2)
_cell_measurement_theta_max      24.07
_cell_measurement_theta_min      2.56
_cell_volume                     1095.88(17)
_computing_cell_refinement       'Apex 3 (Bruker AXS, 2018)'
_computing_data_collection       'Apex 3 (Bruker AXS, 2018)'
_computing_data_reduction        'Saint (Bruker AXS, 2018)'
_computing_molecular_graphics    'Olex 2 (Dolomanov, 2009)'
_computing_publication_material  'Olex 2 (Dolomanov, 2009)'
_computing_structure_refinement  'SHELXL-2017/1 (Sheldrick, 2017)'
_computing_structure_solution    'SHELXT 2014/5 (Sheldrick, 2014)'
_diffrn_ambient_temperature      296(2)
_diffrn_detector                 'Bruker Photon 100 area detector'
_diffrn_detector_area_resol_mean 10.42
_diffrn_detector_type            'CMOS area detector'
_diffrn_measured_fraction_theta_full 0.993
_diffrn_measured_fraction_theta_max 0.993
_diffrn_measurement_device       'three-circle diffractometer'
_diffrn_measurement_device_type  'Bruker Photon 100 area detector'
_diffrn_measurement_method       '\w and \f shutterless scans'
_diffrn_radiation_monochromator  'mirror optics'
_diffrn_radiation_probe          x-ray
_diffrn_radiation_type           MoK\a
_diffrn_radiation_wavelength     0.71073
_diffrn_reflns_av_R_equivalents  0.0614
_diffrn_reflns_av_unetI/netI     0.0727
_diffrn_reflns_Laue_measured_fraction_full 0.993
_diffrn_reflns_Laue_measured_fraction_max 0.993
_diffrn_reflns_limit_h_max       9
_diffrn_reflns_limit_h_min       -9
_diffrn_reflns_limit_k_max       10
_diffrn_reflns_limit_k_min       -10
_diffrn_reflns_limit_l_max       18
_diffrn_reflns_limit_l_min       -18
_diffrn_reflns_number            10589
_diffrn_reflns_point_group_measured_fraction_full 0.994
_diffrn_reflns_point_group_measured_fraction_max 0.994
_diffrn_reflns_theta_full        24.823
_diffrn_reflns_theta_max         24.823
_diffrn_reflns_theta_min         2.558
_diffrn_source                   'microfocus sealed X-ray tube'
_diffrn_source_type              'Incoatec I\ms'
_exptl_absorpt_coefficient_mu    10.402
_exptl_absorpt_correction_T_max  0.7451
_exptl_absorpt_correction_T_min  0.2788
_exptl_absorpt_correction_type   multi-scan
_exptl_absorpt_process_details   'SADABS (Sheldrick, 1996)'
_exptl_crystal_colour            orange
_exptl_crystal_density_diffrn    2.057
_exptl_crystal_description       needle
_exptl_crystal_F_000             630
_exptl_crystal_size_max          0.950
_exptl_crystal_size_mid          0.200
_exptl_crystal_size_min          0.100
_refine_diff_density_max         1.475
_refine_diff_density_min         -1.138
_refine_diff_density_rms         0.195
_refine_ls_abs_structure_details
;
 Refined as an inversion twin.
;
_refine_ls_abs_structure_Flack   0.07(3)
_refine_ls_extinction_method     none
_refine_ls_goodness_of_fit_ref   1.050
_refine_ls_hydrogen_treatment    constr
_refine_ls_matrix_type           full
_refine_ls_number_parameters     230
_refine_ls_number_reflns         3731
_refine_ls_number_restraints     1
_refine_ls_restrained_S_all      1.050
_refine_ls_R_factor_all          0.0564
_refine_ls_R_factor_gt           0.0448
_refine_ls_shift/su_max          0.001
_refine_ls_shift/su_mean         0.000
_refine_ls_structure_factor_coef Fsqd
_refine_ls_weighting_details
'w=1/[\s^2^(Fo^2^)+(0.0648P)^2^] where P=(Fo^2^+2Fc^2^)/3'
_refine_ls_weighting_scheme      calc
_refine_ls_wR_factor_gt          0.1135
_refine_ls_wR_factor_ref         0.1198
_reflns_Friedel_coverage         0.873
_reflns_Friedel_fraction_full    0.994
_reflns_Friedel_fraction_max     0.994
_reflns_number_gt                3185
_reflns_number_total             3731
_reflns_threshold_expression     'I > 2\s(I)'
_cod_data_source_file            ja9b09108_si_002.cif
_cod_data_source_block           test_c
_cod_database_code               4127325
_shelx_shelxl_version_number     2017/1
_shelx_space_group_comment
;
The symmetry employed for this shelxl refinement is uniquely defined
by the following loop, which should always be used as a source of
symmetry information in preference to the above space-group names.
They are only intended as comments.
;
_shelx_estimated_absorpt_t_min   0.036
_shelx_estimated_absorpt_t_max   0.423
_shelx_res_file
;
TITL test_c.res in P2(1)
    test_c.res
    created by SHELXL-2017/1 at 09:21:52 on 23-May-2019
REM Old TITL test in P2(1)
REM SHELXT solution in P2(1)
REM R1 0.122, Rweak 0.041, Alpha 0.104, Orientation as input
REM Flack x = 0.165 ( 0.014 ) from Parsons' quotients
REM Formula found by SHELXT: C10 Au B Br2 F N4 O
CELL 0.71073 7.6982 9.3376 15.6254 90 102.663 90
ZERR 2 0.0007 0.0008 0.0014 0 0.002 0
LATT -1
SYMM -X,0.5+Y,-Z
SFAC C H Au B Br F N O
UNIT 24 30 2 2 4 8 4 6

L.S. 10
PLAN  20
SIZE 0.1 0.2 0.95
TEMP 23.41
LIST 4
MORE -1
CONF
fmap 2
acta 52
TWIN -1 0 0 0 -1 0 0 0 -1 2
REM <olex2.extras>
REM <HklSrc "%.\\test_c.hkl">
REM </olex2.extras>

WGHT    0.064800
BASF   0.07225
FVAR       0.41241
AU1   3    0.390383    0.837709    0.688788    11.00000    0.04781    0.04138 =
         0.06598   -0.00835    0.01800   -0.00858
BR1   5    0.337517    1.077532    0.639479    11.00000    0.10062    0.04002 =
         0.12922   -0.00384    0.03323   -0.00356
BR2   5    0.518384    0.928667    0.829875    11.00000    0.11165    0.09443 =
         0.08919   -0.03836    0.00975   -0.02735
O1    8    0.483718    0.421365    0.656564    11.00000    0.07046    0.04696 =
         0.07999    0.00455    0.02688    0.00138
N2    7    0.439080    0.626983    0.717034    11.00000    0.04233    0.03651 =
         0.06287   -0.00696    0.01452   -0.00982
N1    7    0.296543    0.747101    0.566476    11.00000    0.05824    0.02966 =
         0.06761    0.00138    0.03080   -0.00342
C5    1    0.335533    0.608203    0.563167    11.00000    0.04558    0.04638 =
         0.05849    0.00932    0.01305   -0.00433
C7    1    0.582731    0.408767    0.749258    11.00000    0.05995    0.06510 =
         0.08190    0.02002    0.00435    0.02648
AFIX  43
H7    2    0.665064    0.339072    0.773691    11.00000   -1.20000
AFIX   0
C8    1    0.520409    0.532699    0.794040    11.00000    0.05408    0.08389 =
         0.06517    0.02059    0.00090   -0.01748
AFIX  13
H8    2    0.622345    0.581288    0.831309    11.00000   -1.20000
AFIX   0
C1    1    0.202502    0.816927    0.492836    11.00000    0.06138    0.06437 =
         0.07889    0.02145    0.01701    0.01894
AFIX  43
H1    2    0.172274    0.913129    0.494692    11.00000   -1.20000
AFIX   0
C6    1    0.421008    0.549217    0.648914    11.00000    0.03992    0.03849 =
         0.06415    0.00438    0.02623    0.00852
C9    1    0.375276    0.491463    0.851160    11.00000    0.07674    0.09041 =
         0.05933    0.02857    0.01483    0.01260
C3    1    0.192771    0.595284    0.415011    11.00000    0.12079    0.09064 =
         0.04534   -0.00828    0.01205   -0.02625
AFIX  43
H3    2    0.156406    0.542867    0.363589    11.00000   -1.20000
AFIX   0
C12   1    0.224406    0.407153    0.795265    11.00000    0.09596    0.07549 =
         0.09287    0.01159    0.02713   -0.00743
AFIX 137
H12A  2    0.160781    0.466968    0.748876    11.00000   -1.50000
H12B  2    0.144914    0.375262    0.830854    11.00000   -1.50000
H12C  2    0.271746    0.325706    0.770581    11.00000   -1.50000
AFIX   0
C2    1    0.155716    0.739521    0.417387    11.00000    0.08932    0.08000 =
         0.04081    0.00680    0.01166   -0.00995
AFIX  43
H2    2    0.097334    0.785091    0.366212    11.00000   -1.20000
AFIX   0
C4    1    0.283825    0.531580    0.489739    11.00000    0.07918    0.05743 =
         0.06642   -0.01907    0.02792   -0.02860
AFIX  43
H4    2    0.310196    0.434384    0.489748    11.00000   -1.20000
AFIX   0
B1    4    0.868325    0.692136    0.649327    11.00000    0.05804    0.04306 =
         0.12328    0.02223    0.02363    0.00066
C11   1    0.291106    0.617963    0.885052    11.00000    0.16585    0.09669 =
         0.07436   -0.02948    0.05561   -0.01532
AFIX 137
H11A  2    0.382389    0.680713    0.915961    11.00000   -1.50000
H11B  2    0.218889    0.585738    0.924143    11.00000   -1.50000
H11C  2    0.218122    0.668469    0.836760    11.00000   -1.50000
AFIX   0
F1    6    0.983283    0.803215    0.664738    11.00000    0.09450    0.10594 =
         0.22120   -0.01992    0.03896   -0.03093
F3    6    0.715675    0.726870    0.601278    11.00000    0.05454    0.15171 =
         0.18083    0.08075    0.01660   -0.00609
F4    6    0.942729    0.581742    0.618576    11.00000    0.25264    0.11839 =
         0.18485   -0.07810   -0.05155    0.07926
F6    6    0.849612    0.640283    0.727943    11.00000    0.10003    0.32734 =
         0.17027    0.10588    0.03431   -0.00679
C10   1    0.460287    0.393157    0.928218    11.00000    0.30272    0.16915 =
         0.05863    0.04649   -0.04608   -0.02595
AFIX 137
H10A  2    0.469181    0.297589    0.906934    11.00000   -1.50000
H10B  2    0.387639    0.392703    0.970920    11.00000   -1.50000
H10C  2    0.576995    0.427942    0.954799    11.00000   -1.50000
AFIX   0

O3    8    0.002667    0.895399    0.975733    11.00000    0.08531    0.23939 =
         0.08509    0.05938    0.04140    0.06866
O2    8   -0.044160    0.120299    0.841883    11.00000    0.17629    0.07422 =
         0.16975   -0.00591    0.05925   -0.07946
HKLF 4




REM  test_c.res in P2(1)
REM R1 =  0.0448 for    3185 Fo > 4sig(Fo)  and  0.0564 for all    3731 data
REM    230 parameters refined using      1 restraints

END

WGHT      0.0648      0.0000

REM Highest difference peak  1.475,  deepest hole -1.138,  1-sigma level  0.195
Q1    1   0.0091 -0.0474  0.8638  11.00000  0.05    1.48
Q2    1   0.0062  0.7402  0.8642  11.00000  0.05    1.01
Q3    1   0.0063  0.8402  0.9590  11.00000  0.05    1.01
Q4    1   0.4307  0.8060  0.6354  11.00000  0.05    0.78
Q5    1   0.4072  0.9591  0.6958  11.00000  0.05    0.78
Q6    1   0.0474  0.8448  1.0135  11.00000  0.05    0.76
Q7    1   0.5921  0.9478  0.7814  11.00000  0.05    0.75
Q8    1   0.4686  0.8949  0.7038  11.00000  0.05    0.69
Q9    1  -0.0065  0.1059  0.9186  11.00000  0.05    0.69
Q10   1   0.3624  0.7187  0.6865  11.00000  0.05    0.67
Q11   1   0.0624  0.7409  0.9564  11.00000  0.05    0.63
Q12   1   0.5049  0.6130  0.5817  11.00000  0.05    0.63
Q13   1   0.4666  0.7678  0.7053  11.00000  0.05    0.56
Q14   1   0.3537  0.7735  0.7511  11.00000  0.05    0.56
Q15   1   0.4924  0.3118  0.5249  11.00000  0.05    0.55
Q16   1   0.5066  0.6693  0.6003  11.00000  0.05    0.55
Q17   1   0.5654  0.2341  0.6381  11.00000  0.05    0.54
Q18   1   0.3664  0.9032  0.7529  11.00000  0.05    0.54
Q19   1   0.4063  0.3184  0.5542  11.00000  0.05    0.53
Q20   1  -0.0649  0.8280  0.4951  11.00000  0.05    0.53
;
_shelx_res_checksum              55281
_shelx_hkl_file
;
  -2   0   0 1540.25  128.29
   2   0   0 1510.95  128.29
   2   0   0 1431.16  128.29
  -2   0   0 1557.04  128.29
   3   0   0  922.31   77.09
  -3   0   0  891.41   77.19
  -3   0   0  842.22   77.09
   3   0   0  954.80   77.69
   4   0   0  623.24   52.09
   4   0   0  588.64   52.89
  -4   0   0  576.34   52.19
  -4   0   0  622.44   52.19
   5   0   0  445.56   37.80
  -5   0   0  364.86   38.10
  -5   0   0  480.95   37.90
   5   0   0  390.46   38.80
  -6   0   0   12.40    8.40
   6   0   0   10.80    7.10
  -6   0   0   17.60    6.90
   6   0   0    6.60   11.70
  -7   0   0   11.30    8.60
   7   0   0   -2.10   14.60
  -7   0   0   12.30   11.70
  -8   0   0   66.69   17.10
  -8   0   0   71.69   13.60
   8   0   0   76.39   19.60
   0  -1   0   -0.20    0.20
   0   1   0    0.50    1.00
   1  -1   0 1374.96  107.89
  -1  -1   0 1353.26  107.59
  -1  -1   0 1337.27  107.49
   1  -1   0 1288.57  107.69
  -1  -1   0 1220.18  107.49
   1   1   0 1192.98  107.49
  -1   1   0 1244.38  107.39
  -1   1   0 1358.16  107.89
  -1   1   0 1104.79  107.59
   1   1   0 1190.18  107.49
  -2  -1   0 2514.45  200.58
  -2  -1   0 2456.45  200.58
   2  -1   0 2583.04  201.08
   2  -1   0 2146.79  200.58
  -2  -1   0 2325.97  201.08
   2  -1   0 2552.04  200.38
  -2  -1   0 2004.80  200.58
   2   1   0 2551.34  200.88
  -2   1   0 2328.77  200.38
  -2   1   0 2269.47  200.38
   2   1   0 2248.97  200.48
  -3  -1   0 1363.16  119.39
  -3  -1   0 1412.66  118.39
  -3  -1   0 1380.46  118.09
   3  -1   0 1444.86  119.09
   3  -1   0 1232.98  118.29
   3  -1   0 1379.96  118.19
  -3   1   0 1526.35  118.29
  -3   1   0 1451.85  118.19
  -3   1   0 1310.07  118.39
   4  -1   0  373.46   32.90
   4  -1   0  380.56   33.50
  -4  -1   0  369.96   32.50
  -4  -1   0  328.97   31.70
   4   1   0  408.56   33.30
  -4   1   0  345.17   32.20
   5  -1   0  289.17   26.30
   5  -1   0  262.97   27.90
  -5  -1   0  291.57   26.50
  -5   1   0  299.07   26.00
   6  -1   0  451.55   46.20
   6  -1   0  556.14   45.00
  -6  -1   0  452.95   44.90
   6   1   0  537.65   47.10
  -6   1   0  497.05   44.40
  -7  -1   0  257.67   32.40
   7  -1   0  279.27   33.80
  -7  -1   0  333.97   32.00
   7  -1   0  351.56   31.30
   7   1   0  324.57   33.60
  -7   1   0  360.66   32.20
  -7   1   0  379.96   33.30
   8  -1   0   43.50   13.70
  -8  -1   0   80.29   14.20
   8  -1   0   78.39   17.30
   8   1   0   87.09   19.90
  -8   1   0   51.99   17.50
  -8   1   0  101.79   14.90
   0  -2   0 1596.44  142.49
   0  -2   0 1361.46  141.69
   0   2   0 1792.72  141.79
   0   2   0 1859.01  142.69
   0   2   0 1748.13  142.09
   1  -2   0 3036.10  235.68
  -1  -2   0 2593.54  234.88
  -1  -2   0 2525.35  235.68
  -1  -2   0 2381.16  234.88
   1   2   0 3014.30  234.98
  -1   2   0 3021.80  235.68
  -1   2   0 2809.92  235.18
   1   2   0 2417.86  235.68
   1   2   0 3019.20  234.88
  -1   2   0 2861.41  235.38
   2  -2   0 1555.94  135.99
   2  -2   0 1527.35  135.59
   2  -2   0 1591.84  134.99
  -2  -2   0 1554.04  135.29
  -2  -2   0 1437.06  135.09
  -2  -2   0 1572.34  135.29
  -2   2   0 1803.92  135.19
   2   2   0 1758.42  135.39
  -2   2   0 1499.75  135.49
   2   2   0 1606.04  135.89
  -3  -2   0  137.49   13.40
   3  -2   0  141.89   15.70
  -3  -2   0  161.78   12.80
   3  -2   0  151.88   13.60
  -3   2   0  115.69   12.50
   3   2   0  132.29   13.30
   4  -2   0  461.45   41.80
  -4  -2   0  450.35   41.20
  -4  -2   0  479.35   39.90
   4  -2   0  443.26   41.50
  -4  -2   0  488.55   40.10
   4  -2   0  469.55   40.60
   4   2   0  424.06   41.50
   5  -2   0  838.12   82.89
  -5  -2   0  957.70   82.09
  -5  -2   0 1026.30   81.69
   5  -2   0  969.90   81.89
  -5  -2   0  824.72   80.99
  -5   2   0  954.20   81.49
   5   2   0 1081.99   84.39
   6  -2   0  247.68   23.40
  -6  -2   0  233.28   23.90
  -6  -2   0  253.97   23.20
   6  -2   0  210.68   26.00
   6   2   0  252.07   25.60
  -6   2   0  199.28   22.30
  -7  -2   0   36.70    9.80
  -7  -2   0   21.40   10.20
   7  -2   0   31.40    9.60
   7  -2   0   31.50   13.90
   7   2   0   42.50   15.90
  -7   2   0   29.00    9.70
  -8  -2   0  107.69   16.50
   8  -2   0  110.69   18.70
   8  -2   0   99.79   20.20
  -8   2   0   92.39   14.40
   8   2   0  110.49   21.90
  -8   2   0  144.09   24.30
   0  -3   0   -0.10    1.40
   0  -3   0    1.30    2.50
   0  -3   0    6.20    4.00
   0   3   0   -0.60    1.30
   0   3   0   -2.00    2.40
  -1  -3   0 1274.17  105.39
   1  -3   0 1186.78  105.79
  -1  -3   0 1377.06  107.09
   1  -3   0 1421.36  106.79
  -1   3   0 1038.60  105.69
  -1   3   0 1316.97  104.99
   1   3   0 1246.58  105.59
  -1   3   0 1058.29  105.89
   1   3   0 1267.97  105.39
  -1   3   0 1231.68  106.49
   1   3   0 1206.48  107.09
   2  -3   0 1921.81  166.48
  -2  -3   0 1836.22  165.98
   2  -3   0 2098.69  165.58
  -2  -3   0 1961.50  166.08
   2  -3   0 1804.62  166.98
  -2   3   0 2074.19  167.38
   2   3   0 2158.18  166.08
   2   3   0 1751.72  167.08
   3  -3   0  863.01   78.49
  -3  -3   0  921.91   77.39
  -3  -3   0  845.72   76.89
   3  -3   0  853.61   77.69
   3  -3   0  932.91   76.59
   3   3   0  870.11   78.19
   3   3   0  966.10   77.19
  -3   3   0  955.70   76.69
  -3   3   0  901.81   76.69
  -3   3   0  882.21   78.69
   4  -3   0  281.37   25.20
  -4  -3   0  247.88   24.10
   4  -3   0  229.28   26.00
  -4  -3   0  248.98   24.80
  -4  -3   0  233.28   23.00
   4  -3   0  256.07   22.70
   4   3   0  307.67   25.30
  -4   3   0  258.17   22.80
  -4   3   0  277.37   26.90
  -4   3   0  258.07   22.80
  -5  -3   0   95.29   13.90
   5  -3   0   96.59   17.20
  -5  -3   0  109.49   11.50
   5  -3   0  114.59   14.70
  -5  -3   0  128.69   12.00
   5   3   0  123.29   18.50
  -5   3   0   99.49   18.20
  -5   3   0  106.49   11.70
  -6  -3   0  292.47   29.50
   6  -3   0  332.57   31.20
   6  -3   0  244.58   31.80
  -6  -3   0  289.57   27.60
  -6   3   0  300.17   27.90
   6   3   0  349.37   31.40
  -6   3   0  326.37   33.70
  -7  -3   0  292.87   31.10
   7  -3   0  240.68   33.60
   7  -3   0  333.07   33.20
  -7   3   0  326.87   36.20
  -7   3   0  304.37   30.30
   7   3   0  339.27   32.90
   8  -3   0   61.89   18.70
   8  -3   0   58.29   13.80
  -8  -3   0   59.29   15.30
  -8   3   0   83.39   13.10
   8   3   0   98.09   21.10
  -8   3   0   78.29   20.50
   0  -4   0 3946.81  333.27
   0  -4   0 3489.75  333.77
   0   4   0 4216.18  333.27
   0   4   0 4064.29  335.07
  -1  -4   0  759.12   73.39
  -1  -4   0  878.31   73.59
   1  -4   0  889.31   73.19
   1  -4   0  775.82   74.19
  -1  -4   0  757.22   74.29
   1   4   0  889.61   73.99
   1   4   0  925.81   76.29
   1   4   0  921.41   73.59
  -1   4   0  925.61   73.29
  -1   4   0  887.91   75.29
  -2  -4   0  255.57   22.10
  -2  -4   0  251.47   22.20
   2  -4   0  239.28   22.90
  -2   4   0  231.88   24.40
  -2   4   0  256.67   20.90
   2   4   0  212.88   24.60
  -3  -4   0 1504.85  128.19
   3  -4   0 1536.85  127.49
  -3  -4   0 1625.84  128.99
   3  -4   0 1511.45  129.59
  -3   4   0 1330.17  127.59
  -3   4   0 1612.74  127.49
   3   4   0 1693.73  128.49
  -3   4   0 1275.37  130.89
   3   4   0 1409.16  129.79
   4  -4   0 1291.37  108.89
  -4  -4   0 1252.77  107.69
   4  -4   0 1101.89  109.59
  -4  -4   0 1275.87  108.29
   4   4   0 1361.06  109.39
  -4   4   0 1161.18  107.39
  -4   4   0 1318.77  110.79
  -4   4   0 1317.37  107.19
   5  -4   0  835.72   65.29
  -5  -4   0  666.33   63.89
  -5  -4   0  754.02   64.59
  -5  -4   0  746.73   63.29
   5  -4   0  662.43   66.39
  -5   4   0  742.03   67.19
  -6  -4   0   62.09   15.70
  -6  -4   0   80.09   10.20
   6  -4   0   67.89   16.00
   6  -4   0   99.89   16.90
  -6   4   0   94.49   17.30
  -6   4   0   62.19    9.80
   6   4   0  105.69   17.50
   7  -4   0   10.60   11.00
   7  -4   0   -1.60   15.00
  -7  -4   0   16.60   11.00
  -7   4   0   18.60   15.90
   7   4   0   36.20   14.60
  -7   4   0    7.80    7.10
   8  -4   0   34.30   15.90
  -8  -4   0   32.80   14.60
   8   4   0   41.80   17.10
  -8   4   0   41.00   12.00
   0  -5   0   -5.90    2.40
   0  -5   0    0.80    4.50
   0   5   0   -3.20    1.90
   0   5   0   -0.40    6.90
  -1  -5   0 1063.79   83.89
   1  -5   0 1035.00   83.39
  -1  -5   0  985.90   84.49
   1  -5   0  960.10   84.69
  -1   5   0  974.90   83.39
  -1   5   0  893.71   85.89
   1   5   0  931.71   86.49
  -2  -5   0 1613.24  143.09
   2  -5   0 1725.53  143.69
  -2  -5   0 1730.53  142.89
  -2   5   0 1771.42  145.19
   2   5   0 1527.95  145.29
  -3  -5   0  880.81   78.09
   3  -5   0  904.21   78.99
  -3  -5   0  859.21   77.89
  -3   5   0 1002.10   76.79
  -3   5   0  910.71   80.69
   3   5   0  855.31   80.39
  -4  -5   0  298.47   26.00
   4  -5   0  301.17   27.70
  -4  -5   0  281.47   25.20
  -4   5   0  249.97   30.00
   4   5   0  284.27   30.30
  -4   5   0  251.87   23.80
  -4   5   0  252.07   23.40
   5  -5   0  110.59   17.20
  -5  -5   0  110.39   15.00
   5  -5   0   70.69   18.70
  -5   5   0  106.79   17.90
   5   5   0  128.09   18.80
  -5   5   0   98.59   10.00
  -6  -5   0  180.18   21.60
   6  -5   0  200.28   24.50
   6  -5   0  153.58   25.90
   6   5   0  240.78   28.00
  -6   5   0  173.58   16.90
  -6   5   0  162.38   36.50
   7  -5   0  151.38   23.40
  -7  -5   0  133.59   18.80
  -7   5   0  107.89   23.30
   7   5   0  166.68   24.20
   0  -6   0   17.40    3.70
   0  -6   0   11.10    3.10
   0  -6   0   18.00    6.70
   0   6   0   15.40   11.70
   1  -6   0   90.49   12.80
  -1  -6   0   83.69   11.50
   1  -6   0   79.49    8.30
  -1  -6   0   73.89    9.80
   1   6   0  113.69   17.80
  -1   6   0  103.19   16.10
  -2  -6   0   83.69   13.70
  -2  -6   0   82.19   11.70
   2  -6   0  102.49   14.10
   2  -6   0   96.39    8.40
  -2   6   0   70.69   14.40
   2   6   0   66.29   16.90
  -3  -6   0  102.59   12.40
  -3  -6   0   87.79   12.20
   3  -6   0  107.39   15.90
  -3   6   0   95.09   16.40
   3   6   0   99.39   17.00
  -4  -6   0  534.95   49.90
  -4  -6   0  582.74   50.39
   4  -6   0  609.34   52.09
  -4   6   0  526.15   54.19
   4   6   0  573.14   53.89
  -5  -6   0  479.15   43.60
  -5  -6   0  492.15   44.90
   5  -6   0  539.15   47.10
   5   6   0  542.05   49.70
  -5   6   0  387.56   48.90
   6  -6   0  208.78   26.00
  -6  -6   0  144.69   22.40
   6   6   0  195.18   26.80
  -6   6   0  154.78   29.10
  -7  -6   0   10.60   12.90
   7  -6   0   22.80   17.90
   7   6   0   24.10   17.60
   0  -7   0    5.30    7.70
   0  -7   0   -7.00    3.60
   0   7   0   -3.60   11.30
   1  -7   0  145.29   15.00
  -1  -7   0  176.88   19.30
  -1  -7   0  199.68   16.90
   1  -7   0  200.08   15.60
   1  -7   0  181.88   20.20
   1   7   0  172.38   24.50
  -1   7   0  146.39   23.50
  -1   7   0  146.39   15.20
   2  -7   0  631.34   48.80
   2  -7   0  547.95   52.09
  -2  -7   0  588.44   50.39
  -2  -7   0  581.54   51.69
  -2   7   0  469.65   54.19
  -3  -7   0  344.27   32.40
  -3  -7   0  358.76   32.30
   3  -7   0  369.86   34.60
   3   7   0  305.97   40.10
  -3   7   0  306.37   37.40
   4  -7   0  174.38   23.10
  -4  -7   0  167.58   19.20
   4   7   0  159.78   26.20
  -4   7   0  146.29   27.10
  -5  -7   0    6.70    7.50
  -5  -7   0    0.30    9.70
   5  -7   0    9.20   12.90
  -5   7   0   -2.50   28.20
   6  -7   0  168.98   25.10
  -6  -7   0  101.79   17.00
  -6   7   0  101.99   24.40
   6   7   0   86.29   24.10
   0  -8   0  960.30   80.69
   0  -8   0  953.20   78.09
   0   8   0  795.42   83.29
   1  -8   0  368.76   37.40
  -1  -8   0  400.86   34.00
   1  -8   0  393.96   33.00
  -1  -8   0  407.96   36.60
   1   8   0  308.67   40.80
  -1   8   0  328.07   43.00
   2  -8   0   40.10    5.40
  -2  -8   0   31.70   10.10
   2  -8   0   63.59   12.90
  -2  -8   0   27.90    7.60
   2   8   0    2.10   16.20
  -2   8   0    6.50   15.10
  -3  -8   0  264.97   28.30
   3  -8   0  243.78   30.00
  -3  -8   0  268.37   25.20
   3   8   0  224.58   33.40
  -3   8   0  246.48   35.50
  -4  -8   0  311.27   31.90
   4  -8   0  328.57   35.20
  -4  -8   0  308.47   31.90
  -4   8   0  270.07   44.10
   4   8   0  311.27   38.20
   5  -8   0  154.98   26.30
  -5  -8   0  149.69   19.70
  -5  -8   0  146.29   20.00
  -5   8   0  128.39   26.30
   5   8   0  122.69   23.60
  -6  -8   0   -1.40   12.40
   6  -8   0   -0.70   16.10
  -6   8   0   16.00   26.80
   6   8   0    3.90   19.30
   0  -9   0  -15.60    6.00
   0  -9   0    3.90   14.10
   0   9   0    1.20   17.00
  -1  -9   0  325.07   33.50
   1  -9   0  346.27   35.00
  -1  -9   0  321.17   29.40
  -1   9   0  250.47   39.20
   1   9   0  298.97   39.30
   2  -9   0  422.46   41.00
  -2  -9   0  410.96   38.90
  -2  -9   0  380.26   35.50
   2   9   0  316.57   44.20
  -2   9   0  388.86   45.40
   3  -9   0  195.48   28.50
  -3  -9   0  196.98   24.60
  -3  -9   0  210.98   23.10
   3   9   0  190.48   32.50
  -3   9   0  164.48   32.40
  -4  -9   0   31.90   11.10
   4  -9   0   47.20   18.90
  -4  -9   0   33.50   11.00
  -4   9   0   20.40   22.10
   4   9   0   16.80   23.60
   5  -9   0   38.60   18.10
  -5   9   0   19.10   22.70
   5   9   0   35.90   20.30
   0 -10   0  165.48   25.80
   0  10   0  153.38   28.10
  -1 -10   0  123.69   16.00
  -1 -10   0  149.49   23.90
   1 -10   0  160.58   21.30
   1  10   0   98.49   25.40
  -1  10   0   97.89   26.60
  -2 -10   0   33.30   26.60
  -2 -10   0   52.29    9.40
   2 -10   0   46.50   17.00
  -2  10   0   29.60   22.30
   2  10   0   63.09   21.80
  -3 -10   0   24.00    9.80
   3 -10   0   21.40   16.70
  -3 -10   0   11.60   15.40
  -3  10   0   28.70   24.20
   3  10   0   25.20   21.30
   8   0  -1   71.69   17.30
  -8   0   1   78.49   13.20
  -8   0   1   57.29   15.00
  -7   0   1  248.98   24.90
  -7   0   1  246.98   24.10
   7   0  -1  207.78   26.90
  -6   0   1  434.66   37.80
   6   0  -1  450.95   37.60
  -6   0   1  391.76   39.20
   6   0  -1  379.36   39.50
  -5   0   1   55.19   10.00
   5   0  -1   68.89    8.90
  -5   0   1   80.89    9.40
   5   0  -1   60.49   10.70
  -4   0   1  689.43   67.99
   4   0  -1  916.01   69.59
  -4   0   1  775.92   68.39
   4   0  -1  810.12   68.09
   3   0  -1 2452.55  208.48
  -3   0   1 2339.07  208.48
  -3   0   1 2579.24  208.68
   1   0  -1  610.94   47.10
  -1   0   1  507.65   46.70
  -1   0   1  531.15   46.70
   1   0   1 4654.53  410.36
  -1   0  -1 4506.75  410.36
  -1   0  -1 5363.66  410.56
  -2   0  -1 1795.42  169.08
  -2   0  -1 1928.41  169.08
  -2   0  -1 2135.49  169.48
   2   0   1 1973.40  169.08
   2   0   1 2059.49  169.18
   2   0   1 2054.69  169.38
   3   0   1   66.79    8.20
   3   0   1   75.29    7.60
  -3   0  -1   90.79   10.70
  -3   0  -1   86.39    8.90
  -3   0  -1   79.89    7.80
  -3   0  -1   62.49    7.50
   3   0   1   63.99    9.10
  -3   0  -1   52.79    7.00
  -4   0  -1  275.47   25.40
   4   0   1  260.87   25.60
  -4   0  -1  316.67   26.80
   4   0   1  250.07   26.00
   4   0   1  311.97   26.20
   5   0   1  604.44   55.69
  -5   0  -1  611.74   52.39
  -5   0  -1  573.54   52.19
  -6   0  -1  527.25   46.00
   6   0   1  491.95   47.10
   6   0   1  505.05   46.30
  -6   0  -1  529.45   46.80
  -7   0  -1  248.98   24.20
   7   0   1  211.08   28.20
  -7   0  -1  216.28   27.50
   8   0   1   28.40   17.70
  -8   0  -1   37.20   14.30
  -8   0  -1   21.30   16.60
  -8  -1   1   49.90   12.90
   8  -1  -1   34.70   12.10
   8  -1  -1   53.39   16.40
   8   1  -1   62.59   16.70
  -8   1   1   58.49   11.40
  -8   1   1   66.49   15.60
   7  -1  -1   44.80   16.30
  -7  -1   1   29.50   10.90
  -7  -1   1   62.09   11.90
   7   1  -1   39.10   13.60
  -7   1   1   24.70    8.60
   6  -1  -1  299.27   26.90
   6  -1  -1  269.57   29.50
  -6  -1   1  295.47   27.40
   6   1  -1  281.07   30.80
  -6   1   1  284.67   27.20
   5  -1  -1  708.73   65.69
   5  -1  -1  745.63   64.19
  -5  -1   1  702.13   64.49
   5   1  -1  842.82   66.29
  -5   1   1  727.43   64.19
  -4  -1   1  188.18   18.70
  -4  -1   1  243.68   20.10
   4  -1  -1  197.08   19.20
   4  -1  -1  239.48   21.40
  -4   1   1  223.88   19.40
  -3  -1   1   85.19    8.30
   3  -1  -1   85.59    8.00
  -3  -1   1  102.29   11.40
   3  -1  -1  101.99   11.10
  -3   1   1   57.49    7.80
  -3   1   1   71.79    8.20
  -3   1   1   72.29    7.60
   2  -1  -1 2127.39  174.68
   2  -1  -1 2345.17  175.48
   2  -1  -1 1909.41  174.98
  -2  -1   1 2006.10  174.58
  -2  -1   1 2058.29  174.98
  -2  -1   1 1921.51  175.48
   2   1  -1 2020.50  174.88
  -2   1   1 1852.71  174.88
  -2   1   1 2192.88  174.78
  -2   1   1 1956.30  174.68
   2   1  -1 2266.57  175.48
   1  -1  -1 3665.83  317.87
  -1  -1   1 4143.89  317.77
  -1   1   1 3279.17  317.77
   1   1  -1 3901.91  317.77
   0  -1   1 6995.20  512.75
   0   1   1 5085.29  512.15
  -1  -1  -1  451.45   40.80
   1   1   1  418.46   40.40
   1   1   1  459.75   40.70
  -1   1  -1  511.65   40.90
  -1   1  -1  449.16   40.70
   1   1   1  494.15   40.40
  -1   1  -1  524.85   40.40
   2  -1   1   81.09    8.70
  -2  -1  -1   62.89    8.80
   2  -1   1   83.19    7.60
  -2  -1  -1   76.49    7.80
   2  -1   1   79.79    7.90
  -2  -1  -1   79.39    7.90
  -2  -1  -1   79.39    8.00
   2   1   1   91.39    8.00
  -2   1  -1   97.69    7.60
  -2   1  -1   79.09    7.80
  -3  -1  -1 1328.87  121.39
  -3  -1  -1 1409.46  119.89
   3  -1   1 1339.17  119.79
   3  -1   1 1308.07  120.39
   3  -1   1 1448.36  119.79
  -3  -1  -1 1506.65  119.79
  -3   1  -1 1604.04  119.89
  -3   1  -1 1237.68  120.09
   3   1   1 1468.75  119.89
   4  -1   1 1238.58  107.69
   4  -1   1 1326.37  106.89
  -4  -1  -1 1258.17  107.09
   4  -1   1 1224.98  106.99
  -4  -1  -1 1149.19  106.99
   4   1   1 1375.16  107.39
   4   1   1 1167.98  106.99
  -4   1  -1 1261.67  106.89
   5  -1   1  431.86   35.30
   5  -1   1  377.26   34.70
  -5  -1  -1  391.96   35.20
   5  -1   1  365.06   36.20
   5   1   1  379.86   35.80
  -5   1  -1  387.86   35.50
   6  -1   1   35.10   11.00
  -6  -1  -1   32.00   11.50
  -6  -1  -1   53.99    9.20
  -6   1  -1   43.00   10.70
   6   1   1   29.20   12.50
  -6   1  -1   23.60    7.70
   7  -1   1   37.80   10.30
  -7  -1  -1   59.39   11.40
   7  -1   1   34.40   13.50
  -7  -1  -1   31.20   15.10
  -7   1  -1   48.60   11.20
  -7   1  -1   66.19   12.50
   7   1   1   65.09   13.60
  -8  -1  -1  115.09   16.50
   8  -1   1   86.59   16.50
   8  -1   1  110.59   21.90
  -8   1  -1   85.59   16.10
  -8   1  -1  140.29   20.30
   8   1   1   90.39   20.70
   8  -2  -1  151.08   25.70
  -8  -2   1  167.28   22.50
   8  -2  -1  158.78   21.00
   8   2  -1  170.48   25.40
  -8   2   1  175.38   21.10
   7  -2  -1  337.87   33.00
  -7  -2   1  339.37   33.80
   7  -2  -1  279.27   35.90
  -7  -2   1  373.06   32.20
   7   2  -1  369.36   35.90
  -7   2   1  375.96   32.90
  -6  -2   1   92.09   10.80
  -6  -2   1  139.49   14.30
   6  -2  -1  110.49   18.20
  -6  -2   1  124.99   14.70
   6   2  -1  137.09   20.50
  -6   2   1  103.19   13.80
   5  -2  -1   53.59    9.10
  -5  -2   1   66.29    8.60
   5  -2  -1   59.29   10.90
  -5  -2   1   51.19    6.10
   5   2  -1   56.39   12.20
  -5   2   1   50.99    7.00
   4  -2  -1  635.54   57.49
   4  -2  -1  646.44   56.39
  -4  -2   1  651.73   56.39
  -4  -2   1  689.53   55.59
  -4  -2   1  594.14   55.39
  -4   2   1  651.83   56.09
  -4   2   1  681.43   55.79
   3  -2  -1  787.42   71.49
   3  -2  -1  847.02   70.49
  -3  -2   1  803.62   68.99
  -3  -2   1  818.82   69.49
   3   2  -1  863.81   70.49
  -3   2   1  733.43   69.59
  -3   2   1  821.12   69.09
  -3   2   1  810.02   69.09
  -2  -2   1  153.78   16.20
   2   2  -1  157.58   15.20
  -2   2   1  167.38   14.30
  -2   2   1  150.88   15.10
   2   2  -1  152.48   16.00
  -2   2   1  187.58   16.60
  -2   2   1  184.58   14.30
   1  -2  -1  303.57   30.00
  -1  -2   1  314.17   29.70
   1  -2  -1  318.27   30.30
  -1  -2   1  341.87   29.70
  -1  -2   1  307.37   31.00
  -1   2   1  399.66   30.70
   1   2  -1  343.87   29.80
  -1   2   1  399.06   30.40
   1   2  -1  381.76   29.80
   1   2  -1  310.87   31.40
  -1   2   1  379.76   30.10
   0  -2   1  891.61   76.89
   0  -2  -1  924.91   76.99
   0  -2  -1  984.90   76.69
   0  -2   1  994.50   76.59
   0  -2  -1  994.20   76.59
   0   2   1  843.52   77.29
   0   2   1  835.22   76.89
   0   2  -1  793.62   76.89
   0   2  -1  894.61   76.59
   0   2   1  888.41   76.59
   0   2  -1  866.01   77.59
   1  -2   1  479.05   39.10
   1  -2   1  377.46   37.90
  -1  -2  -1  411.16   38.80
  -1  -2  -1  390.06   38.20
   1  -2   1  415.16   38.30
  -1  -2  -1  410.56   38.00
  -1  -2  -1  444.56   38.10
  -1   2  -1  517.05   38.50
  -1   2  -1  516.45   38.80
   1   2   1  488.95   38.90
  -2  -2  -1  488.35   48.50
   2   2   1  583.24   47.80
  -2   2  -1  575.04   47.50
   2   2   1  532.25   48.10
  -2   2  -1  564.84   48.50
   2   2   1  549.45   47.80
  -2   2  -1  597.14   48.80
   3  -2   1  880.91   79.39
  -3  -2  -1  903.11   79.19
  -3  -2  -1  918.21   79.29
   3  -2   1  817.32   79.99
   3  -2   1  896.21   78.89
  -3   2  -1  919.21   78.89
   3   2   1  923.61   79.59
  -3   2  -1  998.30   81.19
   3   2   1 1070.79   79.59
  -4  -2  -1  152.08   17.00
   4  -2   1  162.08   17.00
   4  -2   1  159.58   16.30
   4  -2   1  151.78   19.60
  -4  -2  -1  181.88   16.40
  -4  -2  -1  187.28   17.50
   4   2   1  206.98   17.70
  -4   2  -1  175.18   16.30
   5  -2   1  348.37   31.00
  -5  -2  -1  304.47   30.40
  -5  -2  -1  351.86   31.60
   5  -2   1  312.57   33.00
  -5   2  -1  407.96   31.10
   6  -2   1  530.65   57.69
   6  -2   1  658.83   56.39
  -6  -2  -1  593.64   57.39
  -6  -2  -1  613.44   56.49
  -6   2  -1  683.13   55.69
   6   2   1  722.53   57.39
   7  -2   1  306.27   28.60
  -7  -2  -1  277.37   28.80
   7  -2   1  205.58   32.70
  -7  -2  -1  294.37   29.20
  -7   2  -1  310.57   31.30
   7   2   1  250.67   31.40
  -7   2  -1  253.37   27.90
   8  -2   1   -4.80   19.00
  -8  -2  -1    6.60   12.60
   8  -2   1   29.00   14.10
  -8   2  -1   18.90   12.30
  -8   2  -1   -4.80   14.20
  -8   2  -1   35.70   22.10
   8   2   1   20.40   17.80
  -8  -3   1   20.60   13.10
   8  -3  -1   25.90   13.40
   8  -3  -1   47.30   17.20
  -8   3   1   25.80   10.10
   8   3  -1   53.09   17.00
  -8   3   1   11.60   18.40
   7  -3  -1   15.70   17.10
   7  -3  -1   22.20    9.50
  -7  -3   1   22.10   10.70
  -7   3   1    9.70    7.80
   7   3  -1   21.50   17.00
  -6  -3   1  281.87   24.70
   6  -3  -1  309.67   27.80
  -6  -3   1  302.67   27.50
   6  -3  -1  263.37   30.30
  -6  -3   1  236.18   24.20
  -6   3   1  298.17   25.50
  -5  -3   1  706.13   61.59
  -5  -3   1  718.93   63.09
   5  -3  -1  673.53   64.69
   5  -3  -1  816.32   63.79
  -5   3   1  694.93   61.99
  -4  -3   1  787.92   67.59
   4  -3  -1  821.72   67.99
  -4  -3   1  821.82   66.79
   4  -3  -1  784.32   69.09
  -4  -3   1  754.32   66.69
  -4   3   1  740.03   66.69
  -4   3   1  704.33   66.59
   4   3  -1  844.92   68.89
   3  -3  -1  464.45   41.20
  -3  -3   1  457.05   40.70
  -3  -3   1  459.65   40.10
   3  -3  -1  429.16   42.00
   3   3  -1  438.56   42.00
  -3   3   1  537.55   42.80
  -3   3   1  453.55   39.80
  -3   3   1  493.45   39.90
   2  -3  -1  895.91   79.39
  -2  -3   1  910.21   78.79
  -2  -3   1  955.20   78.99
   2  -3  -1  934.51   80.09
   1  -3  -1 2175.18  197.58
  -1  -3   1 2352.96  197.08
  -1  -3   1 2545.05  199.88
  -1  -3   1 2053.79  197.18
   1  -3  -1 2308.87  196.68
  -1   3   1 2229.98  197.48
  -1   3   1 2357.46  198.18
   1   3  -1 2477.05  197.08
   1   3  -1 2436.36  198.98
   1   3  -1 2290.77  197.28
   0  -3   1 1772.72  143.49
   0  -3  -1 1759.62  144.09
   0  -3   1 1611.14  143.89
   0  -3  -1 1808.62  143.49
   0  -3  -1 1749.03  143.39
   0   3  -1 1730.43  143.49
   0   3   1 1681.93  143.39
   0   3  -1 1581.54  143.89
   0   3  -1 1655.73  144.89
   0   3   1 1611.44  144.49
   0   3   1 1616.54  143.99
   1  -3   1  379.16   32.60
  -1  -3  -1  330.97   30.90
  -1  -3  -1  365.96   32.50
  -1  -3  -1  315.97   31.20
   1  -3   1  329.37   30.70
  -1  -3  -1  320.37   30.80
   1  -3   1  307.67   31.70
   1   3   1  434.16   32.90
  -1   3  -1  437.96   34.10
  -1   3  -1  389.46   31.40
  -2  -3  -1  482.45   41.10
  -2  -3  -1  524.65   41.30
   2  -3   1  529.65   41.70
  -2  -3  -1  469.65   42.30
   2   3   1  447.36   41.20
  -2   3  -1  391.76   42.20
   3  -3   1 1262.87  117.99
  -3  -3  -1 1355.36  116.89
   3  -3   1 1538.95  116.59
  -3  -3  -1 1513.05  117.19
   3  -3   1 1447.96  117.49
   3   3   1 1347.77  117.59
  -3   3  -1 1292.07  116.59
  -3   3  -1 1331.37  118.29
   3   3   1 1239.38  117.09
  -4  -3  -1  965.10   83.09
  -4  -3  -1 1010.20   83.59
   4  -3   1  882.71   84.59
   4  -3   1  920.01   83.09
  -4   3  -1  969.90   82.79
  -4   3  -1 1066.89   85.39
   5  -3   1  577.94   51.99
   5  -3   1  530.65   54.69
  -5  -3  -1  613.94   53.29
  -5  -3  -1  567.04   52.29
   5  -3   1  635.34   53.59
  -5   3  -1  656.93   52.19
  -5   3  -1  631.44   56.79
   6  -3   1   10.80   14.60
   6  -3   1   26.90    9.20
  -6  -3  -1   22.20    9.40
  -6  -3  -1   46.40    8.20
  -6   3  -1   50.89   16.20
   6   3   1   44.30   11.50
  -6   3  -1   29.90    8.10
  -7  -3  -1   70.19   10.60
   7  -3   1   42.80   15.80
  -7  -3  -1   66.39   13.10
   7   3   1   79.89   14.80
  -7   3  -1   55.29   17.30
  -7   3  -1   63.89   10.00
   8  -3   1  142.19   21.00
   8  -3   1   81.39   20.10
   8   3   1   93.79   21.00
  -8   3  -1   87.79   13.40
  -8   3  -1   75.89   21.60
  -8  -4   1   81.99   16.90
   8  -4  -1   93.19   17.60
   8   4  -1   66.99   22.70
   7  -4  -1  216.78   32.00
   7  -4  -1  338.67   32.40
  -7  -4   1  253.57   29.10
   7   4  -1  304.57   35.00
  -7   4   1  266.17   34.80
  -6  -4   1  146.19   14.10
   6  -4  -1  169.28   22.00
  -6  -4   1  123.89   18.00
   6  -4  -1  115.29   22.30
  -6   4   1  134.99   14.60
   6   4  -1  197.28   22.50
  -6   4   1  137.69   24.20
  -5  -4   1    6.50    7.00
  -5  -4   1    4.00    4.20
   5  -4  -1    7.70   10.70
   5  -4  -1   12.30    8.20
  -5   4   1    1.40    3.00
   5   4  -1   14.40   10.80
  -5   4   1   14.70   11.40
   5   4  -1    1.10    6.30
   4  -4  -1  350.76   39.00
  -4  -4   1  385.36   36.80
   4  -4  -1  412.56   37.80
  -4  -4   1  401.56   35.90
  -4   4   1  430.26   35.60
  -4   4   1  432.36   35.30
  -4   4   1  433.76   40.10
   4   4  -1  430.96   36.60
  -3  -4   1 1933.51  156.18
  -3  -4   1 1737.23  155.68
   3  -4  -1 1864.91  156.58
  -3   4   1 1895.91  155.08
  -3   4   1 1779.52  154.98
   3   4  -1 1924.91  155.78
   3   4  -1 1659.83  157.78
  -2  -4   1 2449.66  196.98
   2  -4  -1 2302.97  197.58
  -2  -4   1 2220.68  196.88
   2   4  -1 2416.96  196.98
  -2   4   1 2439.16  198.58
   2   4  -1 2054.89  198.98
  -1  -4   1  332.87   29.20
   1  -4  -1  373.36   28.30
   1  -4  -1  340.87   29.80
  -1  -4   1  359.16   28.90
   1   4  -1  318.97   31.90
   1   4  -1  306.97   28.80
  -1   4   1  303.27   30.60
   1   4  -1  300.37   29.20
   0  -4   1 1608.94  137.89
   0  -4  -1 1685.03  138.09
   0  -4  -1 1754.42  137.29
   0  -4  -1 1618.94  137.19
   0  -4   1 1713.53  137.29
   0   4   1 1567.64  137.19
   0   4  -1 1631.14  137.29
   0   4  -1 1490.55  139.09
   0   4   1 1448.85  139.59
  -1  -4  -1 3460.25  295.27
  -1  -4  -1 3840.72  296.37
  -1  -4  -1 3244.98  294.67
   1  -4   1 3268.77  295.27
   1  -4   1 3535.75  294.57
  -1  -4  -1 3441.06  294.77
   1   4   1 3284.17  297.47
   1   4   1 3577.94  294.67
  -1   4  -1 3461.95  296.27
  -1   4  -1 3603.64  294.47
  -2  -4  -1 3052.19  252.27
   2  -4   1 2718.13  252.67
   2  -4   1 3123.09  251.77
   2   4   1 2586.94  253.57
   2   4   1 3286.17  252.67
  -2   4  -1 3046.10  251.77
  -2   4  -1 2955.50  253.87
   3  -4   1  326.27   35.60
   3  -4   1  407.06   33.10
   3   4   1  368.36   35.10
   3   4   1  424.06   34.60
  -3   4  -1  380.16   36.50
  -4  -4  -1   69.69    9.60
  -4  -4  -1   60.89    9.20
   4  -4   1   68.69   10.40
   4  -4   1   60.99    7.30
   4  -4   1   50.59   11.60
  -4   4  -1   58.29   12.40
  -4   4  -1   73.29    7.80
   4   4   1   75.49   11.90
  -4   4  -1   56.89    8.50
   5  -4   1  307.27   35.80
  -5  -4  -1  368.56   33.50
   5  -4   1  360.56   34.30
   5  -4   1  361.56   31.60
  -5  -4  -1  368.86   32.30
  -5   4  -1  370.46   32.40
  -5   4  -1  360.96   36.70
   6  -4   1  108.09   20.60
   6  -4   1  202.28   24.10
  -6  -4  -1  163.68   19.20
  -6  -4  -1  152.68   17.10
  -6   4  -1  149.88   16.10
  -6   4  -1  134.89   24.30
   6   4   1  206.08   23.40
   7  -4   1   78.19   13.90
  -7  -4  -1   93.19   13.90
   7  -4   1   53.89   17.30
  -7   4  -1   45.80    9.10
   7   4   1   83.19   18.10
  -7   4  -1   59.09   18.00
   8  -4   1    1.30   13.20
  -8  -4  -1   20.80   13.70
  -8   4  -1    8.80    9.80
   8   4   1  -13.30   18.50
   7  -5  -1   29.80   17.60
   7  -5  -1   39.20   13.40
  -7  -5   1   48.00   12.80
   7   5  -1   34.20   20.80
  -7   5   1   21.10   18.30
   6  -5  -1  305.97   31.30
  -6  -5   1  296.47   29.60
   6  -5  -1  212.48   33.80
   6   5  -1  355.86   33.40
  -6   5   1  265.37   34.80
  -5  -5   1  776.02   66.09
   5  -5  -1  684.53   68.59
  -5  -5   1  767.52   64.69
   5  -5  -1  784.62   67.09
   5   5  -1  883.51   68.99
  -5   5   1  724.43   64.29
  -5   5   1  750.52   69.49
   5   5  -1  645.74   66.39
   4  -5  -1  674.73   72.29
   4  -5  -1  818.22   71.39
  -4  -5   1  830.92   70.39
  -4  -5   1  788.42   69.69
  -4   5   1  851.91   73.49
   4   5  -1  900.11   74.09
  -3  -5   1  152.98   16.10
   3  -5  -1  160.18   18.30
  -3   5   1  163.98   22.50
   3   5  -1  161.98   17.40
  -2  -5   1  152.98   14.80
  -2  -5   1  161.28   14.40
   2  -5  -1  141.19   16.20
   2   5  -1  112.39   19.70
   1  -5  -1 1094.19   95.39
  -1  -5   1 1198.78   95.99
  -1  -5   1 1070.69   96.39
   1  -5  -1 1179.48   95.49
   1  -5  -1 1108.19   96.99
  -1   5   1 1088.59   98.09
   1   5  -1 1120.59   98.99
   0  -5   1 1036.20   93.59
   0  -5   1 1119.19   92.79
   0  -5  -1 1012.20   92.59
   0  -5  -1 1129.39   92.79
   0  -5  -1 1087.99   93.89
   0   5  -1 1013.60   95.29
   0   5  -1 1176.98   92.89
   0   5   1 1144.49   92.69
   0   5   1 1064.39   95.09
   1  -5   1  180.38   15.60
  -1  -5  -1  153.08   17.10
   1  -5   1  154.78   17.40
  -1  -5  -1  165.78   16.20
  -1   5  -1  172.78   20.20
  -1   5  -1  190.88   15.30
   1   5   1  186.28   20.10
  -2  -5  -1  502.65   43.00
  -2  -5  -1  455.95   43.40
   2  -5   1  539.55   42.30
   2  -5   1  478.35   44.10
  -2   5  -1  463.35   45.80
  -2   5  -1  539.95   42.20
   2   5   1  445.46   45.50
  -3  -5  -1  898.21   79.09
  -3  -5  -1  932.11   78.99
   3  -5   1  888.11   79.79
   3  -5   1  992.90   77.89
  -3   5  -1  956.50   77.89
  -3   5  -1  856.01   81.29
   3   5   1  857.01   80.59
  -4  -5  -1  870.11   76.79
  -4  -5  -1  884.41   77.29
   4  -5   1  975.20   78.39
   4  -5   1  849.41   75.89
  -4   5  -1 1014.70   75.99
  -4   5  -1  767.72   76.19
  -4   5  -1  862.61   79.89
  -5  -5  -1  344.97   31.60
   5  -5   1  328.77   33.30
  -5  -5  -1  311.47   30.30
   5   5   1  368.06   34.50
  -5   5  -1  292.27   35.50
  -6  -5  -1   32.90    7.20
  -6  -5  -1   37.50   10.80
   6  -5   1   32.60   12.10
  -6   5  -1   16.70    6.10
   6   5   1   31.20   12.90
  -6   5  -1   20.70   15.30
   7  -5   1   34.70   14.00
  -7  -5  -1   30.60   12.60
   7  -5   1   11.30   16.80
  -7   5  -1   32.20   17.90
   7   5   1   30.40   14.90
   7  -6  -1  175.98   24.60
  -7  -6   1  157.98   21.80
   7   6  -1  155.08   29.00
  -6  -6   1   57.39   12.80
   6  -6  -1   57.49   14.70
   6   6  -1   86.89   21.70
  -6   6   1   51.79   21.90
  -5  -6   1   80.69   12.70
  -5  -6   1   90.49   11.20
   5  -6  -1   89.79   15.00
   5   6  -1   90.89   18.30
  -5   6   1   82.99   18.70
   4  -6  -1  359.06   34.50
  -4  -6   1  339.27   31.30
  -4  -6   1  363.16   32.40
   4   6  -1  372.06   37.90
  -4   6   1  302.67   37.00
  -3  -6   1  393.66   35.60
  -3  -6   1  405.16   35.60
   3  -6  -1  396.36   37.50
  -3   6   1  390.86   40.00
   3   6  -1  386.66   42.80
  -2  -6   1  198.78   20.10
   2  -6  -1  205.68   21.60
   2   6  -1  188.18   28.10
  -2   6   1  206.88   24.50
   1  -6  -1   14.10    7.20
   1  -6  -1   17.40    2.90
  -1  -6   1   28.90    7.20
  -1  -6   1   20.20    4.30
   1  -6  -1   18.40    3.10
  -1   6   1   21.10    9.40
   1   6  -1   35.10   11.60
   0  -6   1   57.39    9.80
   0  -6  -1   52.99    6.30
   0  -6  -1   48.50    8.80
   0  -6  -1   40.20    5.90
   0  -6   1   47.80    6.60
   0   6  -1   88.39   15.10
   1  -6   1  337.17   33.90
  -1  -6  -1  363.96   32.20
   1  -6   1  371.16   31.80
  -1   6  -1  382.56   31.70
   1   6   1  367.86   37.70
  -1   6  -1  371.56   36.50
   2  -6   1 1056.79   83.19
   2  -6   1  990.10   84.69
  -2  -6  -1  891.71   83.99
  -2  -6  -1 1012.10   84.29
  -2   6  -1  940.01   86.99
  -2   6  -1  921.51   82.49
   3  -6   1  772.82   59.69
   3  -6   1  758.22   62.69
  -3  -6  -1  725.33   61.09
  -3  -6  -1  701.73   61.39
  -3   6  -1  647.64   64.39
  -3   6  -1  617.14   59.49
   3   6   1  666.63   64.89
   4  -6   1  126.09   12.30
   4  -6   1  138.99   19.70
  -4  -6  -1  147.69   16.90
  -4  -6  -1  138.69   16.50
   4   6   1  133.09   20.70
  -4   6  -1  136.19   23.10
  -4   6  -1  136.49   12.50
  -4   6  -1  141.29   12.40
   5  -6   1   84.79   15.10
  -5  -6  -1   76.09   11.10
  -5  -6  -1   79.49   12.50
  -5   6  -1   68.19   17.60
   5   6   1   90.59   17.70
  -5   6  -1   74.19    9.90
  -6  -6  -1  233.88   27.50
   6  -6   1  266.37   30.80
   6   6   1  296.67   33.00
  -6   6  -1  217.18   33.90
   7  -6   1   98.79   19.70
  -7  -6  -1  122.59   18.40
  -7   6  -1   90.99   30.80
   7   6   1  131.09   23.50
  -6  -7   1  159.68   23.40
   6  -7  -1  201.08   27.60
   6   7  -1  195.88   35.50
  -6   7   1  166.48   31.10
  -5  -7   1  259.27   27.90
   5  -7  -1  304.77   31.80
  -5  -7   1  258.27   26.20
  -5   7   1  226.88   39.50
   5   7  -1  290.57   38.40
  -4  -7   1  170.38   18.30
   4  -7  -1  138.89   22.30
  -4  -7   1  144.39   17.90
   4   7  -1  154.48   26.70
  -4   7   1  169.28   26.70
  -3  -7   1    3.40    6.70
   3  -7  -1    3.20    9.70
  -3   7   1    4.20   13.00
   3   7  -1    5.10   15.00
  -2  -7   1  224.08   20.90
  -2  -7   1  212.08   22.20
   2  -7  -1  215.28   24.40
  -2   7   1  212.08   27.50
   1  -7  -1  402.36   34.90
   1  -7  -1  393.66   38.40
  -1  -7   1  430.06   36.20
  -1  -7   1  420.96   37.60
   1  -7  -1  425.46   35.10
   1   7  -1  351.56   43.60
  -1   7   1  380.96   42.30
   0  -7  -1  651.23   56.99
   0  -7   1  634.74   56.09
   0  -7   1  660.23   54.19
   0  -7  -1  677.93   54.09
   0   7  -1  559.44   59.89
   0   7   1  545.35   58.49
  -1  -7  -1  121.49   16.60
   1  -7   1  126.19   17.00
   1  -7   1  132.39   12.30
  -1  -7  -1  126.99   13.30
  -1   7  -1  106.69   18.70
   1   7   1  107.39   18.60
  -2  -7  -1    7.40    5.70
   2  -7   1   13.60    8.90
  -2  -7  -1   -6.20    7.20
   2  -7   1    8.40    3.80
  -2   7  -1    2.60    2.50
  -2   7  -1    3.70   12.10
   2   7   1  -10.40   11.60
  -3  -7  -1  181.18   17.50
   3  -7   1  179.78   21.60
   3  -7   1  135.49   13.60
  -3  -7  -1  185.28   20.30
  -3   7  -1  187.38   29.10
   3   7   1  142.39   26.80
  -4  -7  -1  363.96   35.90
  -4  -7  -1  368.06   35.30
   4  -7   1  399.96   38.40
  -4   7  -1  360.86   41.50
   4   7   1  381.56   39.50
  -5  -7  -1  197.38   24.20
   5  -7   1  252.67   28.30
  -5  -7  -1  187.48   23.20
  -5   7  -1  188.58   31.40
   5   7   1  236.68   31.20
   6  -7   1    5.00   18.30
  -6  -7  -1    4.60   12.40
  -6   7  -1    5.00   21.70
   6   7   1   24.90   16.00
   6  -8  -1   67.59   19.20
  -6  -8   1   72.89   15.00
  -6   8   1   73.49   28.20
   6   8  -1   64.89   22.70
  -5  -8   1    3.50   10.90
  -5  -8   1   13.00   10.50
   5  -8  -1    6.40   14.90
   5   8  -1   16.40   19.40
  -5   8   1   -2.20   19.80
   4  -8  -1  147.79   24.20
  -4  -8   1  138.69   17.10
  -4  -8   1  117.49   16.00
   4   8  -1  108.19   27.40
  -4   8   1  128.39   27.80
  -3  -8   1  565.84   48.20
   3  -8  -1  565.84   51.09
  -3  -8   1  515.65   48.00
  -3   8   1  495.95   53.99
   3   8  -1  482.95   57.29
  -2  -8   1  600.64   53.49
   2  -8  -1  672.93   56.99
  -2  -8   1  647.84   54.99
  -2   8   1  607.14   61.49
   2   8  -1  488.35   59.79
   1  -8  -1   75.19    8.80
   1  -8  -1   96.29   14.90
  -1  -8   1   92.59   15.60
  -1  -8   1   84.19   11.60
   1   8  -1   81.39   19.00
  -1   8   1   76.19   18.40
   0  -8  -1  224.78   25.20
   0  -8  -1  217.28   20.10
   0  -8   1  216.48   24.50
   0  -8   1  222.88   20.00
   0   8   1  173.78   28.50
   0   8  -1  196.08   29.20
  -1  -8  -1  657.63   59.29
   1  -8   1  700.13   58.19
  -1  -8  -1  627.54   55.19
   1   8   1  566.44   62.59
  -1   8  -1  596.14   61.09
  -2  -8  -1  551.34   49.90
   2  -8   1  569.24   50.79
  -2  -8  -1  564.24   48.20
   2  -8   1  583.64   46.80
  -2   8  -1  486.15   53.69
   2   8   1  438.96   53.29
   3  -8   1  143.39   21.60
  -3  -8  -1  127.69   20.70
  -3  -8  -1  107.59   15.30
   3   8   1  100.79   23.00
  -3   8  -1  105.79   21.80
  -4  -8  -1    8.30    9.40
  -4  -8  -1   29.30    9.90
   4  -8   1   27.90   13.90
  -4   8  -1   18.40   18.10
   4   8   1   15.50   15.70
  -5  -8  -1  114.59   15.60
   5  -8   1  121.59   19.70
  -5  -8  -1   95.39   15.30
   5   8   1   84.49   19.60
  -5   8  -1   66.59   23.30
  -5  -9   1  144.59   20.40
   5  -9  -1  143.39   23.90
   5   9  -1  128.59   27.50
  -5   9   1  142.89   33.30
  -4  -9   1  143.79   22.20
  -4  -9   1  172.28   20.00
   4  -9  -1  164.38   27.20
  -4   9   1  134.49   27.90
   4   9  -1  134.19   27.70
  -3  -9   1   40.20   10.10
   3  -9  -1   50.69   15.90
  -3  -9   1   46.40   11.50
  -3   9   1   24.30   20.80
   3   9  -1   42.00   25.20
  -2  -9   1  109.09   14.40
   2  -9  -1  123.59   18.90
  -2  -9   1  108.89   19.00
   2   9  -1   76.49   22.90
  -2   9   1  120.29   24.10
  -1  -9   1  601.94   55.09
  -1  -9   1  580.24   52.29
   1  -9  -1  660.93   56.69
   1   9  -1  547.75   60.39
  -1   9   1  557.54   59.89
   0  -9   1  450.15   40.40
   0  -9  -1  481.75   45.20
   0  -9  -1  451.95   40.10
   0  -9   1  488.25   44.80
   0   9  -1  428.26   49.90
   0   9   1  419.26   51.49
  -1  -9  -1  110.49   19.10
  -1  -9  -1   88.49   12.40
   1  -9   1  103.49   12.40
   1  -9   1  121.79   21.10
  -1   9  -1   78.39   22.20
   1   9   1  127.99   25.40
  -2  -9  -1  107.09   16.60
   2  -9   1   94.59   17.30
  -2  -9  -1   93.89   13.30
   2   9   1  107.09   22.20
  -2   9  -1  112.29   26.50
  -3  -9  -1  180.58   20.20
   3  -9   1  179.48   27.10
  -3  -9  -1  187.18   24.10
  -3   9  -1  180.08   32.10
   3   9   1  156.78   30.10
  -4  -9  -1  137.39   18.40
  -4  -9  -1  135.89   20.60
   4   9   1   96.89   22.80
  -3 -10   1  118.39   17.50
  -3 -10   1   84.49   14.50
   3 -10  -1  138.39   22.10
   3  10  -1  119.49   31.10
  -2 -10   1   78.49   18.30
   2 -10  -1  104.19   19.40
  -2 -10   1   80.29   12.80
  -2  10   1   73.89   25.00
   2  10  -1   60.89   23.90
  -1 -10   1    5.40   12.80
   1 -10  -1   11.30   14.50
  -1 -10   1    1.00    8.30
  -1  10   1   13.30   20.50
   1  10  -1  -13.60   19.60
   0 -10   1   11.10   13.80
   0 -10  -1   21.60   14.60
   0  10  -1  -10.10   20.70
   0  10   1    5.00   19.80
   1 -10   1   84.79   17.80
  -1 -10  -1   97.99   13.50
  -1 -10  -1   95.39   20.30
   1  10   1   78.09   22.70
  -1  10  -1   98.19   24.90
  -2 -10  -1  100.59   13.80
   2 -10   1  107.59   22.20
  -2 -10  -1  112.79   21.00
   2  10   1   77.09   23.00
  -2  10  -1  110.89   31.40
  -3 -10  -1   58.59   12.30
   3 -10   1  106.39   19.80
  -3 -10  -1   76.19   16.50
  -3  10  -1   66.79   25.20
   3  10   1   80.59   22.70
  -9   0   2   81.49   15.10
   8   0  -2   37.60   19.10
  -8   0   2   50.49   11.30
  -7   0   2   39.70    9.20
   7   0  -2   41.90    8.00
  -7   0   2   33.20   10.30
   7   0  -2   37.60   13.40
  -6   0   2  387.06   35.90
   6   0  -2  451.35   36.30
  -6   0   2  346.57   35.20
   6   0  -2  420.76   38.40
  -5   0   2  830.62   71.99
  -5   0   2  724.93   71.59
   5   0  -2  894.11   71.79
   5   0  -2  903.01   73.59
  -4   0   2  396.46   32.10
   4   0  -2  354.06   30.50
  -4   0   2  319.67   30.50
  -3   0   2 1562.54  139.59
  -3   0   2 1720.33  139.79
   3   0  -2 1646.74  139.49
   2   0  -2 9999.00  847.42
   0   0  -2 2559.94  217.28
  -1   0  -2 1341.47  100.89
   1   0   2 1131.69  100.59
  -1   0  -2 1169.18  100.99
  -1   0  -2 1205.38  100.89
   1   0   2 1151.28  100.89
  -1   0  -2 1107.09  100.59
  -1   0  -2 1179.78  100.69
   2   0   2 1817.02  162.28
  -2   0  -2 2042.00  162.48
   2   0   2 2037.80  162.48
  -2   0  -2 1803.92  162.18
   2   0   2 1771.12  162.18
  -2   0  -2 1979.70  162.38
  -3   0  -2 1125.29  112.29
   3   0   2 1327.87  112.29
   3   0   2 1301.67  111.99
  -3   0  -2 1376.26  112.29
   3   0   2 1431.46  112.29
   4   0   2  987.10   80.59
  -4   0  -2  926.41   80.29
   4   0   2  873.51   80.59
  -4   0  -2  943.31   80.49
   4   0   2  935.81   80.29
  -5   0  -2   95.09   12.30
   5   0   2   99.39   12.50
   5   0   2   77.99   14.40
  -5   0  -2  101.69   13.10
   5   0   2  102.39   14.10
   6   0   2    7.90    9.50
  -6   0  -2    9.20    7.50
  -7   0  -2   77.99   16.60
  -7   0  -2   74.49   12.60
   7   0   2   63.79   16.40
  -8   0  -2   67.09   16.80
   8   0   2   84.69   19.50
  -8   0  -2   77.09   20.50
   8  -1  -2  160.38   26.30
  -8  -1   2  200.18   22.70
   8  -1  -2  185.88   24.90
  -8   1   2  208.58   27.90
  -8   1   2  188.18   22.70
   8   1  -2  169.78   29.90
   7  -1  -2  159.18   23.70
   7  -1  -2  197.38   19.30
  -7  -1   2  137.29   19.00
  -7  -1   2  178.88   20.20
  -7   1   2  195.68   20.90
   7   1  -2  206.88   23.90
   6  -1  -2   25.50   12.90
  -6  -1   2   13.60    4.00
  -6  -1   2   26.80    7.20
   6  -1  -2   21.30    5.90
  -6   1   2   24.70    6.00
   6   1  -2   24.00   11.00
   5  -1  -2  286.47   25.00
   5  -1  -2  286.37   27.70
  -5  -1   2  259.07   25.40
  -5  -1   2  251.17   24.10
   5   1  -2  325.07   27.80
  -5   1   2  267.17   25.10
  -4  -1   2 1420.86  124.59
   4  -1  -2 1443.66  124.49
   4  -1  -2 1510.05  125.59
  -4   1   2 1410.66  124.49
  -4   1   2 1513.05  124.39
   3  -1  -2 4296.27  359.16
   3  -1  -2 4295.17  358.96
  -3  -1   2 3931.61  359.06
  -3   1   2 3942.91  358.86
  -3   1   2 3770.72  359.06
  -3   1   2 4535.75  358.96
   3   1  -2 4855.21  359.96
   2  -1  -2 3893.71  371.56
   2  -1  -2 4473.55  371.36
  -2  -1   2 4214.88  371.46
  -2  -1   2 3770.12  372.06
   2   1  -2 4816.32  372.26
  -2   1   2 4428.46  371.56
   2   1  -2 4630.44  371.56
  -2   1   2 4814.22  371.36
  -1  -1   2   49.99    4.10
  -1  -1   2   47.10    4.50
  -1  -1   2   38.40    5.60
   1  -1  -2   42.80    4.80
   1  -1  -2   48.60    4.10
  -1   1   2   52.19    5.10
   1   1  -2   40.30    4.50
  -1   1   2   39.20    4.10
  -1   1   2   37.90    4.70
   0  -1  -2 1458.35  116.79
   0  -1  -2 1324.27  116.49
   0  -1   2 1426.16  116.59
   0   1   2 1342.17  116.49
   0   1  -2 1391.36  117.29
   0   1  -2 1401.36  116.59
   0   1   2 1284.77  116.69
   0   1   2 1352.86  116.49
   1  -1   2 1645.04  158.98
  -1  -1  -2 1598.14  159.28
  -1  -1  -2 1666.03  158.98
   1  -1   2 1651.13  159.38
   1   1   2 1941.91  159.48
  -1   1  -2 1918.51  159.28
  -1   1  -2 2169.58  159.58
  -1   1  -2 2131.69  159.18
   1   1   2 2134.29  159.08
   2  -1   2 1690.53  146.69
   2  -1   2 1829.42  147.09
  -2  -1  -2 1685.73  146.99
  -2  -1  -2 1925.01  146.69
   2   1   2 1591.04  146.59
  -2   1  -2 1541.55  146.99
  -2   1  -2 1603.84  146.49
   2   1   2 1890.51  146.59
  -2   1  -2 1779.92  147.09
   2   1   2 1698.43  147.09
  -3  -1  -2  435.06   36.20
  -3  -1  -2  433.56   36.20
   3  -1   2  414.06   37.70
  -3  -1  -2  394.66   37.10
   3  -1   2  414.26   36.20
   3  -1   2  452.85   36.40
   3   1   2  433.46   36.30
   3   1   2  361.76   36.00
  -3   1  -2  378.06   35.90
  -4  -1  -2  657.53   60.19
   4  -1   2  606.94   59.99
   4  -1   2  683.73   59.49
   4  -1   2  687.53   59.29
   4   1   2  705.03   59.69
  -4   1  -2  778.02   59.39
   5  -1   2  766.22   66.39
   5  -1   2  661.43   67.49
  -5  -1  -2  726.03   66.49
   5  -1   2  738.33   66.29
   5   1   2  825.42   67.19
  -5   1  -2  816.12   66.39
   5   1   2  809.42   66.69
   6  -1   2  500.25   47.80
   6  -1   2  515.15   46.40
  -6  -1  -2  504.45   46.80
  -6  -1  -2  518.95   49.20
   6  -1   2  555.04   46.90
  -6   1  -2  584.64   47.10
  -6   1  -2  483.85   46.80
   6   1   2  472.35   47.20
  -7  -1  -2  150.68   26.80
   7  -1   2  182.48   22.80
   7  -1   2  123.99   21.60
  -7  -1  -2  184.18   20.20
   7   1   2  118.59   20.60
  -7   1  -2  168.58   21.00
  -7   1  -2  144.19   20.70
  -8  -1  -2    3.30   12.20
  -8  -1  -2  -22.20   18.90
   8  -1   2    3.80   15.10
   8   1   2   -7.00   16.50
  -8   1  -2   25.70   11.50
  -8   1  -2   -0.40   14.10
   8  -2  -2   -2.30   10.20
   8  -2  -2   12.70   15.90
  -8  -2   2    1.70   10.90
  -8   2   2    2.00   10.20
   8   2  -2    9.00   19.20
   7  -2  -2  127.69   22.60
  -7  -2   2  168.28   19.10
   7  -2  -2  163.58   19.00
  -7   2   2  130.19   16.30
   7   2  -2  169.48   23.10
  -6  -2   2  484.15   45.40
   6  -2  -2  464.95   47.40
  -6  -2   2  530.65   43.50
   6  -2  -2  543.05   45.50
   6   2  -2  582.74   47.80
  -6   2   2  432.26   44.30
  -5  -2   2  325.27   31.60
   5  -2  -2  353.56   33.90
  -5  -2   2  360.46   30.00
   5  -2  -2  340.47   31.40
   5   2  -2  412.56   34.00
  -5   2   2  312.27   30.80
   4  -2  -2   74.29    9.00
   4  -2  -2   74.69   12.00
  -4  -2   2   79.49    9.10
  -4  -2   2   67.69    6.50
  -4  -2   2   77.59    6.60
   4   2  -2   72.79   12.20
  -3  -2   2  161.38   16.70
   3  -2  -2  155.38   16.90
   3  -2  -2  178.98   19.00
  -3   2   2  220.48   16.20
  -3   2   2  192.88   17.00
   2  -2  -2  448.26   34.00
  -2  -2   2  375.66   34.00
   2  -2  -2  413.56   35.40
  -2  -2   2  388.26   34.50
   2  -2  -2  367.16   34.70
   2   2  -2  399.76   34.10
   2   2  -2  344.87   35.60
   2   2  -2  416.56   34.50
  -2   2   2  425.56   34.00
  -2   2   2  400.56   34.70
   1  -2  -2 2506.85  217.78
  -1  -2   2 2556.54  217.28
   1  -2  -2 2643.04  217.08
  -1  -2   2 2282.47  217.18
   1  -2  -2 2437.96  217.58
   1   2  -2 2702.53  217.28
   1   2  -2 2556.04  218.68
  -1   2   2 2797.02  217.68
   0  -2  -2 1275.47  112.79
   0  -2   2 1220.98  112.89
   0  -2   2 1455.25  114.39
   0  -2  -2 1324.57  113.29
   0  -2  -2 1099.69  113.19
   0   2  -2 1470.05  114.19
   0   2   2 1362.96  113.39
   0   2   2 1397.76  112.89
   0   2  -2 1210.08  113.09
   0   2  -2 1466.05  112.99
   0   2   2 1349.77  113.29
  -1  -2  -2  682.33   63.49
  -1  -2  -2  703.63   63.19
   1  -2   2  718.93   63.49
   1  -2   2  795.12   64.39
  -1  -2  -2  743.93   63.69
   1  -2   2  628.14   63.19
  -1   2  -2  679.63   63.39
  -1   2  -2  772.52   64.19
   1   2   2  700.73   63.59
   1   2   2  842.22   63.39
   1   2   2  861.81   63.59
  -1   2  -2  771.32   63.39
   2  -2   2  112.99   10.80
  -2  -2  -2  108.49   11.10
  -2  -2  -2  108.59   11.40
   2   2   2  121.89   11.10
  -2   2  -2  103.19   11.60
  -2   2  -2  121.69   12.40
   2   2   2  123.89   11.20
  -2   2  -2  115.49   12.10
  -2   2  -2  123.89   10.90
   2   2   2  123.19   11.40
   3  -2   2 1462.25  123.09
   3  -2   2 1342.37  123.69
  -3  -2  -2 1501.05  122.99
  -3  -2  -2 1505.45  123.39
   3  -2   2 1593.44  122.69
   3   2   2 1349.56  123.89
  -3   2  -2 1388.06  123.89
  -3   2  -2 1417.46  122.59
   3   2   2 1391.36  122.89
   4  -2   2 1390.66  112.29
  -4  -2  -2 1152.98  113.19
  -4  -2  -2 1306.67  112.69
   4  -2   2 1361.66  112.59
   4  -2   2 1209.08  113.29
   4   2   2 1292.17  112.59
  -4   2  -2 1478.25  113.99
   5  -2   2  289.47   31.90
   5  -2   2  315.67   29.60
  -5  -2  -2  329.67   30.70
   5  -2   2  344.57   30.60
   5   2   2  368.36   31.60
  -5   2  -2  317.87   29.70
  -5   2  -2  327.17   32.70
   6  -2   2   13.10    8.30
   6  -2   2   12.50   11.00
  -6  -2  -2   19.90    8.80
   6  -2   2    9.30    8.70
  -6  -2  -2   -5.50   11.60
   6   2   2   15.30   11.40
  -6   2  -2   14.90   11.80
  -6   2  -2    1.20    6.70
  -7  -2  -2  179.08   21.70
   7  -2   2  153.28   21.50
   7  -2   2  131.89   23.30
   7   2   2  163.78   24.10
  -7   2  -2  172.28   30.30
  -7   2  -2  159.88   19.10
  -7   2  -2  213.78   25.80
   8  -2   2  113.39   22.40
  -8  -2  -2  165.88   23.10
   8  -2   2  164.58   26.30
  -8   2  -2  153.18   20.70
  -8   2  -2  198.98   29.80
  -8   2  -2  178.38   29.40
   8  -3  -2  144.59   26.80
  -8  -3   2  180.58   23.00
   8  -3  -2  177.38   24.10
   8   3  -2  192.88   30.80
  -8   3   2  141.49   19.30
  -7  -3   2  157.38   21.50
   7  -3  -2  187.98   23.30
   7  -3  -2  158.48   25.50
  -7   3   2  180.88   18.90
   7   3  -2  227.08   26.20
   6  -3  -2   83.19   13.30
   6  -3  -2   62.09   14.70
  -6  -3   2   77.59   11.30
  -6   3   2   61.99    9.10
   6   3  -2   91.29   15.40
  -5  -3   2  180.28   20.70
   5  -3  -2  193.28   23.80
  -5   3   2  243.88   19.50
  -4  -3   2  736.73   64.19
   4  -3  -2  688.93   65.49
  -4  -3   2  709.13   65.19
   4  -3  -2  684.73   66.69
  -4   3   2  821.62   64.49
  -4   3   2  870.81   64.69
   3  -3  -2 1444.16  120.79
   3  -3  -2 1371.16  119.89
  -3  -3   2 1304.47  118.89
  -3  -3   2 1428.46  119.59
  -3   3   2 1505.45  118.79
   3   3  -2 1343.57  120.99
   2  -3  -2  434.46   37.20
  -2  -3   2  393.56   35.50
   2  -3  -2  414.96   36.40
  -2  -3   2  432.66   35.90
  -2   3   2  461.75   37.60
   2   3  -2  345.07   38.50
   2   3  -2  407.16   35.70
  -1  -3   2  717.73   58.69
   1  -3  -2  647.34   59.69
  -1  -3   2  687.33   60.79
   1  -3  -2  747.03   58.29
  -1  -3   2  638.94   58.69
  -1   3   2  642.04   59.19
  -1   3   2  698.23   59.39
   1   3  -2  658.93   58.79
   1   3  -2  679.23   60.89
   1   3  -2  715.83   58.69
  -1   3   2  709.63   59.79
   0  -3  -2 2452.85  185.28
   0  -3  -2 2208.98  185.98
   0  -3   2 2269.27  185.38
   0  -3  -2 2319.27  185.28
   0  -3   2 2123.19  185.68
   0   3  -2 2051.29  186.78
   0   3  -2 2208.58  185.38
   0   3   2 1941.81  186.08
   0   3   2 2066.79  185.28
   1  -3   2 3075.39  258.77
  -1  -3  -2 3525.85  259.67
  -1  -3  -2 3263.17  258.77
  -1  -3  -2 2905.61  259.07
   1  -3   2 3086.49  259.17
  -1  -3  -2 3240.98  258.67
  -1   3  -2 3086.79  258.67
   1   3   2 2881.21  258.77
  -1   3  -2 2701.13  259.87
   1   3   2 2709.43  259.57
  -2  -3  -2 1329.97  120.69
  -2  -3  -2 1273.47  121.29
   2  -3   2 1513.55  120.29
  -2  -3  -2 1553.34  120.69
   2  -3   2 1283.27  120.89
   2   3   2 1645.34  121.39
  -2   3  -2 1459.25  121.79
  -2   3  -2 1189.08  120.39
   2   3   2 1317.27  120.99
   2   3   2 1583.44  120.69
  -3  -3  -2  303.57   31.00
   3  -3   2  341.67   29.90
  -3  -3  -2  310.37   30.50
   3  -3   2  329.67   31.00
  -3   3  -2  371.76   32.50
  -3   3  -2  347.57   30.10
   3   3   2  314.97   30.90
   3   3   2  387.16   30.90
   3   3   2  375.76   30.70
  -4  -3  -2  104.09   13.20
   4  -3   2   99.09   10.50
   4  -3   2   74.99   13.90
   4  -3   2   85.99   12.80
  -4  -3  -2   93.49   12.00
  -4   3  -2  125.69   17.70
  -5  -3  -2  815.72   67.09
  -5  -3  -2  694.53   66.89
   5  -3   2  798.42   67.69
   5  -3   2  733.23   65.99
  -5   3  -2  744.23   68.89
  -5   3  -2  787.42   66.19
   6  -3   2  379.96   38.70
  -6  -3  -2  336.07   36.60
   6  -3   2  337.97   35.70
  -6  -3  -2  426.96   37.20
   6   3   2  455.85   38.30
  -6   3  -2  410.06   41.80
  -6   3  -2  372.36   35.60
  -7  -3  -2   75.19   14.60
   7  -3   2   55.69   19.60
   7  -3   2   94.09   16.50
  -7  -3  -2   95.69   14.90
  -7   3  -2   80.09   21.20
   7   3   2   98.39   17.70
  -7   3  -2   74.99   11.70
  -8  -3  -2   -9.90   12.90
   8  -3   2   -5.30   12.70
   8  -3   2    2.30   16.60
   8   3   2   22.50   17.20
  -8   3  -2   -1.20   17.70
  -8   3  -2    3.60   17.20
  -8   3  -2  -17.60   11.50
   8  -4  -2   -5.40   14.00
   8   4  -2    3.10   18.20
   7  -4  -2  121.39   19.00
  -7  -4   2  123.39   15.70
   7  -4  -2   97.09   22.40
  -7   4   2   77.69   12.90
   7   4  -2  147.79   23.50
  -7   4   2  102.19   20.90
   6  -4  -2  347.87   42.40
   6  -4  -2  433.36   38.00
  -6  -4   2  381.26   37.30
  -6   4   2  450.95   44.60
  -6   4   2  386.26   34.80
   5  -4  -2  964.70   79.19
  -5  -4   2  865.91   76.79
  -5  -4   2  904.91   78.49
   5  -4  -2  840.72   80.59
   5   4  -2 1036.30   81.19
  -5   4   2  954.40   81.59
  -5   4   2  876.71   76.99
  -5   4   2  812.32   76.99
   4  -4  -2  542.85   47.70
  -4  -4   2  530.45   46.80
  -4  -4   2  479.55   45.60
   4  -4  -2  491.15   49.00
  -4   4   2  552.64   45.40
  -4   4   2  500.85   45.50
   4   4  -2  548.15   49.70
  -4   4   2  583.94   49.90
   4   4  -2  567.14   46.20
  -3  -4   2  129.09   12.80
  -3  -4   2  137.69   14.80
   3  -4  -2  148.49   15.60
   3   4  -2  156.58   19.00
  -2  -4   2 2030.50  176.88
  -2  -4   2 2323.37  177.08
   2  -4  -2 2143.69  177.68
   2   4  -2 1750.22  179.18
  -2   4   2 2167.28  178.78
   2   4  -2 2052.89  176.98
   1  -4  -2 2836.42  256.67
  -1  -4   2 2821.02  256.27
   1  -4  -2 2989.40  255.67
   1   4  -2 2989.60  256.37
  -1   4   2 3178.48  257.57
   1   4  -2 3291.17  258.77
   0  -4  -2  848.42   79.79
   0  -4  -2  913.91   78.79
   0  -4   2  864.81   79.59
   0  -4  -2  973.90   80.29
   0  -4   2  890.41   78.89
   0  -4  -2  918.21   78.89
   0   4  -2 1007.10   81.69
   0   4   2 1003.70   80.69
   1  -4   2  287.77   23.40
  -1  -4  -2  245.18   24.20
   1  -4   2  269.77   24.40
  -1  -4  -2  278.17   25.00
  -1  -4  -2  245.48   23.20
  -1   4  -2  250.47   25.90
   1   4   2  241.88   25.90
  -1   4  -2  297.77   23.20
   2  -4   2 1630.24  128.19
  -2  -4  -2 1547.65  128.59
   2  -4   2 1489.85  129.09
  -2  -4  -2 1417.46  128.69
  -2  -4  -2 1428.46  129.39
  -2   4  -2 1679.33  128.19
  -2   4  -2 1513.15  130.19
   2   4   2 1334.37  129.39
  -3  -4  -2 1426.46  132.39
  -3  -4  -2 1615.54  132.59
   3  -4   2 1695.23  131.89
   3  -4   2 1598.34  132.99
   3   4   2 1477.95  132.89
  -3   4  -2 1478.25  134.09
   4  -4   2  510.25   46.60
   4  -4   2  534.65   44.80
  -4  -4  -2  482.45   45.60
  -4  -4  -2  487.95   45.80
  -4   4  -2  485.65   48.10
   4   4   2  586.44   46.50
  -5  -4  -2   15.50    8.10
   5  -4   2   19.10    5.60
   5  -4   2   17.50    9.20
  -5  -4  -2   23.50    6.30
   5  -4   2    8.80   13.30
  -5   4  -2   10.30   13.50
  -5   4  -2   24.30    4.90
   5   4   2   22.10   12.50
  -6  -4  -2   15.10    8.10
   6  -4   2    8.60    7.00
   6  -4   2   21.40   10.60
  -6  -4  -2   -0.90    9.10
   6  -4   2  -11.00   12.40
  -6   4  -2   -4.30   12.50
   6   4   2    2.40   12.60
  -6   4  -2   -2.10    6.90
   7  -4   2   59.79   20.60
  -7  -4  -2   62.09   13.60
   7  -4   2   61.99   14.30
   7   4   2   57.49   16.60
  -7   4  -2   61.79   21.30
  -7   4  -2   49.60   10.70
   8  -5  -2   96.79   24.20
  -8  -5   2  113.79   19.40
   8  -5  -2  137.89   21.50
  -8   5   2  127.89   26.50
   8   5  -2  140.39   28.50
   7  -5  -2  118.59   24.30
   7  -5  -2  212.68   27.70
  -7  -5   2  177.18   22.50
   7   5  -2  192.98   33.00
  -7   5   2  162.48   29.80
   6  -5  -2   90.29   15.70
   6  -5  -2   45.70   17.00
  -6  -5   2   63.29   12.00
   6   5  -2   86.19   18.20
  -6   5   2   68.79   18.10
  -6   5   2   60.09    7.50
  -5  -5   2  138.89   16.70
   5  -5  -2  153.28   19.00
   5  -5  -2  130.79   21.70
   5   5  -2  134.99   15.30
   5   5  -2  181.58   24.00
  -5   5   2  119.69   11.80
  -5   5   2  131.39   23.10
  -4  -5   2  453.85   41.70
  -4  -5   2  461.65   40.60
   4  -5  -2  473.25   43.10
   4  -5  -2  406.56   44.40
   4   5  -2  506.25   46.30
  -4   5   2  509.95   45.70
  -3  -5   2  804.72   68.69
   3  -5  -2  745.23   69.59
  -3  -5   2  787.42   68.29
  -3   5   2  817.12   71.49
   3   5  -2  755.52   72.39
   3   5  -2  843.12   68.49
  -2  -5   2  352.06   29.60
  -2  -5   2  316.97   29.20
   2  -5  -2  321.77   30.80
   1  -5  -2  103.39    8.90
   1  -5  -2  103.29    8.90
  -1  -5   2  101.29   10.00
  -1  -5   2   93.89   10.80
   1  -5  -2   96.49   12.30
  -1   5   2   82.39   13.80
   1   5  -2   84.09   15.10
   0  -5   2 1696.63  162.28
   0  -5  -2 1911.81  159.58
   0  -5   2 1946.31  159.78
   0  -5  -2 1975.20  159.68
   0  -5  -2 1942.71  160.98
   0   5  -2 1955.70  159.78
   0   5   2 1772.42  161.68
   0   5  -2 1808.22  162.28
   1  -5   2 2246.58  207.98
  -1  -5  -2 2308.37  207.88
  -1  -5  -2 2483.95  207.18
   1  -5   2 2544.15  207.08
  -1   5  -2 2677.03  206.98
   1   5   2 2352.06  209.18
  -2  -5  -2 1939.31  165.68
   2  -5   2 2081.39  164.78
  -2  -5  -2 2048.79  165.18
   2  -5   2 2036.30  165.98
  -2   5  -2 1966.00  164.58
  -2   5  -2 1774.52  167.08
   2   5   2 1697.43  166.68
  -3  -5  -2  326.77   31.20
   3  -5   2  343.47   29.30
  -3  -5  -2  325.57   30.60
   3  -5   2  343.67   32.00
  -3   5  -2  357.06   29.60
  -3   5  -2  319.37   33.90
   3   5   2  323.37   32.50
   4  -5   2  134.99   18.10
  -4  -5  -2  122.69   15.50
  -4  -5  -2  117.49   15.90
   4  -5   2  133.19   12.90
   4   5   2  144.09   18.40
  -4   5  -2  138.39   23.30
  -5  -5  -2  134.19   15.80
   5  -5   2  133.09   13.80
   5  -5   2  163.98   20.10
  -5  -5  -2  141.79   17.60
  -5   5  -2  123.99   13.70
   5   5   2  154.98   20.60
  -5   5  -2  142.49   23.10
  -6  -5  -2   94.69   15.10
  -6  -5  -2   82.49   14.40
   6  -5   2  120.59   20.40
   6   5   2  121.29   17.80
  -6   5  -2   80.09   11.80
  -6   5  -2   80.59   18.60
   7  -5   2   35.40   14.10
   7   5   2   23.40   13.80
  -7   5  -2   18.00   10.60
  -7   5  -2   25.00   18.10
   7  -6  -2  138.39   24.70
   7   6  -2  133.89   25.40
  -6  -6   2  269.57   29.30
   6  -6  -2  211.58   36.60
   6  -6  -2  318.87   32.20
   6   6  -2  377.86   57.69
  -6   6   2  271.27   35.90
  -5  -6   2  208.18   23.30
   5  -6  -2  235.68   26.50
  -5  -6   2  208.58   20.30
  -5   6   2  214.88   30.00
   5   6  -2  273.97   34.80
   4  -6  -2   86.59   13.50
  -4  -6   2   74.39    9.80
  -4  -6   2   78.69   12.10
   4   6  -2   87.19   20.90
  -4   6   2   76.39   16.70
  -3  -6   2   10.70    6.00
  -3  -6   2    9.60    4.40
   3  -6  -2   11.80    8.60
   3   6  -2   -0.10   13.20
  -3   6   2    6.90   11.20
   2  -6  -2   56.89   10.10
  -2  -6   2   54.39    7.50
  -2  -6   2   44.80    8.20
   2   6  -2   77.99   17.50
   1  -6  -2  222.18   22.90
  -1  -6   2  207.88   21.40
   1  -6  -2  216.38   19.50
   1  -6  -2  231.58   19.50
  -1  -6   2  243.08   20.80
   1   6  -2  217.38   27.40
  -1   6   2  219.88   25.00
   0  -6  -2  329.37   29.50
   0  -6   2  300.67   28.50
   0  -6  -2  325.57   26.90
   0  -6   2  332.07   27.10
   0  -6  -2  283.27   26.60
   0   6   2  291.87   31.00
   0   6  -2  262.27   31.70
   1  -6   2   88.99    9.20
  -1  -6  -2   86.99   13.10
  -1  -6  -2   83.09    9.30
   1  -6   2   84.09   12.70
   1   6   2   72.29   13.70
  -1   6  -2   83.59   16.30
   2  -6   2  135.99   16.20
  -2  -6  -2  137.29   19.60
   2  -6   2  164.38   14.50
  -2  -6  -2  133.79   15.30
  -2   6  -2  148.29   21.10
   2   6   2  181.08   20.30
  -3  -6  -2  550.54   46.20
   3  -6   2  601.24   44.90
   3  -6   2  577.74   48.00
  -3  -6  -2  425.16   50.99
   3   6   2  462.95   51.69
  -3   6  -2  492.25   50.09
  -3   6  -2  479.25   44.60
   4  -6   2  621.04   53.39
  -4  -6  -2  558.24   51.59
   4  -6   2  578.14   49.80
  -4   6  -2  509.65   56.79
   4   6   2  610.64   53.99
   5  -6   2  130.29   21.00
  -5  -6  -2  113.39   15.40
  -5  -6  -2  116.99   18.50
  -5   6  -2   96.59   20.60
   5   6   2  119.89   19.00
   6  -6   2   30.30   14.20
  -6  -6  -2   25.60   15.30
  -6   6  -2    7.00   20.10
   6   6   2   32.00   16.40
   7  -6   2  108.99   19.50
  -7  -6  -2   67.69   16.60
  -7   6  -2   65.59   22.60
   7   6   2  115.69   21.20
  -6  -7   2    3.40   11.50
   6  -7  -2   -1.70   13.90
  -6   7   2   18.80   23.10
   6   7  -2   -6.30   24.10
  -5  -7   2   60.99   12.10
  -5  -7   2   59.79   11.90
   5  -7  -2   72.19   15.50
   5   7  -2   83.09   24.10
  -5   7   2   61.69   19.60
  -4  -7   2  333.57   29.00
  -4  -7   2  301.77   29.80
   4  -7  -2  342.27   33.50
   4   7  -2  291.37   38.40
  -4   7   2  231.38   38.80
  -3  -7   2  263.27   23.90
   3  -7  -2  264.07   27.30
  -3  -7   2  256.17   23.60
  -3   7   2  192.38   29.80
   3   7  -2  171.18   31.90
   2  -7  -2  160.48   20.30
  -2  -7   2  158.38   17.10
  -2  -7   2  170.48   16.20
  -2   7   2  121.89   22.90
   2   7  -2  125.59   22.80
  -1  -7   2   22.30    5.60
   1  -7  -2   26.60    9.60
   1  -7  -2   24.30    3.50
   1  -7  -2   22.10    3.60
  -1  -7   2   28.90    9.00
  -1   7   2   29.10   12.30
   1   7  -2   39.10   14.70
   0  -7  -2  302.87   38.10
   0  -7   2  339.97   31.80
   0  -7   2  360.36   29.60
   0  -7  -2  338.97   29.30
   0   7  -2  321.17   36.00
   0   7   2  298.47   34.80
  -1  -7  -2  773.92   65.29
  -1  -7  -2  760.72   63.39
   1  -7   2  746.23   65.09
  -1   7  -2  686.63   67.59
   1   7   2  677.93   67.19
  -2  -7  -2  607.94   55.19
   2  -7   2  649.43   55.69
  -2  -7  -2  607.94   53.59
   2  -7   2  627.74   53.09
   2   7   2  596.94   58.89
  -2   7  -2  596.64   52.59
  -2   7  -2  599.54   58.59
   3  -7   2  188.48   22.60
   3  -7   2  185.78   15.80
  -3  -7  -2  169.18   20.40
  -3  -7  -2  151.78   18.50
   3   7   2  148.39   23.10
  -3   7  -2  160.68   26.60
   4  -7   2   59.79   14.00
  -4  -7  -2   55.99   10.60
  -4  -7  -2   56.99   10.70
   4   7   2   40.60   15.50
  -4   7  -2   26.20   16.50
  -5  -7  -2  184.28   21.80
  -5  -7  -2  180.28   22.80
   5  -7   2  199.68   26.40
  -5   7  -2  135.89   26.20
   5   7   2  188.08   24.30
   6  -7   2  161.68   25.80
   6   7   2  150.98   27.80
  -6  -8   2  117.69   18.00
   6  -8  -2  101.79   24.60
   6   8  -2  136.79   27.70
  -6   8   2  121.69   31.50
  -5  -8   2  239.18   27.50
   5  -8  -2  256.57   32.90
  -5   8   2  266.97   38.10
   5   8  -2  249.78   38.60
  -4  -8   2  122.99   16.40
   4  -8  -2  151.48   24.60
  -4  -8   2  132.29   18.00
   4   8  -2  151.58   26.70
  -4   8   2  115.79   24.40
  -3  -8   2   21.70    8.30
  -3  -8   2   10.40    7.90
   3  -8  -2    8.50   12.70
  -3   8   2    2.70   16.10
   3   8  -2  -11.10   21.40
  -2  -8   2  526.25   46.20
   2  -8  -2  572.44   50.09
  -2  -8   2  595.14   48.50
  -2   8   2  460.55   52.39
   2   8  -2  405.16   53.29
  -1  -8   2  783.92   66.39
   1  -8  -2  780.62   63.79
  -1  -8   2  739.33   64.59
   1  -8  -2  799.92   67.99
  -1   8   2  678.53   69.79
   1   8  -2  647.54   72.29
   0  -8  -2  272.97   29.50
   0  -8   2  297.77   28.50
   0  -8  -2  295.77   24.40
   0  -8   2  259.87   24.70
   0   8  -2  220.98   36.50
   0   8   2  207.08   34.80
  -1  -8  -2    5.50    6.30
  -1  -8  -2    4.70   10.10
   1  -8   2    6.90    9.90
   1  -8   2   22.10    5.50
   1   8   2   -3.30   16.70
  -1   8  -2   -8.00   14.10
  -2  -8  -2  275.17   27.20
   2  -8   2  315.27   30.90
   2  -8   2  303.77   25.60
  -2  -8  -2  308.47   29.90
   2   8   2  220.08   35.60
  -2   8  -2  206.98   34.20
  -3  -8  -2  262.17   26.40
  -3  -8  -2  285.97   30.80
   3  -8   2  312.67   31.40
  -3   8  -2  232.68   35.10
   3   8   2  244.38   32.10
  -4  -8  -2  100.39   14.40
  -4  -8  -2   90.49   14.80
   4  -8   2  101.29   18.20
  -4   8  -2  103.59   22.50
   4   8   2   96.59   18.20
  -5  -8  -2    1.50   11.20
   5  -8   2    5.90   16.90
  -5  -8  -2   10.40   12.20
   5   8   2    2.90   17.20
  -5  -9   2   67.19   15.70
   5  -9  -2   76.69   19.50
   5   9  -2   72.69   31.10
  -5   9   2   22.90   24.50
  -4  -9   2  198.58   24.90
  -4  -9   2  197.38   23.40
   4  -9  -2  232.48   30.60
   4   9  -2  203.48   36.30
  -4   9   2  183.08   35.40
   3  -9  -2  421.86   42.00
  -3  -9   2  426.06   39.10
  -3  -9   2  358.46   36.40
   3   9  -2  327.67   47.20
  -3   9   2  385.76   46.70
   2  -9  -2  150.28   25.40
  -2  -9   2  170.78   23.30
  -2  -9   2  132.19   18.20
  -2   9   2  175.98   30.70
   2   9  -2   91.69   25.60
  -1  -9   2   53.49   14.40
   1  -9  -2   38.20   14.20
  -1  -9   2   39.10    7.80
   1   9  -2   33.50   20.10
  -1   9   2   10.80   17.90
   0  -9   2  264.37   31.00
   0  -9  -2  297.77   32.50
   0  -9  -2  273.17   25.60
   0   9  -2  286.47   38.00
   0   9   2  297.77   36.50
   1  -9   2  394.86   39.90
  -1  -9  -2  405.26   40.20
   1  -9   2  411.16   35.50
  -1  -9  -2  373.66   35.10
  -1   9  -2  391.56   45.60
   1   9   2  362.76   46.10
  -2  -9  -2  135.39   21.90
  -2  -9  -2  132.09   17.10
   2  -9   2  151.38   23.30
  -2   9  -2  113.69   24.60
   3  -9   2   28.70   14.70
  -3  -9  -2   13.00   17.70
  -3  -9  -2   15.80    8.60
  -3   9  -2   16.80   19.80
   3   9   2   13.80   19.30
   4  -9   2   13.50   18.80
  -4  -9  -2   49.40   11.60
  -4  -9  -2   52.79   13.50
   4   9   2   49.30   17.50
  -4   9  -2   19.80   23.90
  -3 -10   2   42.70   12.70
   3 -10  -2   45.50   18.40
  -3 -10   2   28.00   12.40
   3  10  -2   12.60   28.20
  -2 -10   2  120.19   17.60
   2 -10  -2  113.79   21.00
  -2 -10   2   93.89   14.70
  -2  10   2  111.79   26.30
   2  10  -2   92.69   26.30
   1 -10  -2  164.18   27.20
  -1 -10   2  162.88   18.30
  -1 -10   2  160.78   24.30
   1  10  -2  148.39   29.20
  -1  10   2  116.09   31.40
   0 -10   2  110.99   18.00
   0 -10  -2  130.09   20.00
   0 -10   2   83.69   12.20
   0  10  -2   72.09   24.20
   0  10   2  119.99   24.30
  -1 -10  -2   41.00    8.90
  -1 -10  -2   39.80   15.80
   1 -10   2   47.90   15.20
   1  10   2   44.10   20.00
  -1  10  -2   20.70   26.40
  -2 -10  -2   24.70   15.00
  -2 -10  -2    8.00    7.80
   2  10   2   21.20   20.80
   3 -10   2  105.19   20.90
  -3 -10  -2   97.29   21.30
  -3 -10  -2  105.19   15.60
  -3  10  -2   75.79   31.10
   3  10   2  107.29   22.70
   9   0  -3   34.90   32.90
  -9   0   3   39.50   12.70
   8   0  -3  151.58   25.20
  -8   0   3  151.18   19.30
   7   0  -3   69.49   15.30
  -7   0   3   64.69   10.40
  -6   0   3    6.70    6.00
  -6   0   3    6.10    4.20
   6   0  -3    0.20    4.60
   6   0  -3    9.20   10.90
   5   0  -3 1466.55  118.59
  -5   0   3 1329.07  116.99
   5   0  -3 1312.47  116.49
  -4   0   3 2933.21  252.87
  -4   0   3 3211.08  253.77
   4   0  -3 2801.72  252.77
   3   0  -3 3438.56  276.87
  -3   0   3 3324.27  276.77
  -3   0   3 3172.18  276.57
   3   0  -3 3110.89  276.57
  -2   0   3   73.79    8.00
   2   0  -3   79.89    8.80
  -2   0   3   69.79    6.70
   2   0  -3   60.39    6.60
   2   0  -3   67.49    6.60
  -1   0   3  359.06   30.50
  -1   0   3  351.26   30.40
   1   0  -3  377.56   31.10
   1   0  -3  356.76   30.40
  -1   0   3  323.37   30.70
   1   0  -3  358.16   30.60
   0   0  -3 2132.79  193.58
   0   0  -3 2349.67  193.38
   0   0   3 2311.67  193.58
   0   0   3 2275.57  193.28
   0   0   3 2482.95  193.28
   0   0  -3 2102.09  193.28
  -1   0  -3  708.83   64.19
  -1   0  -3  783.32   64.39
  -1   0  -3  769.12   63.79
   1   0   3  755.92   63.79
  -1   0  -3  717.73   63.69
   2   0   3    2.90    2.70
  -2   0  -3    6.80    3.30
  -2   0  -3    6.40    4.30
   2   0   3    6.90    3.80
  -2   0  -3    4.50    4.20
   2   0   3    2.00    2.70
  -2   0  -3    6.20    2.40
   3   0   3  879.61   76.79
   3   0   3  962.60   77.39
  -3   0  -3  867.61   77.09
   3   0   3  868.11   76.89
   4   0   3  841.02   76.99
  -4   0  -3  877.31   77.09
   4   0   3  913.01   77.09
   4   0   3  925.41   76.69
  -5   0  -3  674.03   55.29
  -5   0  -3  628.24   56.29
   5   0   3  582.44   55.39
   5   0   3  631.14   55.29
  -6   0  -3  264.87   25.80
   6   0   3  270.27   26.30
   6   0   3  260.37   28.10
  -6   0  -3  238.88   28.80
   7   0   3   48.70   13.40
  -7   0  -3   58.19   16.80
  -7   0  -3   63.49   12.10
  -8   0  -3   14.30   11.90
   8   0   3   20.00   17.20
  -8   0  -3   -1.70   16.10
   9  -1  -3   32.40   18.50
  -9  -1   3   35.50   13.10
  -9   1   3   27.40   13.90
   8  -1  -3   14.20   18.90
   8  -1  -3   30.30   10.00
  -8  -1   3   23.50   10.70
   8   1  -3   12.60   16.10
  -8   1   3   28.90   11.10
  -8   1   3    8.30   14.20
   7  -1  -3  201.78   26.40
   7  -1  -3  224.98   21.10
  -7  -1   3  202.68   20.90
  -7  -1   3  217.68   22.30
  -7   1   3  198.78   24.10
   7   1  -3  218.08   26.60
   6  -1  -3  470.95   41.10
  -6  -1   3  484.15   41.70
  -6  -1   3  422.76   40.10
   6  -1  -3  473.85   44.20
  -6   1   3  494.65   41.20
  -5  -1   3  447.16   38.50
   5  -1  -3  448.56   40.10
   5   1  -3  499.55   40.30
  -5   1   3  404.86   37.20
  -5   1   3  358.16   37.30
  -4  -1   3  102.79    8.90
   4  -1  -3  107.09   10.60
  -4  -1   3  104.79   11.30
   4  -1  -3  124.89   14.30
  -4   1   3   88.59   10.20
  -4   1   3   86.39   10.20
  -3  -1   3 2207.58  182.48
   3  -1  -3 2219.38  182.28
   3  -1  -3 2097.49  182.48
   3   1  -3 2337.87  183.58
  -3   1   3 1872.21  182.18
  -2  -1   3 4445.96  361.76
   2  -1  -3 4184.38  361.86
   2  -1  -3 4313.37  361.56
  -2   1   3 4397.06  361.86
   2   1  -3 4484.35  361.76
   2   1  -3 3863.11  362.46
  -2   1   3 4162.28  361.56
  -1  -1   3 4126.69  349.67
   1  -1  -3 4254.77  349.67
   1  -1  -3 3549.34  349.87
  -1  -1   3 3794.72  349.67
   1   1  -3 4679.43  349.77
  -1   1   3 4340.47  349.87
   0  -1   3  426.86   33.00
   0  -1  -3  411.76   33.20
   0  -1  -3  424.46   33.20
   0  -1   3  433.96   33.00
   0   1  -3  319.17   33.60
   0   1   3  387.86   32.60
   0   1  -3  338.27   33.00
   0   1  -3  317.07   33.20
   1  -1   3  959.70   82.39
   1  -1   3  906.01   81.89
  -1  -1  -3  900.71   81.79
   1  -1   3  888.11   81.89
   1   1   3 1092.19   81.89
  -1   1  -3 1042.10   81.99
   1   1   3  855.71   82.09
  -1   1  -3 1039.10   82.39
   2  -1   3 1698.63  153.28
   2  -1   3 1490.15  153.38
   2  -1   3 1749.53  153.08
   2   1   3 1811.12  153.28
   2   1   3 1984.40  152.98
  -2   1  -3 1894.81  153.68
  -2   1  -3 1977.80  153.68
   2   1   3 1785.32  153.88
  -2   1  -3 1808.02  153.38
   3  -1   3 1152.38  101.99
   3  -1   3 1146.79  102.09
  -3  -1  -3 1105.99  103.29
   3  -1   3 1070.39  103.29
   3   1   3 1322.07  102.29
  -3   1  -3 1363.06  103.09
  -4  -1  -3 1103.39   95.69
   4  -1   3 1233.18   94.49
   4  -1   3 1129.29   93.99
  -4  -1  -3 1183.28   94.29
   4  -1   3 1016.80   94.49
   4   1   3 1035.30   93.99
  -4   1  -3 1066.59   94.09
   4   1   3  995.20   94.09
  -5  -1  -3   77.09   15.60
   5  -1   3   90.19   14.70
  -5  -1  -3   96.99   12.70
   5  -1   3   99.99   12.30
   5  -1   3   94.69   16.00
   5   1   3   92.99   13.10
   5   1   3   72.49   12.10
  -5   1  -3   90.49   13.70
  -5   1  -3   81.59   11.90
   6  -1   3  106.59   16.00
  -6  -1  -3  117.39   17.80
   6  -1   3   91.99   12.90
   6  -1   3   87.89   15.90
  -6  -1  -3   93.19   13.30
   6   1   3   87.89   17.20
  -6   1  -3  104.79   14.10
  -6   1  -3   99.89   16.20
   6   1   3   82.49   13.30
  -7  -1  -3  171.18   21.80
  -7  -1  -3  253.17   30.70
   7  -1   3  161.88   23.10
   7  -1   3  145.59   22.10
  -7   1  -3  186.68   25.80
   7   1   3  154.48   24.20
  -7   1  -3  186.38   20.90
  -8  -1  -3   61.89   24.30
   8  -1   3   58.59   19.50
  -8  -1  -3   93.99   20.20
  -8   1  -3   67.99   22.80
  -8   1  -3   51.69   17.30
   8   1   3   50.99   18.30
  -8   1  -3   78.99   14.00
  -8  -2   3  169.98   21.30
   8  -2  -3  125.09   23.20
   8  -2  -3  169.48   19.10
  -8   2   3  149.29   19.50
   8   2  -3  174.08   26.50
   7  -2  -3   26.30   14.40
  -7  -2   3   46.90   10.30
   7  -2  -3   48.90    9.90
   7   2  -3   73.29   16.10
  -7   2   3   38.20    9.00
   6  -2  -3   49.70   12.70
   6  -2  -3   40.10    8.20
  -6  -2   3   35.70    8.30
  -6   2   3   32.20    6.20
   6   2  -3   46.90   15.80
   5  -2  -3  300.97   31.60
   5  -2  -3  322.97   28.80
  -5  -2   3  328.07   29.00
  -5   2   3  287.47   28.00
   5   2  -3  362.16   33.50
  -4  -2   3  500.15   46.30
   4  -2  -3  499.35   46.50
   4  -2  -3  519.85   45.80
   4  -2  -3  495.25   49.00
  -4   2   3  535.55   45.80
  -4   2   3  550.74   45.90
   4   2  -3  628.84   48.50
   3  -2  -3 1158.88   95.29
   3  -2  -3 1128.79   95.99
  -3  -2   3 1146.19   95.69
   3  -2  -3 1293.97   96.99
   3   2  -3 1045.30   96.99
  -3   2   3 1134.79   95.29
  -3   2   3  937.51   95.79
   2  -2  -3   96.09   11.10
   2  -2  -3  113.49   12.20
  -2  -2   3  102.69    9.90
  -2  -2   3  107.99   11.20
   2   2  -3  130.79   10.80
   2   2  -3  103.59   14.60
   2   2  -3  125.59   10.30
  -2   2   3  130.39   11.20
   1  -2  -3  281.47   21.80
  -1  -2   3  282.57   21.10
  -1  -2   3  252.97   23.30
   1   2  -3  204.68   21.10
  -1   2   3  223.88   21.50
  -1   2   3  254.67   21.70
  -1   2   3  200.28   20.90
   0  -2   3 1376.36  102.29
   0  -2  -3 1181.68  102.49
   0  -2   3 1203.58  102.29
   0   2  -3 1218.18  103.39
   0   2   3 1171.98  102.39
   0   2   3 1162.58  102.49
   0   2  -3 1314.57  102.29
   0   2   3 1141.99  102.29
   0   2  -3 1039.70  102.19
   1  -2   3 1766.02  150.88
  -1  -2  -3 2017.00  150.58
  -1  -2  -3 1840.42  150.98
   1  -2   3 1800.12  150.78
   1   2   3 1891.11  150.58
   1   2   3 1801.02  150.88
  -1   2  -3 1685.03  151.38
  -1   2  -3 1534.85  150.98
  -1   2  -3 1602.64  150.68
   2  -2   3 1776.62  158.28
   2  -2   3 1913.71  158.08
   2  -2   3 2069.19  159.38
  -2  -2  -3 1797.62  158.68
  -2   2  -3 1750.42  158.08
   2   2   3 1880.41  158.18
   2   2   3 2070.89  157.98
  -2   2  -3 1606.54  158.58
   3  -2   3  365.86   30.10
   3  -2   3  293.07   31.50
   3  -2   3  351.16   30.60
  -3  -2  -3  339.47   32.10
  -3  -2  -3  365.76   30.60
   3   2   3  393.96   30.30
   3   2   3  299.77   30.40
  -3   2  -3  314.07   31.40
   4  -2   3  463.65   46.90
   4  -2   3  484.75   49.40
  -4  -2  -3  512.95   46.20
   4  -2   3  526.05   45.70
  -4   2  -3  572.74   47.60
   4   2   3  577.34   46.40
   5  -2   3  970.00   83.89
   5  -2   3  944.21   83.49
   5  -2   3  828.42   84.99
  -5  -2  -3  930.21   83.89
  -5   2  -3 1006.60   85.89
   5   2   3 1050.99   84.19
   5   2   3  957.60   83.99
  -5   2  -3 1031.70   83.49
   6  -2   3  321.27   31.70
  -6  -2  -3  300.27   31.20
   6  -2   3  288.27   30.40
  -6   2  -3  386.06   33.60
  -6   2  -3  302.77   33.70
   6   2   3  333.27   32.20
  -6   2  -3  302.27   30.10
   7  -2   3   26.00   11.20
  -7  -2  -3   11.20   11.50
   7  -2   3   18.10   16.30
  -7  -2  -3   -2.60   16.80
  -7   2  -3   35.20   17.80
  -7   2  -3    7.30    9.70
  -7   2  -3   38.80   13.60
   7   2   3   19.40   11.60
   8  -2   3   40.50   13.80
   8  -2   3   31.50   16.60
  -8   2  -3   22.00   11.80
  -8   2  -3   39.20   16.80
   8   2   3   12.40   16.60
  -8   2  -3   31.70   18.50
   8  -3  -3    8.70    9.40
  -8  -3   3    8.10   11.70
   8  -3  -3   14.70   17.00
   8   3  -3   29.10   18.20
  -8   3   3   23.10    8.70
   7  -3  -3  189.98   27.20
  -7  -3   3  179.78   22.80
   7  -3  -3  194.88   22.50
  -7   3   3  201.08   20.20
   7   3  -3  254.27   28.60
   6  -3  -3  341.07   37.10
   6  -3  -3  403.66   34.10
  -6  -3   3  350.06   33.80
  -6   3   3  323.87   32.00
   6   3  -3  406.16   37.80
   5  -3  -3  422.46   38.50
  -5  -3   3  426.76   35.60
   5  -3  -3  409.16   37.50
  -5   3   3  330.27   34.10
   5   3  -3  402.06   38.60
   4  -3  -3  156.48   19.20
  -4  -3   3  152.18   16.00
   4  -3  -3  164.98   16.60
  -4   3   3  156.28   14.40
  -4   3   3  168.58   14.50
   4   3  -3  157.78   21.20
  -3  -3   3  499.65   42.90
  -3  -3   3  465.05   42.00
   3  -3  -3  468.35   43.30
   3  -3  -3  516.95   44.60
  -3   3   3  529.95   42.00
   3   3  -3  473.15   45.80
  -2  -3   3 1198.78  106.39
   2  -3  -3 1295.97  106.09
   2  -3  -3 1269.47  107.89
  -2  -3   3 1340.27  106.79
   2  -3  -3 1287.47  107.29
  -2   3   3 1197.78  106.09
  -2   3   3 1367.16  108.29
   2   3  -3 1064.79  106.39
   1  -3  -3 1501.75  152.78
  -1  -3   3 1696.53  152.28
   1  -3  -3 1710.73  152.78
  -1  -3   3 1605.24  152.28
  -1   3   3 2055.09  152.88
  -1   3   3 1804.42  151.88
   1   3  -3 1870.81  154.58
   1   3  -3 1931.61  152.38
  -1   3   3 1940.11  153.28
   1   3  -3 1800.72  152.38
   0  -3   3  420.06   40.90
   0  -3  -3  474.35   40.50
   0  -3   3  540.95   44.70
   0  -3   3  448.16   40.60
   0  -3  -3  469.65   41.20
   0   3   3  466.65   41.50
   0   3  -3  483.15   43.70
   0   3  -3  412.56   41.10
   0   3   3  505.25   40.50
   0   3   3  444.06   40.90
   0   3   3  502.65   41.30
   0   3  -3  524.65   40.70
  -1  -3  -3  401.16   32.80
   1  -3   3  360.56   32.90
  -1  -3  -3  430.46   32.90
  -1  -3  -3  431.76   33.40
   1  -3   3  414.66   33.40
   1   3   3  336.47   32.80
   1   3   3  349.67   33.70
  -1   3  -3  364.16   32.80
  -1   3  -3  307.97   34.20
   2  -3   3 1184.58   92.09
   2  -3   3 1132.19   92.49
  -2  -3  -3 1176.98   92.29
  -2  -3  -3 1029.40   92.39
  -2  -3  -3  964.30   92.39
  -2   3  -3  935.21   92.09
   2   3   3  985.10   92.09
   2   3   3 1178.18   92.29
  -2   3  -3 1116.59   93.99
   3  -3   3 1681.83  148.39
   3  -3   3 1822.62  147.79
  -3  -3  -3 1699.83  148.39
   3   3   3 1908.31  147.89
  -3   3  -3 1547.35  148.99
   4  -3   3  546.25   47.10
   4  -3   3  519.85   45.90
  -4  -3  -3  483.75   46.60
  -4  -3  -3  536.35   47.60
  -4   3  -3  540.65   48.50
   4   3   3  530.75   46.80
   5  -3   3   12.50    8.10
   5  -3   3   -4.50    9.50
  -5  -3  -3    7.40   10.10
  -5  -3  -3    2.00    7.40
   5   3   3   17.00    8.60
  -5   3  -3   -0.50   10.00
   6  -3   3   53.09   16.90
   6  -3   3   71.09   11.80
   6  -3   3   85.09   13.10
  -6  -3  -3   67.39   12.30
  -6   3  -3   74.19   18.00
  -6   3  -3   64.19   10.30
   6   3   3   84.69   13.80
  -7  -3  -3  207.58   27.90
   7  -3   3  143.59   25.70
   7  -3   3  212.38   27.80
  -7  -3  -3  164.98   23.40
   7   3   3  182.58   25.10
  -7   3  -3  188.38   32.30
  -7   3  -3  194.08   25.90
  -7   3  -3  184.88   25.70
   8  -3   3   74.69   19.30
   8  -3   3   39.90   18.80
  -8  -3  -3   82.89   16.80
  -8   3  -3   83.29   20.10
  -8   3  -3   66.79   20.50
  -8   3  -3   64.19   15.20
   8   3   3  104.29   19.30
   8  -4  -3  153.08   25.70
   8   4  -3  158.28   29.40
  -7  -4   3  100.69   15.00
   7  -4  -3   81.29   19.70
   7  -4  -3  106.09   17.80
  -7   4   3   89.39   11.30
   7   4  -3  143.89   25.20
  -7   4   3  111.29   21.80
   6  -4  -3    9.60    8.70
   6  -4  -3   12.30   13.60
  -6  -4   3   12.20    8.40
   6   4  -3   13.40   18.20
  -6   4   3    9.20    3.80
   5  -4  -3  458.35   45.50
   5  -4  -3  485.65   41.90
  -5  -4   3  455.85   40.90
  -5   4   3  526.85   46.90
  -5   4   3  401.36   39.00
  -5   4   3  436.46   40.00
   4  -4  -3 1223.98  113.79
  -4  -4   3 1294.77  111.99
  -4  -4   3 1258.67  110.89
   4  -4  -3 1315.07  112.69
   4   4  -3 1365.36  114.79
  -4   4   3 1402.46  114.59
  -4   4   3 1289.37  110.79
   3  -4  -3 1362.96  111.99
  -3  -4   3 1306.77  110.59
   3   4  -3 1296.37  110.69
   3   4  -3 1223.08  114.29
   2  -4  -3   79.39   12.40
   2  -4  -3   73.49   11.60
  -2  -4   3   81.89    9.20
  -2  -4   3   83.99   10.30
   2   4  -3   97.69   17.00
   2   4  -3   99.49    9.10
  -2   4   3  110.19   13.30
   1  -4  -3 1739.83  157.68
  -1  -4   3 1668.03  157.18
  -1  -4   3 1833.92  156.98
   1  -4  -3 1764.12  156.48
   1  -4  -3 1985.70  156.58
  -1   4   3 1946.41  158.48
   1   4  -3 2018.00  159.98
   1   4  -3 1815.22  157.28
   0  -4   3 4022.60  328.27
   0  -4  -3 3965.80  328.17
   0  -4  -3 4215.48  328.17
   0  -4  -3 3678.13  328.97
   0  -4   3 3796.92  328.67
   0   4   3 4031.70  328.17
   0   4   3 3653.13  329.37
   0   4  -3 4140.89  328.37
   0   4   3 3314.07  328.97
   0   4  -3 3850.61  330.27
   1  -4   3 2120.29  183.48
  -1  -4  -3 2169.38  183.18
  -1  -4  -3 2317.67  183.88
   1  -4   3 2087.49  182.98
  -1  -4  -3 1903.81  183.48
   1   4   3 2075.39  184.18
   1   4   3 2319.87  183.08
  -1   4  -3 2345.07  182.88
  -1   4  -3 2020.90  184.58
  -2  -4  -3  347.97   33.90
  -2  -4  -3  409.06   33.30
   2  -4   3  385.56   32.80
   2  -4   3  401.66   34.90
  -2  -4  -3  348.37   33.50
   2   4   3  405.16   33.30
  -2   4  -3  378.86   35.50
   2   4   3  324.67   33.80
  -2   4  -3  387.26   32.90
  -3  -4  -3   33.00    9.20
  -3  -4  -3   55.49    8.80
  -3  -4  -3   51.79    7.40
   3  -4   3   50.79    8.50
  -3   4  -3   29.90    6.80
  -3   4  -3   47.00   10.10
   3   4   3   37.00    7.20
   4  -4   3  210.48   23.10
  -4  -4  -3  238.78   22.00
  -4  -4  -3  208.48   21.80
   4  -4   3  210.08   20.50
  -4   4  -3  189.28   24.70
   4   4   3  254.77   22.10
  -5  -4  -3  221.58   23.20
   5  -4   3  222.78   23.90
   5  -4   3  189.88   20.40
  -5  -4  -3  190.28   21.90
   5   4   3  228.68   22.60
  -5   4  -3  166.78   27.60
   6  -4   3  112.79   16.70
  -6  -4  -3  112.99   16.00
  -6  -4  -3  126.19   18.20
   6  -4   3  121.19   16.00
  -6   4  -3  117.49   15.50
   6   4   3  130.89   19.30
  -6   4  -3  115.99   21.60
  -7  -4  -3   25.40   15.00
   7  -4   3   13.50   13.00
  -7  -4  -3   14.50   12.00
  -7   4  -3   16.20   16.40
  -7   4  -3   14.40    8.20
   7   4   3   17.70   14.40
   8  -5  -3   25.50   20.90
   8  -5  -3   36.20   16.70
  -8  -5   3   43.60   14.80
   8   5  -3   31.40   26.60
  -8   5   3   43.90   21.90
  -7  -5   3  206.28   25.80
   7  -5  -3  154.18   30.80
   7  -5  -3  236.28   27.40
   7   5  -3  273.07   37.60
  -7   5   3  241.28   33.50
   6  -5  -3  284.37   38.20
  -6  -5   3  365.66   34.20
   6  -5  -3  401.46   35.60
  -6   5   3  393.76   40.50
  -6   5   3  324.17   31.40
   5  -5  -3  392.66   37.80
  -5  -5   3  401.86   36.20
   5  -5  -3  353.66   41.70
  -5  -5   3  390.76   33.60
   5   5  -3  430.96   42.00
  -5   5   3  379.66   41.10
  -4  -5   3   39.10    6.10
   4  -5  -3   42.40   12.40
   4  -5  -3   43.70   10.00
  -4  -5   3   46.20    8.20
  -4   5   3   56.59   13.40
   4   5  -3   46.40   15.00
   4   5  -3   53.09    7.60
  -3  -5   3  236.98   20.70
   3  -5  -3  196.68   25.40
  -3  -5   3  226.08   19.70
   3  -5  -3  212.88   22.60
  -3   5   3  206.48   24.90
   3   5  -3  191.98   27.10
  -2  -5   3 1342.77  121.29
   2  -5  -3 1396.36  122.29
  -2  -5   3 1528.15  121.59
  -2   5   3 1470.75  123.89
   2   5  -3 1364.96  125.19
   1  -5  -3 1108.19   93.99
  -1  -5   3 1033.00   94.99
  -1  -5   3 1063.49   94.59
   1  -5  -3 1206.08   94.09
  -1   5   3 1115.09   96.59
   0  -5  -3  334.57   28.60
   0  -5  -3  323.57   28.60
   0  -5  -3  340.07   30.70
   0  -5   3  338.67   28.70
   0  -5   3  331.67   29.80
   0   5   3  291.67   31.70
  -1  -5  -3  474.85   40.00
   1  -5   3  450.25   40.10
  -1  -5  -3  431.76   41.30
  -1   5  -3  493.65   39.90
  -1   5  -3  452.85   43.30
   1   5   3  449.56   42.60
  -2  -5  -3 1045.40   81.99
  -2  -5  -3  950.60   82.49
   2  -5   3  994.80   81.59
   2  -5   3  999.20   82.69
  -2   5  -3  887.61   84.19
   2   5   3  824.02   83.09
  -3  -5  -3  543.55   52.19
   3  -5   3  612.24   52.99
   3  -5   3  682.83   51.59
  -3  -5  -3  616.24   51.99
  -3   5  -3  566.84   54.69
   3   5   3  566.74   52.59
  -3   5  -3  549.65   51.29
   4  -5   3  224.18   20.00
  -4  -5  -3  210.78   23.10
  -4  -5  -3  224.38   22.00
   4  -5   3  231.18   24.00
  -4   5  -3  181.78   25.90
   4   5   3  207.68   21.60
   5  -5   3    5.70    6.00
   5  -5   3   10.70   10.60
  -5  -5  -3   10.20   10.70
  -5  -5  -3   24.00   10.90
  -5   5  -3    2.40   15.20
   5   5   3   25.40   11.20
  -6  -5  -3   29.00   11.60
   6  -5   3   43.00   13.50
   6  -5   3   21.70    8.20
  -6  -5  -3   41.10   11.90
  -6   5  -3   40.90    8.30
   6   5   3   50.09   14.00
  -6   5  -3   36.40   19.30
  -7  -5  -3   59.69   16.00
   7  -5   3  106.69   18.00
  -7   5  -3   64.19   21.50
  -7   5  -3   87.49   12.50
   7   5   3  103.79   21.40
   7  -6  -3   39.90   14.70
   7   6  -3   48.50   22.40
   6  -6  -3   34.60   15.70
  -6  -6   3   24.00   10.80
   6  -6  -3   21.40   19.50
   6   6  -3   21.90   19.70
  -6   6   3   39.00   18.40
  -5  -6   3  193.78   19.50
   5  -6  -3  156.48   22.70
   5  -6  -3  166.78   25.50
  -5  -6   3  160.18   15.50
  -5   6   3  141.59   23.80
   5   6  -3  182.98   29.20
   4  -6  -3  174.58   22.60
  -4  -6   3  158.98   19.20
   4   6  -3  164.88   29.00
   4   6  -3  221.08   20.90
  -4   6   3  176.88   26.10
   3  -6  -3  157.58   18.70
  -3  -6   3  141.89   15.10
  -3  -6   3  127.39   14.10
  -3   6   3  140.39   21.50
   3   6  -3  121.99   21.70
   2  -6  -3   33.60    9.30
  -2  -6   3   35.30    6.10
  -2  -6   3   36.20    6.50
   2   6  -3   27.60   13.80
  -2   6   3   24.40   11.10
  -1  -6   3   79.99    9.00
  -1  -6   3   79.89   10.50
   1  -6  -3   73.19    7.80
   1  -6  -3   74.59    7.40
   1  -6  -3   72.29   11.50
   1   6  -3   73.19   17.50
  -1   6   3   87.19   15.30
   0  -6  -3  579.14   53.49
   0  -6   3  614.24   51.69
   0  -6  -3  573.34   51.59
   0  -6   3  571.24   52.69
   0   6  -3  646.34   56.29
   0   6   3  615.74   55.39
   1  -6   3 1164.78   92.49
  -1  -6  -3 1059.49   93.69
   1  -6   3 1096.79   93.59
  -1  -6  -3 1115.99   92.49
  -1   6  -3 1005.30   95.59
   1   6   3 1013.90   95.09
  -2  -6  -3  995.40   79.29
   2  -6   3  976.30   78.99
  -2  -6  -3  914.21   79.99
   2  -6   3  979.80   80.39
   2   6   3  794.02   81.29
  -2   6  -3  873.91   78.29
  -2   6  -3  872.31   82.29
  -3  -6  -3  105.49   12.70
   3  -6   3   95.99   16.40
   3  -6   3  104.79   11.70
  -3  -6  -3   84.39   14.20
   3   6   3   89.69   16.50
  -3   6  -3   78.09   16.20
  -3   6  -3   91.89   10.40
   4  -6   3  157.18   16.70
  -4  -6  -3  158.68   21.60
  -4  -6  -3  170.48   20.30
   4  -6   3  198.48   23.30
   4   6   3  185.28   23.40
  -4   6  -3  186.08   25.80
  -5  -6  -3  245.88   29.20
   5  -6   3  333.37   32.60
   5  -6   3  271.27   26.30
  -5  -6  -3  266.77   28.90
   5   6   3  347.47   31.20
  -5   6  -3  255.77   34.80
   6  -6   3  172.08   29.80
  -6  -6  -3  117.99   21.80
  -6  -6  -3  141.09   21.30
   6   6   3  161.78   23.70
  -6   6  -3  132.39   24.00
   7  -7  -3   85.29   18.70
   7   7  -3   83.99   31.10
  -7   7   3   77.59   26.40
   6  -7  -3  148.99   26.90
  -6  -7   3  160.78   22.30
   6   7  -3  215.28   35.10
  -6   7   3  173.58   28.70
  -5  -7   3   71.99   11.00
   5  -7  -3  131.99   21.50
  -5  -7   3   94.79   13.70
  -5   7   3   71.29   20.60
   5   7  -3  116.59   24.30
  -4  -7   3    6.10    8.00
   4  -7  -3    6.00   11.50
  -4  -7   3    2.60    5.80
   4   7  -3    8.20   18.10
  -4   7   3    5.90   15.40
  -3  -7   3  112.69   13.20
   3  -7  -3  128.89   19.60
  -3  -7   3  112.49   14.10
   3   7  -3   70.99   21.30
  -3   7   3  101.39   19.30
  -2  -7   3  470.75   40.10
  -2  -7   3  488.85   40.10
   2  -7  -3  447.86   42.30
   2   7  -3  381.66   46.70
  -2   7   3  390.36   44.30
   1  -7  -3  545.45   42.70
   1  -7  -3  500.85   42.60
   1  -7  -3  491.95   46.30
  -1  -7   3  496.85   44.60
  -1  -7   3  512.55   44.70
  -1   7   3  455.85   47.90
   1   7  -3  429.96   49.70
   0  -7   3  187.78   17.50
   0  -7   3  187.28   22.00
   0  -7  -3  188.98   17.30
   0  -7  -3  202.38   22.30
   0   7  -3  168.38   26.30
   0   7   3  164.08   26.10
  -1  -7  -3   19.90    9.60
  -1  -7  -3    6.90    5.00
   1  -7   3   20.10    5.70
   1  -7   3   24.70    8.90
  -1   7  -3    3.00   15.10
   1   7   3   15.90   11.40
  -2  -7  -3  351.46   33.20
   2  -7   3  386.56   33.70
  -2  -7  -3  341.27   30.80
  -2   7  -3  304.67   36.70
   2   7   3  285.07   34.50
   3  -7   3  550.74   41.90
  -3  -7  -3  452.15   45.10
   3  -7   3  489.15   45.10
  -3  -7  -3  468.25   43.30
   3   7   3  435.66   46.10
  -3   7  -3  405.06   47.70
   4  -7   3  157.08   23.20
  -4  -7  -3  139.09   21.50
  -4  -7  -3  106.69   17.30
  -4   7  -3  156.28   25.80
   4   7   3  140.99   22.40
   5  -7   3    7.70   13.90
  -5  -7  -3   -9.80   10.30
  -5  -7  -3   -7.30   11.70
  -5   7  -3   -8.30   16.70
   5   7   3   -4.60   13.60
  -6  -7  -3   68.89   15.70
   6   7   3   66.19   18.60
  -6  -8   3    9.60   15.00
  -6   8   3    0.40   23.00
   6   8  -3   50.19   30.40
   5  -8  -3  126.69   20.30
  -5  -8   3  116.19   15.80
   5   8  -3   95.29   26.60
  -5   8   3   71.99   24.60
  -4  -8   3  455.25   41.20
  -4  -8   3  454.95   40.60
   4  -8  -3  408.16   44.00
   4   8  -3  401.16   51.19
  -4   8   3  392.56   47.80
  -3  -8   3  378.16   35.50
   3  -8  -3  394.46   40.20
  -3  -8   3  398.56   36.60
  -3   8   3  388.56   46.60
   3   8  -3  313.97   48.70
  -2  -8   3   27.70    9.00
  -2  -8   3    9.90    7.40
   2  -8  -3   33.30   12.90
   2   8  -3    7.40   17.70
  -2   8   3   34.70   16.00
   1  -8  -3  204.18   18.60
   1  -8  -3  215.88   26.00
  -1  -8   3  202.48   20.20
  -1  -8   3  220.08   24.70
   1   8  -3  171.28   30.90
  -1   8   3  221.28   32.10
   0  -8   3  733.83   61.89
   0  -8  -3  714.43   59.29
   0  -8  -3  751.22   62.99
   0  -8   3  729.83   59.79
   0   8   3  558.64   64.19
   0   8  -3  597.64   65.69
  -1  -8  -3  375.16   34.40
   1  -8   3  379.56   34.70
   1  -8   3  413.16   38.10
  -1  -8  -3  392.26   38.50
   1   8   3  397.86   43.70
  -1   8  -3  354.86   42.10
   2  -8   3   37.60    7.50
   2  -8   3   30.10   12.00
  -2  -8  -3   39.60   13.70
  -2  -8  -3   15.20    8.80
  -2   8  -3   28.70   16.60
   2   8   3   24.20   16.50
   3  -8   3   69.49   14.90
  -3  -8  -3   64.49   13.10
  -3  -8  -3   77.19   12.10
  -3   8  -3   32.30   18.20
   3   8   3   48.10   14.40
   4  -8   3  143.79   23.60
  -4  -8  -3  121.19   18.90
  -4  -8  -3  108.39   15.00
   4   8   3   91.29   19.00
  -4   8  -3   89.09   22.90
  -5  -8  -3   76.79   14.80
  -5  -8  -3   96.89   15.20
   5   8   3  101.89   32.60
   5  -9  -3  180.98   29.90
   5   9  -3  100.29   30.00
  -5   9   3  120.99   29.70
   4  -9  -3   18.60   16.70
  -4  -9   3   10.70   10.50
  -4  -9   3    1.50   10.40
   4   9  -3   10.60   23.70
  -4   9   3    0.40   21.20
  -3  -9   3  196.48   23.70
  -3  -9   3  170.58   20.30
   3  -9  -3  177.38   28.20
  -3   9   3  149.59   32.20
   3   9  -3  161.08   30.30
   2  -9  -3  433.36   42.90
  -2  -9   3  399.56   37.20
  -2  -9   3  449.36   39.30
  -2   9   3  393.86   47.00
   2   9  -3  284.17   51.39
  -1  -9   3  295.87   30.70
   1  -9  -3  299.77   33.70
  -1  -9   3  279.67   27.00
   1   9  -3  260.27   38.70
  -1   9   3  288.77   36.90
   0  -9  -3   34.00    7.10
   0  -9   3   48.30    8.70
   0  -9   3   44.90   12.50
   0  -9  -3   32.80   14.30
   0   9   3   32.00   17.50
   0   9  -3   44.50   24.00
  -1  -9  -3   76.89   16.20
   1  -9   3   88.19   15.40
  -1  -9  -3   77.49   10.80
   1  -9   3   79.89   11.30
  -1   9  -3   87.59   25.20
  -2  -9  -3  150.28   22.60
  -2  -9  -3  131.99   15.50
   2  -9   3  148.39   23.50
  -2   9  -3   80.39   30.40
   2   9   3  117.19   21.40
  -3  -9  -3  105.29   15.60
  -3  -9  -3  111.59   17.90
   3  -9   3  141.79   24.00
   3   9   3  104.09   22.50
  -3   9  -3   97.29   24.60
  -4  -9  -3   47.40   12.30
   4  -9   3   40.20   17.40
  -4  -9  -3   69.89   17.50
  -4   9  -3   45.70   22.40
   4   9   3   53.29   19.10
  -3 -10   3   80.79   12.50
  -3 -10   3   54.99   13.30
   3 -10  -3   62.49   19.90
  -3  10   3   53.29   25.70
   3  10  -3   28.20   31.00
  -2 -10   3   15.40    8.90
  -2 -10   3   10.40   11.60
  -2  10   3  -12.60   21.40
   2  10  -3   29.90   23.30
  -1 -10   3   13.60    7.60
   1 -10  -3   29.10   16.80
  -1 -10   3   22.10   12.80
  -1  10   3   41.30   21.20
   1  10  -3   38.20   22.70
   0 -10   3   85.09   16.00
   0 -10  -3   66.29   17.70
   0 -10   3   55.79   11.00
   0  10  -3   67.29   24.20
   0  10   3   68.79   21.30
  -1 -10  -3  114.99   16.40
   1 -10   3  176.28   25.10
  -1 -10  -3  163.88   26.30
   1  10   3  124.49   24.80
  -1  10  -3  136.39   27.80
  -2 -10  -3  107.29   19.00
  -2 -10  -3   85.89   13.00
   2  10   3   49.50   23.30
  -2  10  -3   83.49   25.90
  -3 -10  -3   -2.40   15.00
   3 -10   3   24.60   17.20
  -3 -10  -3    1.60   11.60
  -3  10  -3   11.10   23.40
   3  10   3   29.60   21.10
   9   0  -4   14.20   18.60
  -9   0   4    6.60   11.40
   8   0  -4   81.69   18.90
  -8   0   4   83.59   14.50
  -7   0   4  343.47   30.70
  -7   0   4  338.17   31.20
   7   0  -4  335.37   30.10
   7   0  -4  308.77   35.40
  -6   0   4  632.14   55.89
   6   0  -4  667.53   55.09
  -6   0   4  582.54   55.09
   6   0  -4  683.03   58.79
   5   0  -4  153.88   14.50
  -5   0   4  166.38   15.60
  -5   0   4  142.59   14.60
   5   0  -4  201.68   20.80
   4   0  -4  424.06   39.50
  -4   0   4  458.65   39.90
  -4   0   4  495.35   39.60
   3   0  -4 4623.54  365.76
   3   0  -4 3926.31  365.46
  -3   0   4 4283.97  365.56
  -3   0   4 4408.76  365.76
   2   0  -4 2772.32  257.17
  -2   0   4 2926.21  257.77
   2   0  -4 2975.60  257.17
  -2   0   4 2988.80  257.17
   2   0  -4 3463.35  258.27
  -2   0   4 3065.29  257.27
  -1   0   4  830.22   81.49
  -1   0   4  869.11   81.39
   1   0  -4 1025.20   81.59
  -1   0   4 1029.60   81.39
   1   0  -4  871.31   81.79
   1   0  -4 1104.39   81.39
   0   0  -4 1441.86  124.69
   0   0   4 1460.55  124.19
   0   0   4 1541.55  124.69
   0   0   4 1533.95  124.59
   0   0  -4 1492.65  124.19
   0   0  -4 1279.07  124.09
   1   0   4 2740.23  220.28
  -1   0  -4 2349.67  220.78
  -1   0  -4 2828.02  220.28
  -1   0  -4 2342.77  220.58
  -1   0  -4 2700.53  220.18
  -2   0  -4 3231.18  277.37
  -2   0  -4 3304.27  277.97
   2   0   4 2862.11  277.17
   2   0   4 3227.18  277.37
  -2   0  -4 3703.83  277.57
  -3   0  -4 1202.48   94.79
   3   0   4 1012.90   94.39
   3   0   4 1103.79   94.49
  -3   0  -4 1089.79   94.99
   4   0   4  333.97   29.10
   4   0   4  292.87   28.60
  -4   0  -4  307.57   29.40
  -5   0  -4   13.00    8.50
  -5   0  -4   13.40    9.40
   5   0   4   10.50    7.20
   5   0   4   12.80    9.10
   6   0   4   50.39   10.70
   6   0   4   49.50   12.40
  -6   0  -4   52.29   10.20
  -6   0  -4   28.60   12.10
   7   0   4   96.69   15.30
  -7   0  -4   70.39   19.50
  -7   0  -4  113.69   14.80
   7   0   4   79.49   17.00
  -8   0  -4   32.30   16.80
  -8   0  -4   28.00   13.40
  -8   0  -4   32.10   18.70
   8   0   4   39.80   17.50
   9  -1  -4   46.60   20.60
  -9  -1   4   79.09   15.00
  -9   1   4   87.39   13.50
   9   1  -4   86.89   26.30
   8  -1  -4   82.29   20.20
  -8  -1   4  127.29   17.40
   8   1  -4  114.89   20.80
  -8   1   4  107.29   15.30
   7  -1  -4    6.10    5.70
  -7  -1   4   30.90   10.00
   7  -1  -4    7.40   16.40
  -7   1   4   12.50    8.50
   7   1  -4   22.20   14.40
   6  -1  -4  246.28   22.10
   6  -1  -4  247.58   27.10
  -6  -1   4  266.97   23.80
  -6  -1   4  210.48   20.80
  -6   1   4  227.58   22.20
   6   1  -4  255.87   27.60
   5  -1  -4 1936.51  160.38
  -5  -1   4 1874.71  160.78
   5  -1  -4 2051.59  162.28
  -5   1   4 1726.33  160.28
  -5   1   4 1820.32  160.18
  -4  -1   4 2435.86  222.28
   4  -1  -4 2804.02  223.68
  -4   1   4 2708.53  222.08
  -4   1   4 2508.25  222.18
  -3  -1   4 1985.70  182.28
   3  -1  -4 1833.22  182.28
   3  -1  -4 1991.20  182.08
   3  -1  -4 2458.15  183.48
  -3   1   4 2088.19  182.28
   3   1  -4 2479.25  183.78
  -3   1   4 2186.48  182.08
   2  -1  -4   86.99   10.00
   2  -1  -4   75.99    8.60
  -2  -1   4   73.99    8.10
   2  -1  -4   78.89    7.80
  -2   1   4   81.69    8.10
   2   1  -4   64.49   10.20
   2   1  -4   83.29    8.10
  -2   1   4   88.59    7.70
   2   1  -4   95.19    8.00
  -1   1   4  215.28   19.70
  -1   1   4  209.28   19.60
   1   1  -4  212.68   19.80
   1   1  -4  250.97   19.90
   1   1  -4  224.18   19.60
   0  -1   4 1954.30  168.48
   0  -1  -4 1974.80  168.78
   0  -1   4 2075.99  169.28
   0  -1   4 2136.69  168.48
   0  -1  -4 1999.50  168.38
   0   1   4 1900.61  168.38
   0   1  -4 1810.12  168.98
   0   1  -4 1924.31  168.48
   0   1  -4 2207.48  168.58
   0   1   4 1823.62  168.48
  -1  -1  -4  339.77   31.30
  -1   1  -4  331.57   30.60
  -1   1  -4  308.47   30.10
   1   1   4  353.26   30.10
  -1   1  -4  385.06   31.30
  -1   1  -4  358.46   30.40
   2  -1   4  823.12   69.69
  -2  -1  -4  716.03   70.89
   2  -1   4  852.01   69.59
  -2   1  -4  803.72   69.89
   2   1   4  815.72   69.09
  -2   1  -4  787.72   69.89
   2   1   4  816.12   69.59
  -2   1  -4  857.91   69.79
   3  -1   4  671.13   63.19
  -3  -1  -4  699.73   64.79
   3  -1   4  652.73   63.09
   3   1   4  766.82   62.89
   3   1   4  748.33   63.19
  -3   1  -4  804.02   63.99
  -3   1  -4  766.82   63.39
   4  -1   4  872.11   79.59
  -4  -1  -4 1034.50   81.69
   4  -1   4 1002.60   80.09
   4   1   4  845.92   79.09
  -4   1  -4  918.01   79.99
   4   1   4  834.72   78.89
  -5  -1  -4  644.54   59.39
   5  -1   4  674.33   59.29
   5  -1   4  726.73   60.39
  -5  -1  -4  762.62   65.19
   5  -1   4  609.74   60.29
  -5   1  -4  677.03   59.69
   5   1   4  632.74   59.49
  -5   1  -4  714.53   61.09
   5   1   4  649.43   59.49
   6  -1   4  100.49   13.70
   6  -1   4   87.49   16.10
  -6  -1  -4  133.89   21.30
   6  -1   4   94.19   15.40
  -6  -1  -4  106.59   13.80
  -6   1  -4   98.39   13.00
   6   1   4   85.19   14.50
  -6   1  -4  119.09   20.70
  -6   1  -4   87.59   14.80
   6   1   4   83.19   13.80
  -7  -1  -4   -3.50   17.40
   7  -1   4    0.70   10.90
   7  -1   4   13.70   14.60
  -7  -1  -4    3.60   10.50
   7   1   4   16.80   13.20
  -7   1  -4   16.90   13.50
  -7   1  -4   12.60   12.30
  -7   1  -4   -1.30   15.60
   8  -1   4   33.80   18.90
  -8  -1  -4   33.60   25.00
  -8   1  -4   36.30   21.50
   8   1   4   51.19   14.50
  -8   1  -4   50.89   13.60
  -8   1  -4   44.20   20.70
   8  -2  -4   56.89   22.50
  -8  -2   4  116.39   15.00
   8  -2  -4   99.09   16.20
  -8   2   4   80.79   12.90
   8   2  -4   79.39   20.30
   7  -2  -4  215.28   29.10
  -7  -2   4  229.68   24.60
  -7   2   4  219.78   22.60
   7   2  -4  300.67   30.30
   6  -2  -4  221.78   28.20
  -6  -2   4  259.17   24.40
   6  -2  -4  261.17   24.40
  -6   2   4  228.08   23.30
   6   2  -4  293.37   29.70
   5  -2  -4  161.88   16.60
   5  -2  -4  170.98   21.00
  -5  -2   4  177.28   16.90
   5   2  -4  188.08   24.10
  -5   2   4  150.58   15.60
   4  -2  -4   98.79   11.60
  -4   2   4   99.99    9.60
   3  -2  -4  351.06   26.80
  -3   2   4  292.77   26.70
   3   2  -4  275.97   29.50
  -2  -2   4 1098.49   98.49
  -2  -2   4 1160.68   98.19
   2  -2  -4 1277.57   99.39
   2  -2  -4 1121.39   98.19
   2  -2  -4 1093.29   98.89
  -2   2   4 1111.29   98.79
   2   2  -4 1276.87   98.29
  -2   2   4 1098.99   98.29
   1  -2  -4  630.04   55.69
  -1  -2   4  672.33   55.79
   1  -2  -4  606.54   56.19
  -1  -2   4  673.23   55.69
  -1   2   4  671.93   55.99
   0  -2   4  629.34   61.59
   0  -2  -4  636.54   61.99
   0  -2   4  720.43   63.39
   0  -2  -4  689.93   61.59
   0  -2   4  653.63   61.69
   0   2   4  766.62   61.59
   0   2  -4  759.92   63.19
   0   2  -4  723.03   61.89
   0   2   4  757.82   62.49
   0   2   4  775.02   61.69
   0   2  -4  821.32   61.89
  -1  -2  -4  695.43   62.49
  -1  -2  -4  720.93   62.09
   1  -2   4  767.42   64.59
   1  -2   4  716.43   62.79
   1  -2   4  632.54   62.79
  -1   2  -4  747.33   63.59
  -1   2  -4  685.03   63.19
   1   2   4  802.22   62.69
   1   2   4  802.72   62.99
  -2  -2  -4 2372.26  218.18
   2  -2   4 2624.14  217.78
   2  -2   4 2425.26  217.48
   2   2   4 2821.22  217.48
  -2   2  -4 2540.95  218.28
   3  -2   4 2273.87  192.08
   3  -2   4 2251.27  192.38
   3   2   4 2249.57  192.88
  -3   2  -4 2249.68  193.08
   4  -2   4  340.87   37.70
   4  -2   4  428.06   36.70
   4  -2   4  454.15   37.50
  -4  -2  -4  410.66   37.30
  -4   2  -4  443.66   38.50
   4   2   4  397.56   37.40
   5  -2   4   26.80    9.90
  -5  -2  -4  -36.50   20.70
   5  -2   4   21.00    8.50
   5  -2   4   19.20    9.10
  -5  -2  -4   23.80    8.40
   5   2   4   22.40    8.00
   5   2   4   23.10    8.80
  -5   2  -4   23.30   10.00
  -5   2  -4   27.70    9.70
   6  -2   4  157.18   26.20
  -6  -2  -4  216.78   23.20
   6  -2   4  236.08   22.60
   6  -2   4  238.68   24.30
  -6   2  -4  231.18   26.70
  -6   2  -4  194.28   21.70
  -6   2  -4  196.18   27.90
   6   2   4  191.48   23.40
   6   2   4  204.48   23.80
   7  -2   4  185.08   24.30
   7  -2   4  149.19   27.20
  -7  -2  -4  178.88   23.10
   7  -2   4  179.58   22.10
  -7   2  -4  205.08   25.00
  -7   2  -4  183.18   30.10
  -7   2  -4  163.68   21.10
   7   2   4  169.28   23.90
   8  -2   4   28.30   17.30
  -8  -2  -4   14.70   14.10
   8  -2   4    7.50   16.20
  -8  -2  -4   20.00   26.30
  -8   2  -4    5.30   21.00
   8   2   4   23.70   15.90
  -8   2  -4   12.20   17.40
  -8   2  -4   25.80   15.00
   8  -3  -4   81.09   22.90
   8  -3  -4   97.79   16.60
  -8  -3   4  104.49   15.80
   8   3  -4   76.09   21.90
  -8   3   4   89.69   12.60
   7  -3  -4   52.49   15.90
   7  -3  -4   33.90   16.30
  -7  -3   4   36.90   10.40
   7   3  -4   21.70   17.20
  -7   3   4   26.00    7.50
   6  -3  -4  124.79   21.90
  -6  -3   4  113.49   16.40
   6  -3  -4  127.59   16.50
  -6   3   4  152.78   14.00
   6   3  -4  182.68   24.00
   5  -3  -4  622.84   56.89
   5  -3  -4  588.64   55.19
  -5  -3   4  599.54   54.29
  -5   3   4  607.94   53.59
  -5   3   4  671.43   53.39
   4  -3  -4  561.34   49.80
  -4  -3   4  532.95   50.69
   4  -3  -4  595.04   52.89
   4  -3  -4  522.45   51.09
   4   3  -4  617.44   53.79
  -4   3   4  670.03   49.99
  -4   3   4  575.74   49.80
   3  -3  -4  604.44   57.49
   3  -3  -4  662.73   58.99
   3  -3  -4  648.04   56.19
  -3  -3   4  637.24   56.99
  -3  -3   4  649.93   56.19
   3   3  -4  653.93   59.79
  -3   3   4  757.02   56.39
   2  -3  -4 1274.07  101.19
   2  -3  -4 1231.18  100.49
  -2  -3   4 1154.88   99.49
   2  -3  -4 1112.29   99.39
  -2  -3   4 1285.17   99.99
  -2   3   4 1076.89   99.39
   2   3  -4 1046.50  102.49
   2   3  -4 1172.08   99.69
   1  -3  -4 1672.13  139.09
   1  -3  -4 1648.04  138.29
  -1  -3   4 1636.04  138.49
  -1  -3   4 1783.12  138.59
   1  -3  -4 1656.03  139.19
  -1   3   4 1597.04  139.29
  -1   3   4 1454.15  138.09
  -1   3   4 1707.53  138.89
   1   3  -4 1483.65  140.59
   0  -3  -4 2827.32  209.98
   0  -3   4 2572.14  210.08
   0  -3  -4 2276.87  210.48
   0   3  -4 2183.78  210.48
   0   3   4 2266.87  210.38
   0   3   4 2447.85  209.88
   0   3  -4 2537.45  211.78
   0   3   4 2555.14  210.08
   0   3  -4 2577.64  210.08
   1  -3   4 1467.45  130.49
  -1  -3  -4 1716.03  130.39
   1  -3   4 1591.54  130.69
  -1  -3  -4 1556.14  130.89
   1   3   4 1402.46  130.59
   1   3   4 1525.25  130.29
  -1   3  -4 1398.06  131.59
  -1   3  -4 1571.54  130.49
   2  -3   4   85.69    8.90
  -2  -3  -4   80.69   10.00
  -2  -3  -4   79.19    8.20
   2  -3   4   85.59   10.20
   2   3   4   56.09    7.40
  -2   3  -4   58.39   10.40
   2   3   4   51.39    8.40
  -3  -3  -4  376.76   30.90
  -3  -3  -4  338.37   31.90
   3  -3   4  351.76   30.10
   3  -3   4  361.66   31.20
   3   3   4  313.67   30.70
  -3   3  -4  287.67   32.80
  -4  -3  -4  474.15   44.50
  -4  -3  -4  480.15   45.80
   4  -3   4  507.35   44.80
   4  -3   4  501.45   44.00
   4   3   4  534.35   44.70
  -4   3  -4  486.55   46.90
  -5  -3  -4  393.06   40.30
  -5  -3  -4  405.06   45.40
   5  -3   4  470.75   41.10
   5  -3   4  401.86   40.00
  -5   3  -4  428.26   43.70
   5   3   4  512.85   40.10
   5   3   4  422.76   40.60
   6  -3   4   56.69   13.10
  -6  -3  -4   97.89   19.10
   6  -3   4   81.09   14.00
  -6  -3  -4   60.69   13.00
   6   3   4  102.89   16.30
  -6   3  -4  101.59   13.00
  -6   3  -4   78.09   18.20
  -7  -3  -4   -4.20   25.60
   7  -3   4    6.40   12.10
  -7  -3  -4   14.00   12.00
   7  -3   4   18.50   15.80
   7  -3   4   -3.20   17.50
   7   3   4    2.90   12.80
  -7   3  -4    3.50   11.20
  -7   3  -4    3.60   18.20
  -7   3  -4    7.30   15.50
   8  -4  -4   17.40   23.70
   8  -4  -4   40.60   13.90
   8   4  -4   42.00   22.00
  -7  -4   4  279.97   28.00
   7  -4  -4  233.08   33.20
   7  -4  -4  300.37   30.60
  -7   4   4  251.57   23.90
   6  -4  -4  453.65   40.40
   6  -4  -4  389.16   42.60
  -6  -4   4  404.56   38.70
   5  -4  -4   88.89   14.80
   5  -4  -4   84.79   16.10
  -5  -4   4   93.89   12.80
   5   4  -4  123.89   21.50
  -5   4   4   88.89    8.90
   4  -4  -4  258.87   27.70
  -4  -4   4  277.47   24.00
   4  -4  -4  244.38   25.20
  -4  -4   4  281.17   21.80
   4   4  -4  235.88   29.50
  -4   4   4  223.78   21.90
  -4   4   4  246.18   28.50
  -3  -4   4 1925.11  158.98
  -3  -4   4 1862.01  158.28
   3  -4  -4 1765.82  160.28
   3   4  -4 1908.41  162.58
   3   4  -4 1853.51  158.48
   2  -4  -4 2031.80  182.68
   2  -4  -4 2371.76  180.88
  -2  -4   4 2078.39  181.28
  -2  -4   4 2226.28  181.58
   2  -4  -4 1973.60  182.18
   2   4  -4 2078.99  181.48
  -2   4   4 2082.19  180.78
  -2   4   4 2324.87  183.28
   2   4  -4 2011.10  184.58
  -1  -4   4  974.80   85.29
   1  -4  -4 1030.80   84.99
   1  -4  -4  987.30   86.29
  -1  -4   4  980.30   85.49
  -1   4   4 1013.60   84.89
   1   4  -4  979.40   88.49
  -1   4   4 1014.10   86.89
   0  -4   4  129.89   13.50
   0  -4   4  134.99   13.10
   0  -4  -4  147.99   13.70
   0  -4  -4  124.29   14.10
   0  -4  -4  144.09   12.00
   0   4   4  116.69   14.30
   0   4   4  112.29   12.90
   0   4  -4  113.69   16.60
   0   4   4  122.49   12.00
  -1  -4  -4  728.83   71.69
   1  -4   4  850.11   71.69
  -1  -4  -4  870.31   71.49
   1  -4   4  745.03   73.09
  -1  -4  -4  842.72   71.09
  -1   4  -4  781.32   73.09
  -1   4  -4  962.20   71.69
   1   4   4  861.31   71.09
   1   4   4  797.62   71.99
   2  -4   4 1159.78   94.39
  -2  -4  -4 1029.90   94.49
   2  -4   4 1221.48   94.99
  -2  -4  -4 1201.88   94.49
  -2  -4  -4 1059.29   94.99
   2   4   4 1186.08   94.49
  -2   4  -4  977.30   97.09
   2   4   4  968.10   94.39
  -3  -4  -4  268.77   26.30
   3  -4   4  270.47   27.20
   3  -4   4  262.47   25.90
  -3  -4  -4  260.37   27.00
  -3   4  -4  331.77   30.50
   3   4   4  332.27   27.30
  -4  -4  -4   28.10    8.40
   4  -4   4   37.30    7.60
   4  -4   4   45.60    9.80
  -4   4  -4   49.40   13.50
   4   4   4   59.39    9.70
   4   4   4   38.70    8.90
   5  -4   4  102.19   17.60
  -5  -4  -4  109.49   14.40
   5  -4   4   75.99   11.60
  -5  -4  -4   83.69   12.60
  -5   4  -4   53.69   16.80
   5   4   4   90.89   14.10
   6  -4   4  112.69   16.40
  -6  -4  -4  134.59   19.30
   6  -4   4  140.89   21.80
  -6  -4  -4  160.98   24.40
  -6   4  -4  102.69   22.30
   6   4   4  149.69   19.00
  -6   4  -4  122.49   17.00
   7  -4   4  110.99   16.90
  -7  -4  -4  145.89   21.80
   7  -4   4  140.39   23.90
   7   4   4  110.99   21.20
  -7   4  -4  136.09   18.90
  -7   4  -4  112.79   22.30
  -8  -5   4   68.09   15.50
   8  -5  -4   71.69   17.60
   8  -5  -4   21.60   21.40
  -8   5   4   72.69   23.80
   8   5  -4  101.89   34.80
   7  -5  -4   35.70   12.40
  -7  -5   4   38.00   14.70
   7  -5  -4   10.10   18.00
  -7   5   4   33.30   19.80
   7   5  -4   60.29   25.80
  -6  -5   4   33.80   10.00
   6  -5  -4   35.10   13.30
   6  -5  -4   22.80   16.10
  -6   5   4   35.20   17.50
   6   5  -4   52.69   19.20
   5  -5  -4  286.97   36.50
   5  -5  -4  315.37   31.70
  -5  -5   4  303.07   29.90
   5   5  -4  340.87   37.80
  -5   5   4  336.07   38.50
  -4  -5   4  618.14   55.79
   4  -5  -4  627.94   58.89
   4  -5  -4  534.65   59.69
  -4  -5   4  606.24   56.99
  -4   5   4  697.83   61.09
   4   5  -4  756.82   56.19
   4   5  -4  714.43   62.99
   3  -5  -4  125.99   16.90
   3  -5  -4  119.99   20.50
  -3  -5   4  123.49   14.10
  -3  -5   4  125.99   13.10
  -3   5   4  159.78   22.30
   3   5  -4  158.88   23.80
  -2  -5   4  362.36   31.50
   2  -5  -4  389.46   33.70
  -2   5   4  348.27   35.90
   2   5  -4  303.77   37.50
   1  -5  -4 2391.16  186.88
   1  -5  -4 2142.19  186.68
   1  -5  -4 2032.20  188.18
  -1  -5   4 2169.08  187.18
  -1  -5   4 2182.38  187.58
  -1   5   4 2228.28  189.18
   1   5  -4 2252.07  190.98
   0  -5  -4 2619.44  223.18
   0  -5  -4 2748.02  223.18
   0  -5   4 2716.23  223.98
   0  -5   4 2669.73  223.38
   0   5   4 2464.65  224.88
   0   5  -4 2503.05  225.98
   0   5   4 2658.63  223.28
   1  -5   4 1306.77  104.49
  -1  -5  -4 1264.87  103.59
   1  -5   4 1231.58  103.79
   1   5   4 1184.08  103.59
   1   5   4 1175.88  106.09
  -1   5  -4 1092.99  105.99
  -2  -5  -4  333.67   33.00
   2  -5   4  346.27   31.50
   2  -5   4  388.46   33.00
  -2  -5  -4  381.06   31.80
   2   5   4  340.97   31.70
  -2   5  -4  313.47   34.80
   3  -5   4   73.59   11.30
  -3  -5  -4   58.29    9.70
   3  -5   4   78.29    9.80
  -3  -5  -4   62.89   12.40
   3   5   4   80.39   10.20
  -3   5  -4   65.89   13.50
   3   5   4   76.49   10.80
   4  -5   4  151.68   18.70
  -4  -5  -4  121.19   15.80
  -4  -5  -4  121.99   16.90
   4  -5   4  122.39   13.80
   4   5   4  123.49   15.30
  -4   5  -4  102.29   17.80
  -5  -5  -4  158.68   21.60
   5  -5   4  225.48   24.70
  -5  -5  -4  165.38   21.30
   5   5   4  186.48   21.10
  -6  -5  -4   91.69   15.50
   6  -5   4   82.59   16.20
  -6  -5  -4   56.79   13.90
   6  -5   4   58.39   11.70
  -6   5  -4   64.59   11.20
   6   5   4   82.59   14.50
  -6   5  -4   54.59   18.10
  -7  -5  -4  -10.80   13.00
   7  -5   4   23.40   15.60
   7  -5   4    0.60   14.70
  -7   5  -4   -6.30   21.60
  -7   5  -4   -7.30    9.70
   7  -6  -4  148.09   25.50
   7   6  -4  186.78   34.20
   6  -6  -4   93.19   16.10
   6  -6  -4   82.99   20.60
  -6  -6   4   73.39   13.50
  -6   6   4   76.89   21.50
   6   6  -4   70.09   23.50
   5  -6  -4   20.10   15.10
  -5  -6   4   11.00    4.40
   5  -6  -4    9.90   11.20
  -5  -6   4   11.90   10.20
  -5   6   4   31.50   16.00
   5   6  -4    7.60   18.40
  -4  -6   4   52.89    8.30
  -4  -6   4   59.59    9.80
   4  -6  -4   55.29   12.40
   4   6  -4   68.69   10.00
  -4   6   4   57.59   16.40
   4   6  -4   80.19   19.70
  -3  -6   4  196.08   19.80
   3  -6  -4  212.28   22.40
  -3  -6   4  194.58   18.00
   3   6  -4  135.09   25.20
  -3   6   4  161.58   24.50
  -2  -6   4  631.84   54.19
  -2  -6   4  617.24   53.99
   2  -6  -4  624.64   55.89
  -2   6   4  615.34   57.39
   2   6  -4  593.34   59.89
  -1  -6   4  544.05   52.09
   1  -6  -4  562.54   52.69
   1  -6  -4  650.43   50.09
  -1  -6   4  612.64   50.79
   1  -6  -4  579.34   49.99
   1   6  -4  526.15   55.69
   0  -6  -4  340.57   33.30
   0  -6   4  358.06   31.10
   0  -6  -4  351.36   30.60
   0  -6   4  352.46   32.20
   0   6  -4  340.17   38.10
   0   6   4  336.87   34.00
   1  -6   4  112.99   15.20
  -1  -6  -4  113.39   15.70
   1  -6   4  105.99   12.70
  -1  -6  -4  102.89   11.80
   1   6   4  122.09   17.70
  -1   6  -4  135.19   19.70
   2  -6   4  562.34   46.90
   2  -6   4  534.35   45.10
  -2  -6  -4  528.05   45.60
  -2  -6  -4  487.55   46.60
   2   6   4  457.25   47.10
  -2   6  -4  498.75   49.30
   3  -6   4  406.16   33.30
  -3  -6  -4  366.26   34.10
   3  -6   4  396.36   36.20
  -3  -6  -4  320.67   35.20
   3   6   4  370.46   35.60
  -3   6  -4  357.76   38.60
  -4  -6  -4   64.39   13.40
   4  -6   4   63.99   13.40
   4  -6   4   75.59    9.40
  -4  -6  -4   67.19   11.10
  -4   6  -4   31.40   15.30
   4   6   4   52.09   11.30
  -5  -6  -4   71.39   13.60
   5  -6   4   72.79   10.30
  -5  -6  -4   73.79   15.20
   5  -6   4   81.39   16.10
   5   6   4  101.59   16.10
  -5   6  -4   53.39   18.30
   6  -6   4  241.28   32.50
  -6  -6  -4  174.88   26.00
  -6  -6  -4  144.29   21.20
  -6   6  -4  159.38   29.30
   7  -7  -4    5.00   15.30
  -7   7   4   -3.50   22.20
  -6  -7   4   45.20   12.40
   6  -7  -4   30.10   15.30
  -6   7   4   34.20   21.30
   6   7  -4    2.20   29.40
  -5  -7   4  131.59   18.40
   5  -7  -4  172.18   23.90
   5   7  -4   87.79   30.20
  -5   7   4  144.89   25.10
  -4  -7   4  235.68   23.30
  -4  -7   4  243.38   21.90
   4  -7  -4  237.28   27.90
  -4   7   4  165.98   31.00
   4   7  -4  169.98   33.80
   3  -7  -4   86.69   15.40
  -3  -7   4   99.39   12.90
  -3  -7   4   99.69   11.70
   3   7  -4   64.29   21.40
  -3   7   4   49.80   20.60
  -2  -7   4   45.20    9.20
   2  -7  -4   43.90   11.90
  -2  -7   4   43.10    8.30
   2   7  -4   32.50   17.20
  -2   7   4   54.69   16.90
   1  -7  -4  340.07   27.60
   1  -7  -4  332.07   32.20
  -1  -7   4  307.47   29.00
  -1  -7   4  315.47   29.90
   1  -7  -4  302.97   27.30
   1   7  -4  272.07   36.30
  -1   7   4  303.57   35.70
   0  -7  -4  705.63   62.89
   0  -7   4  743.93   60.39
   0  -7   4  745.33   61.89
   0  -7  -4  717.13   60.09
   0   7  -4  654.93   65.69
   0   7   4  593.34   63.49
  -1  -7  -4  658.23   61.49
   1  -7   4  739.63   61.19
   1  -7   4  715.73   59.59
  -1   7  -4  657.73   64.29
   1   7   4  626.14   65.29
   2  -7   4  105.49   17.70
  -2  -7  -4   95.79   14.50
   2  -7   4   93.29   12.60
  -2  -7  -4  101.99   12.80
  -2   7  -4  110.49   18.80
  -3  -7  -4  132.29   16.00
   3  -7   4  154.48   15.00
   3  -7   4  152.48   20.90
  -3  -7  -4  127.49   19.10
  -3   7  -4   95.29   22.70
   3   7   4   94.19   19.00
   4  -7   4  314.67   27.40
   4  -7   4  330.27   33.50
  -4  -7  -4  283.17   30.90
  -4  -7  -4  265.07   30.70
  -4   7  -4  237.78   36.30
   4   7   4  314.57   31.40
  -5  -7  -4  192.58   28.00
   5  -7   4  217.48   29.70
  -5  -7  -4  207.98   24.70
   5   7   4  227.38   28.10
  -5   7  -4  191.38   32.80
  -6  -7  -4   35.10   14.70
   6  -7   4   64.29   18.30
  -6  -7  -4   48.00   15.70
  -6   7  -4   18.70   20.50
  -6  -8   4  120.69   18.60
  -6   8   4  134.09   29.80
   6   8  -4  184.28   33.50
  -5  -8   4   19.80   11.70
   5  -8  -4   53.99   17.10
  -5   8   4   23.00   22.20
   5   8  -4   56.19   31.60
  -4  -8   4   36.50   10.70
   4  -8  -4   53.89   16.10
  -4   8   4   44.40   21.20
   4   8  -4   36.80   29.00
  -3  -8   4  422.46   37.30
   3  -8  -4  402.36   41.10
  -3  -8   4  384.96   36.40
  -3   8   4  346.77   44.20
   3   8  -4  362.96   51.29
   2  -8  -4  592.14   54.29
  -2  -8   4  613.94   51.99
  -2  -8   4  595.04   50.49
  -2   8   4  524.45   58.49
   2   8  -4  459.75   60.99
   1  -8  -4  157.78   15.50
  -1  -8   4  176.38   17.70
  -1  -8   4  186.48   20.60
   1  -8  -4  184.98   24.20
   1   8  -4  163.48   29.40
  -1   8   4  156.18   26.30
   0  -8  -4   38.20   12.90
   0  -8  -4   49.70    6.80
   0  -8   4   47.60    8.80
   0  -8   4   54.89   11.10
   0   8  -4   47.00   18.00
   0   8   4   34.20   14.90
  -1  -8  -4  240.48   22.90
   1  -8   4  266.27   23.50
  -1  -8  -4  231.38   27.80
   1  -8   4  273.67   27.20
  -1   8  -4  174.48   31.40
   1   8   4  200.58   29.00
  -2  -8  -4  249.88   27.50
   2  -8   4  301.07   36.10
   2  -8   4  259.87   22.80
  -2  -8  -4  233.58   22.80
   2   8   4  170.78   32.90
  -2   8  -4  160.28   30.60
  -3  -8  -4   41.10   10.00
   3  -8   4   56.79    8.90
  -3  -8  -4   49.60   13.50
   3  -8   4   51.39   14.30
   3   8   4   56.89   15.20
  -3   8  -4   34.90   21.00
  -4  -8  -4   20.10   10.10
  -4  -8  -4   -3.50   11.60
   4  -8   4   22.50   14.70
   4   8   4   13.60   13.70
  -4   8  -4    3.40   18.10
   5  -8   4   24.90   16.50
  -5  -8  -4   22.30   15.40
  -5  -8  -4    7.70   12.20
  -5   8  -4    3.40   24.60
   5  -9  -4  161.38   24.50
  -5   9   4   90.29   28.80
   4  -9  -4  268.27   38.20
  -4  -9   4  231.68   27.80
  -4  -9   4  244.88   26.40
  -4   9   4  207.88   38.80
   4   9  -4  211.38   37.20
  -3  -9   4   72.19   12.30
  -3  -9   4   78.09   12.40
   3  -9  -4   68.29   18.30
   3   9  -4   78.49   30.40
  -3   9   4   42.60   22.40
  -2  -9   4   45.90   11.50
   2  -9  -4   63.79   16.50
  -2  -9   4   50.39   11.20
  -2   9   4   33.10   19.70
   2   9  -4   22.50   22.00
  -1  -9   4  277.87   27.00
  -1  -9   4  276.67   29.50
   1  -9  -4  254.77   33.10
   1   9  -4  242.18   38.60
  -1   9   4  307.17   39.60
   0  -9   4  242.18   23.90
   0  -9  -4  233.08   34.00
   0  -9  -4  222.08   23.20
   0  -9   4  270.37   28.50
   0   9  -4  232.18   36.30
   0   9   4  321.07   34.00
  -1  -9  -4   70.19   10.40
   1  -9   4   83.59   15.10
  -1  -9  -4   66.49   16.30
   1   9   4   88.99   18.50
  -1   9  -4   51.29   25.80
   2  -9   4   16.60   13.00
  -2  -9  -4   15.40   13.20
  -2  -9  -4    6.20    8.90
   2   9   4    6.30   16.90
  -2   9  -4   12.00   18.50
  -3  -9  -4   93.69   13.90
   3  -9   4   88.89   17.90
  -3  -9  -4   58.29   16.10
  -3   9  -4   54.89   30.70
   3   9   4   58.49   18.30
  -4  -9  -4  111.49   20.90
  -4  -9  -4   90.29   15.30
   4  -9   4  105.39   20.10
   4   9   4  104.49   20.10
  -4   9  -4   85.69   25.50
  -3 -10   4   63.29   12.30
   3 -10  -4   45.60   19.50
  -3 -10   4   55.29   13.00
  -3  10   4   58.79   30.40
  -2 -10   4  113.29   18.20
  -2 -10   4   98.69   14.90
   2  10  -4   90.69   27.30
  -2  10   4   77.79   25.30
  -1 -10   4   80.89   12.50
   1 -10  -4   91.29   19.40
  -1 -10   4   75.39   15.60
   1  10  -4   47.80   24.20
  -1  10   4   87.49   23.40
   0 -10  -4   57.49   17.50
   0 -10   4   41.40   16.80
   0 -10   4   26.10    9.70
   0  10   4   41.70   20.30
   0  10  -4   11.50   22.30
  -1 -10  -4   43.80    9.80
   1 -10   4   60.19   15.60
  -1 -10  -4   50.79   17.50
   1  10   4   70.79   23.30
  -2 -10  -4  162.18   27.40
   2 -10   4  156.58   22.80
  -2 -10  -4  130.79   17.30
   2  10   4  131.99   25.90
  -2  10  -4  152.08   29.50
   9   0  -5   44.70   21.60
  -9   0   5   95.09   14.10
   8   0  -5   32.80   17.90
  -8   0   5   39.90   10.30
   7   0  -5   33.70    5.80
  -7   0   5   31.90    8.50
   7   0  -5   50.09   15.70
   6   0  -5  835.72   70.99
  -6   0   5  785.72   67.09
   6   0  -5  743.33   67.09
  -6   0   5  767.02   67.99
  -5   0   5 2240.68  188.68
   5   0  -5 2516.65  191.18
   5   0  -5 1919.01  188.48
  -4   0   5 1354.36  105.49
   4   0  -5 1118.79  105.39
  -4   0   5 1238.58  105.69
  -3   0   5   39.10    4.90
  -3   0   5   42.20    5.00
   3   0  -5   31.30    5.10
   3   0  -5   32.30    8.60
   2   0  -5 1069.29   95.19
  -2   0   5 1134.39   95.19
   2   0  -5 1203.98   96.29
  -2   0   5 1174.68   95.19
  -2   0   5  996.60   95.99
   1   0  -5 2880.41  214.68
   1   0  -5 2505.75  214.68
  -1   0   5 2347.07  214.28
  -1   0   5 2349.36  214.28
   0   0   5  470.95   40.90
   0   0   5  469.35   41.00
   0   0   5  552.84   41.60
   0   0  -5  475.45   41.90
   0   0  -5  394.46   40.80
   1   0   5   19.00    4.00
   1   0   5   19.40    4.20
  -1   0  -5   12.30    6.00
  -1   0  -5   22.10    3.60
  -2   0  -5  435.66   44.50
  -2   0  -5  476.35   43.40
  -2   0  -5  573.04   43.60
   2   0   5  513.25   43.70
  -3   0  -5  630.14   52.09
   3   0   5  546.15   51.79
  -3   0  -5  577.74   53.39
   3   0   5  639.04   52.19
  -4   0  -5  694.33   66.29
   4   0   5  729.13   65.59
  -4   0  -5  820.52   65.99
   4   0   5  768.62   65.69
   5   0   5  250.57   23.10
  -5   0  -5  269.67   24.30
   5   0   5  190.98   23.00
  -5   0  -5  177.08   25.90
  -6   0  -5   20.90   12.00
  -6   0  -5    5.60   12.50
   6   0   5   19.10   11.00
   6   0   5   26.20   10.30
  -6   0  -5   15.90    9.30
  -7   0  -5   37.70   15.40
  -7   0  -5   23.00   15.60
   7   0   5   -2.20   13.50
  -7   0  -5   31.00   11.90
   7   0   5   15.20   15.00
  -8   0  -5   45.40   20.90
   9  -1  -5   -0.50   19.70
  -9  -1   5   39.10   12.80
  -9   1   5   15.80   12.30
   9   1  -5    9.80   19.90
   8  -1  -5  144.99   26.80
  -8  -1   5  156.68   22.10
  -8   1   5  149.09   18.40
   8   1  -5  184.98   27.80
  -7  -1   5  299.77   31.60
   7  -1  -5  333.97   36.70
   7  -1  -5  336.37   30.70
   7   1  -5  376.66   37.10
  -7   1   5  332.27   30.90
  -6  -1   5  283.27   29.10
   6  -1  -5  284.17   28.30
   6  -1  -5  291.07   35.50
   6   1  -5  381.76   34.50
  -6   1   5  359.16   29.20
   5  -1  -5  127.09   18.10
   5  -1  -5  118.49   11.60
  -5  -1   5  108.59   12.30
  -5   1   5   91.69   12.00
  -5   1   5  106.49   12.10
   5   1  -5  102.19   18.80
   4  -1  -5  532.15   54.79
  -4  -1   5  607.74   55.09
  -4   1   5  728.33   54.89
  -4   1   5  684.23   55.29
  -3  -1   5 1002.20   90.99
   3  -1  -5  945.31   91.09
   3  -1  -5  965.90   90.99
   3   1  -5 1032.00   90.59
  -3   1   5 1166.08   91.19
  -3   1   5 1197.48   90.89
   3   1  -5 1150.78   92.99
  -2  -1   5 1404.86  108.09
   2  -1  -5 1429.16  107.89
   2  -1  -5 1298.37  108.19
  -2  -1   5 1053.69  108.09
   2   1  -5 1179.98  108.09
  -2   1   5 1218.58  107.79
  -2   1   5 1286.47  108.09
  -1  -1   5  567.34   45.40
   1  -1  -5  479.15   45.60
   1  -1  -5  539.95   45.40
   1   1  -5  488.65   45.80
   1   1  -5  539.65   45.40
  -1   1   5  528.65   45.50
  -1   1   5  486.45   45.30
  -1   1   5  576.04   45.30
   0  -1  -5 1501.05  131.09
   0  -1   5 1537.75  131.39
   0  -1   5 1514.25  130.59
   0  -1  -5 1420.16  130.49
   0  -1   5 1427.66  130.59
   0   1  -5 1527.65  130.59
   0   1   5 1485.65  130.69
   0   1   5 1618.54  130.59
   0   1  -5 1532.45  131.19
   0   1  -5 1743.83  130.79
   1  -1   5 3207.78  260.97
   1  -1   5 2815.82  260.57
   1  -1   5 3020.30  260.57
   1   1   5 3097.59  260.47
  -1   1  -5 3299.37  260.67
  -1   1  -5 2941.91  260.77
   2  -1   5 2664.23  224.78
   2  -1   5 2819.22  224.98
  -2  -1  -5 2834.92  224.28
  -2  -1  -5 2900.61  227.98
  -2   1  -5 2655.83  224.98
   2   1   5 2583.74  224.78
  -2   1  -5 2355.56  224.98
  -2   1  -5 2336.37  224.88
   3  -1   5  877.11   71.89
   3  -1   5  921.61   72.09
  -3   1  -5  822.72   71.99
  -3   1  -5  783.62   71.89
   3   1   5  745.73   72.59
  -4  -1  -5   57.99   22.80
   4  -1   5   53.39    9.70
   4  -1   5   54.79    8.90
   4  -1   5   60.69   10.00
  -4   1  -5   72.69   10.50
  -4   1  -5   80.49   12.10
   4   1   5   56.19    9.30
   5  -1   5  122.89   18.10
   5  -1   5  100.79   14.30
  -5  -1  -5   92.59   12.70
   5  -1   5   89.99   15.90
  -5  -1  -5  114.39   17.80
  -5   1  -5   98.49   15.40
   5   1   5   86.99   13.40
   5   1   5   85.49   13.00
  -5   1  -5   97.09   17.60
   6  -1   5  162.28   21.60
   6  -1   5  181.78   21.60
  -6  -1  -5  240.98   28.30
  -6  -1  -5  187.78   21.50
   6   1   5  148.49   21.50
  -6   1  -5  187.98   23.20
   6   1   5  186.58   22.20
  -6   1  -5  198.08   25.80
  -6   1  -5  191.98   22.90
   7  -1   5   76.19   15.40
  -7  -1  -5  136.99   32.50
  -7  -1  -5   89.99   14.80
   7  -1   5   88.29   15.20
   7   1   5   75.39   15.60
  -7   1  -5   94.09   18.70
  -7   1  -5   70.59   20.40
  -7   1  -5   69.59   13.90
   7   1   5   77.09   15.70
  -8  -2   5   43.50   13.80
   8  -2  -5   26.80    9.50
   8  -2  -5   43.60   23.30
  -8   2   5   21.30    9.80
   8   2  -5   32.70   19.40
   7  -2  -5   21.00    8.70
  -7  -2   5   13.20    8.80
   7  -2  -5    9.80   14.80
   7   2  -5   29.70   16.90
  -7   2   5   15.70    7.70
  -6  -2   5  245.78   25.30
   6  -2  -5  268.77   24.80
   6  -2  -5  280.87   29.90
  -6   2   5  254.97   23.90
   5  -2  -5  688.63   60.29
  -5  -2   5  629.44   57.59
   5  -2  -5  640.34   57.79
  -5   2   5  632.34   56.99
   5   2  -5  732.43   61.89
   4  -2  -5  572.94   51.09
   4  -2  -5  514.15   48.90
  -4  -2   5  529.85   48.90
   4  -2  -5  495.35   48.20
   4   2  -5  647.04   51.89
  -4   2   5  625.34   48.40
   3  -2  -5   93.29   14.60
  -3  -2   5   98.89   10.50
   3  -2  -5  101.29   13.30
   3  -2  -5   93.99    9.50
   3   2  -5  105.99   16.40
   3   2  -5   96.69    9.30
  -3   2   5  117.59    9.70
   2  -2  -5  132.49   13.20
   2  -2  -5   93.69   11.80
   2  -2  -5  112.59    9.50
  -2  -2   5  105.29   10.10
  -2   2   5   92.79    9.50
   2   2  -5   75.59   14.40
   2   2  -5   90.69    9.40
   2   2  -5  104.09   10.20
   1  -2  -5  634.04   59.09
   1  -2  -5  650.03   60.09
  -1  -2   5  701.73   59.09
  -1  -2   5  682.83   59.09
   1  -2  -5  763.52   59.59
  -1   2   5  605.54   59.09
   1   2  -5  780.52   59.39
   0  -2  -5 2017.90  197.88
   0  -2   5 2161.88  198.48
   0  -2  -5 2254.37  198.68
   0  -2   5 2508.45  201.18
   0   2  -5 2495.45  198.48
   0   2  -5 2406.26  199.48
   0   2   5 2416.76  198.18
   0   2  -5 2384.86  198.48
   0   2   5 2352.06  198.08
   1  -2   5 1362.56  118.59
   1  -2   5 1403.96  118.49
  -1  -2  -5 1347.87  119.29
   1  -2   5 1560.74  119.99
   1   2   5 1329.67  118.39
  -1   2  -5 1323.77  119.29
   2  -2   5  481.35   40.70
  -2  -2  -5  405.66   42.40
  -2  -2  -5  394.76   39.80
   2  -2   5  503.65   40.90
  -2   2  -5  480.15   41.50
   2   2   5  527.35   40.80
   3  -2   5  703.53   64.59
   3  -2   5  732.63   64.29
  -3   2  -5  704.23   64.59
  -3   2  -5  766.62   65.49
   3   2   5  812.42   64.69
  -4  -2  -5  846.22   74.99
   4  -2   5  891.01   75.09
   4  -2   5  886.51   74.69
  -4   2  -5  855.71   74.99
  -4   2  -5  795.02   75.69
   4   2   5  885.61   74.19
   4   2   5  861.01   74.99
   5  -2   5  337.57   31.60
  -5  -2  -5  296.57   30.70
   5  -2   5  346.77   31.40
   5   2   5  303.27   31.10
  -5   2  -5  326.27   31.50
  -5   2  -5  300.57   32.20
   5   2   5  321.27   29.80
   6  -2   5   10.00    9.70
  -6  -2  -5   -4.20   10.40
   6  -2   5    0.60   10.60
   6  -2   5    3.70   10.40
  -6  -2  -5   -9.40   16.90
  -6   2  -5   -4.60   10.90
  -6   2  -5   -6.90    8.20
   6   2   5   -2.10   13.50
   6   2   5   -6.40   10.80
  -6   2  -5   -6.10   12.10
  -7  -2  -5   13.70   20.20
  -7  -2  -5   56.49   14.10
   7  -2   5   53.89   16.90
   7  -2   5   45.50   14.90
   7  -2   5   74.69   13.70
  -7   2  -5   60.29   12.60
  -7   2  -5   77.39   19.80
   7   2   5   45.20   15.40
  -7   2  -5   53.19   15.70
   8  -3  -5   92.09   21.60
   8  -3  -5   96.79   14.60
  -8  -3   5   81.19   15.00
   8   3  -5  119.99   23.70
  -8   3   5   62.89   11.20
   7  -3  -5  235.28   23.50
   7  -3  -5  229.58   30.10
  -7  -3   5  206.88   24.00
  -7   3   5  202.08   21.50
   7   3  -5  265.47   39.70
  -6  -3   5  171.38   18.10
   6  -3  -5  167.68   23.90
   6  -3  -5  177.28   18.50
   6   3  -5  183.68   26.50
  -6   3   5  128.69   15.40
  -5  -3   5    6.40    6.20
   5  -3  -5   12.10   11.10
   5  -3  -5    2.20    4.60
   5   3  -5   14.60   13.10
  -5   3   5    2.50    4.30
  -4  -3   5  593.14   54.09
   4  -3  -5  646.74   53.29
   4  -3  -5  659.53   56.59
   4  -3  -5  588.64   54.59
   4   3  -5  627.74   57.59
  -4   3   5  614.84   53.19
   3  -3  -5 1350.16  114.99
  -3  -3   5 1418.16  115.09
   3  -3  -5 1459.35  117.29
   3  -3  -5 1322.07  116.29
  -3  -3   5 1413.36  115.79
  -3   3   5 1434.76  115.19
   3   3  -5 1194.88  118.39
   3   3  -5 1227.78  115.09
   2  -3  -5  931.01   75.29
   2  -3  -5  756.12   74.69
  -2  -3   5  878.81   74.19
  -2  -3   5  881.81   73.79
   2  -3  -5  959.00   73.69
   2   3  -5  849.61   73.89
   2   3  -5  897.11   77.39
  -2   3   5  761.62   73.69
  -1  -3   5  286.97   25.20
   1  -3  -5  269.67   24.90
   1  -3  -5  276.37   26.10
   1  -3  -5  279.57   25.80
  -1  -3   5  279.27   25.20
  -1   3   5  299.67   24.90
  -1   3   5  315.57   26.30
   1   3  -5  279.37   28.70
   1   3  -5  275.47   25.50
   0  -3   5  488.15   42.10
   0  -3   5  491.75   42.10
   0  -3  -5  434.56   42.70
   0  -3  -5  504.15   41.80
   0   3   5  534.25   41.90
   0   3   5  474.65   41.80
   0   3   5  452.75   42.30
   0   3  -5  491.85   44.20
  -1  -3  -5 1604.44  138.79
   1  -3   5 1548.45  138.29
   1  -3   5 1572.74  138.19
   1   3   5 1480.35  137.79
  -1   3  -5 1672.33  139.49
   1   3   5 1843.02  138.19
  -2  -3  -5 1272.47  106.69
   2  -3   5 1281.67  105.79
  -2  -3  -5 1128.79  105.39
   2  -3   5 1127.89  106.39
   2   3   5 1332.57  105.79
  -2   3  -5 1267.17  106.99
  -3  -3  -5  517.35   50.49
   3  -3   5  547.75   49.10
   3  -3   5  535.75   48.60
  -3   3  -5  591.74   50.79
   3   3   5  577.04   48.90
  -4  -3  -5   31.80    8.10
   4  -3   5   29.40    8.60
   4  -3   5   27.20    8.30
  -4  -3  -5   16.10   11.50
  -4   3  -5   32.50    9.70
   4   3   5   33.40    6.70
   4   3   5   16.00    8.10
   5  -3   5  208.28   21.30
  -5  -3  -5  151.68   24.70
  -5  -3  -5  170.98   22.60
   5  -3   5  213.28   22.60
  -5   3  -5  161.48   23.20
   5   3   5  207.18   20.10
   5   3   5  154.28   21.20
   6  -3   5  264.67   27.60
  -6  -3  -5  188.68   31.30
   6  -3   5  276.67   28.90
  -6  -3  -5  235.58   27.20
  -6   3  -5  242.58   26.50
  -6   3  -5  302.07   29.50
  -6   3  -5  238.78   29.90
   6   3   5  239.78   27.90
  -7  -3  -5   71.19   18.20
   7  -3   5   96.09   17.40
   7  -3   5   96.99   17.20
  -7  -3  -5   77.39   24.80
  -7   3  -5  110.39   23.90
  -7   3  -5   90.09   14.30
   7   3   5   89.59   15.90
  -7   3  -5  112.29   19.70
   8  -4  -5   36.80   11.50
   8  -4  -5   20.60   21.20
   8   4  -5   48.40   22.90
  -7  -4   5   14.60   10.30
   7  -4  -5    2.90   16.70
   7  -4  -5   -0.80    9.50
  -7   4   5   12.80    5.60
   7   4  -5   25.80   20.70
   6  -4  -5  212.58   24.80
   6  -4  -5  221.98   29.60
  -6  -4   5  231.78   23.90
   6   4  -5  274.57   32.60
  -5  -4   5  715.43   61.59
   5  -4  -5  701.93   64.89
   5  -4  -5  690.73   62.39
   5   4  -5  843.02   68.49
  -5   4   5  643.54   59.99
  -5   4   5  675.23   60.09
   4  -4  -5  436.06   43.90
   4  -4  -5  428.76   39.20
   4  -4  -5  434.26   41.90
  -4  -4   5  434.76   40.80
  -4   4   5  483.75   39.80
   4   4  -5  459.35   46.10
  -4   4   5  518.25   39.40
   3  -4  -5   60.39   11.30
  -3  -4   5   56.59    6.10
  -3  -4   5   57.49    7.80
   3   4  -5   45.80    6.70
  -3   4   5   54.99    5.70
   3   4  -5   59.09   16.70
  -2  -4   5 1032.60   90.39
   2  -4  -5 1137.39   89.79
   2  -4  -5 1033.10   91.39
  -2  -4   5 1014.60   90.09
   2  -4  -5  992.60   91.69
  -2   4   5 1035.00   89.69
  -2   4   5 1134.99   92.29
   1  -4  -5 2454.55  220.18
  -1  -4   5 2510.95  219.38
   1  -4  -5 2582.14  219.18
  -1  -4   5 2513.25  219.38
   1   4  -5 2671.03  222.38
  -1   4   5 2626.04  218.98
  -1   4   5 2708.13  221.58
   0  -4   5 1683.93  141.29
   0  -4  -5 1550.34  141.99
   0  -4  -5 1653.43  141.09
   0  -4   5 1610.24  141.49
   0   4  -5 1674.83  143.59
   0   4   5 1607.94  142.09
   0   4   5 1673.33  142.19
   0   4   5 1800.52  141.49
   1  -4   5  203.78   21.50
   1  -4   5  235.38   22.20
  -1  -4  -5  214.68   22.70
  -1  -4  -5  236.98   21.40
   1   4   5  252.77   23.70
   1   4   5  264.47   21.50
  -1   4  -5  238.48   24.70
  -2  -4  -5   75.89    8.80
  -2  -4  -5   87.99   13.80
   2  -4   5   90.09   11.60
   2  -4   5   89.99   10.60
  -2   4  -5   72.59   13.60
   2   4   5   63.69    8.60
  -3  -4  -5  180.68   18.40
  -3  -4  -5  140.79   17.10
   3  -4   5  212.38   18.20
  -3  -4  -5  198.18   20.60
   3  -4   5  207.18   19.80
   3   4   5  156.28   18.30
   3   4   5  178.18   17.00
  -4  -4  -5  235.68   23.60
   4  -4   5  237.18   23.80
  -4  -4  -5  246.48   26.90
   4   4   5  182.38   22.50
  -4   4  -5  188.98   25.20
   5  -4   5  127.49   19.00
   5  -4   5  100.29   14.00
  -5  -4  -5   97.79   14.60
  -5  -4  -5  141.39   21.00
   5   4   5   76.59   14.60
   5   4   5  122.09   14.30
  -5   4  -5   93.69   17.10
  -6  -4  -5   10.40   10.90
   6  -4   5   11.70    9.10
  -6  -4  -5   26.60   18.30
   6  -4   5   19.30   13.00
  -6   4  -5   -0.10   17.30
  -7  -4  -5   22.40   21.20
  -7  -4  -5   17.40   13.50
   7  -4   5   -0.50   15.00
   7  -4   5   -9.00   12.40
  -7   4  -5   -0.80   11.80
  -7   4  -5    9.80   17.30
  -7   4  -5   12.80   18.00
   8  -5  -5  116.59   19.00
  -8  -5   5   93.29   16.90
   8  -5  -5   70.39   24.60
  -8   5   5   78.79   26.10
   7  -5  -5  233.48   26.00
   7  -5  -5  162.08   31.50
  -7  -5   5  187.18   23.80
  -7   5   5  196.98   30.90
   6  -5  -5  143.39   26.70
   6  -5  -5  145.19   21.70
  -6  -5   5  164.48   19.10
   6   5  -5  156.88   29.90
  -6   5   5  160.08   25.50
   5  -5  -5   24.30   17.00
   5  -5  -5   -2.30   11.60
  -5  -5   5   18.30    7.80
   5   5  -5   -2.30   17.20
  -5   5   5    7.70   17.40
   4  -5  -5  409.96   41.90
  -4  -5   5  429.86   40.30
  -4  -5   5  431.36   38.90
   4  -5  -5  406.16   44.00
  -4   5   5  502.05   45.50
   4   5  -5  495.65   39.10
   4   5  -5  467.35   47.90
   3  -5  -5 1233.08  111.19
   3  -5  -5 1215.78  112.09
  -3  -5   5 1255.17  109.39
  -3  -5   5 1314.47  110.09
  -3   5   5 1353.06  112.89
   3   5  -5 1328.37  115.29
   2  -5  -5 1063.19   97.69
  -2  -5   5 1148.39   98.59
  -2  -5   5 1123.49   98.69
   2  -5  -5 1120.99   99.99
   2  -5  -5 1242.88   98.09
  -2   5   5 1152.68   97.69
   2   5  -5 1135.79  104.59
  -2   5   5 1220.58  101.49
   1  -5  -5  333.37   32.20
   1  -5  -5  344.37   29.40
   1  -5  -5  361.56   29.80
  -1  -5   5  355.96   30.70
  -1  -5   5  365.56   30.30
  -1   5   5  313.67   33.10
   1   5  -5  286.97   37.30
  -1   5   5  323.17   29.50
   0  -5  -5  219.38   24.80
   0  -5  -5  253.67   22.50
   0  -5   5  247.38   22.80
   0  -5   5  245.18   25.50
   0   5   5  265.27   25.20
   0   5  -5  283.97   28.40
  -1  -5  -5  546.55   48.20
   1  -5   5  512.05   48.40
   1  -5   5  542.35   49.10
  -1  -5  -5  552.84   48.60
  -1   5  -5  543.45   51.49
   1   5   5  555.84   49.50
   1   5   5  612.34   48.40
  -2  -5  -5  382.36   31.30
   2  -5   5  381.66   31.50
   2  -5   5  385.36   32.60
  -2  -5  -5  331.17   32.50
  -2   5  -5  310.67   34.50
   2   5   5  343.47   31.20
   2   5   5  284.37   31.00
  -3  -5  -5  123.19   17.30
  -3  -5  -5  106.19   13.70
  -3  -5  -5  155.18   16.60
   3  -5   5  160.08   17.60
   3  -5   5  141.29   13.90
  -3   5  -5  113.19   17.80
   3   5   5  108.89   16.70
   4  -5   5   22.00    9.00
   4  -5   5   27.80   10.70
  -4  -5  -5   17.60   10.20
  -4  -5  -5    9.10    8.70
  -4   5  -5   28.10   12.60
   4   5   5   37.00    7.70
   4   5   5   15.20    9.40
  -5  -5  -5  111.69   16.40
  -5  -5  -5  137.89   24.30
   5  -5   5  154.78   22.50
   5  -5   5  122.59   17.10
  -5   5  -5  106.89   20.40
   5   5   5  140.99   16.90
   6  -5   5  207.98   26.70
  -6  -5  -5  192.78   29.30
   6  -5   5  130.39   19.40
  -6  -5  -5  155.58   22.90
  -6   5  -5  137.79   24.50
   6   5   5  196.48   23.60
   7  -6  -5   19.70   13.80
   7   6  -5   20.60   24.90
   6  -6  -5  116.49   26.20
  -6  -6   5   94.99   14.30
   6  -6  -5   92.69   16.80
   6   6  -5  128.99   47.20
  -6   6   5   72.99   25.20
   5  -6  -5  196.38   23.80
   5  -6  -5  152.78   27.10
  -5  -6   5  172.78   19.70
   5   6  -5  168.68   29.10
  -5   6   5  150.08   27.50
   4  -6  -5  108.19   20.20
  -4  -6   5  117.49   15.90
  -4  -6   5  139.09   13.30
   4  -6  -5  126.99   22.60
  -4   6   5  119.99   21.20
   4   6  -5  157.28   25.30
  -3  -6   5   47.60    9.70
   3  -6  -5   52.09   11.70
  -3  -6   5   59.19    8.90
   3   6  -5   33.90   17.90
  -3   6   5   35.00   14.20
   2  -6  -5  114.09   18.00
   2  -6  -5  106.79   10.60
  -2  -6   5  131.09   14.40
  -2  -6   5  133.49   14.90
   2   6  -5  159.18   25.10
  -2   6   5  160.88   20.30
   1  -6  -5  561.24   52.89
   1  -6  -5  674.83   53.19
   1  -6  -5  595.44   55.69
  -1  -6   5  639.24   53.79
  -1  -6   5  609.24   54.99
   1   6  -5  618.84   59.29
  -1   6   5  624.04   56.49
   0  -6   5 1352.76  111.09
   0  -6  -5 1278.97  112.39
   0  -6  -5 1342.07  110.59
   0  -6   5 1404.26  111.79
   0   6  -5 1229.58  114.49
   0   6   5 1151.98  112.59
   1  -6   5  510.05   42.70
   1  -6   5  478.95   41.40
  -1  -6  -5  440.96   42.90
  -1  -6  -5  489.95   41.20
   1   6   5  471.35   41.20
   1   6   5  431.76   43.20
  -1   6  -5  422.86   45.50
  -2  -6  -5   19.90    6.60
   2  -6   5   26.00    9.10
  -2  -6  -5   19.70   11.10
   2  -6   5   13.30    7.00
  -2   6  -5    4.30   13.90
   2   6   5   16.80    7.50
  -3  -6  -5  213.78   23.20
   3  -6   5  241.58   25.90
  -3  -6  -5  208.08   26.40
   3  -6   5  247.88   22.80
   3   6   5  239.58   23.10
  -3   6  -5  220.28   28.80
   4  -6   5  387.06   33.50
   4  -6   5  381.56   37.50
  -4  -6  -5  334.37   35.80
  -4  -6  -5  367.96   34.80
  -4   6  -5  326.17   41.80
   5  -6   5  200.58   20.80
  -5  -6  -5  160.48   27.30
   5  -6   5  220.38   27.50
  -5  -6  -5  156.48   23.10
  -5   6  -5  179.68   33.40
  -6  -6  -5    0.70   15.50
   6  -6   5   45.90   22.90
  -6  -6  -5   28.60   16.80
  -6   6  -5   10.30    9.70
  -6   6  -5    2.20   22.20
  -6  -7   5   53.19   12.90
   6  -7  -5   55.69   16.50
   6   7  -5   65.49   26.20
  -6   7   5   31.80   22.40
   5  -7  -5  -15.90   14.00
  -5  -7   5   -4.20    9.20
   5   7  -5   -0.70   23.20
  -5   7   5    0.80   18.10
   4  -7  -5  128.29   19.00
  -4  -7   5  140.89   14.40
  -4  -7   5  122.29   17.00
   4   7  -5   91.49   30.30
  -4   7   5  127.89   23.50
  -3  -7   5  423.66   36.20
   3  -7  -5  426.46   40.30
  -3  -7   5  432.56   37.50
   3   7  -5  323.87   46.00
  -3   7   5  346.17   42.30
   2  -7  -5  348.77   36.30
  -2  -7   5  375.56   33.20
  -2  -7   5  365.36   32.80
  -2   7   5  345.27   38.50
   2   7  -5  332.07   41.80
  -1  -7   5  208.38   21.00
   1  -7  -5  220.28   24.90
   1  -7  -5  211.68   18.60
  -1  -7   5  212.68   21.90
   1   7  -5  183.48   29.90
  -1   7   5  186.68   25.80
   0  -7   5  112.39   15.30
   0  -7  -5   90.99   14.60
   0  -7   5   98.69   12.70
   0  -7  -5   96.19   10.70
   0   7  -5  102.49   18.60
   0   7   5   77.79   14.90
  -1  -7  -5  250.37   26.90
   1  -7   5  263.07   23.30
   1  -7   5  265.87   26.30
  -1  -7  -5  244.88   22.80
   1   7   5  202.28   27.70
  -1   7  -5  214.38   30.50
  -2  -7  -5  320.17   30.70
   2  -7   5  355.46   31.30
   2  -7   5  370.36   33.90
  -2  -7  -5  311.97   35.00
  -2   7  -5  329.07   37.30
   2   7   5  302.67   33.30
  -3  -7  -5   93.29   16.10
   3  -7   5   98.99   14.80
  -3  -7  -5  111.69   15.60
   3  -7   5  130.09   21.00
  -3   7  -5  136.09   21.80
   3   7   5  121.09   17.10
  -4  -7  -5   25.30   10.70
   4  -7   5   44.70   21.60
  -4  -7  -5   34.40   12.70
   4  -7   5   34.70    9.40
  -4   7  -5   39.80   20.60
   5  -7   5  113.19   19.50
  -5  -7  -5  103.69   19.90
  -5  -7  -5  100.59   16.30
  -5   7  -5   87.59   22.00
   6  -8  -5   71.89   24.10
  -6  -8   5   95.09   16.20
  -6   8   5   85.59   27.30
  -5  -8   5  265.27   30.00
   5  -8  -5  259.27   34.10
  -5   8   5  235.38   44.60
   5   8  -5  260.07   45.30
  -4  -8   5  188.58   21.60
   4  -8  -5  198.58   28.50
   4   8  -5  138.39   36.00
  -4   8   5  182.38   32.60
   3  -8  -5    5.30   13.60
  -3  -8   5  -15.20    8.10
  -3  -8   5   -2.00    9.00
   3   8  -5   -7.10   20.60
  -3   8   5    6.90   18.00
  -2  -8   5  225.78   24.00
  -2  -8   5  233.28   24.10
   2  -8  -5  254.57   29.30
   2   8  -5  191.58   34.70
  -2   8   5  202.48   31.20
   1  -8  -5  412.66   37.90
  -1  -8   5  472.15   40.00
  -1  -8   5  489.85   41.30
   1  -8  -5  456.95   43.80
  -1   8   5  411.46   45.30
   1   8  -5  368.06   47.80
   0  -8   5  205.28   19.30
   0  -8  -5  163.48   18.00
   0  -8   5  208.78   23.20
   0  -8  -5  202.08   25.40
   0   8   5  197.78   26.00
   0   8  -5  161.38   30.00
  -1  -8  -5   42.10   13.00
   1  -8   5   31.80    9.40
  -1  -8  -5   25.90    7.90
   1  -8   5   39.10   11.70
  -1   8  -5   43.50   17.50
   1   8   5   46.90   16.00
  -2  -8  -5   72.19   14.80
  -2  -8  -5   70.29   11.30
   2  -8   5   89.39   14.80
   2  -8   5   85.09   12.30
  -2   8  -5   31.50   18.00
   2   8   5   40.20   15.00
   3  -8   5  113.99   15.70
  -3  -8  -5   87.59   13.40
   3  -8   5  113.69   17.60
  -3  -8  -5  102.19   17.10
  -3   8  -5  102.19   22.20
   3   8   5   83.69   17.30
  -4  -8  -5  106.59   17.70
   4  -8   5  134.29   23.00
  -4  -8  -5  130.69   22.40
   4   8   5  133.59   22.50
  -4   8  -5   80.49   27.10
  -5  -8  -5   70.79   19.20
   5  -8   5   54.19   18.80
  -5   8  -5   61.49   23.10
   5  -9  -5   10.50   18.20
   5   9  -5   42.30   35.20
  -5   9   5   -6.50   24.10
  -4  -9   5   97.09   15.60
  -4  -9   5  120.59   20.30
   4   9  -5  107.59   30.70
  -4   9   5   99.79   27.40
   3  -9  -5  294.57   35.70
  -3  -9   5  270.57   29.80
  -3  -9   5  306.67   30.60
   3   9  -5  217.68   43.20
  -3   9   5  259.67   44.90
   2  -9  -5  213.68   29.90
  -2  -9   5  227.48   24.60
  -2  -9   5  199.68   22.20
   2   9  -5  165.88   31.90
  -2   9   5  223.28   33.70
  -1  -9   5   28.20   11.40
   1  -9  -5   37.50   15.30
  -1  -9   5   25.90    8.20
   1   9  -5   40.20   21.50
  -1   9   5   28.80   21.00
   0  -9   5   49.20   10.40
   0  -9  -5   52.59    7.50
   0  -9   5   42.30   13.00
   0  -9  -5   37.70   15.50
   0   9   5   56.19   17.40
   0   9  -5   71.79   21.60
  -1  -9  -5  156.58   16.70
   1  -9   5  180.38   24.10
  -1  -9  -5  157.58   25.60
   1  -9   5  145.59   19.40
  -1   9  -5  173.58   31.30
   1   9   5  157.28   29.50
  -2  -9  -5  174.18   25.30
   2  -9   5  156.68   24.80
  -2  -9  -5  144.49   16.90
   2   9   5  125.19   22.50
  -2   9  -5  133.39   27.30
  -3  -9  -5   66.19   13.60
  -3  -9  -5   75.99   17.10
   3   9   5   40.50   16.10
   3 -10  -5   35.50   18.80
  -3 -10   5    1.80   11.20
  -3 -10   5   30.50   10.80
  -3  10   5  -21.20   23.10
   3  10  -5   -3.10   25.60
   2 -10  -5    8.20   17.00
  -2 -10   5   20.70   11.30
  -2 -10   5   12.00   14.70
  -2  10   5   25.40   22.10
  -1 -10   5   57.19   17.60
  -1 -10   5   83.29   12.90
  -1  10   5   95.49   23.30
   0 -10  -5  170.18   28.00
   0 -10   5  158.98   19.50
   0 -10   5  154.08   24.40
   0  10   5  108.09   24.70
   1 -10   5   62.89   17.40
  -1 -10  -5   99.79   22.80
   1  10   5   75.09   23.10
  -1  10  -5   93.39   26.10
  -2 -10  -5   14.20    8.60
   2 -10   5   35.70   16.10
  -2 -10  -5   21.40   17.50
   2  10   5   38.10   18.90
  -2  10  -5   45.50   24.20
  -9   0   6   37.30   12.50
   9   0  -6   65.99   26.80
   8   0  -6  348.97   39.00
  -8   0   6  306.97   31.60
   7   0  -6  353.86   38.20
  -7   0   6  335.87   31.70
   7   0  -6  331.77   29.80
   6   0  -6   60.59   19.00
  -6   0   6   60.89    9.70
  -6   0   6   82.89    9.30
   5   0  -6  235.68   22.90
  -5   0   6  243.08   23.80
  -5   0   6  279.67   23.20
   5   0  -6  282.07   29.30
  -4   0   6  654.03   57.09
   4   0  -6  708.73   60.99
   4   0  -6  563.04   56.89
  -4   0   6  728.23   56.79
   3   0  -6 1778.72  140.39
  -3   0   6 1591.44  138.59
  -3   0   6 1720.63  138.59
   3   0  -6 1426.26  138.59
   2   0  -6    6.50    4.20
  -2   0   6   -3.00    3.90
   2   0  -6   18.10   14.10
  -2   0   6    6.90    3.10
  -2   0   6   11.20    3.30
   1   0  -6  376.26   36.50
   1   0  -6  475.65   37.00
  -1   0   6  385.76   35.80
   0   0  -6 2959.30  280.87
   0   0   6 3401.36  281.17
   0   0   6 3114.19  280.97
   0   0  -6 3751.62  282.07
  -1   0  -6 2256.37  203.48
  -1   0  -6 2401.36  204.58
   1   0   6 2472.85  203.48
   1   0   6 2440.16  203.78
  -2   0  -6 1969.00  181.88
  -2   0  -6 2303.07  181.98
   2   0   6 2138.09  182.18
  -3   0  -6  261.47   24.90
   3   0   6  263.17   25.30
  -3   0  -6  287.17   25.30
   4   0   6   -2.90    5.50
  -4   0  -6  -10.30    8.60
   4   0   6    2.00    6.80
  -4   0  -6    7.20    5.70
   5   0   6   69.89   11.90
   5   0   6   75.29   13.00
  -5   0  -6   85.99   14.10
  -5   0  -6   54.79   13.20
   6   0   6   86.09   14.70
  -6   0  -6  116.89   21.70
   6   0   6   78.99   14.60
  -6   0  -6   93.29   14.00
  -6   0  -6  102.99   18.50
  -7   0  -6   23.70   12.30
   7   0   6   26.80   13.40
  -7   0  -6   25.90   17.50
   7   0   6    6.30   13.60
  -7   0  -6   25.70   14.40
   8  -1  -6   -4.20   18.20
  -8  -1   6   18.00   10.20
  -8   1   6   20.80    8.90
   8   1  -6   23.70   18.90
   7  -1  -6  104.09   23.70
   7  -1  -6  112.79   13.60
  -7  -1   6  145.99   16.20
   7   1  -6  138.29   24.90
  -7   1   6  133.99   16.40
  -6  -1   6  678.83   62.49
   6  -1  -6  749.53   66.09
   6  -1  -6  683.03   61.99
  -6   1   6  757.32   62.39
   5  -1  -6  876.41   80.79
  -5  -1   6  798.82   78.19
   5   1  -6 1049.30   81.59
  -5   1   6  897.51   77.99
  -5   1   6  927.51   78.09
   4  -1  -6  327.97   28.40
  -4  -1   6  335.47   28.40
   4   1  -6  279.37   27.30
   4   1  -6  331.57   31.90
  -4   1   6  308.37   27.90
  -4   1   6  330.17   28.20
  -3  -1   6   90.59   10.00
   3  -1  -6   83.99   10.70
   3  -1  -6  102.09   13.80
  -3   1   6  100.69    9.80
   3   1  -6   79.99   13.90
  -3   1   6  108.49   10.90
   2  -1  -6  872.11   70.89
   2  -1  -6  708.63   69.29
  -2   1   6  892.01   69.39
  -2   1   6  871.61   69.59
   2   1  -6  678.93   70.69
   2   1  -6  828.42   69.79
  -1  -1   6 1776.92  164.88
  -1  -1   6 1592.64  164.58
  -1  -1   6 2081.89  163.78
   1  -1  -6 2180.38  164.18
   1  -1  -6 2012.30  163.78
  -1   1   6 1856.51  163.78
  -1   1   6 1946.21  163.58
   1   1  -6 1884.91  164.28
   1   1  -6 1809.62  164.68
  -1   1   6 2074.49  163.98
   0  -1   6 1346.27  115.29
   0  -1  -6 1391.06  114.79
   0  -1  -6 1364.66  116.19
   0   1   6 1283.67  115.19
   0   1  -6 1458.25  115.59
   0   1  -6 1240.78  115.79
   1  -1   6  378.76   34.50
   1  -1   6  386.06   34.20
  -1  -1  -6  350.56   36.10
   1  -1   6  355.46   34.00
   1   1   6  420.66   34.00
  -1   1  -6  401.76   34.50
  -1   1  -6  388.46   34.30
  -2  -1  -6  218.88   17.40
   2  -1   6  230.88   19.50
  -2  -1  -6  256.57   23.70
  -2   1  -6  172.08   18.80
   2   1   6  179.48   18.70
  -2   1  -6  159.38   18.50
  -2   1  -6  178.78   19.40
   3  -1   6  508.45   39.70
   3   1   6  422.26   39.50
  -3   1  -6  422.36   39.60
  -3   1  -6  421.86   39.90
   4  -1   6  411.26   35.40
   4  -1   6  433.96   34.80
   4   1   6  337.77   33.60
  -4   1  -6  382.76   35.20
   4   1   6  362.86   34.80
  -4   1  -6  343.27   35.20
  -5  -1  -6   89.79   18.50
   5  -1   6   73.99   10.90
  -5   1  -6   44.40   12.00
  -5   1  -6   43.60   10.10
   5   1   6   39.70    8.80
   5   1   6   57.89   11.00
   6  -1   6    6.70    9.90
   6  -1   6   14.30   13.10
  -6  -1  -6   27.00   18.40
  -6  -1  -6   -1.40   10.10
  -6  -1  -6   19.60   11.20
   6   1   6   20.10   10.10
  -6   1  -6   20.00   10.40
   6   1   6   17.50   11.30
  -6   1  -6   24.60    9.90
  -6   1  -6   21.40   12.80
   7  -1   6   62.89   16.70
  -7  -1  -6   48.10   14.30
   7  -1   6   63.59   14.90
  -7  -1  -6   84.79   16.30
  -7  -1  -6  104.59   27.70
   7   1   6   60.79   15.80
   7   1   6   71.99   14.40
  -7   1  -6   33.60   19.10
  -7   1  -6   44.20   14.70
  -7   1  -6   82.59   14.30
  -8  -2   6  206.48   22.80
   8  -2  -6  151.48   29.70
  -8   2   6  186.88   21.00
   8   2  -6  198.68   31.90
   7  -2  -6  190.08   28.30
   7  -2  -6  182.78   20.30
  -7  -2   6  209.48   21.60
  -7   2   6  184.88   20.10
   7   2  -6  225.48   30.50
  -6  -2   6  110.89   13.70
   6  -2  -6   88.09   13.40
   6  -2  -6   86.79   17.30
  -6   2   6   89.49   11.00
   6   2  -6  125.29   19.70
  -5  -2   6  115.39   13.40
   5  -2  -6  130.49   14.10
   5  -2  -6  131.89   19.50
  -5   2   6  100.89   11.60
   5   2  -6  111.19   20.70
   4  -2  -6  261.57   26.30
   4  -2  -6  251.87   23.40
  -4  -2   6  257.07   22.80
  -4   2   6  226.38   21.90
   4   2  -6  231.88   28.70
   3  -2  -6  761.42   62.39
   3  -2  -6  690.93   60.99
  -3  -2   6  694.63   60.59
   3  -2  -6  638.54   61.29
  -3   2   6  724.33   60.29
   3   2  -6  702.53   59.99
   3   2  -6  771.62   60.39
   3   2  -6  615.24   62.89
  -2  -2   6  813.92   68.89
   2  -2  -6  875.81   68.69
   2  -2  -6  823.62   69.29
  -2   2   6  732.23   68.69
   2   2  -6  855.51   68.89
   2   2  -6  694.93   70.79
  -1  -2   6  645.84   55.69
   1  -2  -6  603.64   56.19
   1  -2  -6  705.93   56.09
  -1  -2   6  656.23   55.59
   1   2  -6  612.44   57.49
  -1   2   6  564.54   55.59
   1   2  -6  721.53   55.79
   0  -2   6 1684.43  150.38
   0  -2  -6 1498.55  148.29
   0  -2   6 1607.84  148.79
   0  -2  -6 1618.14  149.39
   0  -2   6 1645.54  148.69
   0   2  -6 1965.20  148.89
   0   2   6 1982.20  148.89
   0   2  -6 2000.90  154.68
   1  -2   6 1857.01  161.38
   1  -2   6 2027.40  162.88
   1  -2   6 1830.72  161.48
  -1  -2  -6 1765.62  162.38
  -1   2  -6 1997.90  161.48
   1   2   6 1961.70  161.38
  -1   2  -6 1796.72  164.88
   2  -2   6 1686.13  142.89
   2  -2   6 1765.32  142.99
   2   2   6 1675.23  142.79
  -2   2  -6 1499.95  143.19
  -2   2  -6 1723.73  142.89
   3  -2   6  290.27   28.20
   3   2   6  291.67   26.20
  -3   2  -6  288.37   28.40
   3   2   6  300.57   28.00
  -3   2  -6  330.67   28.40
   4  -2   6   92.39   12.70
  -4  -2  -6   85.69   13.30
  -4  -2  -6   73.49   17.60
   4  -2   6  113.79   14.60
   4   2   6   63.29   11.40
  -4   2  -6   97.19   16.90
   4   2   6   72.99   10.20
  -4   2  -6   85.59   13.60
  -5  -2  -6  300.07   40.40
   5  -2   6  425.46   36.30
  -5  -2  -6  395.56   35.50
   5  -2   6  381.86   35.10
   5   2   6  357.36   35.70
  -5   2  -6  385.86   36.20
   5   2   6  356.16   34.00
  -5   2  -6  350.86   36.30
   6  -2   6  134.29   19.80
  -6  -2  -6  149.79   20.90
   6  -2   6  171.68   22.50
  -6  -2  -6  173.68   27.10
   6   2   6  131.49   21.00
   6   2   6  166.88   21.70
  -6   2  -6  167.18   25.20
  -6   2  -6  157.48   22.70
  -7  -2  -6   -6.50   33.40
   7  -2   6   17.00   15.60
  -7  -2  -6   22.90   13.40
   7   2   6   20.40   11.90
  -7   2  -6   48.50   18.10
  -7   2  -6   34.20   16.70
  -7   2  -6   20.00   14.20
   7   2   6   18.80   14.40
   8  -3  -6   12.60   22.20
   8  -3  -6    0.90   10.30
  -8  -3   6   16.00   11.30
   8   3  -6   -2.50   21.40
  -8   3   6   10.90    7.80
   7  -3  -6   50.79   19.10
  -7  -3   6   81.99   12.90
   7  -3  -6   79.79   11.80
  -7   3   6   80.99   11.30
   7   3  -6  105.19   22.20
   6  -3  -6  407.56   37.80
   6  -3  -6  398.56   42.20
  -6  -3   6  409.36   37.50
  -6   3   6  377.26   35.80
   6   3  -6  485.55   47.00
   5  -3  -6  495.85   47.60
  -5  -3   6  480.25   43.90
  -5   3   6  483.05   42.70
   5   3  -6  523.85   49.00
   4  -3  -6  207.08   23.80
   4  -3  -6  194.88   18.30
   4  -3  -6  163.98   20.30
  -4  -3   6  188.88   19.50
   4   3  -6  214.18   28.20
  -4   3   6  233.18   18.10
   3  -3  -6  155.58   17.90
   3  -3  -6  156.88   15.90
   3  -3  -6  141.19   12.90
  -3  -3   6  155.28   14.40
   3   3  -6  140.49   20.40
   3   3  -6  121.19   12.90
   3   3  -6  155.98   13.90
  -3   3   6  127.89   13.30
   2  -3  -6 1628.34  142.79
   2  -3  -6 1728.73  143.29
   2  -3  -6 1756.62  141.89
  -2  -3   6 1686.13  142.19
  -2  -3   6 1716.23  141.89
   2   3  -6 1431.96  144.99
   2   3  -6 1697.83  141.99
  -1  -3   6 1807.02  152.88
   1  -3  -6 1735.53  153.48
  -1  -3   6 1783.92  152.98
   1  -3  -6 1598.84  153.48
  -1   3   6 2077.19  153.98
   1   3  -6 1702.33  155.28
  -1   3   6 1860.31  152.88
   0  -3   6  743.83   70.89
   0  -3  -6  700.83   71.49
   0  -3   6  788.12   70.79
   0   3   6  930.81   70.79
   0   3   6  879.31   70.99
   0   3  -6  904.51   73.09
   1  -3   6  209.18   21.10
  -1  -3  -6  217.08   22.70
   1  -3   6  194.78   21.10
  -1   3  -6  245.78   24.00
   1   3   6  274.77   21.40
  -2  -3  -6  381.86   31.10
   2  -3   6  394.76   33.10
  -2  -3  -6  364.56   36.60
   2  -3   6  338.37   33.00
  -2   3  -6  342.97   34.10
   2   3   6  333.07   33.30
   3  -3   6  573.44   48.60
  -3  -3  -6  522.85   50.79
   3   3   6  526.85   48.20
   4  -3   6  565.04   48.20
  -4  -3  -6  535.55   47.60
   4  -3   6  511.45   47.10
  -4   3  -6  461.25   49.60
   4   3   6  546.95   46.10
  -4   3  -6  554.04   47.90
   4   3   6  500.15   47.60
   5  -3   6   62.29   11.10
  -5  -3  -6   27.90   19.40
  -5  -3  -6   69.79   12.00
   5  -3   6   76.39   12.90
   5   3   6   54.39   12.20
  -5   3  -6   71.59   13.70
   5   3   6   60.39   11.20
  -5   3  -6   73.39   15.50
  -6  -3  -6  -32.70   20.00
  -6  -3  -6    8.90   11.30
   6  -3   6   37.70   13.20
   6  -3   6    3.00   10.50
  -6   3  -6   43.30   14.90
   6   3   6    3.90   12.10
   6   3   6   24.40   10.10
  -6   3  -6   23.80   26.60
   7  -3   6   72.79   16.90
  -7  -3  -6   47.40   26.40
   7  -3   6   70.59   14.80
  -7  -3  -6   69.99   15.60
  -7   3  -6   69.69   13.60
  -7   3  -6   82.09   19.30
  -7   3  -6   63.19   17.90
   8  -4  -6  105.79   18.60
  -8  -4   6   81.39   19.10
   8  -4  -6   97.29   24.00
   7  -4  -6  123.89   27.40
   7  -4  -6  172.18   22.60
  -7  -4   6  144.09   19.10
   7   4  -6  164.48   31.20
  -7   4   6  123.09   14.30
   6  -4  -6   30.00   16.40
   6  -4  -6   39.50   10.30
  -6  -4   6   33.10    9.30
  -6   4   6   23.40    5.30
   6   4  -6   41.70   22.90
   5  -4  -6  324.47   34.70
  -5  -4   6  326.07   29.50
   5  -4  -6  366.26   32.40
   5  -4  -6  303.87   27.10
  -5   4   6  289.17   27.20
  -5   4   6  291.97   27.30
   5   4  -6  307.37   37.50
   4  -4  -6 1136.69   99.29
   4  -4  -6 1097.69   97.59
  -4  -4   6 1153.58   96.79
   4  -4  -6 1181.98   95.59
   4   4  -6 1128.29  101.19
  -4   4   6 1037.20   95.89
   3  -4  -6 1708.43  148.49
  -3  -4   6 1804.32  146.99
   3  -4  -6 1841.32  146.79
  -3  -4   6 1691.23  147.59
   3   4  -6 1714.13  151.68
   3   4  -6 1600.24  147.09
   2  -4  -6  447.66   42.90
  -2  -4   6  534.85   42.60
   2  -4  -6  474.05   40.30
   2  -4  -6  432.06   42.20
   2   4  -6  426.56   47.40
  -2   4   6  466.05   40.20
   2   4  -6  445.96   41.40
  -2   4   6  494.25   43.80
  -1  -4   6   61.69    8.20
  -1  -4   6   62.89    8.30
  -1   4   6   62.19    7.40
   1   4  -6   57.99   14.80
  -1   4   6   82.09   11.40
   0  -4   6  575.74   48.50
   0  -4   6  586.14   48.40
   0   4   6  466.75   48.50
   0   4   6  532.95   47.80
   0   4   6  631.24   48.20
   0   4  -6  521.45   50.99
   1  -4   6  356.66   31.80
  -1  -4  -6  308.77   32.50
   1  -4   6  318.17   31.70
   1   4   6  382.36   31.50
   1   4   6  385.96   30.60
   1   4   6  331.87   31.00
   2  -4   6  100.09   14.00
  -2  -4  -6  115.89   16.30
  -2  -4  -6  110.39   11.40
   2  -4   6   97.19   14.20
  -2   4  -6  154.58   19.10
   2   4   6  152.08   16.00
  -3  -4  -6   20.40    7.50
   3  -4   6   23.70    8.30
  -3  -4  -6   18.70    4.70
  -3  -4  -6   29.00   10.80
  -3   4  -6   19.50   10.10
   3   4   6   35.50    8.00
  -4  -4  -6   90.59   19.70
   4  -4   6   96.89   16.10
   4  -4   6   81.39   10.90
  -4  -4  -6   78.09   11.90
   4   4   6   83.09   10.90
  -4   4  -6   62.59   14.00
   4   4   6   56.59   11.90
  -5  -4  -6  197.38   21.30
  -5  -4  -6  186.28   27.20
   5  -4   6  212.98   23.80
   5  -4   6  184.98   19.60
   5   4   6  134.29   19.70
  -5   4  -6  118.39   23.60
   5   4   6  166.68   18.20
   6  -4   6  198.48   23.20
  -6  -4  -6  164.78   22.70
  -6  -4  -6  170.18   36.50
   6  -4   6  209.48   26.30
  -6   4  -6  172.48   26.60
  -6   4  -6  139.99   25.20
   6   4   6  140.09   21.00
  -7  -4  -6   64.69   26.80
   7  -4   6   56.39   13.70
   7  -4   6   65.59   17.80
  -7  -4  -6   51.39   15.40
  -7   4  -6   45.30   13.40
  -7   4  -6   44.80   19.20
  -7   4  -6   82.39   24.60
  -8   5   6  -32.90   23.00
   7  -5  -6   84.29   22.60
  -7  -5   6   64.99   13.50
   7  -5  -6   84.89   14.90
   7   5  -6   62.89   25.60
  -7   5   6   34.60   22.90
   6  -5  -6  260.47   36.00
  -6  -5   6  264.17   28.50
   6  -5  -6  275.17   30.60
  -6   5   6  276.37   37.90
   6   5  -6  375.96   41.20
   5  -5  -6  298.07   36.20
   5  -5  -6  328.37   32.50
   4  -5  -6   75.19   13.00
   4  -5  -6   70.39   15.60
  -4  -5   6   66.59   10.10
  -4   5   6   75.49   17.10
   4   5  -6   44.70   19.40
   4   5  -6   71.89    8.50
   3  -5  -6  203.38   26.40
   3  -5  -6  200.18   23.00
  -3  -5   6  211.38   20.20
  -3   5   6  238.88   27.90
   3   5  -6  227.78   30.60
   3   5  -6  187.68   19.00
  -3   5   6  197.38   17.50
  -2  -5   6  774.52   70.09
   2  -5  -6  735.53   71.49
   2  -5  -6  814.42   69.39
  -2  -5   6  803.32   69.89
   2   5  -6  837.32   76.79
  -2   5   6  833.82   69.09
  -2   5   6  886.81   73.39
  -1  -5   6 1461.75  117.49
   1  -5  -6 1322.97  118.49
   1  -5  -6 1221.88  117.19
   1   5  -6 1372.36  121.09
  -1   5   6 1391.96  118.79
  -1   5   6 1444.16  116.79
   0  -5   6  716.93   57.49
   0  -5  -6  595.34   58.09
   0  -5   6  657.53   56.89
   0   5   6  656.33   56.59
   0   5  -6  643.04   60.59
   1  -5   6  114.29   14.20
  -1  -5  -6  120.09   12.90
  -1  -5  -6   89.19   15.30
   1  -5   6  102.99   12.50
  -1  -5  -6  125.19   12.10
   1   5   6  118.09   13.10
  -1   5  -6  103.59   18.20
   1   5   6  106.99   12.20
   1   5   6   96.59   12.80
  -2  -5  -6   92.19   15.90
  -2  -5  -6  101.89   13.90
   2  -5   6   95.59   12.70
   2  -5   6  122.69   15.20
  -2  -5  -6  109.09   11.80
   2   5   6   90.99   11.20
  -2   5  -6  102.29   16.00
   2   5   6   98.59   14.10
   3  -5   6  524.05   42.80
  -3  -5  -6  457.55   42.00
  -3  -5  -6  462.05   43.20
   3  -5   6  444.36   47.20
  -3   5  -6  387.46   44.10
   3   5   6  410.06   41.80
   3   5   6  471.35   40.10
   4  -5   6  438.66   36.90
  -4  -5  -6  350.96   35.60
  -4  -5  -6  381.16   37.30
   4  -5   6  378.56   33.50
   4   5   6  299.57   34.50
  -4   5  -6  299.47   37.30
  -5  -5  -6   67.39   13.40
   5  -5   6   87.19   15.70
   5  -5   6   79.79   13.30
  -5  -5  -6   74.19   17.10
   5   5   6   63.79   14.00
  -5   5  -6   55.49   17.10
   5   5   6   82.09   12.80
   6  -5   6    8.70   15.30
  -6  -5  -6   -9.10   20.30
   6  -5   6    5.00   11.80
  -6   5  -6    3.00   16.20
  -7  -6   6   53.69   13.90
   7  -6  -6   35.00   26.90
   7  -6  -6   41.00   15.30
   7   6  -6   62.49   33.50
   6  -6  -6    5.20   19.10
  -6  -6   6   15.30   10.20
   6  -6  -6    4.20   12.60
  -6   6   6   15.10   19.90
   6   6  -6    0.50   23.50
   5  -6  -6   33.10   18.20
  -5  -6   6   60.99   11.00
   5  -6  -6   70.19   14.30
   5   6  -6   63.49   24.20
  -5   6   6   61.09   19.60
   4  -6  -6  383.56   38.70
  -4  -6   6  426.66   35.00
  -4  -6   6  361.86   35.90
   4  -6  -6  354.16   40.70
  -4   6   6  371.76   44.70
   4   6  -6  410.86   47.20
   3  -6  -6  601.74   61.69
  -3  -6   6  680.53   59.99
  -3  -6   6  744.83   59.39
  -3   6   6  669.43   63.99
   3   6  -6  712.63   68.09
   2  -6  -6  805.42   63.89
  -2  -6   6  779.22   64.99
   2  -6  -6  742.73   66.99
  -2  -6   6  807.42   65.19
   2  -6  -6  709.73   63.59
  -2   6   6  710.43   68.09
   2   6  -6  634.54   70.59
  -1  -6   6  239.78   21.10
   1  -6  -6  185.48   23.30
   1  -6  -6  216.58   19.10
   1  -6  -6  197.38   18.60
  -1  -6   6  227.38   20.10
  -1   6   6  195.28   19.20
   1   6  -6  190.68   28.50
  -1   6   6  179.28   24.80
   0  -6   6  132.89   16.00
   0  -6   6  133.89   14.10
   0  -6  -6  118.29   12.70
   0  -6  -6  128.49   18.10
   0   6  -6  117.69   22.00
   0   6   6  130.59   12.90
   0   6   6  141.89   18.10
   1  -6   6  435.66   35.70
  -1  -6  -6  383.96   34.00
   1  -6   6  357.96   34.90
  -1  -6  -6  370.36   36.30
   1   6   6  384.66   34.20
   1   6   6  331.47   35.20
  -1   6  -6  366.26   39.00
   2  -6   6  343.77   28.40
  -2  -6  -6  343.47   28.00
  -2  -6  -6  302.27   29.90
  -2   6  -6  257.17   32.20
   2   6   6  235.98   27.10
   2   6   6  261.17   27.80
  -3  -6  -6   72.89   13.90
  -3  -6  -6   64.89   10.80
   3  -6   6   76.19   13.40
   3  -6   6   59.79   11.20
   3   6   6   33.50   10.60
  -3   6  -6   47.70   15.30
   3   6   6   69.39   10.80
   4  -6   6  159.58   23.90
  -4  -6  -6  116.49   19.60
  -4  -6  -6  144.79   19.20
   4  -6   6  130.49   18.30
  -4   6  -6  118.19   21.90
   4   6   6  159.68   17.10
   5  -6   6  231.08   25.50
  -5  -6  -6  235.58   30.20
   5  -6   6  277.07   31.20
  -5  -6  -6  227.58   27.00
  -5   6  -6  176.28   32.30
  -6  -6  -6  124.69   21.70
  -6  -6  -6  122.99   21.50
   6  -6   6  176.58   28.00
  -6   6  -6   97.39   24.10
  -6  -7   6  102.59   16.00
   6  -7  -6  134.79   23.10
   6  -7  -6   96.09   24.70
  -6   7   6   92.19   26.00
   6   7  -6   85.49   30.70
  -5  -7   6  156.58   19.80
   5  -7  -6  162.98   26.10
  -5   7   6  143.79   30.40
   5   7  -6  136.19   30.80
   4  -7  -6   49.20   14.70
  -4  -7   6   45.10    7.30
  -4  -7   6   25.80   10.00
  -4   7   6   57.09   18.90
   4   7  -6    5.20   27.60
  -3  -7   6   19.30    7.90
  -3  -7   6   13.70    8.00
   3  -7  -6    3.50   12.10
   3   7  -6   -3.90   19.10
  -3   7   6   -2.60   15.20
   2  -7  -6  292.77   26.50
  -2  -7   6  324.87   29.20
  -2  -7   6  343.27   29.50
   2  -7  -6  311.97   33.00
  -2   7   6  283.57   34.50
   2   7  -6  279.07   38.60
  -1  -7   6  449.86   40.00
  -1  -7   6  496.95   41.40
   1  -7  -6  470.05   43.30
   1   7  -6  401.96   47.30
  -1   7   6  392.56   43.70
   0  -7  -6  152.28   17.10
   0  -7   6  180.98   18.40
   0  -7   6  197.18   21.10
   0  -7  -6  168.38   22.70
   0   7  -6  214.38   28.00
   1  -7   6   52.79   11.40
  -1  -7  -6   46.60   12.20
   1  -7   6   31.30    9.70
  -1  -7  -6   43.10    7.60
   1   7   6   56.49   12.40
  -1   7  -6   55.69   15.80
   2  -7   6  222.78   23.90
  -2  -7  -6  176.58   23.80
  -2  -7  -6  176.48   20.80
   2  -7   6  199.18   20.90
  -2   7  -6  177.28   29.40
   2   7   6  168.78   22.10
  -3  -7  -6  353.16   33.70
   3  -7   6  390.16   33.90
   3  -7   6  397.16   37.20
  -3  -7  -6  317.87   36.40
  -3   7  -6  321.47   43.10
   3   7   6  330.57   33.70
  -4  -7  -6  220.98   30.60
   4  -7   6  306.27   26.90
  -4  -7  -6  243.68   27.70
  -4   7  -6  241.78   34.90
   5  -7   6   82.39   22.10
  -5  -7  -6   57.49   14.80
  -5  -7  -6   54.59   17.90
  -5   7  -6   67.89   21.40
   6  -8  -6   20.30   18.30
   6   8  -6    7.80   36.90
  -6   8   6   33.80   31.60
   5  -8  -6   82.89   19.10
  -5  -8   6   48.20   13.20
  -5   8   6   70.59   25.30
   5   8  -6   57.09   29.70
   4  -8  -6  337.77   38.30
  -4  -8   6  332.67   33.90
   4   8  -6  333.47   48.20
  -4   8   6  304.57   42.80
  -3  -8   6  337.17   33.70
   3  -8  -6  336.27   39.00
  -3  -8   6  401.26   34.30
  -3   8   6  317.07   42.00
   3   8  -6  328.17   46.60
  -2  -8   6   78.09   12.40
   2  -8  -6   84.29   17.50
  -2  -8   6   96.29   15.50
  -2   8   6  127.49   23.90
   2   8  -6  118.69   28.20
   1  -8  -6   70.19   15.70
  -1  -8   6   97.79   16.10
  -1  -8   6   81.29   10.90
  -1   8   6   41.80   16.50
   1   8  -6   81.29   21.90
   0  -8  -6  248.58   22.40
   0  -8   6  312.37   29.20
   0  -8  -6  250.97   29.20
   0  -8   6  248.58   24.70
   0   8   6  181.78   30.50
   0   8  -6  159.08   33.10
  -1  -8  -6  221.98   23.70
  -1  -8  -6  203.68   26.70
   1  -8   6  235.48   25.70
   1  -8   6  215.08   21.70
   1   8   6  194.18   27.60
  -1   8  -6  168.08   31.10
  -2  -8  -6   59.99   10.70
   2  -8   6   79.69   15.20
  -2  -8  -6   77.19   15.90
   2  -8   6   86.99   12.90
  -2   8  -6   77.89   20.80
   2   8   6   75.89   15.70
  -3  -8  -6   41.30   10.70
   3  -8   6   57.49   14.90
  -3  -8  -6   27.90   14.30
   3  -8   6   55.99   11.40
   3   8   6   31.70   13.10
  -3   8  -6   30.10   19.10
   4  -8   6   58.09   23.70
  -4  -8  -6   66.09   13.10
  -4  -8  -6   44.70   16.10
  -4  -9   6   51.89   12.80
   4  -9  -6   63.39   22.50
  -4   9   6   18.30   24.70
   3  -9  -6   48.70   18.10
  -3  -9   6   31.50   10.90
  -3  -9   6   39.10   10.60
  -3   9   6   42.80   22.20
   3   9  -6   29.50   25.50
   2  -9  -6  173.58   28.50
  -2  -9   6  173.78   20.20
  -2  -9   6  206.88   22.70
   2   9  -6  144.99   32.90
  -2   9   6  148.49   27.40
   1  -9  -6  176.18   29.10
  -1  -9   6  233.08   25.20
  -1  -9   6  206.08   21.40
  -1   9   6  186.68   30.30
   1   9  -6  172.48   31.00
   0  -9   6  119.09   20.60
   0  -9   6  124.19   17.00
   0  -9  -6  114.39   19.50
   0   9   6   94.79   25.00
   0   9  -6   76.99   23.50
  -1  -9  -6   41.60    9.00
   1  -9   6   56.59   14.30
   1  -9   6   46.90   11.80
  -1  -9  -6   50.19   16.10
   1   9   6   45.90   17.40
  -1   9  -6   31.20   20.90
  -2  -9  -6   50.99   10.70
  -2  -9  -6   66.89   17.40
   2  -9   6   95.29   16.80
  -2   9  -6   87.09   27.30
   2   9   6   47.80   15.80
  -3  -9  -6   96.69   16.60
   3  -9   6  135.19   20.70
  -3  -9  -6  116.69   23.50
  -3   9  -6   88.69   25.70
   3 -10  -6   94.79   21.60
  -3 -10   6   63.19   14.10
  -2 -10   6   59.19   12.10
   2 -10  -6   67.29   20.20
  -2 -10   6   60.39   14.30
   2  10  -6   58.49   26.00
  -2  10   6   82.09   28.60
  -1 -10   6  -12.70   10.50
  -1 -10   6   21.40   13.10
   1 -10  -6    3.80   20.10
   1  10  -6    5.20   23.60
  -1  10   6   21.10   19.90
   0 -10   6   92.59   16.90
   0 -10   6   61.29   13.50
   0  10  -6   78.29   26.20
   0  10   6   50.09   24.20
  -1 -10  -6  141.09   19.90
   1  10   6  180.88   31.80
  -1  10  -6  162.08   30.60
   8   0  -7   13.30   24.50
  -8   0   7   67.69   13.20
  -7   0   7  319.07   30.90
   7   0  -7  341.47   38.60
  -6   0   7  754.42   59.69
  -6   0   7  655.33   60.39
   6   0  -7  746.03   65.09
   6   0  -7  622.24   59.59
   5   0  -7  526.75   45.40
   5   0  -7  391.06   40.00
  -5   0   7  455.45   41.00
  -5   0   7  495.75   40.10
  -4   0   7    4.30    4.30
   4   0  -7    4.10    4.20
  -4   0   7    7.50    3.70
   4   0  -7    5.10   10.30
   3   0  -7  660.03   58.39
  -3   0   7  690.73   58.49
  -3   0   7  705.53   58.49
   3   0  -7  646.24   60.49
  -2   0   7 1419.76  134.29
   2   0  -7 1789.52  134.89
  -2   0   7 1677.73  134.19
   2   0  -7 1407.46  135.29
  -1   0   7  953.70   75.89
   1   0  -7  853.31   76.79
   1   0  -7  838.62   76.49
   0   0  -7  129.49   14.10
   0   0   7  132.79   14.10
   0   0   7  145.89   14.00
   1   0   7  263.67   23.50
  -1   0  -7  224.08   22.50
   1   0   7  247.18   22.70
  -1   0  -7  291.07   25.90
  -2   0  -7  302.17   28.40
  -2   0  -7  337.67   28.50
   3   0   7  380.96   35.00
  -3   0  -7  404.76   34.80
  -3   0  -7  364.56   34.10
  -4   0  -7  166.78   16.20
   4   0   7  139.49   19.10
  -4   0  -7  124.09   19.70
   5   0   7   -0.40    9.40
  -5   0  -7   -4.50    7.60
  -5   0  -7   -9.10   11.60
   6   0   7   56.19   15.80
  -6   0  -7   52.99   12.50
  -6   0  -7   46.90   16.50
  -6   0  -7   51.39   12.30
  -7   0  -7   84.19   15.70
  -7   0  -7   98.99   21.90
   7   0   7   54.69   16.80
  -7   0  -7   69.99   17.80
   8  -1  -7  200.98   32.20
  -8  -1   7  189.98   23.10
  -8   1   7  207.58   21.90
   8   1  -7  256.47   50.89
   7  -1  -7   71.39   19.90
  -7  -1   7  108.59   14.70
   7  -1  -7   90.69   12.20
   7   1  -7  111.69   21.60
  -7   1   7  105.29   13.00
   6  -1  -7    6.50    5.10
  -6  -1   7    1.50    6.80
   6  -1  -7    1.10   14.10
   6   1  -7    3.90   15.10
  -6   1   7   11.00    5.90
  -5  -1   7  412.26   37.20
   5  -1  -7  479.65   41.90
   5  -1  -7  360.86   36.80
  -5   1   7  425.06   36.70
   5   1  -7  390.66   35.70
   5   1  -7  491.05   43.90
  -4  -1   7  606.04   51.89
   4  -1  -7  574.74   52.29
   4  -1  -7  693.63   55.29
  -4  -1   7  597.64   52.09
  -4   1   7  588.74   51.69
   4   1  -7  617.34   55.29
   4   1  -7  533.45   51.29
  -3  -1   7  607.74   55.49
   3  -1  -7  620.54   55.89
   3  -1  -7  682.43   57.59
  -3  -1   7  648.04   55.99
  -3   1   7  657.43   55.39
   3   1  -7  704.53   55.59
   3   1  -7  562.64   57.69
  -2  -1   7  476.15   38.00
  -2  -1   7  393.16   39.40
   2  -1  -7  498.85   40.00
   2  -1  -7  460.75   38.80
  -2   1   7  411.56   37.90
   2   1  -7  400.86   38.60
   2   1  -7  394.56   39.90
   1  -1  -7  627.44   57.29
  -1  -1   7  640.44   56.49
   1   1  -7  677.63   57.99
  -1   1   7  719.53   56.79
  -1   1   7  608.84   56.19
   0  -1   7 2535.35  200.78
   0  -1  -7 2128.09  200.88
   0  -1   7 2344.67  199.98
   0   1   7 2494.35  199.98
   0   1  -7 2219.78  200.28
   0   1   7 2303.47  199.48
   0   1  -7 2394.66  200.28
  -1  -1  -7 2227.68  172.78
   1  -1   7 2124.89  171.28
   1  -1   7 2138.99  171.08
   1   1   7 1951.90  170.78
  -1   1  -7 1783.82  170.88
  -1   1  -7 1794.42  170.78
  -2  -1  -7  783.52   70.29
   2  -1   7  836.22   72.39
  -2   1  -7  845.72   71.69
  -2   1  -7  820.22   72.79
   2   1   7  849.81   71.79
   3  -1   7    6.30    6.50
  -3  -1  -7    8.80   12.70
  -3  -1  -7   -4.50    5.10
  -3  -1  -7    6.90    3.50
  -3   1  -7    5.10    5.70
   3   1   7   -6.70    6.30
  -3   1  -7    7.00    7.70
  -4  -1  -7  212.58   26.10
  -4  -1  -7  192.48   17.50
   4  -1   7  169.08   19.20
  -4   1  -7  150.38   20.10
   4   1   7  153.08   19.40
  -4   1  -7  158.08   19.30
   5  -1   7  258.27   24.00
  -5   1  -7  191.38   24.90
  -5   1  -7  234.48   24.60
   5   1   7  223.88   26.00
   5   1   7  193.78   21.20
  -6  -1  -7   62.89   13.30
   6  -1   7   76.99   14.40
  -6  -1  -7   94.09   22.00
   6   1   7   63.59   14.60
  -6   1  -7   78.69   15.00
  -6   1  -7   51.99   15.60
  -7  -1  -7    7.00   14.80
  -7  -1  -7    3.10   14.60
  -7  -1  -7    0.30   22.70
   7  -1   7   20.80   14.20
   7   1   7  -22.50   15.80
  -7   1  -7   26.90   12.70
  -7   1  -7   13.90   15.20
  -7   1  -7   29.70   16.60
  -8  -2   7   24.10   10.90
   8  -2  -7    0.90   19.20
  -8   2   7    6.10    7.60
   8   2  -7   31.70   21.30
   7  -2  -7  208.48   21.50
   7  -2  -7  181.68   30.30
  -7  -2   7  221.88   24.00
   7   2  -7  250.27   36.20
  -7   2   7  186.88   20.10
   6  -2  -7  266.37   31.20
  -6  -2   7  263.47   26.00
   6  -2  -7  247.28   25.20
  -6   2   7  248.48   24.30
  -5  -2   7  219.28   22.10
   5  -2  -7  203.78   27.20
   5  -2  -7  198.58   22.90
   5   2  -7  282.67   31.70
  -5   2   7  256.17   21.20
   4  -2  -7   65.39   11.40
  -4  -2   7   65.39    9.60
   4  -2  -7   78.29   13.30
   4   2  -7   70.59   14.30
   4   2  -7   62.69    6.90
  -4   2   7   64.19    8.30
   3  -2  -7   65.39   10.40
   3  -2  -7   78.49   13.10
   3   2  -7   73.59    8.30
   3   2  -7   86.69   15.00
  -3   2   7   78.89    8.20
   3   2  -7   61.99   15.20
   2  -2  -7 1549.54  137.09
  -2  -2   7 1563.74  136.59
   2  -2  -7 1667.73  137.59
   2  -2  -7 1599.74  136.89
   2   2  -7 1655.03  138.99
  -2   2   7 1569.14  138.19
   1  -2  -7 2369.66  189.98
  -1  -2   7 2312.47  189.78
   1  -2  -7 2165.88  190.28
  -1   2   7 1997.00  189.68
   1   2  -7 2183.68  189.78
  -1   2   7 2569.34  189.58
   1   2  -7 1978.10  191.08
   0  -2  -7  704.83   56.39
   0  -2   7  694.33   57.19
   0  -2  -7  686.73   58.39
   0  -2   7  702.83   57.09
   0   2   7  577.64   56.89
   0   2  -7  575.74   56.99
   1  -2   7    4.90    5.10
   1  -2   7    0.10    5.50
  -1  -2  -7    0.30    8.00
  -1   2  -7    4.60    5.40
  -1   2  -7   13.90    5.80
   1   2   7   12.70    5.30
   2  -2   7  709.93   64.59
   2  -2   7  807.52   63.99
  -2   2  -7  697.33   63.79
   2   2   7  719.93   63.79
  -2   2  -7  718.93   64.49
   3  -2   7  779.42   67.09
  -3  -2  -7  642.94   70.19
  -3  -2  -7  730.33   65.29
   3  -2   7  778.52   66.89
  -3   2  -7  831.72   67.09
   3   2   7  782.52   66.99
  -3   2  -7  791.42   67.69
   4  -2   7  214.38   22.60
  -4  -2  -7  207.78   30.00
  -4  -2  -7  213.08   19.10
  -4  -2  -7  158.18   20.00
   4  -2   7  192.38   21.30
   4   2   7  185.78   22.10
   4   2   7  223.68   22.10
  -4   2  -7  224.98   22.50
   5  -2   7   13.60   10.60
  -5  -2  -7    5.50    6.60
   5  -2   7   -6.10    9.30
  -5  -2  -7   -5.60   19.00
  -5  -2  -7   16.80   11.60
   5   2   7   -5.00    6.20
  -5   2  -7   -1.80   11.20
   5   2   7    7.40   10.30
  -5   2  -7    4.60    9.00
  -6  -2  -7   57.09   11.70
   6  -2   7   51.49   16.50
   6  -2   7   61.29   13.70
  -6  -2  -7   68.29   31.70
  -6  -2  -7   73.29   13.50
  -6   2  -7   71.09   15.90
  -6   2  -7   72.89   16.00
   6   2   7   42.70   14.30
   6   2   7   46.80   11.00
  -7  -2  -7   83.69   31.70
  -7  -2  -7   63.79   16.20
   7  -2   7   57.39   16.10
  -7   2  -7   76.39   14.90
  -7   2  -7   71.69   16.80
  -7   2  -7   78.09   22.80
   7   2   7   33.30   20.00
   8  -3  -7  137.39   19.90
  -8  -3   7  142.79   19.90
   8   3  -7  169.68   29.60
  -8   3   7   96.39   14.20
   7  -3  -7   56.39   11.90
  -7  -3   7   54.59   11.30
   7  -3  -7   30.20   18.80
   7   3  -7   62.99   22.20
  -7   3   7   37.50    8.20
  -6  -3   7   21.40    8.40
   6  -3  -7   27.00   15.80
   6  -3  -7   19.20    8.40
   6   3  -7    7.80   18.20
  -6   3   7   29.00    5.90
  -5  -3   7  351.56   31.20
   5  -3  -7  315.37   31.80
   5  -3  -7  353.86   36.20
  -5   3   7  324.47   29.70
   5   3  -7  349.67   37.90
   4  -3  -7  805.82   67.39
  -4  -3   7  723.53   64.29
   4  -3  -7  733.03   63.49
   4   3  -7  696.83   68.49
   3  -3  -7  899.21   72.99
  -3  -3   7  854.01   72.09
   3  -3  -7  819.82   71.79
   3  -3  -7  914.91   74.59
   3   3  -7  867.71   76.09
   3   3  -7  734.13   71.79
  -3   3   7  819.32   71.69
   3   3  -7  792.02   71.49
   2  -3  -7   65.39    9.00
  -2  -3   7   80.89   10.70
   2  -3  -7   87.79   12.00
   2  -3  -7   74.39   12.10
   2   3  -7  108.29   17.10
   2   3  -7   99.59    9.90
  -2   3   7   97.79   10.00
  -1  -3   7  227.38   21.10
  -1  -3   7  218.38   21.10
   1  -3  -7  208.98   21.40
   1  -3  -7  202.78   22.30
  -1   3   7  247.38   21.10
   1   3  -7  263.07   21.20
   1   3  -7  214.38   24.90
   0  -3   7 1290.67  111.49
   0  -3   7 1357.46  111.59
   0  -3  -7 1168.28  112.19
   0   3   7 1391.06  111.29
   0   3   7 1233.18  110.99
   0   3  -7 1385.46  111.29
   0   3  -7 1265.97  113.09
   1  -3   7 1081.39   95.49
  -1  -3  -7  977.10   96.59
   1  -3   7 1007.10   95.69
  -1   3  -7 1217.38   96.99
  -1   3  -7 1087.69   95.89
   1   3   7 1285.47   95.49
   2  -3   7  468.55   39.40
  -2  -3  -7  393.46   41.90
  -2   3  -7  384.26   40.30
   2   3   7  456.65   39.20
  -2   3  -7  462.55   39.30
  -3  -3  -7   -5.70   14.20
   3  -3   7   35.80    8.50
   3  -3   7   20.80    7.70
   3   3   7   16.50    7.70
  -3   3  -7   27.60   10.30
  -3   3  -7   26.40    8.80
   4  -3   7  225.58   23.10
   4  -3   7  242.28   24.90
   4   3   7  219.28   20.30
  -4   3  -7  232.98   24.60
   4   3   7  209.98   23.70
  -4   3  -7  197.28   26.60
   5  -3   7  303.57   30.60
  -5  -3  -7  269.07   29.10
   5  -3   7  279.87   29.90
   5   3   7  255.57   29.30
  -5   3  -7  321.37   30.60
  -5   3  -7  244.68   30.40
  -6  -3  -7   81.09   16.30
   6  -3   7  106.19   18.20
   6  -3   7  104.79   20.10
  -6   3  -7  123.69   19.30
  -6   3  -7  104.19   18.20
   6   3   7   99.59   17.30
  -7  -3  -7   -7.50   13.80
  -7  -3  -7   16.80   29.80
   7  -3   7   26.80   19.20
   7  -3   7   39.90   14.40
  -7   3  -7    3.70   11.80
  -7   3  -7   -1.60   17.70
   7   3   7   13.90   15.30
  -7   3  -7   14.30   15.70
   8  -4  -7    6.00   26.90
  -8  -4   7    5.20   12.00
   8  -4  -7    6.40   14.20
   8   4  -7    0.70   29.40
   7  -4  -7  188.38   22.10
   7  -4  -7  150.58   26.80
  -7  -4   7  133.29   20.80
   7   4  -7  230.18   35.60
  -6  -4   7  413.16   39.80
   6  -4  -7  445.76   45.90
   6  -4  -7  446.26   42.20
  -6   4   7  417.56   37.50
   5  -4  -7  230.88   32.60
  -5  -4   7  243.78   23.60
   5  -4  -7  232.78   25.40
   5   4  -7  276.67   34.30
  -5   4   7  217.08   21.30
   4  -4  -7    2.90    8.50
   4  -4  -7   10.90    3.30
  -4  -4   7   11.90    6.70
   4  -4  -7    4.20   12.00
   4   4  -7   13.50    5.60
  -4   4   7    2.50    4.60
   4   4  -7   13.80    3.40
   4   4  -7    0.90   15.50
   3  -4  -7  827.82   70.99
   3  -4  -7  853.91   68.89
  -3  -4   7  851.81   69.09
  -3  -4   7  773.72   69.79
   3  -4  -7  782.02   72.19
   3   4  -7  832.02   75.19
   3   4  -7  711.33   69.49
   2  -4  -7 1021.90   95.99
  -2  -4   7 1062.09   95.09
  -2  -4   7 1121.49   94.79
   2  -4  -7 1018.50   96.49
  -2   4   7 1106.39   94.69
   2   4  -7 1197.58   99.59
  -2   4   7 1241.88   97.49
   1  -4  -7  442.46   44.10
  -1  -4   7  493.85   42.80
   1   4  -7  506.05   47.20
  -1   4   7  512.55   42.50
   0  -4   7   61.09    9.00
   0  -4  -7   60.19   10.70
   0   4   7   76.29   10.10
   0   4   7   91.39    9.10
   0   4  -7   87.99   15.60
   1  -4   7   54.49    8.40
   1  -4   7   60.69   10.00
  -1  -4  -7   52.59   10.50
  -1   4  -7   44.60   11.20
   1   4   7   57.49    6.50
   1   4   7   40.50    6.30
  -2  -4  -7  264.27   28.20
   2  -4   7  307.37   25.90
   2  -4   7  267.47   25.20
   2   4   7  228.68   24.80
  -2   4  -7  222.08   28.80
   3  -4   7  309.17   28.40
   3  -4   7  297.37   29.60
  -3  -4  -7  287.07   32.70
  -3   4  -7  269.17   32.30
   3   4   7  310.27   25.70
   3   4   7  281.67   28.60
   4  -4   7  246.38   27.40
  -4  -4  -7  191.38   29.00
  -4  -4  -7  217.38   23.30
   4  -4   7  191.88   23.50
   4   4   7  194.08   23.30
  -4   4  -7  199.48   27.80
   4   4   7  216.58   19.40
   5  -4   7   24.40   10.00
   5  -4   7   28.80   13.00
  -5  -4  -7   22.10   11.10
  -5  -4  -7   40.20   22.50
  -5   4  -7   18.10   13.00
   5   4   7   23.20   12.10
  -5   4  -7   17.50   14.00
  -6  -4  -7  -17.20   25.20
  -6  -4  -7   12.00   12.60
   6  -4   7   23.20   14.60
   6  -4   7    4.40   11.40
  -6   4  -7   34.50   17.20
   6   4   7   -0.10   13.50
  -6   4  -7   17.00   15.90
   7  -5  -7   58.79   16.10
   7  -5  -7   50.39   22.40
  -7  -5   7   63.49   13.10
   7   5  -7   47.90   27.10
  -7   5   7   31.10   26.80
   6  -5  -7   10.10   18.60
   6  -5  -7   23.00   13.70
  -6  -5   7   14.80    9.70
  -6   5   7   20.60   19.70
   6   5  -7   15.00   23.00
   5  -5  -7  361.36   37.60
   5  -5  -7  347.47   41.20
  -5  -5   7  363.76   35.20
   5   5  -7  440.66   50.89
  -5   5   7  415.26   49.00
  -4  -5   7  676.23   56.79
   4  -5  -7  625.04   59.89
   4  -5  -7  582.74   56.19
   4  -5  -7  612.64   61.69
  -4  -5   7  629.64   58.09
   4   5  -7  797.32   67.19
   4   5  -7  680.23   56.99
  -4   5   7  761.42   63.69
  -4   5   7  650.73   56.39
   3  -5  -7  696.13   71.89
  -3  -5   7  867.01   68.29
   3  -5  -7  782.12   67.49
  -3  -5   7  750.52   68.79
   3  -5  -7  729.13   70.29
   3   5  -7  893.11   75.99
  -3   5   7  774.82   67.49
  -3   5   7  853.31   73.39
   2  -5  -7  288.47   32.70
  -2  -5   7  362.76   30.60
  -2  -5   7  349.17   30.80
   2  -5  -7  353.56   30.00
   2   5  -7  314.57   37.90
  -2   5   7  335.37   29.50
  -2   5   7  337.27   34.80
   1  -5  -7  131.29   18.90
  -1  -5   7  161.78   16.50
  -1  -5   7  157.38   17.80
  -1   5   7  175.98   19.50
  -1   5   7  162.58   15.30
   1   5  -7  190.78   24.40
   0  -5  -7  251.27   28.70
   0  -5   7  292.57   27.60
   0  -5   7  303.17   27.50
   0   5  -7  299.67   32.20
   0   5   7  261.87   27.50
   0   5   7  281.67   26.20
   0   5   7  339.97   26.70
  -1  -5  -7  283.67   28.10
   1  -5   7  282.77   25.90
   1   5   7  252.57   25.40
   1   5   7  281.87   25.40
  -1   5  -7  239.28   29.80
   1   5   7  290.57   24.80
  -2  -5  -7  108.99   13.50
  -2  -5  -7  117.99   10.80
   2  -5   7  104.59   15.80
  -2  -5  -7  104.19   15.70
   2  -5   7  116.69   15.50
   2   5   7   86.79   10.40
   2   5   7   99.19   13.30
  -2   5  -7   93.19   16.00
   2   5   7   94.39   10.70
  -3  -5  -7   29.10    9.30
  -3  -5  -7   39.20   19.40
   3  -5   7   45.10    9.30
   3  -5   7   22.20   10.60
  -3  -5  -7   28.70    6.20
  -3   5  -7   27.20   12.50
   3   5   7   41.50    7.20
   3   5   7   22.40    9.50
  -4  -5  -7  168.88   25.80
  -4  -5  -7  148.69   19.30
   4  -5   7  139.09   17.80
   4  -5   7  168.88   22.30
   4   5   7  119.59   17.40
  -4   5  -7  108.69   21.70
  -5  -5  -7  152.48   22.40
  -5  -5  -7  191.08   29.00
   5  -5   7  171.98   20.40
   5  -5   7  212.68   26.40
  -5   5  -7  148.09   27.00
   5   5   7  124.69   20.60
  -6  -5  -7   77.69   15.80
   6  -5   7   41.30   13.10
  -6  -5  -7   52.99   27.10
  -6   5  -7   64.19   19.30
   7  -6  -7   39.80   24.90
  -7  -6   7   60.99   13.80
   7  -6  -7   71.59   18.90
  -7   6   7   86.39   27.10
  -6  -6   7  158.48   20.30
   6  -6  -7  172.98   24.80
   6  -6  -7  145.89   27.30
  -6   6   7  138.09   28.50
   6   6  -7  162.88   32.90
   5  -6  -7  117.99   23.90
  -5  -6   7  140.59   18.30
   5  -6  -7  150.38   23.20
  -5   6   7  145.49   25.60
   5   6  -7  152.88   33.80
  -4  -6   7   31.30    8.90
   4  -6  -7   43.20   29.20
   4  -6  -7   18.90   15.50
   4   6  -7    9.70   21.20
  -4   6   7   -2.80   15.90
  -3  -6   7   65.99    9.80
   3  -6  -7   71.29   13.50
   3  -6  -7   48.20    5.00
  -3   6   7   66.29   18.90
   3   6  -7   49.80   20.70
  -2  -6   7  479.25   41.80
   2  -6  -7  516.65   40.80
   2  -6  -7  462.25   44.10
  -2   6   7  465.25   46.70
  -2   6   7  437.86   40.10
   2   6  -7  418.06   48.80
  -1  -6   7  701.73   53.69
   1  -6  -7  567.04   54.59
  -1  -6   7  637.34   52.99
   1  -6  -7  583.74   51.79
   1   6  -7  571.54   58.29
  -1   6   7  585.34   51.79
  -1   6   7  535.75   54.59
   0  -6  -7  238.98   18.90
   0  -6  -7  185.28   22.70
   0  -6   7  200.98   19.60
   0   6   7  174.98   18.70
   0   6   7  170.98   21.30
   0   6  -7  166.18   26.70
   1  -6   7   31.20    9.20
  -1  -6  -7   16.20   10.60
   1  -6   7   26.00    9.40
  -1  -6  -7   29.10    6.90
  -1   6  -7   29.60   13.50
   1   6   7   50.89    7.60
  -2  -6  -7  353.56   37.90
   2  -6   7  406.76   36.70
  -2  -6  -7  360.36   35.80
   2  -6   7  460.85   37.60
   2   6   7  343.27   34.50
  -2   6  -7  345.87   40.10
   2   6   7  404.76   36.00
  -3  -6  -7  472.75   52.59
   3  -6   7  592.64   50.89
   3  -6   7  556.84   49.30
  -3  -6  -7  523.25   48.80
   3   6   7  476.45   48.70
   3   6   7  597.44   47.30
  -3   6  -7  490.25   54.49
   4  -6   7  213.98   24.60
   4  -6   7  240.58   27.80
  -4  -6  -7  200.88   24.40
  -4  -6  -7  212.18   33.00
  -4   6  -7  163.58   29.60
   4   6   7  188.78   24.20
  -5  -6  -7   28.20   18.40
   5  -6   7    6.20   10.20
  -5  -6  -7   21.50   15.50
   5  -6   7   17.10   15.80
  -5   6  -7   13.60   17.30
   6  -7  -7   46.90   22.40
   6  -7  -7   10.40   15.40
  -6   7   7  -24.90   22.30
   6   7  -7  -20.40   41.40
  -5  -7   7   91.69   14.20
   5  -7  -7  107.29   18.40
   5   7  -7   65.19   29.10
  -5   7   7   66.29   23.90
  -4  -7   7  235.28   27.40
   4  -7  -7  264.17   32.50
  -4  -7   7  300.97   25.90
   4   7  -7  274.97   43.30
  -4   7   7  254.17   36.30
   3  -7  -7  270.27   31.90
  -3  -7   7  283.27   27.30
  -3   7   7  279.07   37.50
   3   7  -7  261.87   39.80
  -2  -7   7  104.89   15.60
   2  -7  -7   83.09   15.40
  -2  -7   7   85.49   11.40
   2  -7  -7   74.39    8.30
   2   7  -7   84.09   21.70
   1  -7  -7  117.29   16.70
  -1  -7   7  119.49   16.00
   1  -7  -7  109.29   11.00
  -1  -7   7  106.69   14.10
  -1   7   7   77.99   18.20
   1   7  -7   93.59   21.30
   0  -7  -7  203.58   28.80
   0  -7   7  303.47   27.60
   0  -7   7  250.47   25.20
   0  -7  -7  275.67   24.20
   0   7   7  270.47   29.10
   0   7  -7  270.17   36.60
   0   7   7  239.78   24.40
   1  -7   7  269.57   26.20
  -1  -7  -7  192.88   22.70
  -1  -7  -7  210.58   27.20
   1  -7   7  197.88   22.90
   1   7   7  230.38   24.80
   1   7   7  260.97   23.30
  -1   7  -7  230.98   47.30
  -2  -7  -7   75.29   12.00
   2  -7   7  109.49   14.60
   2  -7   7  109.89   16.10
  -2  -7  -7   79.89   16.20
   2   7   7   72.89   12.90
   2   7   7   88.29   14.00
  -2   7  -7   75.19   19.00
  -3  -7  -7   25.80   15.50
   3  -7   7   49.10   10.50
  -3  -7  -7   47.10   11.00
   3  -7   7   55.59   14.60
  -3   7  -7   26.60   17.50
  -4  -7  -7  153.08   22.60
   4  -7   7  157.58   25.70
  -4  -7  -7   96.99   19.20
   4  -7   7  118.09   17.10
  -4   7  -7  113.99   23.50
  -5  -7  -7   80.39   17.80
   5  -7   7  111.59   21.20
  -5  -7  -7  117.99   25.90
   5  -8  -7   98.49   20.40
  -5  -8   7   71.49   14.20
  -5   8   7   29.70   29.70
   4  -8  -7   54.39   17.10
  -4  -8   7   16.00   10.70
  -4   8   7   18.00   25.70
   4   8  -7  -16.00   25.90
  -3  -8   7  191.68   21.50
   3  -8  -7  163.38   27.10
  -3  -8   7  148.29   19.90
  -3   8   7  147.49   29.40
   3   8  -7  121.79   34.70
   2  -8  -7  267.07   33.00
  -2  -8   7  310.27   29.70
  -2  -8   7  271.47   28.20
  -2   8   7  241.18   37.20
   2   8  -7  243.18   39.40
  -1  -8   7  141.69   16.80
   1  -8  -7  124.69   13.60
   1  -8  -7  143.49   24.00
  -1  -8   7  155.48   19.60
  -1   8   7  132.89   23.60
   1   8  -7  150.28   26.30
   0  -8   7   33.60   11.50
   0  -8  -7   31.00    7.30
   0  -8  -7   38.30   16.80
   0  -8   7   30.30   10.70
   0   8  -7   41.90   19.10
   0   8   7   50.29   15.90
  -1  -8  -7   27.50   17.00
   1  -8   7   40.70   11.00
   1  -8   7   36.40   12.60
  -1  -8  -7   37.50    9.00
   1   8   7   29.00   12.90
  -1   8  -7   57.39   19.60
   2  -8   7  124.89   17.10
  -2  -8  -7  111.99   16.00
   2  -8   7  162.58   22.80
  -2  -8  -7  107.29   19.70
  -2   8  -7  110.79   23.40
   3  -8   7  151.68   24.40
  -3  -8  -7  114.99   19.80
  -3  -8  -7   93.69   15.10
   3  -8   7   92.29   15.90
  -3   8  -7   83.49   27.00
  -4  -8  -7   49.99   17.90
   4  -8   7   50.59   17.70
  -4  -8  -7   43.30   15.90
  -4   8  -7   29.90   24.30
   4  -9  -7  185.98   30.60
  -4  -9   7  171.28   21.50
  -4   9   7  111.99   30.60
   4   9  -7  134.09   34.80
  -3  -9   7   99.89   14.90
  -3  -9   7  126.19   20.10
   3   9  -7  100.29   29.80
  -3   9   7   59.29   24.30
   2  -9  -7   24.50   16.80
  -2  -9   7   21.50   11.10
  -2  -9   7    7.80   11.50
   2   9  -7   11.50   22.90
  -2   9   7    5.60   21.80
   1  -9  -7   77.99   18.90
  -1  -9   7   84.79   14.80
  -1  -9   7   85.19   12.30
   1   9  -7   66.39   24.00
  -1   9   7   64.09   22.50
   0  -9  -7  164.78   23.40
   0  -9  -7  138.49   16.90
   0  -9   7  160.38   19.20
   0  -9   7  210.08   24.30
   0   9   7  133.19   24.80
   0   9  -7  163.88   28.70
   1  -9   7  203.18   25.30
  -1  -9  -7  149.69   23.20
   1  -9   7  141.69   18.90
  -1  -9  -7  147.59   18.10
   1   9   7  132.59   25.10
  -1   9  -7  148.19   28.20
  -2  -9  -7   54.39   11.20
   2  -9   7  100.69   15.00
  -2  -9  -7   64.99   18.60
  -3  -9  -7   -2.90   17.20
  -3  -9  -7   -6.50   10.00
   3  -9   7    5.30   16.00
  -3   9  -7  -10.10   21.10
  -2 -10   7   88.29   14.40
   2 -10  -7   63.49   23.30
  -2 -10   7  122.69   20.70
  -2  10   7   60.69   29.10
   2  10  -7  113.69   34.40
   1 -10  -7  122.29   23.70
  -1 -10   7  118.99   17.40
  -1 -10   7  171.18   27.50
   1  10  -7  126.99   30.00
  -1  10   7   97.19   27.50
   0 -10  -7   71.19   20.30
   0 -10   7   69.89   16.10
   0 -10   7   77.99   17.10
   0  10   7   58.89   23.20
   0  10  -7   89.69   26.50
   8   0  -8  111.19   25.50
  -8   0   8  127.29   17.20
  -7   0   8   43.50    9.40
   7   0  -8   16.20   23.20
  -6   0   8  115.09   12.40
   6   0  -8   79.29   10.80
  -6   0   8   91.49   12.60
   6   0  -8  118.79   20.40
   5   0  -8  536.65   50.69
  -5   0   8  562.94   44.20
   5   0  -8  427.16   43.20
  -5   0   8  484.75   43.90
   4   0  -8  484.15   40.70
  -4   0   8  403.46   41.20
   4   0  -8  508.25   44.70
  -3   0   8   10.70    4.60
  -3   0   8   10.20    5.90
   3   0  -8   -0.50    9.20
   3   0  -8   11.50    6.20
  -2   0   8  391.36   35.30
   2   0  -8  407.16   36.90
   1   0  -8 2235.28  184.38
  -1   0   8 2018.10  183.68
   1   0  -8 2207.58  184.98
   0   0   8 1187.28  101.29
   0   0  -8 1154.08  101.09
   0   0   8 1187.78  101.19
   1   0   8  545.05   45.40
  -1   0  -8  438.06   43.40
   1   0   8  532.55   43.80
  -2   0  -8  146.59   19.20
  -2   0  -8  152.98   14.90
   2   0   8  141.19   16.70
  -2   0  -8  160.38   15.00
   3   0   8    4.20    7.40
  -3   0  -8    0.80    4.60
  -3   0  -8   -3.30    5.60
  -3   0  -8   -3.80    9.90
   4   0   8  152.08   18.00
  -4   0  -8  113.29   20.50
  -4   0  -8  150.48   16.00
  -5   0  -8  105.69   18.40
   5   0   8  104.79   16.10
  -5   0  -8  122.79   15.60
  -6   0  -8   22.70   21.10
   6   0   8   28.90   16.50
  -6   0  -8   35.40   11.40
  -7   0  -8    9.80   20.70
   8  -1  -8   90.89   23.90
  -8  -1   8   83.99   13.40
  -8   1   8   69.29   13.30
   8   1  -8   94.79   24.70
  -7  -1   8  216.58   24.10
   7  -1  -8  223.18   32.80
   7  -1  -8  240.18   22.80
   7   1  -8  273.17   34.40
  -7   1   8  223.98   24.10
  -6  -1   8  231.58   22.80
   6  -1  -8  208.18   21.80
   6  -1  -8  269.77   31.00
  -6   1   8  234.68   22.80
   6   1  -8  223.58   31.30
  -5  -1   8   65.09   10.00
   5  -1  -8   92.99   16.80
  -5  -1   8  102.89   11.20
   5  -1  -8   94.89   10.80
   5   1  -8   50.69    8.30
   5   1  -8   79.79   17.00
  -5   1   8   87.89   11.00
   5   1  -8   68.49    7.80
   4  -1  -8  297.57   35.70
  -4  -1   8  375.96   30.80
   4  -1  -8  345.67   30.70
  -4  -1   8  330.17   30.20
  -4   1   8  352.76   29.80
   4   1  -8  330.37   34.90
   4   1  -8  318.47   29.70
   4   1  -8  306.67   29.80
   3  -1  -8 1136.49   94.49
   3  -1  -8 1022.70   96.09
  -3   1   8 1161.18   93.89
   3   1  -8 1050.79   96.69
   2  -1  -8 1905.01  176.88
  -2  -1   8 1989.50  176.38
  -2   1   8 2039.50  176.38
   2   1  -8 2353.56  178.58
  -1  -1   8 1481.35  118.59
   1  -1  -8 1328.27  119.39
   1   1  -8 1374.46  119.59
  -1   1   8 1347.77  118.49
   0  -1   8  250.67   22.90
   0  -1  -8  216.68   25.90
   0   1  -8  227.28   23.20
   0   1  -8  213.88   23.70
   0   1   8  264.17   21.80
   0   1   8  263.07   23.60
  -1   1  -8   77.09   10.40
  -2   1  -8  289.67   30.30
   2   1   8  356.46   30.00
  -2   1  -8  343.67   29.60
  -2   1  -8  289.77   30.00
  -3  -1  -8  289.97   24.00
   3  -1   8  330.77   26.90
  -3   1  -8  230.78   25.60
   3   1   8  233.48   26.20
  -4  -1  -8   -4.10   19.00
  -4  -1  -8    6.20    5.10
  -4  -1  -8    0.10    8.30
   4  -1   8    5.70   10.40
  -4   1  -8    6.40    8.80
  -4   1  -8   -1.00    9.60
   4   1   8  -10.60    8.50
  -5  -1  -8   96.59   21.30
   5  -1   8   58.19   12.50
  -5  -1  -8   49.60    8.80
  -5   1  -8   53.99   11.80
  -5   1  -8   31.40   13.60
   5   1   8   49.30   12.80
  -6  -1  -8   77.29   14.60
   6  -1   8   87.09   15.70
  -6  -1  -8   66.19   12.90
  -6  -1  -8   98.89   27.70
  -6   1  -8   47.40   16.50
   6   1   8   62.89   15.80
  -6   1  -8   82.59   15.20
  -7  -1  -8   79.79   26.60
  -7  -1  -8   75.99   16.00
   7  -1   8   83.79   18.10
  -7   1  -8   64.99   16.10
  -7   1  -8   48.90   16.40
  -7   1  -8   47.20   18.90
   7   1   8   75.69   18.20
  -8  -2   8   94.39   16.00
   8  -2  -8   81.89   27.70
   8   2  -8  121.49   31.40
  -8   2   8   72.19   11.30
   7  -2  -8    9.00   18.50
  -7  -2   8   15.30    9.40
   7   2  -8   -2.90   19.80
  -7   2   8   27.50    8.20
   6  -2  -8   40.20   17.00
   6  -2  -8   37.20    8.70
  -6  -2   8   39.20    8.70
  -6   2   8   24.50    7.50
   6   2  -8   28.30   17.90
   5  -2  -8  227.58   23.60
   5  -2  -8  265.47   29.20
  -5  -2   8  254.07   22.80
  -5   2   8  213.18   21.30
   5   2  -8  211.88   30.10
   4  -2  -8  560.24   51.79
  -4  -2   8  604.04   48.70
   4  -2  -8  562.44   49.40
  -4   2   8  533.95   48.00
   4   2  -8  568.04   47.70
   4   2  -8  536.95   52.89
   4   2  -8  499.95   48.30
   3  -2  -8  660.43   58.59
   3  -2  -8  666.33   59.89
  -3  -2   8  685.93   57.99
  -3   2   8  614.14   57.59
   3   2  -8  664.43   57.99
   3   2  -8  692.73   62.59
   3   2  -8  686.73   58.69
   2  -2  -8  107.39   14.50
   2  -2  -8   86.49   14.30
   2   2  -8  114.19   16.90
  -2   2   8  106.89   11.70
   2   2  -8  121.09   14.40
  -1  -2   8  561.74   49.90
   1  -2  -8  538.75   50.99
   1  -2  -8  536.05   49.90
  -1   2   8  591.94   49.30
   1   2  -8  592.84   52.29
  -1   2   8  570.44   49.90
   1   2  -8  598.44   50.59
   0  -2  -8 1818.92  151.58
   0  -2  -8 1745.13  148.19
   0  -2   8 1717.53  149.09
   0  -2   8 1671.73  148.89
   0   2   8 1793.02  149.09
   0   2  -8 1590.44  149.79
   0   2  -8 1860.71  149.09
   1  -2   8 1034.60   92.49
   1  -2   8 1023.10   93.49
  -1   2  -8 1200.38   92.79
   1   2   8 1070.69   93.29
  -1   2  -8 1027.30   93.09
  -2  -2  -8   26.50   16.90
   2  -2   8   39.90    9.00
   2  -2   8   53.59    9.10
  -2   2  -8   63.79    9.60
  -2   2  -8   52.89    9.70
   2   2   8   51.19    9.10
   3  -2   8  254.17   23.70
  -3  -2  -8  269.97   31.70
   3  -2   8  235.78   23.20
  -3   2  -8  194.78   23.30
  -3   2  -8  194.08   22.70
   3   2   8  228.78   23.20
   4  -2   8  370.46   35.80
  -4  -2  -8  358.66   32.30
   4  -2   8  400.56   35.30
  -4   2  -8  349.27   35.60
   4   2   8  366.16   35.60
  -4   2  -8  375.76   38.20
  -5  -2  -8  265.87   41.40
   5  -2   8  210.28   24.10
   5  -2   8  193.58   24.90
  -5   2  -8  208.68   25.50
   5   2   8  195.08   24.80
  -5   2  -8  197.28   25.70
  -6  -2  -8   29.70   13.60
  -6  -2  -8   43.50   25.30
   6  -2   8   48.80   14.10
  -6   2  -8   56.99   15.60
  -6   2  -8   42.10   16.40
   6   2   8   88.29   35.90
   8  -3  -8   52.29   13.00
  -8  -3   8   52.79   13.10
   8  -3  -8   49.00   33.40
  -8   3   8   40.90    9.50
   7  -3  -8  198.58   36.80
  -7  -3   8  206.08   22.80
   7  -3  -8  195.08   24.60
   7   3  -8  205.98   35.60
  -6  -3   8  272.47   26.40
   6  -3  -8  231.88   26.70
   6  -3  -8  274.27   37.50
  -6   3   8  254.97   24.30
   6   3  -8  318.27   36.80
  -5  -3   8   76.49   10.50
   5  -3  -8   59.49   16.70
   5  -3  -8   67.59   11.40
   5   3  -8   89.39   19.60
  -5   3   8   75.39    9.50
   4  -3  -8   30.70   12.40
   4  -3  -8   26.10    8.60
  -4  -3   8   29.90    7.30
   4   3  -8   29.10   15.40
  -4   3   8   26.60    5.80
   4   3  -8   29.60    4.90
  -3  -3   8  525.85   48.80
   3  -3  -8  520.15   50.99
   3  -3  -8  514.75   50.49
   3   3  -8  656.13   55.69
   3   3  -8  593.04   49.30
  -3   3   8  556.74   48.60
   2  -3  -8  932.71   91.09
  -2  -3   8  999.00   90.19
   2  -3  -8  944.81   91.29
   2   3  -8 1175.28   94.29
  -2   3   8 1051.09   90.19
   2   3  -8 1206.78   90.59
  -1  -3   8  432.26   38.80
  -1  -3   8  437.96   38.60
   1  -3  -8  433.96   40.20
   1  -3  -8  399.06   38.90
   1   3  -8  488.55   43.20
  -1   3   8  449.66   38.70
   0  -3   8  223.68   23.70
   0  -3   8  196.68   23.60
   0  -3  -8  220.88   25.00
   0   3  -8  253.47   23.90
   0   3   8  235.98   21.80
   0   3  -8  227.58   25.50
   0   3   8  275.47   21.20
   0   3   8  256.57   23.30
   1  -3   8  248.98   23.20
   1  -3   8  260.97   23.10
  -1  -3  -8  234.18   26.40
  -1   3  -8  236.18   23.10
   1   3   8  221.98   22.60
  -1   3  -8  199.18   25.50
   2  -3   8  780.62   61.89
  -2  -3  -8  593.54   64.59
   2  -3   8  818.92   62.09
   2   3   8  717.53   62.09
  -2   3  -8  682.13   61.69
  -2   3  -8  610.34   62.89
   3  -3   8  423.26   37.20
   3  -3   8  430.16   37.70
  -3   3  -8  399.16   36.90
  -3   3  -8  357.46   37.60
   3   3   8  362.76   36.70
  -4  -3  -8  115.39   10.70
   4  -3   8  122.99   17.00
   4  -3   8  132.99   19.00
  -4   3  -8  113.09   17.70
  -4   3  -8  119.19   18.60
   4   3   8   93.99   15.40
  -5  -3  -8   46.30   12.60
   5  -3   8   60.29   14.30
   5  -3   8   46.40   14.40
  -5   3  -8   45.30   13.10
  -5   3  -8   74.69   14.90
   5   3   8   49.70   13.60
   6  -3   8   81.89   17.00
   6  -3   8   58.29   17.70
  -6  -3  -8   84.79   15.60
  -6  -3  -8   56.69   30.00
  -6   3  -8   83.89   18.90
   6   3   8   43.40   16.20
  -6   3  -8   86.69   18.50
   8  -4  -8   79.09   26.10
   8  -4  -8   66.09   22.70
  -8  -4   8   74.69   15.10
   8   4  -8  117.19   30.70
   7  -4  -8    9.90   21.90
  -7  -4   8   21.30   10.80
   7  -4  -8   -6.90   20.20
   7   4  -8   -4.90   34.00
  -7   4   8    4.90    7.20
   6  -4  -8  136.09   24.80
  -6  -4   8  143.89   18.20
   6  -4  -8  142.99   20.20
  -6   4   8  129.69   14.10
   6   4  -8  193.18   33.70
   5  -4  -8  663.63   58.99
  -5  -4   8  647.14   57.59
   5  -4  -8  670.63   62.39
  -5   4   8  621.94   56.59
   4  -4  -8  683.63   59.69
  -4  -4   8  703.63   60.99
   4  -4  -8  676.83   62.29
   4  -4  -8  690.23   65.39
   4   4  -8  839.12   68.49
   4   4  -8  654.43   59.69
  -4   4   8  670.43   60.39
   3  -4  -8  142.59   20.40
   3  -4  -8  126.39   12.50
   3  -4  -8  102.59   19.20
  -3  -4   8  129.29   14.40
   3   4  -8  128.09   21.60
  -2  -4   8   63.89    8.60
  -2  -4   8   68.49    9.80
   2  -4  -8   46.80   10.40
   2  -4  -8   66.09   11.10
  -2   4   8   58.49   12.30
   2   4  -8   59.59   15.50
   2   4  -8   71.19   10.60
  -2   4   8   52.99    7.90
  -1  -4   8  361.26   35.30
  -1  -4   8  371.96   35.00
   1  -4  -8  354.86   36.70
   1   4  -8  396.36   39.80
  -1   4   8  396.96   37.60
  -1   4   8  410.46   35.10
   1   4  -8  457.15   35.40
   0  -4   8  265.17   26.40
   0  -4   8  295.47   26.50
   0  -4  -8  265.87   28.30
   0   4   8  293.07   25.90
   0   4  -8  306.17   32.10
   0   4   8  271.57   26.00
   1  -4   8   72.49   11.00
  -1  -4  -8   82.09   13.90
   1  -4   8   92.09   13.00
  -1   4  -8   88.19   14.10
   1   4   8   88.39   11.80
   2  -4   8    2.20    7.60
  -2  -4  -8   -1.90   11.80
   2  -4   8    4.70    7.60
  -2   4  -8    5.50    9.30
   2   4   8   11.10    7.50
   3  -4   8  112.19   16.90
  -3  -4  -8   96.59   18.80
   3  -4   8   92.89   13.20
  -3   4  -8   75.69   14.90
   3   4   8   94.39   13.40
  -3   4  -8  105.49   16.60
  -4  -4  -8  155.38   26.80
   4  -4   8  217.88   24.30
  -4  -4  -8  184.18   22.50
   4  -4   8  206.78   22.00
  -4   4  -8  147.69   24.30
  -4   4  -8  211.08   24.20
   4   4   8  191.28   23.00
   5  -4   8  141.49   23.40
  -5  -4  -8  140.39   18.50
  -5  -4  -8   90.79   24.70
   5  -4   8  146.99   19.50
   5   4   8   98.49   18.00
  -5   4  -8  120.29   23.60
  -5   4  -8  166.98   23.20
   6  -4   8   32.40   13.80
  -6  -4  -8    8.90   23.50
   6  -4   8   36.40   16.50
  -6  -4  -8   22.90   13.90
   6   4   8   22.40   15.20
  -6   4  -8   31.80   18.00
  -6   4  -8   29.50   15.90
   7  -5  -8  187.98   31.90
  -7  -5   8  187.58   25.10
   7  -5  -8  199.58   29.10
   7   5  -8  189.18   41.30
  -6  -5   8  226.88   24.70
   6  -5  -8  197.18   34.10
   6  -5  -8  231.88   30.20
   6   5  -8  251.67   41.30
   5  -5  -8   76.49   19.60
   5  -5  -8   74.79   16.20
  -5  -5   8   62.49   11.10
  -5   5   8   49.99    7.40
   5   5  -8   77.29   29.60
   4  -5  -8  103.19   21.20
  -4  -5   8  108.09   15.00
   4  -5  -8  120.39   16.60
   4   5  -8  144.79   25.70
  -4   5   8   92.89   11.40
  -4   5   8  146.79   24.40
   3  -5  -8  513.35   46.00
   3  -5  -8  530.65   49.40
  -3  -5   8  553.64   46.40
  -3  -5   8  556.04   47.50
   3  -5  -8  450.15   49.99
  -3   5   8  542.05   51.59
   3   5  -8  618.24   56.09
  -3   5   8  521.85   46.00
  -2  -5   8  628.94   47.50
   2  -5  -8  520.05   49.40
  -2  -5   8  555.54   47.50
   2  -5  -8  468.45   48.90
  -2   5   8  519.25   49.90
  -2   5   8  499.35   47.00
   2   5  -8  559.64   54.09
  -1  -5   8  180.18   18.60
   1  -5  -8  178.78   21.30
  -1  -5   8  221.88   19.80
   1   5  -8  153.88   25.90
  -1   5   8  163.08   20.30
  -1   5   8  176.98   17.50
   0  -5   8   17.50    8.20
   0  -5   8   22.20    7.10
   0  -5  -8   16.00    9.30
   0   5   8    8.00    6.60
   0   5  -8   14.70   13.30
   0   5   8   16.40    6.90
   1  -5   8  333.37   29.00
  -1  -5  -8  278.77   31.10
   1  -5   8  291.47   29.00
   1   5   8  288.37   28.20
  -1   5  -8  234.78   31.90
   1   5   8  310.37   26.10
   2  -5   8  579.34   50.49
   2  -5   8  632.64   51.19
  -2  -5  -8  558.34   53.19
   2   5   8  527.75   49.99
  -2   5  -8  487.05   53.99
  -3  -5  -8  347.37   34.70
   3  -5   8  419.06   36.50
   3  -5   8  374.56   34.60
  -3  -5  -8  366.56   39.40
  -3   5  -8  295.47   37.50
   3   5   8  357.56   34.90
   4  -5   8  114.29   17.60
   4  -5   8  156.48   22.90
  -4  -5  -8  141.09   19.50
  -4  -5  -8  118.39   23.60
  -4   5  -8  155.88   27.30
   4   5   8  100.59   17.20
  -5  -5  -8    2.40   21.00
  -5  -5  -8    4.90   12.30
   5  -5   8   25.20   15.20
   5  -5   8    1.20   14.60
  -5   5  -8  -11.10   16.00
   5   5   8  -12.30   12.90
  -5   5  -8    5.70   18.30
  -6  -5  -8    7.20   14.50
   6  -5   8   12.40   17.00
  -6  -5  -8   37.30   24.30
   6   5   8   38.20   16.10
  -6   5  -8   -2.60   17.00
  -6   5  -8   53.39   20.40
   7  -6  -8    0.30   23.80
   7  -6  -8   -4.50   17.10
  -7  -6   8   11.10   11.60
   7   6  -8   15.00   31.60
  -7   6   8  -19.80   25.00
   6  -6  -8    2.40   24.80
  -6  -6   8   46.20   11.70
   6  -6  -8   42.90   15.20
   6   6  -8   29.70   29.90
  -6   6   8  -10.40   27.00
   5  -6  -8  216.98   37.30
  -5  -6   8  239.08   24.80
   5  -6  -8  248.58   29.30
  -5   6   8  181.58   34.60
   5   6  -8  249.88   42.60
  -4  -6   8  449.36   36.70
   4  -6  -8  389.66   41.50
  -4  -6   8  417.06   39.30
   4  -6  -8  354.36   43.00
  -4   6   8  376.36   45.10
   4   6  -8  473.55   51.79
  -3  -6   8  422.86   32.80
  -3  -6   8  364.76   33.50
   3  -6  -8  373.56   36.80
  -3   6   8  346.07   38.70
   3   6  -8  323.57   44.30
  -3   6   8  301.27   30.80
   2  -6  -8   27.20   11.40
  -2  -6   8   38.20    7.60
   2  -6  -8   28.30    7.90
  -2  -6   8   22.30    7.90
  -2   6   8   15.30   14.00
   2   6  -8    8.70   16.40
  -1  -6   8   86.79   12.60
   1  -6  -8   69.49   14.10
  -1  -6   8  103.19   13.70
   1   6  -8   86.69   18.70
  -1   6   8  102.59   17.20
  -1   6   8   84.49   10.40
   0  -6   8  423.56   36.80
   0  -6  -8  388.56   39.30
   0   6   8  382.06   38.00
   0   6  -8  397.76   44.60
   0   6   8  412.26   37.10
   1  -6   8  540.05   43.10
   1  -6   8  440.76   41.50
  -1  -6  -8  490.05   41.10
  -1  -6  -8  444.06   44.30
  -1   6  -8  436.16   46.20
   1   6   8  447.26   40.90
   1   6   8  384.46   42.70
  -2  -6  -8  110.79   18.20
   2  -6   8  124.89   19.50
   2  -6   8  118.79   16.10
  -2  -6  -8  110.89   15.50
   2   6   8   93.79   11.90
   2   6   8  109.99   14.00
  -2   6  -8   95.89   21.20
   3  -6   8  102.69   14.50
  -3  -6  -8  100.79   16.30
  -3  -6  -8  123.39   23.20
   3  -6   8  126.79   21.40
  -3   6  -8   78.49   19.30
   3   6   8   80.69   16.60
  -4  -6  -8  151.28   19.80
  -4  -6  -8  158.38   28.50
   4  -6   8  154.08   20.40
   4  -6   8  190.28   26.30
  -4   6  -8  142.29   24.00
   4   6   8  139.89   20.00
  -5  -6  -8  129.19   25.40
   5  -6   8  121.69   24.40
   5  -6   8  102.99   16.40
  -5   6  -8   92.99   21.90
   6  -7  -8  118.99   20.40
   6  -7  -8   58.59   27.50
  -6  -7   8   88.69   15.50
  -6   7   8   72.29   27.40
   6   7  -8   77.39   39.70
   5  -7  -8   40.90   16.60
  -5  -7   8   33.50   11.50
   5  -7  -8   26.10   20.90
  -5   7   8   42.90   27.70
   5   7  -8   60.89   30.90
  -4  -7   8   35.40    8.50
   4  -7  -8   35.40   15.60
  -4  -7   8   37.20   10.60
  -4   7   8   60.09   24.60
   4   7  -8   41.60   26.00
  -3  -7   8  171.28   19.40
  -3  -7   8  186.98   19.40
   3  -7  -8  154.18   25.50
  -3   7   8  120.29   25.90
   3   7  -8  136.19   28.80
  -2  -7   8  229.28   21.50
  -2  -7   8  201.38   21.00
   2  -7  -8  207.58   26.50
   2  -7  -8  172.08   17.60
  -2   7   8  231.48   30.30
   2   7  -8  168.28   32.40
  -2   7   8  184.08   17.70
  -1  -7   8   89.69   15.60
   1  -7  -8   90.09   17.70
   1  -7  -8   83.69   11.10
  -1  -7   8   84.09   12.20
  -1   7   8   98.39   17.90
  -1   7   8   98.19   11.60
   1   7  -8  113.89   21.60
   0  -7   8   21.10   10.00
   0  -7  -8   12.70    5.70
   0  -7   8    1.80    8.00
   0  -7  -8   12.60   12.40
   0   7  -8  -14.20   15.00
   0   7   8    8.00    6.00
   0   7   8    3.10   10.50
   1  -7   8  226.08   25.20
  -1  -7  -8  229.78   23.60
   1  -7   8  290.07   27.10
  -1  -7  -8  192.48   28.20
   1   7   8  209.98   23.60
   1   7   8  241.58   24.00
  -1   7  -8  205.38   31.90
   2  -7   8  498.75   43.70
  -2  -7  -8  399.56   41.20
  -2  -7  -8  392.06   44.90
   2  -7   8  483.75   42.30
   2   7   8  441.96   41.70
  -2   7  -8  401.66   49.60
   3  -7   8  330.47   33.00
   3  -7   8  280.57   28.60
  -3  -7  -8  246.68   28.80
  -3  -7  -8  261.57   34.80
   3   7   8  256.37   29.00
  -3   7  -8  260.87   40.20
  -4  -7  -8   44.20   13.80
  -4  -7  -8   44.90   20.20
   4  -7   8   27.90   14.10
  -4   7  -8   52.29   19.80
  -5   8   8  166.48   32.30
   5   8  -8  151.28   38.80
  -4  -8   8  182.58   21.60
   4  -8  -8  175.18   30.00
  -4  -8   8  179.18   22.20
   4   8  -8  199.78   37.00
  -4   8   8  158.88   29.90
  -3  -8   8   52.59   12.00
  -3  -8   8   43.80   11.60
   3  -8  -8   44.60   17.30
   3   8  -8   59.99   26.60
  -3   8   8   58.59   20.70
  -2  -8   8   85.79   14.20
  -2  -8   8   62.49   18.00
   2  -8  -8   70.09   17.80
  -2   8   8   56.39   21.00
   2   8  -8   44.00   22.60
  -1  -8   8  168.38   22.20
   1  -8  -8  165.88   27.00
   1  -8  -8  174.68   17.90
  -1  -8   8  230.28   23.60
  -1   8   8  187.68   29.20
   1   8  -8  175.28   29.20
   0  -8   8  176.38   19.80
   0  -8  -8  191.68   26.50
   0  -8   8  215.38   23.80
   0  -8  -8  135.09   17.90
   0   8  -8  154.28   27.40
   0   8   8  186.78   25.90
  -1  -8  -8  111.89   19.30
   1  -8   8  101.69   15.20
   1  -8   8  114.89   16.90
  -1  -8  -8  101.69   13.70
  -1   8  -8   85.29   25.60
   1   8   8   82.39   18.60
  -2  -8  -8   13.40   19.40
   2  -8   8   32.10   14.30
   2  -8   8    1.00   12.00
  -2  -8  -8   24.70   11.20
  -2   8  -8   20.80   22.90
  -3  -8  -8   -5.70   10.60
   3  -8   8   -4.80   10.80
  -3  -8  -8   -1.30   17.10
  -3   8  -8   30.10   19.50
   4  -9  -8   14.80   19.10
  -4  -9   8    3.70   13.40
  -4   9   8   54.99   30.80
   4   9  -8   33.30   31.10
   3  -9  -8  130.99   24.00
  -3  -9   8  152.58   22.00
  -3  -9   8  121.49   16.50
   3   9  -8  112.19   31.70
  -3   9   8   66.19   28.70
   2  -9  -8  188.98   29.60
  -2  -9   8  192.48   22.20
  -2  -9   8  214.48   24.70
  -2   9   8  135.99   30.50
   1  -9  -8   86.49   19.70
  -1  -9   8   85.29   13.10
   1   9  -8   67.89   24.50
  -1   9   8   77.39   19.50
   0  -9   8   37.30   13.90
   0  -9  -8   23.60    8.10
   0  -9  -8   30.40   17.00
   0  -9   8   42.00   10.80
   0   9   8   30.30   17.70
   0   9  -8   37.30   26.90
  -1  -9  -8   36.00   17.70
   1  -9   8   50.99   11.90
  -1  -9  -8   45.00   14.70
   1  -9   8   53.79   15.60
  -2  -9  -8   72.99   20.10
   2  -9   8   70.49   15.40
  -2  -9  -8   48.20   11.80
   2  -9   8   94.39   18.50
  -2   9  -8   67.79   24.50
  -8   0   9  147.99   19.60
   7   0  -9  253.47   36.10
  -7   0   9  244.08   24.90
  -6   0   9  121.99   15.90
   6   0  -9  136.89   22.70
   6   0  -9  102.49   12.00
   5   0  -9   40.70   16.40
  -5   0   9   54.89    9.00
  -5   0   9   33.40   10.40
  -4   0   9  554.14   50.49
   4   0  -9  627.94   50.99
   4   0  -9  533.05   55.59
   3   0  -9 1348.97  107.59
   3   0  -9 1137.39  109.49
  -2   0   9  810.42   70.09
   2   0  -9  798.22   71.79
   2   0  -9  819.62   71.39
   1   0  -9  174.68   22.10
   1   0  -9  156.48   17.10
  -1   0   9  151.48   14.90
  -1   0   9  109.29   14.20
   0   0  -9   11.70    5.50
   0   0   9   13.70    6.30
   0   0   9    1.40    7.40
   1   0   9  114.39   14.60
   1   0   9  134.59   13.20
  -1   0  -9  151.78   19.20
  -1   0  -9   99.79   12.40
  -2   0  -9  117.09   12.60
  -2   0  -9  163.18   19.60
   2   0   9  148.69   16.00
  -2   0  -9  118.59   12.70
  -3   0  -9   33.40    6.50
  -3   0  -9   31.60   12.20
   3   0   9   36.60    9.60
  -3   0  -9   42.50    8.00
   4   0   9   13.20    9.90
  -4   0  -9  -15.00   12.30
  -5   0  -9   47.40    9.70
  -5   0  -9   30.00   16.50
   5   0   9   36.10   13.30
   6   0   9   79.69   17.20
  -6   0  -9   82.39   25.20
  -8  -1   9   34.10   11.00
  -8   1   9   20.70   11.30
  -7  -1   9    0.60   10.60
   7  -1  -9    9.40   23.70
   7  -1  -9   -1.60    6.50
   7   1  -9    3.40   28.50
  -7   1   9    2.30    7.50
  -6  -1   9  194.78   20.00
   6  -1  -9  177.08   31.70
   6  -1  -9  174.58   19.00
  -6   1   9  194.08   19.10
   6   1  -9  215.38   30.50
   6   1  -9  184.08   16.60
   5  -1  -9  441.76   39.60
  -5  -1   9  441.86   39.50
   5  -1  -9  427.46   45.00
   5   1  -9  412.56   39.50
   5   1  -9  472.45   45.80
  -5   1   9  447.06   39.10
  -4  -1   9  547.85   47.70
   4  -1  -9  469.95   51.29
  -4  -1   9  583.94   49.40
   4  -1  -9  530.75   48.30
   4   1  -9  527.95   53.59
   4   1  -9  566.74   47.80
   3  -1  -9  285.67   27.10
  -3  -1   9  261.67   25.30
  -3   1   9  260.37   25.60
   3   1  -9  284.37   26.20
   3   1  -9  269.97   31.80
  -2  -1   9  419.66   39.70
   2  -1  -9  426.86   41.70
  -2   1   9  400.36   39.60
   2   1  -9  474.45   42.40
   2   1  -9  533.35   42.80
  -1  -1   9 1358.06  127.79
   1  -1  -9 1463.45  128.69
   1   1  -9 1625.44  128.59
  -1   1   9 1483.75  127.39
   0  -1   9  898.31   73.99
   0  -1   9  902.61   74.79
   0  -1  -9  823.42   76.19
   0   1  -9  783.12   77.19
   0   1   9  830.52   73.09
   1  -1   9  313.07   25.50
  -1  -1  -9  273.47   22.20
  -1  -1  -9  222.18   22.30
  -1   1  -9  267.17   24.20
   1   1   9  286.37   25.10
  -1   1  -9  208.08   25.40
   2  -1   9   50.19    9.70
  -2  -1  -9   53.59   16.00
   2  -1   9   45.30    9.20
   2   1   9   47.30    9.20
  -2   1  -9   39.30    7.80
  -2   1  -9   28.80    9.50
  -3  -1  -9  210.08   19.30
   3  -1   9  272.27   23.80
  -3   1  -9  232.48   22.20
   3   1   9  236.98   23.50
  -3   1  -9  170.38   23.40
  -4  -1  -9  196.38   21.40
   4  -1   9  215.28   24.10
  -4   1  -9  174.28   24.40
   4   1   9  243.08   24.70
  -4   1  -9  242.18   22.60
  -5  -1  -9  151.08   24.30
   5  -1   9   89.89   16.30
  -5   1  -9  121.09   20.00
   5   1   9   95.09   16.70
  -5   1  -9   91.09   17.20
  -6  -1  -9   14.40   23.00
   6  -1   9    8.00   14.30
  -6   1  -9   15.40   12.00
   6   1   9   -7.60   14.40
  -6   1  -9   23.30   16.40
  -8  -2   9  108.69   14.90
  -8   2   9   66.59   11.30
   7  -2  -9  115.99   24.90
  -7  -2   9  122.19   17.40
  -7   2   9  121.09   16.00
   7   2  -9  143.49   27.10
   6  -2  -9  139.99   21.20
   6  -2  -9  140.69   23.90
  -6  -2   9  127.99   16.60
  -6   2   9  129.79   14.40
   6   2  -9  125.69   28.00
   5  -2  -9   18.70    9.00
  -5  -2   9   17.80    7.40
   5  -2  -9   13.60   14.80
   5   2  -9   17.80    3.60
   5   2  -9    2.00   16.30
   5   2  -9   19.30    3.50
   4  -2  -9  203.58   23.20
  -4  -2   9  193.58   21.20
   4   2  -9  229.98   28.90
   4   2  -9  255.57   21.30
   4   2  -9  196.08   20.50
  -4   2   9  222.28   20.90
  -3  -2   9 1056.19   92.99
   3  -2  -9 1056.19   93.79
   3   2  -9 1213.28   94.39
  -3   2   9  921.51   92.69
   3   2  -9 1168.18   96.59
  -2  -2   9 1165.08  106.09
  -2   2   9 1186.38  106.19
   2   2  -9 1345.27  106.99
   2   2  -9 1245.18  108.59
  -1  -2   9  714.43   61.99
   1  -2  -9  754.62   63.69
  -1   2   9  645.84   61.19
   1   2  -9  602.34   62.59
  -1   2   9  772.02   62.29
   1   2  -9  805.32   64.49
   0  -2  -9   63.39   13.80
   0  -2   9   86.29   11.70
   0  -2  -9   87.69    8.20
   0   2  -9   61.79   10.70
   0   2  -9   75.39   12.30
   1  -2   9  648.54   51.69
   1   2   9  602.64   51.39
  -1   2  -9  550.54   51.39
  -1   2  -9  524.15   51.69
  -2  -2  -9  838.62   71.09
   2  -2   9  763.32   66.19
   2  -2   9  693.83   65.89
  -2   2  -9  712.63   66.29
  -2   2  -9  735.13   65.99
   2   2   9  790.82   66.19
   3  -2   9  177.68   19.00
  -3  -2  -9  196.08   29.10
   3  -2   9  140.59   18.90
   3   2   9  156.98   19.10
  -3   2  -9  141.09   18.80
  -3   2  -9  134.49   19.00
  -4  -2  -9   11.70   21.60
   4  -2   9    0.10   10.20
   4   2   9    1.20   10.40
  -4   2  -9    4.30   11.10
  -4   2  -9    7.00   11.70
  -5  -2  -9  117.29   27.10
   5  -2   9   76.59   14.90
  -5   2  -9   65.99   14.70
  -5   2  -9   62.49   15.90
   5   2   9   70.69   15.30
   6  -2   9   55.79   16.30
  -6  -2  -9  114.99   34.30
  -6   2  -9   82.39   17.20
  -6   2  -9   71.59   18.00
   8  -3  -9   50.29   25.00
  -8   3   9   21.20    9.40
   8   3  -9   44.40   28.40
   7  -3  -9   21.80    9.30
  -7  -3   9   15.80   10.30
   7  -3  -9   19.40   21.30
  -7   3   9   18.50    7.90
   7   3  -9   49.80   25.10
  -6  -3   9  155.18   21.40
   6  -3  -9  185.08   22.30
   6  -3  -9  135.49   25.80
   6   3  -9  219.98   38.50
   5  -3  -9  295.77   42.70
  -5  -3   9  396.06   36.00
   5  -3  -9  389.26   37.50
   5   3  -9  413.16   43.90
  -5   3   9  390.36   34.10
   4  -3  -9  258.07   36.40
  -4  -3   9  316.57   30.80
   4  -3  -9  359.06   32.60
   4   3  -9  351.26   29.30
  -4   3   9  339.77   29.80
   3  -3  -9    0.40    7.80
  -3  -3   9    5.70    6.10
   3  -3  -9   -1.40   12.50
   3   3  -9   -3.00    7.80
  -3   3   9   -1.40    5.90
   3   3  -9    4.00   13.60
  -2  -3   9   84.29   11.60
   2  -3  -9   87.49   14.50
   2  -3  -9   81.99   12.40
  -2   3   9   90.49   12.20
   2   3  -9   89.69   17.40
   2   3  -9   92.99   11.90
   1  -3  -9  415.16   39.50
  -1  -3   9  421.36   37.70
   1  -3  -9  355.86   37.50
  -1  -3   9  393.06   37.30
   1   3  -9  495.35   38.00
  -1   3   9  441.46   38.00
   0  -3   9  589.84   53.19
   0  -3  -9  564.34   55.19
   0  -3   9  547.75   53.09
   0   3  -9  638.74   53.29
   0   3   9  618.64   54.09
   0   3  -9  609.54   55.09
   0   3   9  635.84   51.99
   1  -3   9  167.88   19.10
  -1  -3  -9  134.59   24.00
   1  -3   9  172.28   19.30
  -1   3  -9  183.48   20.90
  -1   3  -9  198.98   19.60
   1   3   9  195.28   19.30
  -2  -3  -9   13.90   14.70
   2  -3   9   51.89   10.00
   2  -3   9   38.00    9.10
  -2   3  -9   18.50   20.60
   2   3   9   39.40   10.90
  -2   3  -9   41.20    9.70
   3  -3   9  250.97   27.10
   3  -3   9  287.47   27.90
  -3   3  -9  282.47   27.60
  -3   3  -9  228.38   29.20
   3   3   9  268.97   27.70
   4  -3   9  270.77   29.40
   4  -3   9  258.27   28.40
  -4  -3  -9  202.08   36.10
  -4   3  -9  293.27   29.40
  -4   3  -9  275.57   30.50
   4   3   9  277.17   29.20
   5  -3   9   81.49   15.00
  -5  -3  -9   23.70   28.40
  -5  -3  -9   75.39   17.10
   5  -3   9   84.39   15.90
  -5   3  -9   71.79   19.10
   5   3   9   41.80   15.30
  -5   3  -9   84.29   16.80
   6  -3   9   -5.50   16.80
  -6  -3  -9    1.10   25.80
  -6  -3  -9    5.20   13.80
  -6   3  -9   -0.40   18.70
  -6   3  -9   21.60   16.30
   6   3   9   -3.50   14.90
  -7  -4   9  181.08   22.10
   7  -4  -9  137.09   33.20
   7  -4  -9  159.98   25.80
   7   4  -9  229.48   39.90
   6  -4  -9   86.39   23.90
  -6  -4   9  121.19   16.90
   6  -4  -9  108.29   16.40
  -6   4   9  115.19   13.00
   6   4  -9  125.89   28.50
   5  -4  -9  -20.80   15.30
  -5  -4   9   10.70    8.50
   5  -4  -9    8.30   10.80
   5   4  -9   13.90   29.20
  -5   4   9    4.40    5.50
   4  -4  -9  220.58   30.60
   4  -4  -9  266.07   28.50
  -4  -4   9  295.97   26.20
   4   4  -9  260.77   24.90
  -4   4   9  292.07   25.10
  -3  -4   9  504.85   47.70
   3  -4  -9  577.24   50.49
  -3   4   9  533.15   47.30
  -2  -4   9  297.47   28.60
   2  -4  -9  258.27   30.10
  -2  -4   9  311.47   28.50
   2  -4  -9  262.87   30.50
   2   4  -9  365.06   35.60
  -2   4   9  327.37   28.40
  -2   4   9  361.36   32.00
   1  -4  -9   45.10   10.80
  -1  -4   9   42.80    8.00
  -1  -4   9   33.50    8.30
   1   4  -9   68.89   10.70
  -1   4   9   59.89    8.90
   1   4  -9   63.69   16.00
  -1   4   9   60.59   10.30
   0  -4  -9  118.99   19.50
   0  -4   9  128.09   15.70
   0  -4   9  151.18   17.20
   0   4  -9  123.29   16.00
   0   4  -9  107.79   19.90
   0   4   9  153.68   13.20
   0   4   9  130.69   15.10
   0   4   9  127.39   13.70
   1  -4   9  426.46   38.10
  -1  -4  -9  403.66   41.40
   1  -4   9  448.06   38.20
  -1   4  -9  371.06   40.10
   1   4   9  385.06   37.80
  -1   4  -9  433.86   38.20
   2  -4   9  438.66   36.50
   2  -4   9  437.46   37.30
  -2  -4  -9  315.07   40.20
   2   4   9  365.76   35.80
  -2   4  -9  392.66   36.30
  -2   4  -9  323.07   38.90
   3  -4   9  196.08   22.00
   3  -4   9  171.88   20.70
  -3  -4  -9  136.49   25.00
   3   4   9  161.38   21.00
  -3   4  -9  164.08   25.10
  -4  -4  -9  -21.60   18.40
   4  -4   9   16.70   11.00
   4  -4   9   15.60   12.20
  -4   4  -9   45.20   13.20
   4   4   9    4.10   11.70
  -4   4  -9   41.40   15.10
   5  -4   9   16.80   14.60
  -5  -4  -9   13.90   12.80
   5  -4   9    8.20   11.90
  -5  -4  -9  -22.10   21.50
  -5   4  -9   35.50   15.60
  -5   4  -9   18.30   13.60
   5   4   9    4.30   13.80
  -6  -4  -9   39.10   15.70
  -6  -4  -9  -15.00   25.80
   6  -4   9   38.60   15.10
   6  -4   9   25.40   17.40
   6   4   9   13.50   16.20
  -6   4  -9   32.50   18.70
  -6   4  -9   28.40   19.20
   7  -5  -9   30.30   16.10
   7  -5  -9   17.50   27.80
  -7  -5   9    3.30   14.30
   6  -5  -9  197.38   28.10
   6  -5  -9  140.59   28.00
  -6  -5   9  155.38   20.80
   6   5  -9  159.98   35.70
  -5  -5   9  475.55   37.00
   5  -5  -9  382.26   43.60
  -5   5   9  328.37   34.40
  -4  -5   9  374.46   32.00
   4  -5  -9  267.57   36.50
   4  -5  -9  325.77   35.00
  -4   5   9  316.97   39.10
   4   5  -9  409.66   45.00
   3  -5  -9   74.79   13.70
   3  -5  -9   68.99   15.70
  -3  -5   9   62.89   10.20
  -3  -5   9   68.29   10.20
  -3   5   9   58.89   17.80
   3   5  -9   62.69   20.30
  -3   5   9   50.89    8.40
   3   5  -9   75.59   12.00
  -2  -5   9  105.19   17.20
   2  -5  -9  103.49   17.10
  -2  -5   9   91.89   13.50
   2  -5  -9  100.69   17.20
   2   5  -9   85.09   19.60
  -2   5   9   90.59   11.30
  -2   5   9  103.29   16.80
   1  -5  -9  267.57   27.50
  -1  -5   9  290.57   24.90
  -1   5   9  220.28   26.30
  -1   5   9  249.88   24.00
   1   5  -9  226.48   30.70
   1   5  -9  260.27   26.00
   0  -5   9  318.47   31.30
   0  -5   9  403.56   33.00
   0  -5  -9  343.27   34.10
   0   5  -9  301.17   35.90
   0   5   9  325.67   30.70
   0   5   9  303.47   30.60
   1  -5   9   92.39   12.00
  -1  -5  -9   80.79   15.90
   1  -5   9  101.69   15.50
  -1   5  -9   87.89   16.10
   1   5   9   84.79   11.30
   1   5   9   68.79    7.90
   2  -5   9   13.80   10.10
   2  -5   9   23.40   11.70
  -2  -5  -9   -1.60   14.70
  -2   5  -9   29.60   15.90
   2   5   9   -2.80    8.70
  -3  -5  -9  106.59   21.30
   3  -5   9  129.29   19.60
   3  -5   9   92.69   14.00
   3   5   9   70.69   14.30
  -3   5  -9   61.69   16.60
  -3   5  -9   76.59   15.60
   4  -5   9  165.98   24.30
  -4  -5  -9  106.39   18.50
   4  -5   9  145.19   20.20
  -4  -5  -9  118.19   30.50
  -4   5  -9  158.28   28.10
  -4   5  -9  145.29   23.90
   4   5   9  132.89   20.90
   5  -5   9   78.39   16.70
  -5  -5  -9   26.70   25.10
  -5   5  -9   43.00   20.70
   7  -6  -9   70.39   17.70
   7  -6  -9   53.49   27.60
   7   6  -9   70.19   35.20
  -7   6   9   62.99   29.60
   6  -6  -9   62.59   24.60
   6  -6  -9   66.99   17.40
  -6  -6   9   74.99   13.70
   6   6  -9   37.70   31.70
  -6   6   9   49.20   26.10
  -5  -6   9   34.70   10.50
   5  -6  -9    8.10   19.00
   5  -6  -9   18.50   15.00
   5   6  -9   -1.40   27.10
  -5   6   9   18.00   20.90
   4  -6  -9   50.49   15.10
   4  -6  -9   36.40   17.00
  -4  -6   9   48.20   10.90
  -4  -6   9   61.09   10.50
   4   6  -9   59.89   26.00
   4   6  -9   57.69   10.10
  -4   6   9   22.10   18.20
  -3  -6   9  317.17   27.00
  -3  -6   9  298.37   27.50
   3  -6  -9  256.27   31.30
   3   6  -9  266.97   39.50
   3   6  -9  314.97   27.40
  -3   6   9  233.88   35.30
  -3   6   9  229.68   24.30
  -2  -6   9  238.98   20.50
   2  -6  -9  204.98   24.90
  -2   6   9  139.99   25.60
   2   6  -9  161.48   31.00
  -2   6   9  176.48   17.50
   1  -6  -9   96.09   15.80
  -1  -6   9  118.79   17.70
  -1  -6   9   99.59   12.80
  -1   6   9  105.79   12.40
   1   6  -9   76.09   19.80
  -1   6   9   90.89   15.10
   0  -6   9  124.99   16.90
   0  -6   9   87.19   12.90
   0  -6  -9   75.09   16.00
   0   6   9  114.29   14.40
   0   6  -9  103.49   19.90
   0   6   9   98.29   15.20
   1  -6   9  421.96   39.50
  -1  -6  -9  457.75   43.60
   1   6   9  472.35   39.10
  -1   6  -9  429.36   44.60
   1   6   9  371.86   37.60
   2  -6   9  545.95   46.90
   2  -6   9  523.05   44.50
  -2  -6  -9  413.06   47.50
   2   6   9  424.16   43.00
  -2   6  -9  419.86   47.50
   3  -6   9  160.48   21.30
  -3  -6  -9  149.39   21.60
  -3  -6  -9  148.19   26.30
   3  -6   9  191.98   25.40
   3   6   9  179.08   21.90
  -3   6  -9  143.39   24.10
  -4  -6  -9   22.30   21.80
   4  -6   9  -31.60   23.80
   4  -6   9   18.00   15.50
  -4  -6  -9    4.20   12.50
  -4   6  -9   -2.90   16.10
   4   6   9  -20.70   12.50
  -5  -6  -9   14.80   31.10
   5  -6   9   33.00   18.20
  -5  -6  -9   27.10   15.00
   5  -6   9   66.39   16.70
  -5   6  -9   25.40   18.20
  -5   6  -9   18.30   19.90
   5   6   9   -3.60   15.20
   6  -7  -9   65.49   19.60
  -6  -7   9   82.89   17.10
   6   7  -9   70.49   36.00
   5  -7  -9  142.79   22.80
  -5  -7   9  133.89   17.60
   5  -7  -9   94.99   26.20
  -5   7   9  141.69   28.90
   5   7  -9  134.19   40.60
  -4  -7   9   95.59   15.10
   4  -7  -9  105.59   20.20
  -4  -7   9  114.29   15.60
  -4   7   9  113.89   23.70
   4   7  -9  152.38   31.70
  -3  -7   9   27.00   12.20
   3  -7  -9   31.40   15.20
  -3  -7   9   31.50   10.00
   3   7  -9   43.40   23.80
  -3   7   9   57.59   18.00
   2  -7  -9   38.30   14.70
  -2  -7   9   40.00   10.40
  -2  -7   9   59.19   10.40
   2  -7  -9   59.99    7.60
  -2   7   9   43.30   18.20
  -2   7   9   44.70    6.80
   2   7  -9   48.60   21.50
  -1  -7   9  273.67   26.00
   1  -7  -9  211.28   22.30
   1  -7  -9  210.78   29.70
  -1  -7   9  228.18   24.40
  -1   7   9  240.88   22.50
   1   7  -9  229.58   34.20
  -1   7   9  255.97   29.10
   0  -7  -9  253.87   25.80
   0  -7  -9  235.88   31.30
   0  -7   9  278.97   27.90
   0   7   9  255.97   26.00
   0   7   9  282.17   27.90
   0   7  -9  263.77   35.60
  -1  -7  -9  147.09   18.40
   1  -7   9  160.18   22.30
  -1  -7  -9  125.79   21.00
   1  -7   9  138.69   18.20
   1   7   9  132.79   17.00
  -1   7  -9  109.99   23.50
   2  -7   9   42.60   14.10
   2  -7   9   51.19   14.50
  -2  -7  -9   29.30   10.80
  -2  -7  -9   42.80   18.30
   2   7   9   22.50   11.30
  -2   7  -9   49.20   18.80
  -3  -7  -9   92.49   22.90
  -3  -7  -9  109.09   18.20
   3  -7   9  106.29   16.20
   3  -7   9  159.98   24.70
   3   7   9   92.69   18.80
  -3   7  -9   85.29   21.90
  -4  -7  -9   55.39   15.60
   4  -7   9   71.49   18.60
   4  -7   9   87.39   19.30
  -4  -7  -9   70.59   24.50
   4   7   9   77.99   16.80
  -4   7  -9   31.80   20.60
   5  -8  -9    4.50   18.90
  -5  -8   9   15.00   12.20
  -5   8   9   34.30   24.80
   5   8  -9   15.10   40.40
  -4  -8   9  112.89   16.50
   4  -8  -9  123.39   22.70
  -4   8   9   98.99   26.00
  -3  -8   9  189.38   22.80
   3  -8  -9  187.68   33.20
  -3  -8   9  141.39   21.30
  -3   8   9  175.78   31.00
   3   8  -9  168.38   37.10
  -2  -8   9   86.19   15.00
  -2  -8   9   79.59   13.00
   2  -8  -9   57.39   18.00
  -2   8   9   85.29   22.70
   2   8  -9   64.29   24.70
   1  -8  -9    4.20    5.60
  -1  -8   9   -0.40   11.20
  -1  -8   9   10.30   11.10
   1  -8  -9   -1.30   14.70
   1   8  -9   12.60   20.10
  -1   8   9    6.50   15.90
   0  -8  -9   18.70    7.10
   0  -8   9   44.20   10.60
   0  -8   9   57.79   15.70
   0  -8  -9   33.10   16.10
   0   8   9   27.20    7.80
   0   8   9   29.80   14.20
   0   8  -9   17.70   19.90
   1  -8   9   70.19   13.10
  -1  -8  -9   80.19   11.80
  -1  -8  -9   75.09   19.50
   1  -8   9  108.89   16.60
   1   8   9   63.99   12.50
  -1   8  -9   77.29   22.60
  -2  -8  -9   57.19   13.40
   2  -8   9   92.29   16.80
  -2  -8  -9  106.49   20.90
   2  -8   9  115.59   18.30
  -2   8  -9   76.89   22.60
  -3  -8  -9   26.60   12.50
   3  -8   9   62.09   17.80
   3  -8   9   28.60   16.20
  -3  -8  -9   45.10   21.10
   3  -9  -9   45.90   19.30
  -3  -9   9    0.80   12.90
  -3  -9   9    9.20   11.50
  -3   9   9   -5.80   25.60
   3   9  -9    8.10   27.50
  -2  -9   9   69.09   14.20
  -2  -9   9   44.40   12.80
   2  -9  -9   78.69   20.00
  -2   9   9   74.19   20.80
   2   9  -9   45.70   26.40
   1  -9  -9  151.78   27.30
  -1  -9   9  195.78   23.90
  -1  -9   9  134.79   19.10
  -1   9   9  105.29   24.60
   1   9  -9  137.89   33.40
   0  -9   9  166.48   25.30
   0  -9   9  146.39   20.20
   1  -9   9   62.59   15.20
  -1   9  -9   34.20   23.30
   8   0 -10    2.80   27.10
  -8   0  10   -0.20    9.70
  -7   0  10   93.59   14.10
   7   0 -10   83.69   24.30
  -6   0  10  309.67   30.70
   6   0 -10  321.97   39.50
   5   0 -10  361.66   33.10
  -5   0  10  364.86   33.20
   5   0 -10  356.26   40.60
  -4   0  10   49.70    8.70
   4   0 -10   56.19   18.60
   4   0 -10   57.19   10.20
  -3   0  10   88.29   11.80
   3   0 -10   84.49   14.00
   3   0 -10   88.29   20.30
   2   0 -10  298.27   28.10
   2   0 -10  235.88   27.70
  -2   0  10  211.68   23.30
   1   0 -10  647.54   52.59
   1   0 -10  601.74   53.69
  -1   0  10  472.75   50.39
   0   0  10  130.99   17.10
   0   0  10  157.48   16.90
   0   0 -10  152.88   16.20
   0   0 -10  165.08   22.90
  -1   0 -10    9.90    4.50
   1   0  10    9.80    7.80
  -1   0 -10    2.60   11.60
   1   0  10   17.30    5.40
  -2   0 -10  111.69   13.20
  -2   0 -10  145.39   14.20
   2   0  10  144.99   17.50
  -2   0 -10  166.88   21.30
  -3   0 -10  184.18   24.50
   3   0  10  175.98   21.30
  -3   0 -10  153.28   16.90
  -3   0 -10  198.28   18.40
   4   0  10  108.59   17.10
  -4   0 -10  143.79   23.50
  -5   0 -10   75.49   19.40
   5   0  10   51.69   15.50
  -6   0 -10  -19.30   24.70
   8  -1 -10   57.69   27.00
  -8  -1  10   91.59   13.90
   8   1 -10   80.59   27.80
  -8   1  10   71.39   12.40
   7  -1 -10  115.09   25.40
   7  -1 -10  100.69   15.40
  -7  -1  10  104.29   14.30
  -7   1  10  100.79   14.30
   7   1 -10   96.49   30.20
   6  -1 -10   29.20    8.20
   6  -1 -10   35.40   19.80
  -6  -1  10   42.30    9.30
   6   1 -10   15.30   20.00
  -6   1  10   39.90   10.00
   6   1 -10   20.20    4.60
  -5  -1  10  188.38   21.10
   5  -1 -10  187.68   22.10
   5  -1 -10  185.18   29.60
   5   1 -10  237.18   20.10
   5   1 -10  168.58   20.50
  -5   1  10  239.58   20.60
   5   1 -10  241.78   31.20
   4  -1 -10  657.43   61.99
  -4  -1  10  645.34   61.69
   4   1 -10  804.42   68.09
  -4   1  10  649.64   61.19
   4   1 -10  782.92   61.99
  -3  -1  10 1442.06  129.59
   3  -1 -10 1488.25  130.39
  -3   1  10 1397.86  129.49
   3   1 -10 1738.43  132.89
   3   1 -10 1505.75  130.69
  -2  -1  10  350.86   34.90
   2   1 -10  480.25   39.60
  -2   1  10  343.67   34.90
   1  -1 -10   78.59   11.80
  -1  -1  10   73.39   10.20
   1  -1 -10   47.60   13.70
  -1   1  10   89.89   11.80
   1   1 -10   82.39   14.80
   0  -1 -10  178.58   18.70
   0  -1  10  203.08   20.10
   0  -1 -10  238.28   23.40
   0   1 -10  167.28   19.70
   0   1 -10  202.48   27.10
   0   1  10  188.18   20.10
   0   1  10  186.88   18.00
   1  -1  10  409.06   34.40
  -1  -1 -10  402.46   31.30
  -1   1 -10  308.17   34.50
   1   1  10  308.87   33.80
   2  -1  10  175.48   19.20
  -2  -1 -10  202.08   27.50
   2   1  10  162.48   19.00
  -2   1 -10  118.19   19.00
   3  -1  10    1.50    9.60
  -3  -1 -10   -9.40   16.50
   3   1  10   11.80    9.70
  -3   1 -10    9.60    6.10
  -3   1 -10   -1.70   10.00
  -4  -1 -10   -5.90   19.00
   4  -1  10   12.80   11.60
   4   1  10   11.00   12.00
  -4   1 -10   17.30   14.70
  -4   1 -10   23.10    8.90
   5  -1  10   86.19   16.30
  -5  -1 -10  146.49   29.30
  -5   1 -10   60.89   16.80
   5   1  10   79.99   16.90
   6  -1  10   45.00   17.40
  -6  -1 -10   89.09   25.90
  -6   1 -10   67.79   19.20
   6   1  10   51.89   18.10
   8  -2 -10   16.20   24.30
  -8  -2  10    7.90   11.20
   8   2 -10   -5.90   25.90
  -8   2  10   -5.80   10.00
   7  -2 -10   11.90   22.00
   7  -2 -10   26.80   10.00
  -7  -2  10   35.60   10.50
  -7   2  10   28.80    9.60
   7   2 -10   24.40   29.00
   6  -2 -10  192.58   33.30
  -6  -2  10  233.08   23.60
   6  -2 -10  233.48   24.80
   6   2 -10  276.37   35.90
  -6   2  10  200.28   21.70
   5  -2 -10  397.06   39.50
  -5  -2  10  399.06   35.80
   5   2 -10  363.36   34.10
  -5   2  10  379.46   35.30
   5   2 -10  417.76   44.10
   4  -2 -10  261.47   27.10
  -4  -2  10  250.17   24.10
   4   2 -10  278.27   32.70
  -4   2  10  203.38   24.20
   3  -2 -10    7.90    8.50
   3  -2 -10  -14.40    8.60
  -3  -2  10    8.50    6.70
   3   2 -10   15.10   11.10
   3   2 -10    9.20   13.70
  -3   2  10   13.10    6.40
  -2  -2  10  390.16   38.10
   2  -2 -10  450.35   41.30
  -2   2  10  377.66   39.00
   2   2 -10  394.76   42.70
   2   2 -10  500.65   41.00
  -1  -2  10  860.21   71.49
   1  -2 -10  850.01   73.69
  -1   2  10  894.41   71.69
   1   2 -10  875.41   73.09
  -1   2  10  655.63   70.39
   0  -2 -10  362.56   38.00
   0  -2  10  423.56   34.50
   0  -2 -10  351.06   32.10
   0   2 -10  356.16   34.50
   0   2  10  413.56   34.50
   0   2 -10  331.27   34.40
  -1  -2 -10    9.30   14.60
   1  -2  10   24.50   10.50
   1   2  10   28.00    8.80
  -1   2 -10   22.00    8.90
  -1   2 -10   17.30    8.30
  -2  -2 -10  369.66   39.70
   2  -2  10  295.47   31.10
  -2   2 -10  308.57   30.80
  -2   2 -10  287.57   30.80
   2   2  10  355.76   31.30
   3  -2  10  352.56   33.60
  -3   2 -10  315.07   32.90
  -3   2 -10  316.17   33.40
   3   2  10  393.16   34.00
   4  -2  10  267.37   27.00
   4   2  10  247.48   27.20
  -4   2 -10  202.38   26.80
  -4   2 -10  224.68   26.30
  -5  -2 -10   90.59   32.30
   5  -2  10   55.89   14.80
  -5   2 -10   28.00   12.70
  -5   2 -10   23.30   14.70
   5   2  10   39.20   14.60
   6  -2  10   -5.70   15.00
  -6  -2 -10   -1.30   13.80
  -6  -2 -10   10.70   27.20
  -6   2 -10   -7.90   13.10
   6   2  10   -9.90   15.50
   8  -3 -10   89.99   34.50
  -8  -3  10   82.39   15.50
   8   3 -10  114.79   32.60
   7  -3 -10  106.99   15.70
   7  -3 -10   86.39   29.90
  -7  -3  10   92.79   14.20
  -7   3  10   71.09   12.10
   7   3 -10  108.29   29.60
  -6  -3  10   35.70   10.20
   6  -3 -10   43.30   10.90
   6  -3 -10    7.30   19.30
  -6   3  10   32.80    8.40
   6   3 -10   27.90   23.30
  -5  -3  10   76.59   11.70
   5  -3 -10   60.39   14.50
   5   3 -10   75.49   22.80
   5   3 -10   81.79    9.40
   4  -3 -10  270.47   27.70
  -4  -3  10  263.27   25.50
  -4   3  10  244.28   24.80
   4   3 -10  343.77   36.10
   4   3 -10  235.18   23.80
   3  -3 -10  363.76   38.90
  -3  -3  10  380.66   37.10
  -3   3  10  487.45   37.50
   2  -3 -10  274.67   30.10
  -2  -3  10  308.17   27.80
  -2   3  10  341.07   27.90
   2   3 -10  259.57   27.90
   1  -3 -10   68.69   10.10
  -1  -3  10   61.69   10.50
   1  -3 -10   88.39   14.00
   1   3 -10   74.99   12.70
   1   3 -10   85.19   16.20
  -1   3  10   57.69   11.60
  -1   3  10   84.39    9.40
   0  -3  10  338.47   31.90
   0  -3 -10  346.07   35.20
   0  -3  10  337.67   31.70
   0   3 -10  358.36   31.40
   0   3 -10  271.67   36.50
   0   3  10  315.07   28.90
   0   3  10  338.57   32.00
   1  -3  10  604.04   47.90
   1  -3  10  527.65   47.40
  -1   3 -10  438.46   50.99
  -1   3 -10  512.05   47.50
   1   3  10  548.85   47.70
   2  -3  10  384.46   35.40
   2  -3  10  362.56   33.90
   2   3  10  355.86   34.00
  -2   3 -10  348.27   33.80
  -2   3 -10  313.97   34.30
   3  -3  10  117.89   17.60
   3  -3  10  100.89   14.50
  -3  -3 -10   70.19   23.10
   3   3  10   91.49   14.80
  -3   3 -10   66.89   18.30
  -3   3 -10   92.99   15.60
  -4  -3 -10   41.40   23.90
   4  -3  10   38.70   15.50
   4  -3  10   52.89   13.30
  -4   3 -10   57.49   14.10
  -4   3 -10   37.90   14.00
   4   3  10   50.39   13.90
   5  -3  10   55.29   15.00
  -5  -3 -10   33.40   26.40
  -5   3 -10   62.39   16.80
   5   3  10   52.49   15.90
  -5   3 -10   58.29   16.10
   7  -4 -10   67.49   16.40
   7  -4 -10   66.49   26.40
  -7  -4  10   60.89   13.60
   6  -4 -10  176.68   32.40
  -6  -4  10  212.48   25.50
   6  -4 -10  273.87   30.80
  -6   4  10  238.88   23.20
   6   4 -10  338.07   42.70
   5  -4 -10  271.27   29.90
  -5  -4  10  270.77   27.20
  -5   4  10  264.57   25.50
   4  -4 -10   13.50   16.80
  -4  -4  10   44.20    9.40
   4  -4 -10   55.49   12.70
   4   4 -10   45.70   20.90
  -4   4  10   42.10    8.50
   3  -4 -10   95.09   14.70
   3  -4 -10   83.29   16.20
  -3  -4  10  104.09   13.50
   3   4 -10   77.89   12.10
  -3   4  10   71.69   11.20
   3   4 -10  133.09   24.20
  -2  -4  10  257.27   22.00
   2  -4 -10  239.28   25.00
   2  -4 -10  193.18   23.00
  -2   4  10  195.18   24.70
   2   4 -10  239.28   29.10
  -2   4  10  176.28   21.50
   1  -4 -10  299.97   32.50
  -1  -4  10  331.77   30.10
  -1  -4  10  297.87   29.50
  -1   4  10  285.97   29.80
   1   4 -10  309.87   33.90
  -1   4  10  345.87   28.60
  -1   4  10  282.77   29.00
   1   4 -10  324.67   30.70
   0  -4  10  199.68   20.60
   0  -4  10  216.78   20.80
   0  -4 -10  200.48   25.20
   0   4 -10  174.28   26.40
   0   4 -10  230.88   21.20
   0   4  10  191.68   18.10
   0   4  10  184.68   20.30
   0   4  10  167.18   17.20
  -1  -4 -10   52.79   15.30
   1  -4  10   51.99   10.10
   1  -4  10   50.39   10.40
   1   4  10   31.20   10.00
  -1   4 -10   40.40   12.60
  -1   4 -10   43.90   10.60
   2  -4  10   51.09   11.60
  -2  -4 -10   28.20   17.60
   2  -4  10   46.30   11.20
  -2   4 -10   44.50   14.80
   2   4  10   54.39   11.50
  -2   4 -10   54.99   11.70
  -3  -4 -10   44.40   21.80
   3  -4  10   88.49   15.30
   3  -4  10   96.99   15.20
   3   4  10  117.09   16.00
  -3   4 -10  104.09   19.20
  -3   4 -10  137.39   19.10
   4  -4  10  103.89   16.90
   4  -4  10   94.79   18.10
  -4   4 -10  144.59   21.00
   4   4  10   95.29   17.00
  -4   4 -10   74.89   16.50
   5  -4  10    4.30   16.40
  -5   4 -10   17.00   16.80
  -7  -5  10   91.39   16.50
   7  -5 -10  143.69   23.40
   7   5 -10  100.39   35.70
   6  -5 -10   38.80   22.50
   6  -5 -10   29.90   18.00
  -6  -5  10   41.00   11.70
   6   5 -10   49.20   29.50
   5  -5 -10   45.80   14.70
  -5  -5  10   46.10   11.10
   5  -5 -10   34.30   23.20
  -5   5  10   40.30    8.50
   5   5 -10   74.69   28.20
  -4  -5  10  217.78   22.90
   4  -5 -10  157.88   27.90
   4  -5 -10  231.88   27.10
   4   5 -10  280.37   38.50
  -4   5  10  189.78   30.90
   4   5 -10  217.38   23.00
   3  -5 -10  170.78   27.30
   3  -5 -10  229.98   26.50
  -3  -5  10  214.88   22.60
  -3   5  10  177.28   29.40
   3   5 -10  257.17   39.20
   3   5 -10  244.18   22.80
  -2  -5  10  109.89   14.40
  -2  -5  10  121.79   15.10
   2  -5 -10   81.09   14.60
   2  -5 -10  103.19   16.10
  -2   5  10   85.39   16.20
   2   5 -10   84.59   20.30
   2   5 -10  103.59   15.70
  -2   5  10   90.09   11.70
  -1  -5  10   12.90    7.80
   1  -5 -10   18.00   11.60
  -1  -5  10   15.90    9.80
  -1   5  10   19.30    8.50
  -1   5  10   33.80   10.00
   1   5 -10   27.40   14.70
   1   5 -10   23.40    9.10
   0  -5  10  250.17   26.90
   0  -5  10  294.17   27.80
   0  -5 -10  253.47   31.20
   0   5  10  256.47   26.50
   0   5  10  257.87   25.50
   0   5 -10  311.07   27.90
   0   5 -10  245.98   31.80
   0   5  10  285.97   25.70
   1  -5  10  453.65   43.00
   1  -5  10  512.15   43.70
  -1  -5 -10  460.25   47.50
   1   5  10  427.86   42.70
  -1   5 -10  495.45   43.60
  -1   5 -10  423.06   47.80
   2  -5  10  345.57   33.40
  -2  -5 -10  278.07   38.80
   2  -5  10  320.17   32.30
  -2   5 -10  342.77   33.30
  -2   5 -10  294.77   37.30
   2   5  10  318.47   33.70
  -3  -5 -10   56.59   22.70
   3  -5  10   68.19   14.20
   3  -5  10  114.09   29.30
  -3   5 -10   85.19   19.70
  -3   5 -10   82.49   16.10
   3   5  10   66.79   14.60
   4  -5  10   -4.10   11.90
   4  -5  10    1.90   14.00
  -4  -5 -10   -4.90   12.30
  -4  -5 -10    3.90   23.30
   4   5  10  -20.40   13.00
  -4   5 -10   16.50   16.90
  -4   5 -10    8.80   15.50
   5  -5  10   20.80   14.40
  -5  -5 -10   21.30   15.00
  -5  -5 -10  -26.20   26.20
   5  -5  10   35.80   17.40
   5   5  10   27.80   15.90
  -5   5 -10   26.20   18.50
  -5   5 -10   30.20   20.40
   6  -6 -10   67.79   25.90
   6  -6 -10   91.89   19.50
  -6  -6  10  103.79   18.60
  -6   6  10   62.59   28.50
  -5  -6  10  178.98   20.50
   5  -6 -10  111.29   29.20
   5  -6 -10  199.08   27.40
   5   6 -10  170.68   34.90
  -5   6  10  103.99   27.30
  -4  -6  10   73.19   12.20
   4  -6 -10   59.89   16.40
   4  -6 -10   51.19   20.50
   4   6 -10   66.69   11.80
   4   6 -10   36.80   26.00
  -4   6  10   61.09   23.70
   3  -6 -10   11.70   14.90
  -3  -6  10   13.90    8.50
  -3  -6  10   -7.50    8.60
   3  -6 -10    1.30   13.20
   3   6 -10   -3.30    9.90
   3   6 -10    5.00   20.60
  -3   6  10    7.80    5.30
  -3   6  10   -0.30   17.00
  -2  -6  10  190.78   23.20
  -2  -6  10  253.37   24.20
   2  -6 -10  185.48   28.00
  -2   6  10  212.68   21.10
   2   6 -10  210.28   33.70
   2   6 -10  267.27   25.20
  -2   6  10  179.58   28.40
   1  -6 -10  552.14   55.39
  -1  -6  10  582.74   52.49
  -1  -6  10  702.33   53.79
  -1   6  10  566.04   53.89
  -1   6  10  548.25   53.69
   1   6 -10  538.35   58.39
   0  -6  10  393.16   33.80
   0  -6  10  326.97   33.50
   0  -6 -10  322.77   37.00
   0   6  10  324.67   31.50
   0   6 -10  280.37   38.40
   1  -6  10   72.89   13.90
  -1  -6 -10   57.29   18.10
   1  -6  10   56.89   12.20
   1   6  10   65.89   11.90
  -1   6 -10   66.49   20.80
  -2  -6 -10   23.90   19.50
   2  -6  10   61.39   14.90
   2  -6  10   48.60   14.10
   2   6  10   50.29   12.50
  -2   6 -10   44.60   17.40
  -3  -6 -10   85.49   25.50
   3  -6  10  139.49   23.10
   3  -6  10   78.49   17.80
  -3  -6 -10  112.89   16.70
   3   6  10   85.59   16.50
  -3   6 -10   91.79   20.40
  -3   6 -10  106.39   19.00
  -4  -6 -10   42.20   25.20
   4  -6  10   41.80   16.90
  -4  -6 -10   40.00   14.90
   4  -6  10   40.30   16.50
  -4   6 -10   20.30   17.90
  -4   6 -10   22.20   17.90
   4   6  10   16.50   14.60
  -5  -7  10   18.80   19.70
   5  -7 -10    7.80   20.50
   5  -7 -10   21.50   18.30
  -5   7  10   -7.30   22.70
  -4  -7  10   95.79   14.60
   4  -7 -10   74.69   20.10
  -4   7  10   85.69   23.00
   4   7 -10  114.49   31.00
  -3  -7  10  149.19   24.30
  -3  -7  10  133.09   19.80
   3  -7 -10  118.89   21.10
  -3   7  10  103.39   22.10
   3   7 -10  174.28   30.60
   2  -7 -10   50.99   16.60
  -2  -7  10   76.89   12.00
  -2  -7  10   86.79   14.00
  -2   7  10   56.39    8.10
   2   7 -10   61.69   22.90
  -2   7  10   37.90   18.10
  -1  -7  10   32.80   11.20
  -1  -7  10   27.60   10.10
   1  -7 -10   18.70   15.50
  -1   7  10   32.00    8.50
   1   7 -10   15.90   19.60
   0  -7 -10  147.99   26.80
   0  -7 -10  145.29   17.70
   0  -7  10  162.58   19.70
   0   7  10  165.28   18.00
   0   7  10  151.98   19.90
   0   7 -10  169.08   30.50
  -1  -7 -10  278.97   37.20
  -1  -7 -10  318.47   29.60
   1  -7  10  299.07   30.50
  -1   7 -10  286.57   38.40
   1   7  10  292.07   29.60
  -2  -7 -10  122.29   17.80
   2  -7  10  141.39   18.70
   2  -7  10  181.68   25.10
  -2  -7 -10  142.29   26.00
   2   7  10  136.79   18.40
  -2   7 -10  129.39   27.50
  -3  -7 -10   20.10   23.10
  -3  -7 -10   17.70   12.70
   3  -7  10   26.20   13.40
   3   7  10   20.90   13.30
  -3   7 -10   28.10   19.10
  -4  -8  10   15.60   14.20
   4   8 -10   -5.70   28.50
  -4   8  10   27.60   21.90
  -3  -8  10   46.30   12.40
  -3  -8  10   34.40   12.80
   3  -8 -10   53.59   18.90
  -3   8  10   29.60   19.40
   3   8 -10   44.90   15.00
   3   8 -10   37.10   31.90
  -2  -8  10  111.69   16.50
  -2  -8  10  165.28   22.90
   2  -8 -10  127.29   22.20
   2   8 -10  124.09   32.60
  -2   8  10  105.19   24.20
   1  -8 -10   95.39   13.20
   1  -8 -10   85.99   27.10
  -1  -8  10  103.39   15.20
   1   8 -10   81.99   25.10
  -1   8  10  107.99   14.00
  -1   8  10  145.69   24.60
   0  -8  10   88.79   15.60
   0  -8 -10   71.89   10.30
   0  -8  10   46.30   14.80
   0  -8 -10   48.60   19.10
   0   8  10   77.19   11.10
   0   8 -10   71.19   23.20
  -1  -8 -10   12.00   11.10
   1  -8  10   28.90   14.50
  -1  -8 -10    8.50   17.90
   1  -8  10   36.80   12.00
  -1   8 -10   16.80   20.00
   1   8  10    2.60   14.10
  -2  -8 -10   -6.20   13.20
   2  -8  10   21.50   12.50
   2  -8  10   -1.90   17.80
   2   8  10    6.20   14.40
  -2  -9  10   81.09   18.60
  -2  -9  10   56.99   16.10
   2  -9 -10   68.89   20.70
   2   9 -10   50.79   27.60
  -2   9  10   62.99   25.20
  -1  -9  10   43.40   17.50
  -1  -9  10   11.60   11.70
   1  -9 -10   16.90   18.20
   1   9 -10   14.80   23.70
   0  -9  10   37.20   12.10
   0  -9  10   46.30   15.70
   0  -9 -10   15.00   19.60
   0   9 -10    9.90   23.10
  -8   0  11   98.69   14.80
   8   0 -11  100.39   29.60
  -7   0  11   44.50   11.00
   7   0 -11   69.79   29.90
  -6   0  11   31.90    9.10
   6   0 -11   25.80    6.90
   6   0 -11  -10.80   20.20
   5   0 -11  354.56   32.50
   5   0 -11  318.17   40.10
  -5   0  11  338.87   33.00
   4   0 -11  576.34   59.69
  -4   0  11  562.44   53.09
   4   0 -11  640.14   54.29
   3   0 -11  585.84   51.99
   3   0 -11  567.84   50.69
  -3   0  11  464.75   47.50
   2   0 -11   56.99   16.20
  -2   0  11   71.19   10.50
   2   0 -11  100.29   16.50
  -1   0  11   -5.50    6.80
   1   0 -11   -0.70    9.00
   1   0 -11  -15.10   12.70
   0   0  11  121.29   17.50
   0   0 -11  157.18   17.10
   0   0 -11  165.88   24.40
   1   0  11  119.49   16.80
   1   0  11  130.99   13.70
  -1   0 -11  163.68   22.40
  -1   0 -11  101.49   13.30
  -2   0 -11   16.90    5.20
   2   0  11   18.00   10.00
  -2   0 -11   11.00    4.40
  -2   0 -11   18.70   13.50
  -3   0 -11    4.40    4.10
   3   0  11   -1.00   10.60
  -3   0 -11   -6.50   14.00
  -4   0 -11   26.80   16.80
   4   0  11   12.60   13.10
  -5   0 -11  115.89   22.50
   5   0  11   72.89   17.90
   8  -1 -11   -2.00   25.30
  -8  -1  11   34.70   14.00
   8   1 -11   15.20   26.80
  -8   1  11   10.10    9.80
  -7  -1  11  126.39   17.80
   7  -1 -11  120.39   28.20
  -7   1  11  121.49   17.60
   7   1 -11  122.99   28.90
   6  -1 -11  198.58   36.80
   6  -1 -11  278.67   27.80
  -6  -1  11  256.17   27.90
  -6   1  11  287.07   27.00
   6   1 -11  270.87   38.30
   5  -1 -11  188.78   37.00
  -5  -1  11  287.17   25.80
   5  -1 -11  267.97   27.00
   5   1 -11  243.18   25.50
  -5   1  11  253.67   25.80
   5   1 -11  275.67   36.20
   4  -1 -11  -21.10   13.60
   4  -1 -11   10.90   13.90
  -4  -1  11    0.60    7.40
   4   1 -11    1.90    9.10
  -4   1  11   20.70    8.60
   4   1 -11  -10.70   16.20
  -3  -1  11  121.99   14.20
   3  -1 -11   80.79   17.40
   3  -1 -11  115.89   17.70
   3   1 -11  116.39   20.20
  -3   1  11  102.89   13.80
   2  -1 -11  433.06   43.10
   2  -1 -11  462.45   43.40
  -2  -1  11  419.86   40.50
   2   1 -11  563.34   49.80
  -2   1  11  415.16   40.50
   1  -1 -11  472.45   46.40
  -1  -1  11  415.06   42.30
  -1   1  11  470.15   42.70
   1   1 -11  516.15   43.50
   0  -1 -11   84.99   14.80
   0  -1  11   71.29   11.40
   0  -1 -11  100.89   18.80
   0   1  11   74.69   10.10
   0   1 -11   66.09   11.00
   0   1  11   89.49   12.20
   0   1 -11   81.09   14.30
   1  -1  11   61.99   10.70
  -1   1 -11   32.90   11.40
   1   1  11   35.70   10.20
  -1   1 -11   30.30    7.70
   2  -1  11  148.39   20.20
  -2   1 -11  153.88   16.70
  -2   1 -11  151.68   20.90
   2   1  11  173.18   20.40
   3  -1  11  285.17   31.60
  -3  -1 -11  383.56   44.50
  -3   1 -11  262.57   30.10
   3   1  11  304.77   30.00
  -3   1 -11  249.97   26.40
   4  -1  11  142.09   20.60
  -4  -1 -11  214.38   32.50
   4   1  11  146.09   20.80
  -4   1 -11  156.48   18.30
  -4   1 -11  142.59   23.80
   5  -1  11  -12.30   14.30
  -5  -1 -11   18.40   22.80
  -5   1 -11   -8.30   15.60
   5   1  11   17.00   14.80
   8  -2 -11   33.50   27.80
  -8   2  11   70.69   13.00
   8   2 -11   43.40   29.90
  -7  -2  11   61.39   12.60
   7  -2 -11   65.19   12.60
   7  -2 -11   39.20   29.60
   7   2 -11   68.59   26.90
  -7   2  11   50.09   10.20
  -6  -2  11  -11.20    9.10
   6  -2 -11   -9.20   10.70
   6  -2 -11  -12.70   19.40
   6   2 -11    4.10   22.80
  -6   2  11   13.30    8.90
  -5  -2  11  195.58   22.30
   5  -2 -11  175.28   24.10
   5   2 -11  192.18   19.20
  -5   2  11  160.38   19.10
   5   2 -11  235.38   33.90
   4  -2 -11  654.03   60.79
  -4  -2  11  608.74   58.59
  -4   2  11  567.64   58.09
   4   2 -11  772.12   65.39
   4   2 -11  745.73   59.79
   3  -2 -11  670.23   64.39
  -3  -2  11  655.33   63.19
   3   2 -11  835.32   67.59
  -2  -2  11  114.49   16.40
   2  -2 -11  138.89   21.00
   2   2 -11  185.68   27.10
  -2   2  11  147.79   16.80
  -1  -2  11   76.89   10.80
   1  -2 -11   71.49   15.50
   1  -2 -11   48.90    9.70
  -1   2  11   66.99   11.00
   1   2 -11   77.09   12.60
   1   2 -11   78.29   14.50
   0  -2 -11  520.35   53.29
   0  -2 -11  504.95   46.40
   0   2 -11  551.54   49.40
   0   2  11  656.23   49.20
   0   2 -11  483.25   49.50
  -1   2 -11  335.27   33.70
  -1   2 -11  320.07   33.40
   1   2  11  419.56   34.40
  -2  -2 -11  177.38   26.50
   2  -2  11  129.89   16.30
  -2   2 -11  113.99   17.90
   2   2  11  118.39   16.30
  -2   2 -11   88.89   15.50
  -3  -2 -11   19.90   23.40
   3  -2  11   18.50   11.80
  -3   2 -11   16.90   11.40
   3   2  11    7.00   11.90
  -3   2 -11   11.10    9.50
   4  -2  11   58.79   17.10
  -4  -2 -11   83.59   26.70
  -4   2 -11   71.39   13.00
   4   2  11   48.50   15.30
  -4   2 -11   51.99   14.30
  -5  -2 -11  102.39   30.60
   5  -2  11   54.59   17.00
  -5   2 -11   71.29   14.60
  -5   2 -11   67.19   16.90
  -7  -3  11  107.89   14.30
   7  -3 -11   75.39   15.30
   7  -3 -11   46.20   25.90
   7   3 -11   79.59   37.00
  -7   3  11   61.19   10.50
   6  -3 -11  196.68   25.60
  -6  -3  11  161.98   21.50
   6   3 -11  229.08   38.60
  -6   3  11  170.98   18.80
  -5  -3  11  129.89   17.80
   5  -3 -11  163.08   23.60
   5   3 -11  147.89   28.10
  -5   3  11  117.39   16.80
   5   3 -11  152.08   20.40
   4  -3 -11  -19.60   19.80
  -4  -3  11    6.60   10.00
   4  -3 -11    7.40   13.50
   4   3 -11   27.70   19.10
  -4   3  11   15.10    7.20
   4   3 -11   34.40   11.40
  -3  -3  11  142.49   17.40
   3  -3 -11  163.68   21.40
   3   3 -11  172.68   27.10
  -3   3  11  133.29   17.00
   2  -3 -11  539.15   51.89
  -2  -3  11  519.85   49.50
   2   3 -11  503.05   50.09
  -2   3  11  578.94   49.70
   2   3 -11  647.74   53.99
  -1  -3  11  381.86   33.20
   1  -3 -11  350.36   36.20
   1  -3 -11  272.97   31.30
   1   3 -11  311.37   32.30
  -1   3  11  398.76   32.60
   1   3 -11  414.16   35.50
  -1   3  11  321.47   30.70
   0  -3 -11   61.79   16.50
   0  -3  11   54.39   10.80
   0   3  11   61.19   11.00
   0   3 -11   69.59   11.20
   0   3 -11   57.89   13.90
   1  -3  11   86.89   14.50
  -1  -3 -11   58.79   18.50
   1   3  11   81.19   13.00
  -1   3 -11   89.69   14.90
  -1   3 -11   70.19   14.60
  -2  -3 -11  183.48   28.20
  -2   3 -11  174.08   22.80
  -2   3 -11  173.88   21.70
   2   3  11  164.68   22.10
   3  -3  11  164.68   21.10
  -3  -3 -11  155.78   29.10
  -3   3 -11  143.19   20.80
   3   3  11  130.79   18.90
  -3   3 -11  124.89   21.70
  -4  -3 -11   51.69   27.80
   4  -3  11   62.29   14.50
  -4   3 -11   52.19   14.50
   4   3  11   29.10   14.50
  -4   3 -11   28.60   14.00
   5  -3  11   12.70   14.60
  -5  -3 -11  -36.90   27.90
  -5   3 -11    7.80   14.60
   5   3  11  -11.90   15.30
   7  -4 -11   63.69   16.50
   7  -4 -11  -24.10   25.30
   7   4 -11   22.40   30.90
   6  -4 -11    9.40   12.80
   6  -4 -11  -40.20   24.90
  -6  -4  11   12.00   10.40
   6   4 -11   26.60   27.20
  -6   4  11   11.90    8.90
  -5  -4  11  157.58   18.90
   5  -4 -11  131.49   22.40
  -5   4  11  133.49   18.60
  -4  -4  11  183.48   20.50
   4  -4 -11  172.88   24.60
  -4   4  11  168.78   19.90
   4   4 -11  240.08   39.50
  -3  -4  11   63.79   11.10
   3  -4 -11   53.39   16.20
   3   4 -11   77.19   13.00
   3   4 -11   84.99   20.50
   2  -4 -11   12.00   15.10
   2  -4 -11    4.80   11.50
  -2  -4  11   24.20    8.60
  -2   4  11    7.90    9.30
   2   4 -11   13.50   10.20
   2   4 -11   13.90   14.70
   1  -4 -11   89.89   16.10
  -1  -4  11   82.29   11.10
   1   4 -11   65.39   11.30
  -1   4  11   55.19   10.70
  -1   4  11   44.70   11.60
   1   4 -11   55.39   17.80
   0  -4 -11  224.48   29.60
   0  -4  11  248.48   23.40
   0  -4  11  234.18   24.60
   0   4  11  196.98   24.60
   0   4 -11  211.68   23.60
   0   4 -11  179.18   28.30
   1  -4  11  263.07   26.60
  -1  -4 -11  180.08   33.00
   1  -4  11  267.57   26.40
  -1   4 -11  246.58   28.60
  -1   4 -11  264.17   26.60
   1   4  11  248.08   26.50
   2  -4  11  201.48   21.30
   2  -4  11  173.68   21.70
   2   4  11  163.28   21.30
  -2   4 -11  144.19   21.40
  -2   4 -11  128.29   21.90
   3  -4  11   22.40   12.20
   3  -4  11   21.10   12.20
  -3   4 -11   21.10   14.60
   3   4  11    1.80   12.20
  -3   4 -11    5.50   14.10
  -4  -4 -11  -39.80   24.70
   4  -4  11   -6.60   13.60
   4  -4  11   -9.50   12.50
  -4   4 -11   23.30   16.00
  -4   4 -11   -8.00   14.30
   4   4  11  -19.00   13.90
   5  -4  11   50.59   17.30
  -5  -4 -11   39.10   16.10
   5  -4  11   40.30   15.70
  -5  -4 -11  -36.80   28.60
  -5   4 -11   50.59   18.40
   5   4  11   22.60   17.10
  -5   4 -11   30.20   17.80
   7  -5 -11   87.39   18.10
  -7  -5  11   82.59   15.30
   7  -5 -11   51.79   34.70
   7   5 -11   98.29   38.20
   6  -5 -11   89.89   35.30
  -6  -5  11  142.79   20.80
   6  -5 -11  221.58   27.10
   6   5 -11  176.18   39.00
  -5  -5  11   98.29   14.20
   5  -5 -11   39.10   20.50
   5  -5 -11  118.39   18.90
  -5   5  11   80.99   11.60
   5   5 -11  114.59   30.80
  -4  -5  11    4.30    9.30
   4  -5 -11   11.50   18.00
   4  -5 -11   14.00   13.50
   4   5 -11   12.20   35.90
  -4   5  11  -18.10   19.50
  -4   5  11  -12.60    7.00
   4   5 -11   17.60   11.80
   3  -5 -11   55.39   13.90
   3  -5 -11   73.99   15.80
  -3  -5  11   64.49   11.50
   3   5 -11   84.69   22.20
  -3   5  11   48.40   10.10
   3   5 -11   87.89   14.90
  -3   5  11   63.29   16.50
  -2  -5  11  222.18   23.20
   2  -5 -11  231.08   28.60
  -2  -5  11  249.88   24.10
   2  -5 -11  195.58   25.40
   2   5 -11  244.48   32.70
   2   5 -11  266.17   24.10
  -2   5  11  231.98   27.60
  -2   5  11  195.28   23.60
   1  -5 -11  283.57   33.90
  -1  -5  11  321.57   29.60
  -1  -5  11  276.87   29.80
   1   5 -11  342.47   30.20
  -1   5  11  277.87   30.00
   1   5 -11  275.37   35.30
  -1   5  11  309.67   29.10
   0  -5  11   99.19   15.80
   0  -5 -11   99.39   20.20
   0  -5  11  146.59   20.10
   0   5 -11  101.29   21.50
   0   5  11   99.89   12.10
   0   5 -11  125.89   17.60
   0   5  11  125.39   16.20
  -1  -5 -11   -8.90   16.90
   1  -5  11   -1.80   10.40
   1  -5  11   10.10   10.20
   1   5  11   -1.80   10.00
  -1   5 -11    0.70   16.00
  -1   5 -11    9.60   11.30
  -2  -5 -11   76.09   22.60
   2  -5  11   67.69   13.70
   2  -5  11   61.89   14.10
   2   5  11   63.69   13.90
  -2   5 -11   69.99   14.80
  -2   5 -11   48.50   18.10
   3  -5  11   73.19   15.80
  -3  -5 -11   38.70   25.50
   3  -5  11   71.19   14.90
  -3   5 -11   56.09   19.20
   3   5  11   70.09   15.60
  -3   5 -11   82.49   16.20
  -4  -5 -11   16.40   16.30
  -4  -5 -11  -38.20   25.70
   4  -5  11   24.60   17.20
  -4   5 -11   34.20   15.70
   4   5  11   21.40   17.80
   6  -6 -11    8.70   28.80
   6  -6 -11   14.10   17.40
  -6  -6  11   -9.40   11.70
  -6   6  11  -28.00   30.90
   6   6 -11   -6.20   33.40
   5  -6 -11   63.59   17.80
  -5  -6  11   50.89   12.40
   5  -6 -11   21.60   24.20
  -5   6  11    5.70   27.80
   5   6 -11   36.10   30.50
  -4  -6  11  126.09   16.20
   4  -6 -11   71.39   23.10
   4  -6 -11  147.19   21.30
   4   6 -11  111.59   17.30
   4   6 -11  193.58   32.30
  -4   6  11   91.89   26.20
  -3  -6  11  203.58   21.30
   3  -6 -11  193.08   29.00
  -3  -6  11  204.28   23.20
  -3   6  11  182.78   31.90
   3   6 -11  234.88   37.70
  -3   6  11  181.68   20.00
   3   6 -11  230.18   24.00
  -2  -6  11   36.30   10.70
  -2  -6  11   48.60   10.10
   2  -6 -11   42.00   15.70
  -2   6  11   14.90   15.30
  -2   6  11   35.10   11.00
   2   6 -11   31.10   20.40
   2   6 -11   32.70   11.20
   1  -6 -11   93.09   19.80
  -1  -6  11   96.09   14.90
  -1  -6  11  135.99   18.20
   1   6 -11  146.49   19.30
  -1   6  11  117.39   18.90
   1   6 -11  119.19   25.50
  -1   6  11   99.99   15.00
   0  -6  11  298.87   33.80
   0  -6  11  396.96   35.30
   0  -6 -11  349.67   39.90
   0   6 -11  293.07   39.80
   0   6  11  338.87   34.60
   0   6 -11  385.76   35.60
   1  -6  11  322.27   34.70
  -1  -6 -11  293.07   39.40
   1  -6  11  341.77   33.70
  -1   6 -11  286.57   37.40
  -1   6 -11  328.07   34.00
   1   6  11  303.17   32.00
  -2  -6 -11   37.70   22.50
   2  -6  11   44.40   14.90
   2  -6  11   72.79   13.80
   2   6  11   48.70   13.50
  -2   6 -11   16.60   16.90
  -2   6 -11   56.29   16.10
  -3  -6 -11    3.20   13.10
  -3  -6 -11  -54.39   28.50
   3  -6  11    2.40   12.90
  -3   6 -11  -10.10   16.50
   3   6  11   -9.00   13.40
  -3   6 -11   23.90   18.90
  -4  -6 -11   44.50   36.70
   4  -6  11   51.99   18.80
  -4  -6 -11   13.20   18.30
  -4   6 -11   51.89   19.50
  -4   6 -11   36.70   18.10
   4   6  11    9.30   16.50
   5  -7 -11   42.70   20.40
  -5  -7  11   48.90   13.60
   5  -7 -11   45.30   26.80
   5   7 -11   37.30   32.80
  -5   7  11   40.50   29.50
  -4  -7  11   -0.10   11.00
   4  -7 -11   -4.00   16.60
  -4   7  11  -23.10   22.70
   4   7 -11    4.20   33.20
  -3  -7  11   71.59   13.00
   3  -7 -11   47.80   18.10
  -3  -7  11   45.00   12.80
   3   7 -11   41.30   30.60
   3   7 -11   68.49   14.60
  -3   7  11   87.49   26.50
   2  -7 -11  167.88   30.30
  -2  -7  11  232.18   23.60
  -2  -7  11  163.68   25.40
   2   7 -11  194.98   32.10
  -2   7  11  154.88   29.60
   2   7 -11  235.28   24.50
  -1  -7  11  299.17   28.00
  -1  -7  11  225.08   26.40
   1  -7 -11  208.58   32.50
  -1   7  11  244.38   26.30
   1   7 -11  290.57   28.60
   1   7 -11  205.88   36.40
  -1   7  11  211.58   27.80
   0  -7  11   83.09   17.40
   0  -7  11   56.59   12.70
   0  -7 -11   57.29   19.20
   0   7  11   52.49   12.80
   0   7 -11   64.99   16.10
   0   7 -11   34.10   24.20
   1  -7  11   35.00   14.30
   1  -7  11   19.40   11.50
  -1  -7 -11   -1.60   10.10
  -1  -7 -11   10.30   19.60
  -1   7 -11   27.60   15.60
   1   7  11    3.60   10.80
  -1   7 -11   11.50   18.90
   2  -7  11   52.89   14.90
  -2  -7 -11   23.40   22.90
   2  -7  11   52.19   16.90
  -2  -7 -11   63.19   16.20
   2   7  11   16.90   15.90
  -2   7 -11   53.89   18.00
  -2   7 -11   43.80   20.00
  -3  -7 -11   32.60   15.00
   3  -7  11   44.60   17.80
   3  -7  11   80.49   18.90
   3   7  11   48.50   15.90
  -3   7 -11   61.99   20.20
  -3   7 -11   55.29   20.80
   4  -8 -11  108.39   23.40
  -4  -8  11   82.19   16.40
   4   8 -11  120.89   40.30
  -4   8  11   88.39   26.60
   3  -8 -11   30.40   19.60
  -3  -8  11   42.90   13.20
  -3  -8  11   40.20   13.90
   3   8 -11   54.89   27.90
   3   8 -11   41.00   16.40
  -3   8  11   59.79   23.80
  -2  -8  11   -5.60   11.40
  -2  -8  11   10.40   11.80
  -2   8  11   11.70   18.80
   2   8 -11   -5.20   13.40
   1  -8 -11   18.50    9.40
  -1  -8  11    2.10   11.40
  -1  -8  11   26.70   13.50
  -1   8  11   28.40    9.30
   1   8 -11   29.10   23.20
   0  -8  11   82.19   16.30
   0  -8  11   69.09   13.60
   0  -8 -11   47.00   16.30
   0   8  11   49.50   12.90
   0   8 -11   38.20   27.40
  -1  -8 -11   47.40   12.10
   1  -8  11   84.89   20.90
   1  -8  11   65.59   14.20
  -1  -8 -11   58.09   22.80
   1   8  11   51.59   13.20
   8   0 -12   48.40   35.00
  -7   0  12  182.48   23.70
   7   0 -12  183.18   33.60
   6   0 -12  202.88   36.80
   6   0 -12  203.08   22.30
  -6   0  12  228.78   23.10
   5   0 -12   69.19   12.60
   5   0 -12   59.89   22.50
  -5   0  12   43.40   12.10
   4   0 -12   53.09   20.70
   4   0 -12   39.70   22.90
  -4   0  12   29.80    9.10
   3   0 -12  189.88   28.00
   3   0 -12  120.09   18.40
  -3   0  12  110.09   15.90
   2   0 -12  124.69   21.70
   2   0 -12  106.29   18.00
  -2   0  12   72.89   12.00
   1   0 -12   13.60   15.20
  -1   0  12   23.60   10.20
   1   0 -12   30.90   10.80
   0   0  12   46.00    9.20
   0   0 -12   26.80   16.20
   0   0  12   19.80    9.80
   1   0  12   95.59   12.90
  -1   0 -12  114.69   18.80
  -1   0 -12   85.69   12.00
   1   0  12   76.29   13.90
  -2   0 -12  224.28   28.10
   2   0  12  159.48   23.60
  -3   0 -12  338.07   35.90
   3   0  12  256.57   32.40
   4   0  12   44.40   15.30
  -4   0 -12   54.09   19.20
  -5   0 -12  -28.90   24.00
   7  -1 -12    3.50   24.90
  -7  -1  12   21.10   11.00
  -7   1  12    9.90    9.50
   7   1 -12   18.30   27.00
  -6  -1  12   76.09   12.90
   6  -1 -12   63.39   24.90
   6  -1 -12   88.49   13.90
  -6   1  12   72.29   12.00
   6   1 -12  105.19   26.80
   5  -1 -12  289.77   28.80
   5  -1 -12  202.08   36.40
  -5  -1  12  294.67   27.80
   5   1 -12  288.67   27.90
   5   1 -12  346.37   39.60
  -5   1  12  237.68   26.80
   4  -1 -12  390.66   36.60
   4  -1 -12  312.57   39.20
  -4  -1  12  346.77   32.90
   4   1 -12  371.96   36.00
  -4   1  12  312.57   32.40
  -3  -1  12  201.58   20.50
   3  -1 -12  213.38   29.70
   3  -1 -12  167.58   24.50
   3   1 -12  228.78   27.90
   3   1 -12  192.08   27.50
  -3   1  12  154.28   20.00
   2  -1 -12    3.10   12.60
  -2  -1  12    4.10    7.80
   2  -1 -12   -8.40   13.00
   2   1 -12    7.60   14.10
  -2   1  12   -0.60    7.70
   2   1 -12   -5.70   14.70
   1  -1 -12  312.17   35.30
  -1  -1  12  239.08   28.30
   1  -1 -12  348.67   29.70
  -1   1  12  256.87   28.80
   1   1 -12  330.57   35.60
   1   1 -12  269.87   30.30
   0  -1 -12  356.16   32.10
   0  -1 -12  408.56   39.60
   0  -1  12  310.87   31.70
   0   1 -12  358.56   34.60
   0   1 -12  282.67   30.60
   0   1  12  292.77   29.70
   0   1  12  323.37   31.90
  -1  -1 -12  232.18   31.60
   1  -1  12  171.68   21.70
   1   1  12  178.18   21.90
  -1   1 -12  198.28   24.00
  -1   1 -12  155.98   18.80
   2  -1  12   28.70   12.10
  -2  -1 -12   39.50   19.70
  -2   1 -12   18.60   12.60
   2   1  12   13.60   11.70
  -2   1 -12   17.30    6.60
  -3  -1 -12   11.40   27.10
   3  -1  12  -15.50   14.80
   3   1  12  -27.20   11.80
  -3   1 -12    6.10    6.40
  -3   1 -12  -19.20   12.50
  -4  -1 -12   48.50   22.60
   4  -1  12   51.49   15.30
  -4   1 -12   37.40   15.90
   4   1  12   40.40   15.40
  -5  -1 -12   44.70   26.50
   5   1  12   30.70   16.80
  -7  -2  12  103.39   15.70
   7  -2 -12  112.49   19.10
   7  -2 -12   84.79   28.90
   7   2 -12  103.99   31.70
  -7   2  12  105.39   15.10
   6  -2 -12  230.88   26.10
  -6  -2  12  204.38   22.80
   6  -2 -12  122.39   30.40
   6   2 -12  298.07   46.20
  -6   2  12  188.58   21.00
   5  -2 -12   89.19   17.30
  -5  -2  12   93.29   13.90
  -5   2  12  104.79   14.00
   5   2 -12  151.68   27.30
   5   2 -12   94.29   16.30
  -4  -2  12   15.60    8.90
   4  -2 -12   31.40   13.50
   4  -2 -12  -26.70   14.00
   4   2 -12   10.80   12.60
  -4   2  12    1.70    9.50
   4   2 -12   16.70   19.50
  -3  -2  12  264.87   27.00
   3  -2 -12  243.48   30.50
   3   2 -12  340.77   37.20
   3   2 -12  322.47   39.10
  -3   2  12  242.18   26.40
   2  -2 -12  511.55   51.09
  -2  -2  12  489.85   47.50
   2   2 -12  608.34   52.29
  -2   2  12  508.85   47.70
   1  -2 -12  195.58   28.00
   1  -2 -12  184.08   20.90
  -1  -2  12  172.18   20.60
   1   2 -12  201.68   23.60
  -1   2  12  194.08   21.50
   1   2 -12  183.48   22.60
   0  -2  12   48.00   10.40
   0  -2 -12   30.00   18.00
   0  -2 -12   40.40    6.30
   0   2 -12   15.10   10.80
   0   2 -12   23.10   10.70
   0   2  12   36.50   10.90
   1  -2  12  332.37   29.70
   1   2  12  332.87   30.10
  -1   2 -12  261.17   29.30
  -1   2 -12  245.68   28.00
  -2   2 -12  330.47   30.90
  -2   2 -12  249.58   31.30
   2   2  12  348.47   32.60
   3  -2  12  166.18   20.50
  -3   2 -12   84.09   16.30
   3   2  12  129.09   18.30
   4  -2  12    0.60   13.50
  -4  -2 -12   23.00   25.20
  -4   2 -12    2.80   13.10
  -4   2 -12   14.70   10.20
   4   2  12   29.90   15.00
  -5  -2 -12   23.10   34.00
  -5   2 -12   23.00   15.90
   5   2  12  -23.20   16.00
  -7  -3  12   -5.20   12.50
   7  -3 -12  -26.20   24.60
   7  -3 -12   -6.30   13.30
  -7   3  12   24.50   14.10
   7   3 -12    5.50   33.30
   6  -3 -12    5.90   15.10
   6  -3 -12  -15.90   20.70
  -6  -3  12    8.00   10.70
  -6   3  12   34.60    9.90
   6   3 -12   55.79   33.40
  -5  -3  12  155.68   19.10
   5  -3 -12  147.59   25.30
  -5   3  12  115.79   18.00
  -4  -3  12  332.97   30.80
   4  -3 -12  311.77   33.70
  -4   3  12  294.07   29.60
  -3  -3  12  110.29   16.40
   3  -3 -12   96.59   17.90
   3   3 -12  133.09   21.10
  -3   3  12  123.59   16.00
   3   3 -12  160.68   26.20
   2  -3 -12   10.70   10.00
   2  -3 -12    8.70   13.50
  -2  -3  12    8.30    8.40
   2   3 -12   33.10   13.60
   2   3 -12   15.80   13.70
  -2   3  12   25.70   15.80
   1  -3 -12  242.48   31.10
  -1  -3  12  253.97   25.20
   1  -3 -12  239.28   23.40
   1   3 -12  274.27   33.30
  -1   3  12  239.88   25.60
   1   3 -12  223.28   27.10
   0  -3 -12  291.77   40.80
   0  -3  12  435.96   34.70
   0   3 -12  367.26   36.60
   0   3  12  356.86   34.60
   0   3 -12  314.37   35.40
  -1  -3 -12  146.59   26.60
   1  -3  12  202.98   20.30
   1   3  12  157.28   20.40
  -1   3 -12  127.09   19.00
  -1   3 -12  123.89   19.50
  -2  -3 -12   36.30   23.40
   2  -3  12   20.70   14.10
  -2   3 -12   21.60   11.90
   2   3  12    7.40   12.30
  -2   3 -12   28.20   11.50
  -3  -3 -12   -2.60   24.80
   3  -3  12   24.00   15.30
   3   3  12   -1.30   12.90
  -3   3 -12   -3.60   11.90
  -3   3 -12  -15.80   11.80
   4  -3  12   51.19   15.70
  -4  -3 -12   76.99   30.60
   4   3  12   58.49   16.60
  -4   3 -12   42.40   14.60
  -4   3 -12   44.80   15.00
  -5   3 -12   17.90   17.00
   7  -4 -12  121.99   22.10
   7   4 -12  166.08   38.70
  -6  -4  12   71.89   13.50
   6  -4 -12   70.89   16.30
  -6   4  12   45.60   11.30
   6   4 -12   55.39   31.30
   5  -4 -12    1.70   13.40
  -5  -4  12   -3.70    9.80
  -5   4  12    0.30    9.40
   5   4 -12    6.40   24.70
  -4  -4  12   32.90   10.50
   4  -4 -12   23.60   14.60
   4   4 -12   36.10   14.40
   4   4 -12   50.79   22.60
  -4   4  12   37.60   11.00
   3  -4 -12  152.58   21.70
  -3  -4  12  158.78   19.20
  -3   4  12  133.39   19.50
   3   4 -12  185.88   29.80
   3   4 -12  159.48   22.60
   2  -4 -12  191.18   24.40
   2  -4 -12  257.97   32.20
  -2  -4  12  257.87   23.50
  -2   4  12  155.38   24.00
   2   4 -12  172.28   24.60
   2   4 -12  245.18   30.10
  -2   4  12  245.68   27.40
  -1  -4  12  143.59   18.40
   1  -4 -12  147.39   26.00
   1   4 -12  131.29   18.70
   1   4 -12  123.29   23.20
  -1   4  12  161.88   17.40
  -1   4  12  139.89   18.20
   0  -4  12   71.39   11.70
   0  -4 -12   61.09   18.30
   0   4  12   36.00   11.30
   0   4 -12   47.70   12.00
   0   4 -12   43.90   15.70
   1  -4  12   31.50   11.40
  -1  -4 -12    6.40   19.20
   1  -4  12   42.70   11.20
   1   4  12   21.70   11.90
  -1   4 -12   48.60   17.20
  -1   4 -12   53.59   12.20
   2  -4  12   58.79   13.70
   2  -4  12   70.89   14.40
  -2   4 -12   78.09   14.70
  -2   4 -12   77.19   16.80
   2   4  12   73.49   15.20
  -3  -4 -12  -15.70   25.20
   3  -4  12   51.79   14.60
   3  -4  12   47.20   13.90
   3   4  12   38.60   15.60
  -3   4 -12   51.09   14.50
  -3   4 -12   50.19   15.80
   4  -4  12   -0.90   14.20
  -4  -4 -12  -21.40   30.20
  -4   4 -12   15.30   16.10
  -4   4 -12    9.50   17.80
  -6  -5  12   13.60   12.50
   6  -5 -12   54.19   17.30
   6  -5 -12  -19.10   26.60
   6   5 -12   61.19   38.10
  -5  -5  12  100.89   15.80
   5  -5 -12  112.19   20.50
   5   5 -12  147.79   38.30
  -4  -5  12  143.19   20.40
   4  -5 -12  146.59   27.00
   4   5 -12  153.18   31.40
   4   5 -12  197.48   23.00
  -3  -5  12   66.89   11.90
   3  -5 -12   36.70   16.10
   3  -5 -12   25.50   15.10
   3   5 -12   88.19   23.20
  -3   5  12   50.29   18.80
   3   5 -12   44.00   10.90
  -3   5  12   21.80   10.50
   2  -5 -12    5.70   11.50
  -2  -5  12   30.00   10.10
   2  -5 -12   29.10   15.30
   2   5 -12   12.50   17.60
  -2   5  12    4.70   12.80
  -2   5  12    4.70    8.60
   2   5 -12   28.20   12.30
  -1  -5  12  101.69   15.00
   1  -5 -12  104.09   20.80
  -1  -5  12   99.59   16.90
  -1   5  12   96.59   14.50
   1   5 -12  151.98   18.10
   1   5 -12  109.99   20.60
   0  -5 -12  186.48   31.50
   0  -5  12  152.08   23.20
   0  -5  12  220.28   24.40
   0   5 -12  233.78   24.70
   0   5  12  247.88   29.20
   0   5 -12  204.18   28.40
   1  -5  12  150.88   21.30
  -1  -5 -12  136.59   27.00
   1  -5  12  170.48   22.90
   1   5  12  159.08   21.80
  -1   5 -12  174.68   24.40
  -1   5 -12  171.48   25.40
  -2  -5 -12    3.20   22.50
   2  -5  12    8.30   12.10
   2  -5  12   21.50   12.90
  -2   5 -12    7.70   14.00
  -2   5 -12   23.40   13.70
   2   5  12   14.90   13.10
  -3  -5 -12  -56.09   30.50
   3  -5  12   21.60   15.10
   3  -5  12    5.30   13.50
   3   5  12  -26.00   13.50
  -3   5 -12    9.60   14.70
  -3   5 -12    2.80   17.00
   4  -5  12   32.50   17.50
   4  -5  12   25.60   15.60
  -4  -5 -12   35.70   16.60
  -4   5 -12   48.30   18.20
  -4   5 -12   24.30   19.90
   4   5  12   41.20   17.90
   5  -6 -12    6.20   23.90
   5  -6 -12    5.60   21.70
  -5   6  12   12.20   27.80
   4  -6 -12    6.00   16.80
   4  -6 -12   25.20   19.70
  -4  -6  12   18.30   11.20
   4   6 -12   16.00   27.10
   4   6 -12   -1.90   12.30
  -4   6  12   28.20   22.50
   3  -6 -12  221.08   32.30
  -3  -6  12  221.88   25.60
   3   6 -12  298.27   45.70
   3   6 -12  219.58   26.80
  -3   6  12  207.08   34.30
  -2  -6  12  374.56   37.90
   2  -6 -12  320.27   42.80
  -2  -6  12  458.85   38.90
   2   6 -12  375.86   46.70
  -2   6  12  403.26   41.70
   2   6 -12  431.76   39.60
  -2   6  12  343.07   37.00
  -1  -6  12  317.17   31.50
   1  -6 -12  244.18   35.50
  -1  -6  12  210.08   28.40
  -1   6  12  246.38   29.20
   1   6 -12  300.57   29.90
   1   6 -12  262.77   36.60
  -1   6  12  295.57   29.60
   0  -6 -12    1.90   17.70
   0  -6  12    8.40   13.40
   0  -6  12   24.30   14.90
   0   6 -12   12.60   17.10
   0   6 -12    8.60   13.10
   0   6  12    4.30   11.00
   1  -6  12   19.70   14.60
   1  -6  12   27.50   13.70
  -1  -6 -12   31.40   21.50
  -1   6 -12   37.70   14.80
  -1   6 -12   36.40   17.60
   1   6  12   11.80   12.70
  -2  -6 -12    4.30   25.50
   2  -6  12   62.49   16.10
   2  -6  12   81.89   14.80
  -2   6 -12   43.60   18.80
  -2   6 -12   37.30   16.50
   2   6  12   35.10   14.50
  -3  -6 -12   39.80   18.50
   3  -6  12   42.30   16.90
   3  -6  12   28.90   15.10
   3   6  12    7.70   19.50
  -3   6 -12   13.90   17.50
  -3   6 -12   29.00   18.00
   4  -7 -12  103.49   25.90
  -4   7  12   90.09   29.00
   4   7 -12  122.79   33.90
  -3  -7  12   54.09   11.60
   3  -7 -12   37.40   19.80
  -3  -7  12   66.09   13.80
   3   7 -12   59.79   27.50
  -3   7  12   65.09   22.20
   3   7 -12   74.69   13.60
   2  -7 -12   31.20   18.70
  -2  -7  12   11.90   11.60
  -2  -7  12    9.30   11.30
  -2   7  12    8.70    9.20
  -2   7  12   16.10   16.70
   2   7 -12  -13.10   21.30
   2   7 -12   12.60   15.70
  -1  -7  12   63.79   16.60
  -1  -7  12   86.19   17.70
   1  -7 -12   80.99   21.20
   1   7 -12   70.59   23.50
  -1   7  12   82.99   14.60
   1   7 -12  108.79   17.10
   0  -7 -12  119.39   25.00
   0  -7  12  148.99   23.00
   0  -7  12  104.29   17.00
   0   7  12  128.19   18.20
   0   7 -12   98.09   24.70
   0   7 -12  170.38   23.80
   1  -7  12   73.39   19.40
   1  -7  12   63.79   14.00
  -1   7 -12   60.09   21.30
  -1   7 -12   58.89   17.80
   1   7  12   36.40   13.80
   2  -7  12    9.80   16.00
  -2  -7 -12  -10.50   12.70
   2  -7  12   10.20   15.90
  -2  -7 -12  -36.50   24.10
   2   7  12   -5.00   13.80
  -2   7 -12   -5.80   19.10
  -2   7 -12   -1.90   17.40
  -3  -8  12   57.09   13.30
   3  -8 -12   54.09   21.90
  -3  -8  12   41.40   18.00
   3   8 -12  100.89   18.50
  -3   8  12   44.60   24.80
   3   8 -12   51.89   29.00
   2  -8 -12   96.49   23.50
  -2  -8  12  107.39   19.10
  -2  -8  12   78.49   16.10
   2   8 -12   91.29   28.90
   2   8 -12  129.19   21.20
   1  -8 -12   33.80   21.30
  -1  -8  12   33.20   13.10
  -1  -8  12   45.40   15.10
   1   8 -12   79.99   17.30
   1   8 -12   40.60   24.50
  -1   8  12   49.20   12.50
   0  -8 -12  -21.70   19.80
   0  -8  12    5.00   18.20
   0  -8 -12   -9.00    9.60
   0  -8  12   14.40   11.90
   0   8  12    0.70   10.50
   0   8 -12   15.00   22.30
   0   8 -12    9.10   20.30
  -7   0  13   10.10   10.90
   7   0 -13  -14.30   28.20
   6   0 -13  154.88   30.50
  -6   0  13  126.39   16.20
   6   0 -13  106.69   19.20
   5   0 -13  300.07   39.60
  -5   0  13  210.58   26.60
   5   0 -13  301.17   30.50
   4   0 -13  156.68   26.20
  -4   0  13  128.89   18.50
   4   0 -13  196.28   30.40
   3   0 -13   10.60   17.00
  -3   0  13   24.00    9.10
   3   0 -13   38.60   17.10
  -2   0  13   35.90    9.60
   2   0 -13   20.50   16.70
   1   0 -13  141.89   26.20
   1   0 -13  140.49   21.40
   0   0  13  148.99   19.70
   0   0 -13  147.19   23.60
   1   0  13  224.18   27.00
  -1   0 -13  225.88   22.70
  -1   0 -13  269.27   32.60
  -2   0 -13   28.30   17.40
   2   0  13   15.70   13.20
  -3   0 -13   38.90   18.00
   3   0  13   16.60   14.00
   4   0  13   30.80   16.00
  -4   0 -13   70.99   20.40
  -7  -1  13  141.89   19.90
   7  -1 -13   94.79   31.80
  -7   1  13  126.09   18.20
   6  -1 -13  104.49   15.90
  -6  -1  13   97.99   14.70
   6  -1 -13   91.89   28.40
   6   1 -13   74.29   28.70
  -6   1  13   80.69   15.10
   5  -1 -13    5.30   14.00
   5  -1 -13    7.30   25.90
  -5  -1  13    9.80    9.70
   5   1 -13    4.20   11.40
  -5   1  13   -8.20    9.00
   5   1 -13  -10.70   23.00
   4  -1 -13   61.19   14.70
  -4  -1  13   45.40   11.00
   4  -1 -13   44.70   20.20
   4   1 -13   41.30   16.60
   4   1 -13  102.69   26.10
  -4   1  13   44.70   10.40
   3  -1 -13  268.47   34.30
  -3  -1  13  257.57   26.20
   3   1 -13  298.07   35.10
  -3   1  13  225.28   25.70
   2  -1 -13  126.19   22.60
  -2  -1  13  115.59   17.90
  -2   1  13  145.49   18.30
   2   1 -13  176.58   25.60
   2   1 -13  200.88   27.00
   1  -1 -13   -1.70   11.20
   1  -1 -13   -4.10   21.20
  -1  -1  13    4.20    8.70
  -1   1  13   -4.80   11.40
   1   1 -13    3.50   18.60
   1   1 -13   -6.40   11.50
   0  -1  13   59.09   13.30
   0  -1 -13   91.19   12.70
   0  -1 -13   84.89   22.40
   0   1 -13   76.39   13.20
   0   1 -13   99.49   17.70
   0   1  13   80.29   14.10
  -1  -1 -13  237.68   33.60
   1  -1  13  152.98   22.70
  -1   1 -13  181.68   25.60
  -1   1 -13  165.18   19.30
   1   1  13  226.28   23.90
   2  -1  13  202.88   24.70
  -2   1 -13  199.58   26.20
  -2   1 -13  161.58   18.30
   2   1  13  209.88   25.00
   3  -1  13   68.29   16.10
  -3  -1 -13  106.19   24.10
   3   1  13   57.59   16.20
  -3   1 -13   60.59   16.90
   4  -1  13   -3.00   14.60
  -4  -1 -13    5.00   22.80
  -4   1 -13   20.30   19.70
   7  -2 -13  -12.10   32.20
  -7  -2  13   -9.20   11.50
  -7   2  13    8.00    9.60
   7   2 -13  -13.10   33.80
   6  -2 -13  105.69   17.80
  -6  -2  13   87.09   14.90
   6   2 -13  137.29   31.20
  -6   2  13   79.99   14.70
   5  -2 -13  231.58   28.60
  -5  -2  13  220.68   25.80
   5   2 -13  328.77   40.50
   5   2 -13  257.27   26.70
  -5   2  13  189.98   25.30
   4  -2 -13  173.08   32.60
   4  -2 -13  276.07   30.20
  -4  -2  13  250.47   25.90
  -4   2  13  232.08   24.80
   4   2 -13  302.87   38.30
  -3  -2  13   22.60    9.50
   3  -2 -13   -9.10   14.40
   3  -2 -13  -13.30   15.30
  -3   2  13    9.10    8.80
   3   2 -13    5.80   18.30
   3   2 -13   15.60   16.50
   2  -2 -13  120.29   17.90
   2  -2 -13  132.29   21.70
  -2  -2  13  108.69   15.60
   2   2 -13  138.59   21.80
   2   2 -13  145.39   23.70
  -2   2  13  127.09   22.00
   1  -2 -13  460.95   52.49
  -1  -2  13  415.16   46.00
  -1   2  13  545.95   46.80
   1   2 -13  522.35   48.40
   1   2 -13  562.44   48.60
   0  -2  13  317.97   31.40
   0  -2 -13  364.96   41.90
   0  -2 -13  293.67   27.30
   0   2 -13  274.37   33.60
   0   2 -13  321.57   34.20
   0   2  13  356.56   32.50
  -1  -2 -13  131.59   25.40
   1  -2  13   83.89   14.40
   1   2  13   74.09   15.00
  -1   2 -13   51.59   12.00
  -1   2 -13   70.49   14.20
  -2  -2 -13    2.50   23.00
   2  -2  13   -5.90   15.00
  -2   2 -13    2.30    9.80
  -2   2 -13    0.00   11.90
   2   2  13   -6.50   12.50
  -3  -2 -13   43.40   25.80
   3  -2  13   31.80   14.40
   3   2  13    8.40   14.20
  -3   2 -13   15.60   12.90
   4  -2  13   32.40   15.70
  -4  -2 -13   78.29   28.40
   4   2  13   15.80   20.30
  -7  -3  13   82.99   15.10
  -7   3  13   68.99   13.70
   7   3 -13   95.89   35.40
  -6  -3  13   66.19   13.80
   6  -3 -13   82.19   16.50
  -6   3  13   53.89   13.10
   6   3 -13  127.19   32.70
  -5  -3  13    9.80   10.60
   5  -3 -13    5.90   14.00
  -5   3  13   -4.10   10.30
   5   3 -13    7.30   25.20
   5   3 -13   -6.80   11.70
  -4  -3  13   74.09   13.80
   4  -3 -13  110.69   18.40
  -4   3  13   81.49   14.40
   4   3 -13  102.09   24.50
   3  -3 -13  278.37   35.20
  -3  -3  13  267.97   30.20
   3   3 -13  362.36   37.50
  -3   3  13  323.77   33.80
   2  -3 -13  190.58   25.50
  -2  -3  13  240.88   25.70
   2  -3 -13  202.48   35.70
  -2   3  13  256.07   27.60
   2   3 -13  302.87   28.70
   2   3 -13  281.27   30.60
   1  -3 -13   64.89   19.30
  -1  -3  13   64.79   12.10
   1  -3 -13   61.29   11.20
   1   3 -13   63.49   13.50
   1   3 -13   52.49   14.30
  -1   3  13   79.89   15.20
   0  -3 -13   -2.90   18.60
   0  -3  13   34.40   11.20
   0   3 -13   48.50   13.80
   0   3  13   32.60   11.90
   0   3 -13   19.60   11.00
  -1  -3 -13   79.49   24.60
   1  -3  13   86.09   14.40
   1   3  13   66.19   14.80
  -1   3 -13   72.29   14.30
  -1   3 -13   56.79   13.40
   2  -3  13  117.89   16.40
  -2  -3 -13  166.58   30.60
  -2   3 -13   64.59   14.80
   2   3  13   82.09   16.80
  -2   3 -13   82.59   15.40
  -3  -3 -13   14.90   28.60
   3  -3  13   19.40   14.10
  -3   3 -13   14.50   12.90
  -3   3 -13   18.80   15.60
   3   3  13    2.80   14.70
   4  -3  13    7.90   15.50
  -4   3 -13    0.20   13.00
   4   3  13  -18.00   15.90
  -4   3 -13   11.70   15.00
   6  -4 -13   66.39   20.90
  -6   4  13   59.09   12.60
   5  -4 -13   64.29   18.50
  -5  -4  13   90.99   14.60
   5   4 -13   98.99   29.90
  -5   4  13   98.79   14.60
   4  -4 -13   49.90   17.30
  -4  -4  13   58.49   12.50
   4   4 -13   72.09   24.80
  -4   4  13   73.19   14.00
   3  -4 -13   -9.20   18.60
  -3  -4  13   24.20   12.20
   3  -4 -13   -8.50   13.60
   3   4 -13   -2.10   16.60
   3   4 -13  -27.80   18.00
  -3   4  13    4.10    9.20
   2  -4 -13   23.20   16.90
   2  -4 -13   21.30    9.80
  -2  -4  13   29.30   10.70
   2   4 -13   38.50   13.90
   2   4 -13   38.50   17.20
  -2   4  13   35.60   19.10
  -2   4  13   20.80   10.70
   1  -4 -13   93.09   21.60
  -1  -4  13  105.39   14.80
  -1   4  13  124.99   15.80
   1   4 -13   94.49   18.40
   1   4 -13   99.19   17.40
  -1   4  13   87.69   16.90
   0  -4  13  112.69   15.40
   0  -4 -13  103.89   23.70
   0   4 -13  110.39   19.90
   0   4  13   92.19   16.10
   0   4 -13  111.69   18.50
  -1  -4 -13   19.90   22.00
   1  -4  13   69.69   13.70
  -1   4 -13   76.79   16.40
   1   4  13   47.40   13.80
  -1   4 -13   48.70   13.50
   2  -4  13  -15.00   12.20
  -2   4 -13    2.60   14.30
  -2   4 -13   -2.30   12.50
   2   4  13   -7.90   16.50
   3  -4  13   38.50   15.00
  -3  -4 -13   -2.80   29.20
  -3   4 -13   19.70   16.90
  -3   4 -13   40.00   16.30
   3   4  13   12.50   16.20
  -4  -4 -13   73.29   36.30
  -4   4 -13   21.30   17.00
  -6  -5  13   28.90   12.80
   6  -5 -13   28.50   18.40
   6  -5 -13  -39.60   27.80
   6   5 -13   18.70   34.30
  -5  -5  13    8.00   13.00
   5  -5 -13   -0.50   17.40
   5  -5 -13    2.40   20.20
   5   5 -13   13.90   29.20
  -5   5  13    9.30   17.10
  -4  -5  13   81.09   13.80
   4  -5 -13   86.79   20.30
   4  -5 -13   55.19   21.80
   4   5 -13   74.99   31.60
   4   5 -13   95.09   18.60
  -4   5  13   38.60   13.40
  -3  -5  13  203.18   23.80
   3  -5 -13  148.79   29.50
   3  -5 -13  265.47   38.70
  -3   5  13  212.68   31.90
   3   5 -13  203.48   24.20
   3   5 -13  256.67   36.10
  -3   5  13  144.89   23.50
   2  -5 -13  169.08   29.90
  -2  -5  13  180.88   21.70
  -2   5  13  210.68   24.30
  -2   5  13  122.99   19.20
   2   5 -13  215.08   30.90
   2   5 -13  159.18   23.90
   1  -5 -13   37.90   19.70
  -1  -5  13   59.69   12.90
   1   5 -13   65.69   13.90
  -1   5  13   69.29   12.80
   1   5 -13   72.09   21.50
   0  -5  13  -17.40   10.20
   0  -5 -13  -33.80   18.30
   0  -5  13    0.80   10.60
   0   5 -13    2.40   13.90
   0   5 -13    8.20   12.40
   1  -5  13   33.10   12.50
  -1  -5 -13   10.20   22.30
   1  -5  13   12.50   12.40
   1   5  13    7.00   13.40
  -1   5 -13    8.20   14.70
  -1   5 -13   22.20   13.50
   2  -5  13   46.80   14.00
  -2  -5 -13  -10.80   25.30
   2  -5  13   41.50   14.30
  -2   5 -13   33.00   14.80
   2   5  13   30.60   17.70
  -2   5 -13   20.30   15.10
   3  -5  13   25.60   15.30
   3  -5  13   28.30   15.90
  -3   5 -13   -1.40   15.10
  -3   5 -13   20.70   16.10
  -5  -6  13  116.59   17.70
   5  -6 -13  143.69   24.80
   5   6 -13   99.09   35.20
  -5   6  13   73.49   32.70
   4  -6 -13   33.80   35.80
   4  -6 -13  128.39   26.30
  -4   6  13   60.89   26.50
   3  -6 -13   25.40   19.40
  -3  -6  13   27.60   12.10
   3   6 -13    8.10   23.50
  -3   6  13   -2.70   19.20
  -3   6  13   11.80   10.80
   3   6 -13   12.40   11.20
   2  -6 -13   44.40   20.20
  -2  -6  13   31.00   12.50
  -2   6  13   26.40   12.40
   2   6 -13   31.10   13.00
   2   6 -13   40.20   22.30
   1  -6 -13  191.28   33.00
  -1  -6  13  180.88   23.00
  -1  -6  13  174.08   23.60
   1   6 -13  197.28   32.20
  -1   6  13  146.99   26.90
   1   6 -13  187.08   24.40
   0  -6  13   94.89   16.10
   0  -6 -13   79.99   24.50
   0  -6  13  107.49   17.10
   0   6 -13  130.89   21.30
   0   6 -13   99.49   21.70
   0   6  13  116.89   16.90
   1  -6  13   25.70   12.60
  -1  -6 -13  -20.70   23.30
   1  -6  13    1.70   14.00
  -1   6 -13   18.70   15.10
  -1   6 -13    1.10   21.00
   1   6  13   11.80   16.60
   2  -6  13   -9.10   15.70
   2  -6  13   13.70   16.60
  -2  -6 -13  -35.40   26.70
   2   6  13  -22.40   14.50
  -2   6 -13  -17.40   20.30
  -2   6 -13   16.40   16.70
   4  -7 -13   58.19   21.90
  -4  -7  13   53.49   14.40
  -4   7  13   12.80   22.10
   4   7 -13   37.10   31.40
   3  -7 -13  121.39   25.70
  -3   7  13  115.59   26.00
   3   7 -13  149.09   23.80
  -2  -7  13  109.39   16.90
  -2  -7  13  101.49   18.50
   2   7 -13  116.19   28.40
   2   7 -13  135.99   20.70
  -2   7  13   82.99   15.40
   1  -7 -13   10.00   24.10
  -1  -7  13   11.00   12.80
  -1  -7  13   26.40   13.60
   1   7 -13   34.30   15.60
  -1   7  13   17.00   13.70
   1   7 -13   26.30   26.20
   0  -7  13   14.40   14.60
   0  -7  13    3.20   14.50
   0  -7 -13   26.90   23.20
   0   7 -13    3.20   20.00
   0   7 -13   16.20   15.90
   0   7  13    0.80   15.00
   1  -7  13   60.49   15.00
  -1  -7 -13   22.40   26.20
   1   7  13   67.19   16.00
  -1   7 -13   29.90   20.80
  -7   0  14   53.19   13.40
   6   0 -14   30.10   13.00
   6   0 -14   17.40   33.30
  -6   0  14   25.60   11.50
   5   0 -14  -20.70   29.10
  -5   0  14    8.20   10.50
   5   0 -14    7.30   15.00
  -4   0  14   62.59   12.70
   4   0 -14   92.79   18.40
   4   0 -14  108.69   42.60
   3   0 -14  203.58   31.10
   3   0 -14  131.59   25.80
  -3   0  14  122.49   18.30
   2   0 -14   49.10   17.80
  -2   0  14   20.00   10.30
   2   0 -14   40.60   19.90
   1   0 -14   24.20   12.40
   1   0 -14   27.30   19.70
  -1   0  14   19.20   11.40
   0   0 -14   32.50   11.40
   0   0 -14   51.29   20.20
   0   0  14   28.30   12.40
  -1   0 -14  239.38   33.10
   1   0  14  220.58   27.20
  -1   0 -14  213.28   21.50
   2   0  14   99.89   19.00
  -2   0 -14  166.18   27.80
   3   0  14   26.30   18.10
  -3   0 -14   -3.50   18.50
  -4   0 -14   -4.90   20.20
   4   0  14   13.50   16.30
  -7  -1  14   18.30   15.30
   7   1 -14   32.20   32.00
  -7   1  14   41.20   14.40
   6  -1 -14  113.59   31.20
   6  -1 -14  112.99   18.60
  -6  -1  14  102.79   18.30
  -6   1  14   91.69   15.20
   6   1 -14  146.19   32.60
  -5  -1  14  135.89   18.10
   5  -1 -14  156.28   23.00
   5  -1 -14  154.98   29.70
   5   1 -14  152.58   21.50
   5   1 -14  195.18   36.00
  -5   1  14  118.49   18.80
  -4  -1  14   59.59   11.50
   4  -1 -14   19.10   15.70
   4  -1 -14   49.40   25.50
   4   1 -14   35.70   21.60
  -4   1  14    4.50    9.80
   4   1 -14   31.00   20.50
   3  -1 -14   24.80   20.60
   3  -1 -14   45.10   17.50
  -3  -1  14   13.40   12.50
   3   1 -14   28.90   17.80
  -3   1  14   49.00   10.70
   3   1 -14   40.40   24.00
   2  -1 -14  239.78   30.20
   2  -1 -14  205.48   33.40
  -2  -1  14  155.78   24.00
  -2   1  14  209.88   24.50
   2   1 -14  268.07   33.40
   2   1 -14  297.27   30.80
   1  -1 -14  383.86   34.80
   1  -1 -14  332.77   44.20
  -1   1  14  329.67   36.80
   0  -1 -14  260.67   23.30
   0  -1 -14  271.47   37.60
   0  -1  14  218.28   27.00
   0   1  14  218.38   27.50
   0   1 -14  228.78   31.60
   0   1 -14  227.58   26.10
   1  -1  14   34.40   13.20
  -1  -1 -14   20.40   21.80
   1   1  14   29.70   13.90
  -1   1 -14   30.50    8.80
  -1   1 -14   29.30   16.10
   2  -1  14   24.70   13.90
  -2  -1 -14   -3.00   21.00
  -2   1 -14    6.90   15.20
   2   1  14   -3.40   13.60
   3  -1  14   25.70   16.10
  -3  -1 -14   58.29   23.70
  -3   1 -14   53.99   18.30
   3   1  14   27.60   16.10
   4  -1  14   10.30   16.60
  -4  -1 -14   41.90   24.30
   4   1  14   29.70   17.70
  -4   1 -14   29.60   18.80
  -7   2  14   86.39   20.90
   7   2 -14  102.89   42.90
   6  -2 -14   40.50   14.10
  -6  -2  14   24.50   12.60
   6  -2 -14    0.10   27.30
  -6   2  14   17.00   12.50
   6   2 -14   36.00   30.20
   5  -2 -14   40.60   15.50
   5  -2 -14   14.80   23.00
  -5  -2  14   31.10   11.70
   5   2 -14   28.60   25.80
  -5   2  14    8.10   12.00
   4  -2 -14  155.38   24.20
   4  -2 -14  194.38   34.60
  -4  -2  14  177.48   21.60
  -4   2  14  154.78   20.00
   3  -2 -14  300.97   40.00
   3  -2 -14  293.87   35.50
  -3  -2  14  267.87   29.00
  -3   2  14  269.27   30.00
   2  -2 -14   70.89   21.10
   2  -2 -14   66.29   14.60
  -2  -2  14   55.59   12.70
   2   2 -14   75.59   16.80
  -2   2  14   63.19   15.60
   2   2 -14   99.39   19.40
  -1  -2  14   18.30   10.90
   1  -2 -14    1.70   25.00
   1   2 -14   27.50   14.10
  -1   2  14   13.50   14.10
   1   2 -14   51.59   16.00
   0  -2  14  101.49   17.30
   0  -2 -14  183.88   28.80
   0   2 -14  107.09   19.50
   0   2  14  147.99   20.80
   0   2 -14  142.49   22.90
   1  -2  14  163.88   21.60
   1   2  14  143.59   19.80
  -1   2 -14  108.09   21.50
  -1   2 -14  139.19   22.80
   2  -2  14   81.09   16.20
  -2  -2 -14   95.69   27.00
  -2   2 -14   63.09   15.60
   2   2  14   62.19   16.40
  -3  -2 -14    7.60   25.70
   3  -2  14    2.40   14.60
  -3   2 -14   -2.10   16.70
   3   2  14  -26.70   16.30
  -4  -2 -14   -2.30   27.70
  -4   2 -14   11.60   16.40
   6  -3 -14   78.89   20.80
   6  -3 -14   19.70   27.60
  -6   3  14   74.89   14.30
   6   3 -14  141.79   41.50
  -5  -3  14  113.09   16.30
   5  -3 -14   61.39   25.10
   5  -3 -14  128.29   21.20
   5   3 -14  139.89   30.00
  -5   3  14   87.59   17.00
  -4  -3  14   36.10   11.60
   4  -3 -14   27.70   17.20
   4  -3 -14   -7.50   16.60
   4   3 -14   59.19   17.10
   4   3 -14   40.40   22.60
  -4   3  14   41.80   11.00
   3  -3 -14   -8.60   15.20
  -3  -3  14    0.50   10.30
   3  -3 -14    0.80   17.50
   3   3 -14   16.70   17.60
   3   3 -14    8.50   19.60
  -3   3  14    5.70   12.90
   2  -3 -14  104.79   19.40
  -2  -3  14   95.79   16.40
   2  -3 -14  141.79   24.30
   2   3 -14  133.89   25.40
  -2   3  14  152.38   19.30
   2   3 -14  186.48   27.20
   1  -3 -14  144.99   27.30
  -1  -3  14  142.39   21.20
   1  -3 -14  154.28   17.70
   1   3 -14  192.58   24.40
  -1   3  14  193.98   22.70
   1   3 -14  194.68   26.30
   0  -3  14  117.29   16.20
   0  -3 -14  138.99   27.70
   0   3 -14  110.59   20.50
   0   3  14  110.09   17.60
   0   3 -14   91.49   16.80
  -1  -3 -14   10.90   24.30
   1  -3  14   13.90   12.20
  -1   3 -14    2.70   12.00
  -1   3 -14    7.70   11.90
   1   3  14    6.40   13.20
  -2  -3 -14   25.90   28.60
   2  -3  14    3.90   13.10
  -2   3 -14   10.30   12.70
   2   3  14   44.10   18.30
  -2   3 -14    4.30   11.50
   3  -3  14   24.60   16.20
  -3   3 -14   24.50   12.50
  -3   3 -14   28.10   16.50
   6  -4 -14    2.20   17.00
   6  -4 -14   -2.40   29.50
  -6  -4  14   22.50   15.70
  -6   4  14    0.20   12.20
   6   4 -14  -22.10   31.20
   5  -4 -14   21.10   18.70
   5  -4 -14   24.90   25.50
  -5  -4  14   50.99   13.00
  -5   4  14   20.90   10.60
   5   4 -14   32.60   27.90
   4  -4 -14   87.49   21.50
  -4  -4  14   85.69   15.50
   4  -4 -14   83.89   26.90
   4   4 -14  109.49   31.40
   4   4 -14  147.19   22.80
  -4   4  14   94.69   16.50
  -3  -4  14  157.08   20.80
   3  -4 -14  147.69   25.60
   3  -4 -14  115.29   21.60
   3   4 -14  198.38   24.80
   3   4 -14  171.58   30.60
  -3   4  14  146.59   20.20
   2  -4 -14   73.99   22.00
  -2  -4  14   77.99   14.40
   2  -4 -14   84.19   14.40
   2   4 -14  113.69   23.20
  -2   4  14  102.49   17.00
  -2   4  14   81.89   15.00
  -1  -4  14   24.50   11.30
   1  -4 -14    3.60   19.90
  -1   4  14   10.30   12.20
   1   4 -14   41.50   15.10
   1   4 -14   21.90   14.00
   0  -4 -14   -0.50   21.90
   0  -4  14   31.90   14.20
   0   4  14   23.80   13.10
   0   4 -14   13.90   12.70
   0   4 -14   11.10   12.00
   1  -4  14   28.70   12.60
  -1  -4 -14    5.50   25.30
  -1   4 -14   22.10   13.00
   1   4  14   13.00   13.80
  -1   4 -14   23.30   26.20
  -2  -4 -14   10.70   29.70
   2  -4  14   34.90   14.30
   2   4  14   13.00   16.20
  -2   4 -14   28.90   15.40
  -2   4 -14   15.80   13.70
   3  -4  14   -6.30   16.90
  -3  -4 -14    9.40   34.00
  -3   4 -14    5.30   15.20
  -3   4 -14   -2.70   14.90
   3   4  14  -13.20   16.30
   5  -5 -14   98.29   22.40
   5  -5 -14   36.50   23.20
  -5  -5  14  102.19   16.10
   4  -5 -14   33.60   21.60
  -4  -5  14   69.29   14.60
   4  -5 -14   65.69   21.90
  -4   5  14   15.40   24.90
   4   5 -14   82.49   21.00
  -4   5  14   34.30   14.60
   4   5 -14   68.89   27.70
   3  -5 -14  -33.00   18.50
  -3  -5  14   -2.20   11.80
   3  -5 -14   -7.50   14.80
  -3   5  14  -27.50   17.70
   3   5 -14    6.00   15.80
   3   5 -14    6.10   22.10
  -3   5  14  -10.30   13.20
  -2  -5  14   27.30   12.50
   2  -5 -14   38.00   20.70
   2   5 -14   83.69   24.90
   2   5 -14   28.50   12.80
  -2   5  14   28.00   12.70
  -1  -5  14   79.99   14.60
   1  -5 -14   84.09   24.40
   1   5 -14   72.69   15.40
   1   5 -14  113.59   20.70
  -1   5  14   70.89   14.70
   0  -5 -14   30.10   23.00
   0  -5  14   41.00   12.50
   0   5 -14   34.90   13.90
   0   5  14   26.60   14.00
   0   5 -14   31.30   19.00
   1  -5  14    7.00   12.70
  -1  -5 -14  -15.20   25.40
   1   5  14  -42.30   17.30
  -1   5 -14    3.60   13.70
  -1   5 -14   -9.20   14.00
   2  -5  14   36.60   14.80
  -2   5 -14   14.00   15.40
   2   5  14    1.60   16.20
  -2   5 -14   19.60   15.30
   4  -6 -14   51.29   23.70
  -4  -6  14   98.69   16.70
  -4   6  14  128.89   29.80
   4   6 -14  142.09   37.20
   3  -6 -14  152.38   28.30
   3   6 -14  125.39   22.10
  -3   6  14  186.28   31.20
   3   6 -14  177.98   31.70
   2  -6 -14   55.39   22.90
  -2  -6  14   63.89   14.70
  -2   6  14   49.50   13.40
   2   6 -14   74.49   24.30
   2   6 -14   73.49   15.20
  -1  -6  14   -5.30   11.90
   1   6 -14   -4.20   13.60
  -1   6  14   -6.30   12.40
   1   6 -14    2.10   23.20
   0  -6  14   43.40   14.30
   0  -6  14   36.50   13.30
   0  -6 -14   44.50   29.60
   0   6  14  -12.20   18.10
   0   6 -14   44.20   15.30
   0   6 -14   16.10   22.30
  -1  -6 -14   20.60   27.10
   1  -6  14   60.89   14.70
  -1   6 -14   41.70   22.00
   1   6  14   20.30   15.90
   2  -7 -14   21.20   24.00
  -2  -7  14   27.70   13.50
  -2   7  14   11.30   14.20
   2   7 -14   54.39   15.40
   2   7 -14   21.80   24.60
  -1  -7  14   39.10   14.80
   1  -7 -14   20.70   24.10
   1   7 -14   32.40   16.10
  -1   7  14   22.40   13.70
   6   0 -15  107.69   32.00
  -6   0  15   44.30   15.90
   5   0 -15   44.80   19.60
  -5   0  15   65.39   13.30
   5   0 -15   79.19   27.40
  -4   0  15   13.60   10.60
   4   0 -15  -23.40   21.20
   4   0 -15   -8.20   29.20
   3   0 -15  -20.90   19.10
   3   0 -15    3.40   21.30
  -3   0  15   11.20   10.30
   2   0 -15  175.98   28.00
   2   0 -15  180.18   29.00
   1   0 -15  367.26   33.90
  -1   0  15  230.18   31.60
   1   0 -15  303.77   41.30
   0   0 -15  168.98   27.10
   0   0  15  116.79   19.70
   0   0 -15  168.58   20.00
  -1   0 -15   -4.80   19.40
   1   0  15   15.30   13.70
   2   0  15   17.30   14.80
  -2   0 -15    4.10   18.90
  -3   0 -15   56.29   21.20
   3   0  15   10.40   16.70
  -6  -1  15    0.60   12.20
   6  -1 -15   -9.30   35.00
   6  -1 -15   15.30   14.00
  -6   1  15   11.90   11.30
   6   1 -15   -2.20   35.80
   5  -1 -15   53.19   20.60
   5  -1 -15   80.69   27.00
  -5  -1  15   37.60   13.20
  -5   1  15   48.50   14.60
   5   1 -15   57.09   19.80
   5   1 -15   73.59   27.40
   4  -1 -15  134.89   23.20
  -4  -1  15   97.09   15.80
   4   1 -15  106.09   25.30
  -4   1  15   93.69   16.80
  -3  -1  15   56.09   13.30
   3  -1 -15   59.59   21.70
   3   1 -15  114.39   23.80
  -3   1  15   61.59   13.00
  -2  -1  15   13.40   11.80
   2  -1 -15   19.80   22.00
   2  -1 -15   31.40   25.10
   2   1 -15   12.30   17.30
   2   1 -15   30.70   20.70
  -2   1  15   19.00   11.70
  -1  -1  15   24.30   11.80
   1  -1 -15   12.90   23.60
   1  -1 -15    9.30   11.60
  -1   1  15   34.20   12.70
   1   1 -15   23.60   14.10
   1   1 -15   42.70   24.40
   0  -1 -15  138.19   28.10
   0  -1  15  137.69   18.80
   0   1  15  120.69   19.10
   0   1 -15  122.79   18.10
   0   1 -15  148.49   23.50
   1  -1  15  104.49   18.50
  -1  -1 -15  180.08   28.00
   1   1  15   95.79   19.30
  -1   1 -15  131.49   20.90
  -1   1 -15  126.99   22.00
   2  -1  15   13.00   14.40
  -2  -1 -15   47.30   22.70
   2   1  15   34.00   15.50
  -2   1 -15   26.00   17.00
   3  -1  15  -10.40   15.10
  -3  -1 -15  -12.60   22.40
   3   1  15  -20.50   19.10
  -3   1 -15    5.60   17.60
   6  -2 -15   92.59   39.00
   6  -2 -15  112.39   23.60
   6   2 -15  193.78   44.10
  -6   2  15  104.99   17.90
   5  -2 -15  103.49   32.60
  -5  -2  15   79.79   17.50
   5  -2 -15   96.49   20.60
   5   2 -15  121.49   29.10
  -5   2  15   41.10   15.20
   5   2 -15   85.29   21.30
   4  -2 -15   -5.30   22.50
  -4  -2  15    2.30   11.60
   4  -2 -15   -9.00   19.20
   4   2 -15  -10.70   17.10
   4   2 -15   20.10   21.60
  -4   2  15  -14.80   12.50
  -3  -2  15   96.89   16.30
   3  -2 -15  110.39   22.50
   3  -2 -15  125.79   24.90
  -3   2  15  104.59   16.30
   3   2 -15  178.38   28.80
   2  -2 -15  189.58   32.50
   2  -2 -15  257.37   27.20
  -2  -2  15  177.08   25.70
  -2   2  15  254.77   28.70
   2   2 -15  252.27   29.10
  -1  -2  15  113.29   17.80
   1  -2 -15  167.78   29.80
   1   2 -15  113.29   20.40
   1   2 -15  169.78   26.80
  -1   2  15  134.79   18.70
   0  -2  15   24.10   12.80
   0  -2 -15   31.50   26.00
   0   2 -15   22.90   12.20
   0   2  15   32.70   14.30
   0   2 -15   38.10   16.30
  -1  -2 -15  -17.20   24.40
   1  -2  15   -4.10   12.70
  -1   2 -15   17.30   15.00
  -1   2 -15   -1.60   11.30
   1   2  15  -10.30   13.90
  -2  -2 -15    5.10   28.80
   2  -2  15   10.60   14.10
  -2   2 -15   -1.50   14.80
   2   2  15    6.40   15.80
  -3  -2 -15   48.50   28.20
   3  -2  15   15.50   16.10
   3   2  15   25.40   21.00
  -3   2 -15    2.60   16.10
   6  -3 -15  -23.30   33.10
  -6  -3  15   -5.00   13.30
   6  -3 -15   -4.00   20.80
  -6   3  15   12.70   12.90
   6   3 -15    7.80   39.30
  -5  -3  15   52.49   15.90
   5  -3 -15   36.10   23.80
   5  -3 -15   67.19   21.20
   5   3 -15   84.69   28.80
  -5   3  15   38.20   12.20
   4  -3 -15   93.19   25.80
  -4  -3  15  119.09   17.60
   4  -3 -15  135.19   24.90
  -4   3  15   98.49   16.60
   4   3 -15  164.88   27.80
  -3  -3  15   79.49   16.00
   3  -3 -15   98.49   24.70
   3  -3 -15   89.79   20.20
   3   3 -15  126.79   23.00
  -3   3  15  119.19   18.20
   3   3 -15  172.48   26.90
   2  -3 -15   24.00   30.90
   2  -3 -15   23.40   11.60
  -2  -3  15   15.70   11.30
  -2   3  15   14.70   12.40
   2   3 -15   34.90   16.80
   2   3 -15   43.90   22.00
   1  -3 -15  -13.50   22.60
  -1  -3  15   21.20   14.80
   1   3 -15    4.50   14.50
   1   3 -15   15.40   13.10
  -1   3  15    9.00   16.30
   0  -3  15   82.39   14.30
   0  -3 -15   13.00   26.60
   0   3 -15   37.90   15.10
   0   3 -15   58.09   15.30
   0   3  15   45.50   15.40
   1  -3  15   62.59   14.80
  -1  -3 -15   37.30   29.00
  -1   3 -15   28.90   13.00
  -1   3 -15   45.60   14.50
   1   3  15   28.10   15.40
   2  -3  15   27.70   15.10
  -2   3 -15   -4.90   11.20
  -5  -4  15   14.60   13.50
   5  -4 -15   61.39   21.30
   5  -4 -15  -10.00   22.00
  -5   4  15   25.60   14.50
  -4  -4  15   13.70   12.70
   4  -4 -15   -6.30   20.10
   4  -4 -15   -7.50   16.50
  -4   4  15   -8.80   13.90
   4   4 -15   23.10   21.30
   4   4 -15   11.80   32.30
  -3  -4  15    7.10   11.50
   3  -4 -15   13.60   20.90
   3  -4 -15    2.50   14.90
   3   4 -15   -4.20   19.60
   3   4 -15   16.70   16.50
  -3   4  15   17.80   14.70
   2  -4 -15   18.70   23.30
  -2  -4  15   60.69   13.80
   2   4 -15   54.99   19.30
   2   4 -15  100.89   17.20
  -2   4  15   69.49   14.80
  -1  -4  15   55.09   13.70
   1  -4 -15   97.19   26.40
   1   4 -15   71.69   20.30
   1   4 -15   57.19   15.30
  -1   4  15   78.39   15.70
   0  -4 -15  -12.20   23.80
   0  -4  15   26.60   12.70
   0   4 -15    8.00   13.40
   0   4 -15   16.60   13.20
   0   4  15    3.00   14.10
   1  -4  15   12.30   13.40
   1   4  15   -5.20   14.70
  -1   4 -15    6.90   13.20
  -1   4 -15    6.50   15.20
  -2  -4 -15   35.20   34.40
  -2   4 -15   23.30   15.80
  -2   4 -15   25.60   14.90
  -4  -5  15   82.89   16.10
   4  -5 -15   69.89   29.00
   4  -5 -15   73.79   23.00
  -4   5  15   47.80   27.10
  -4   5  15   88.59   17.70
   4   5 -15  107.09   30.30
   3  -5 -15   92.49   18.50
   3  -5 -15   96.79   25.40
   3   5 -15  114.99   21.40
   3   5 -15   97.79   25.80
  -3   5  15   87.39   16.30
  -3   5  15   62.49   22.80
  -2  -5  15   27.90   12.40
   2  -5 -15   -1.70   22.20
  -2   5  15   -3.30   12.90
   2   5 -15    3.10   13.50
   2   5 -15   -1.30   23.20
  -1  -5  15   -5.30   11.70
   1  -5 -15  -17.80   26.00
  -1   5  15  -18.80   12.90
   1   5 -15   -0.70   20.40
   1   5 -15    9.20   13.20
   0  -5  15   26.60   12.90
   0   5 -15   30.50   14.30
   0   5 -15   28.80   16.30
   0   5  15   -1.20   18.20
  -1  -5 -15  -47.90   28.40
   1   5  15   16.20   16.70
  -1   5 -15   41.30   16.00
   3  -6 -15  -20.30   23.40
  -3  -6  15   29.10   14.00
  -3   6  15  -16.80   14.30
   3   6 -15   16.70   18.00
  -2  -6  15   55.89   15.10
   2  -6 -15   66.79   25.40
   2   6 -15   59.49   23.80
   2   6 -15   48.60   15.30
  -2   6  15   43.80   16.90
   1  -6 -15   15.90   25.90
  -1  -6  15   12.10   20.40
   1   6 -15   24.40   20.40
   1   6 -15   32.40   14.60
  -1   6  15    4.30   14.30
   0  -6 -15   25.20   27.90
   0  -6  15    5.80   13.70
   0   6  15  -40.10   14.80
   0   6 -15    0.00   18.00
   6   0 -16   21.70   30.10
  -6   0  16   -3.50   15.60
  -5   0  16   36.30   13.20
   5   0 -16   72.09   32.60
   5   0 -16   57.59   29.50
   4   0 -16  113.59   28.20
   4   0 -16   80.69   27.90
  -3   0  16   68.49   15.00
   3   0 -16   91.19   25.80
   3   0 -16  123.79   24.80
  -2   0  16   11.00   12.10
   2   0 -16   18.50   23.80
   2   0 -16   19.60   17.80
   1   0 -16   47.10   23.70
  -1   0  16   24.00   13.40
   1   0 -16   53.79   16.80
   0   0  16   57.79   16.00
   0   0 -16  102.39   24.60
   1   0  16   52.49   16.10
  -1   0 -16   57.79   22.20
   2   0  16    3.20   15.60
  -2   0 -16  -10.80   20.30
   6  -1 -16   68.39   32.30
   6  -1 -16   43.10   23.20
  -6   1  16   48.40   14.00
   5  -1 -16   27.10   23.10
  -5  -1  16   13.00   12.40
   5  -1 -16  -42.60   31.70
   5   1 -16   60.39   32.60
  -5   1  16   -6.10   11.40
   5   1 -16    8.90   21.60
  -4  -1  16   13.70   12.20
   4  -1 -16   -0.40   25.70
   4  -1 -16   -0.20   25.60
  -4   1  16   36.40   12.10
   4   1 -16   18.60   27.10
   4   1 -16   22.80   25.50
  -3  -1  16   72.49   14.40
   3  -1 -16   73.69   25.20
  -3   1  16   84.39   14.80
  -2  -1  16  151.18   23.80
   2  -1 -16  238.48   39.60
   2  -1 -16  230.08   27.20
  -2   1  16  157.48   24.10
  -1  -1  16  120.09   19.80
   1  -1 -16  184.28   32.00
   1   1 -16  175.18   25.70
   1   1 -16  214.98   31.60
  -1   1  16  126.29   20.30
   0  -1 -16   17.80   24.30
   0  -1  16   11.90   13.60
   0   1  16   37.20   14.60
   0   1 -16    4.60   23.60
  -1  -1 -16   23.90   23.50
   1  -1  16    0.70   13.70
  -1   1 -16   15.50   18.30
   1   1  16  -18.50   14.20
  -2  -1 -16   29.30   23.50
   2  -1  16   17.60   15.80
   2   1  16   48.50   17.10
  -2   1 -16   22.20   18.30
   5  -2 -16   98.69   23.60
   5  -2 -16  159.48   29.20
  -5   2  16   54.09   14.50
  -4  -2  16   96.49   17.70
   4  -2 -16  106.69   28.20
   4  -2 -16  118.69   26.00
   4   2 -16  162.58   27.50
  -4   2  16   91.09   16.50
   4   2 -16  165.28   29.40
   3  -2 -16   34.80   22.30
   3  -2 -16    4.80   24.00
  -3  -2  16   15.30   12.20
  -3   2  16   24.00   12.80
   3   2 -16   54.69   26.30
   3   2 -16   36.80   26.30
  -2  -2  16   20.60   12.00
   2  -2 -16   -0.10   14.00
   2  -2 -16  -22.60   23.80
   2   2 -16   21.70   27.40
   2   2 -16   -1.00   20.20
  -2   2  16   11.60   15.80
  -1  -2  16   32.50   13.10
   1  -2 -16   28.60   27.40
  -1   2  16   36.90   14.30
   1   2 -16   60.29   20.10
   1   2 -16   34.30   15.80
   0  -2  16   68.59   15.20
   0  -2 -16   89.49   29.30
   0   2 -16   61.49   14.20
   0   2  16   66.29   19.30
   0   2 -16   53.19   18.80
  -1   2 -16   42.20   17.70
   1   2  16   18.80   16.10
   2  -2  16  -18.20   15.00
  -2  -2 -16  -18.60   26.10
   2   2  16  -10.30   16.40
  -2   2 -16    0.70   16.70
   5  -3 -16   27.20   21.70
   5  -3 -16  -29.30   28.70
  -5  -3  16   23.30   14.10
   5   3 -16   50.79   34.70
  -5   3  16   34.90   15.00
   4  -3 -16  -18.20   17.30
   4  -3 -16   34.60   23.10
  -4   3  16   25.60   14.90
   4   3 -16    6.40   22.90
   4   3 -16    4.00   26.20
   3  -3 -16   45.80   26.00
  -3  -3  16   44.40   14.70
   3  -3 -16   71.69   18.50
   3   3 -16   64.89   24.90
  -3   3  16   87.39   19.10
   3   3 -16  144.39   27.60
   2  -3 -16  109.19   29.40
   2   3 -16  146.69   22.90
  -2   3  16  132.69   18.70
   2   3 -16   93.99   20.40
  -1  -3  16   35.80   13.20
   1  -3 -16    5.20   26.60
  -1   3  16   15.10   14.80
   1   3 -16   45.60   17.40
   1   3 -16   12.20   13.60
   0  -3 -16   35.60   29.80
   0  -3  16   -0.10   12.80
   0   3 -16    0.00   13.70
   0   3 -16    1.90   15.20
   0   3  16  -26.50   14.70
   1  -3  16   41.40   18.50
  -1  -3 -16   -7.60   31.00
   1   3  16   26.90   23.30
  -1   3 -16   20.10   12.80
   4  -4 -16  102.99   31.40
  -4  -4  16   45.00   16.00
   4  -4 -16   71.09   23.50
   4   4 -16  157.08   26.90
   4   4 -16   82.79   26.80
  -4   4  16   77.69   18.00
  -3  -4  16   46.60   17.30
   3  -4 -16   49.60   25.80
   3   4 -16   66.09   23.60
  -3   4  16   31.70   17.00
   3   4 -16   54.39   21.70
   2  -4 -16  -27.70   24.50
   2   4 -16   -6.40   16.50
  -2   4  16   -5.40   15.10
   2   4 -16   -3.40   18.20
  -1   4  16   -3.50   14.80
   1   4 -16   35.00   15.80
   1   4 -16   20.50   15.40
   0  -4  16   24.40   17.60
   0  -4 -16   54.69   31.00
   0   4 -16   61.99   19.60
   0   4  16   27.40   17.20
   0   4 -16   45.00   15.00
   1  -4  16   36.20   15.00
  -1  -4 -16   34.00   33.30
  -1   4 -16   11.40   15.60
  -1   4 -16   17.20   13.20
   3  -5 -16  -28.20   29.60
  -3  -5  16   -0.60   13.90
   3   5 -16   37.20   23.40
  -3   5  16   26.80   17.30
   3   5 -16   46.80   17.90
   2  -5 -16   53.39   27.70
  -2  -5  16   39.60   13.90
   2   5 -16   26.30   16.10
   2   5 -16   41.30   20.30
  -2   5  16    6.90   15.20
   1  -5 -16   -8.00   27.30
  -1  -5  16   16.80   13.40
   1   5 -16    5.50   17.70
  -1   5  16  -21.40   14.70
   1   5 -16   24.90   15.00
   0  -5 -16  -38.90   28.80
  -5   0  17   -2.20   12.90
   5   0 -17  -35.30   25.40
   5   0 -17  -37.10   25.00
   4   0 -17  -43.00   28.70
  -4   0  17   18.90   16.60
   4   0 -17   37.50   27.00
  -3   0  17  119.09   18.80
   3   0 -17  131.59   30.60
   3   0 -17  143.99   26.50
   2   0 -17  143.09   31.80
   2   0 -17  169.88   26.90
  -1   0  17   31.10   14.70
   1   0 -17   36.80   24.80
   0   0 -17   12.50   23.40
   1   0  17  -13.10   15.30
  -1   0 -17    1.10   21.60
   5  -1 -17   54.39   23.70
  -5  -1  17   46.10   15.50
   5  -1 -17   72.39   28.20
   5   1 -17   78.29   33.80
   5   1 -17   34.00   31.90
  -5   1  17   17.10   13.30
  -4  -1  17   58.69   20.00
   4  -1 -17   97.39   27.10
   4  -1 -17   73.29   31.90
   4   1 -17   82.99   28.60
  -4   1  17   47.50   14.40
   4   1 -17   47.70   30.00
  -3  -1  17    5.60   15.90
   3  -1 -17   39.00   21.00
   3  -1 -17   16.40   26.70
   3   1 -17   31.20   26.10
   3   1 -17   16.00   23.80
  -3   1  17    2.10   13.10
   2  -1 -17  -14.70   27.30
  -2  -1  17   -5.80   12.70
  -2   1  17   16.70   13.30
   2   1 -17    4.30   17.90
   2   1 -17   -9.80   23.40
  -1  -1  17   20.60   13.80
   1  -1 -17   55.99   28.50
   1   1 -17   49.90   14.90
  -1   1  17   31.60   14.90
   1   1 -17   53.89   23.40
   0  -1  17   23.20   18.00
   0   1 -17   30.70   21.60
  -1  -1 -17   16.50   24.70
   1  -1  17    0.40   14.60
   1   1  17   24.50   16.80
  -1   1 -17   20.60   19.80
   4  -2 -17   38.20   25.60
   4  -2 -17   37.50   24.30
  -4  -2  17   10.40   14.00
   4   2 -17   22.30   24.00
   4   2 -17   75.19   24.40
  -4   2  17   35.60   16.60
   3  -2 -17  111.09   24.00
   3   2 -17  149.29   32.20
   3   2 -17  126.59   26.20
  -3   2  17   85.19   20.00
   2  -2 -17   77.79   30.70
  -2   2  17   88.49   16.90
   2   2 -17   59.49   17.70
   2   2 -17  135.19   25.30
   1  -2 -17   -0.50   29.40
   1   2 -17   16.60   17.10
   1   2 -17   29.80   20.30
  -1   2  17    2.60   14.30
   0  -2 -17  -23.10   32.60
   0  -2  17   -8.10   14.00
  -1  -2 -17   29.30   28.40
   1  -2  17   22.80   15.30
  -1   2 -17    8.50   18.30
   1   2  17    8.70   17.30
  -4  -3  17   51.19   15.30
   4  -3 -17  -24.40   31.70
   4  -3 -17   52.59   23.50
  -4   3  17   34.20   17.20
   4   3 -17   71.99   29.30
   4   3 -17   94.49   25.10
   3  -3 -17    2.00   27.10
  -3  -3  17    8.80   13.20
  -3   3  17   12.90   16.70
   3   3 -17  -10.80   26.30
   3   3 -17    7.10   19.40
   2  -3 -17   20.50   29.00
  -2  -3  17    2.50   13.00
   2   3 -17   11.40   19.40
   2   3 -17   21.70   19.90
  -2   3  17   21.80   17.50
  -1  -3  17   31.10   14.10
  -1   3  17   55.39   16.80
   1   3 -17   69.09   19.90
   1   3 -17   23.00   17.30
   0  -3  17   26.30   15.00
   0  -3 -17   27.90   32.50
   0   3 -17   37.00   15.50
   3  -4 -17   17.70   34.90
   3   4 -17   62.29   21.50
  -2  -4  17    4.80   13.40
   2  -4 -17   43.50   30.00
  -2   4  17   43.10   16.00
   2   4 -17    5.10   21.90
   2   4 -17   36.10   18.90
   1  -4 -17  -47.20   30.60
  -1  -4  17   -1.60   13.70
   1   4 -17    4.20   19.50
  -1   4  17    2.40   16.50
   1   4 -17    9.60   20.70
   3   0 -18    6.20   28.30
  -3   0  18   -1.90   17.20
   3   0 -18  -16.50   20.50
  -2   0  18   28.50   15.00
   2   0 -18  -29.40   32.90
  -1   0  18   34.60   15.40
   0   0 -18   42.00   25.30
  -3  -1  18   41.80   15.60
   3  -1 -18   52.79   37.80
   3   1 -18  111.99   29.40
   3   1 -18   95.99   24.80
  -2  -1  18   34.20   15.00
   2  -1 -18   82.09   32.60
   2   1 -18   34.80   25.60
   2   1 -18   24.90   18.10
  -1  -1  18    1.40   14.10
   1  -1 -18    1.70   28.40
  -1   1  18   -7.90   14.40
  -2  -2  18   29.30   14.90
   2   2 -18   51.59   24.20
   2   2 -18    4.60   19.00
   1  -2 -18   27.60   31.90
   0   0   0    0.00    0.00

_computing_structure_solution     'SHELXT 2014/5 (Sheldrick, 2014)'
;
_shelx_hkl_checksum              30499
loop_
_space_group_symop_operation_xyz
'x, y, z'
'-x, y+1/2, -z'
loop_
_atom_site_label
_atom_site_type_symbol
_atom_site_fract_x
_atom_site_fract_y
_atom_site_fract_z
_atom_site_U_iso_or_equiv
_atom_site_adp_type
_atom_site_occupancy
_atom_site_site_symmetry_order
_atom_site_calc_flag
_atom_site_refinement_flags_posn
_atom_site_refinement_flags_adp
Au1 Au 0.39038(7) 0.83771(8) 0.68879(4) 0.0509(2) Uani 1 1 d . .
Br1 Br 0.3375(4) 1.0775(2) 0.6395(2) 0.0887(8) Uani 1 1 d . .
Br2 Br 0.5184(4) 0.9287(3) 0.8299(2) 0.1003(9) Uani 1 1 d . .
O1 O 0.4837(19) 0.4214(14) 0.6566(10) 0.064(3) Uani 1 1 d . .
N2 N 0.4391(18) 0.6270(14) 0.7170(10) 0.047(3) Uani 1 1 d . .
N1 N 0.2965(19) 0.7471(14) 0.5665(10) 0.049(3) Uani 1 1 d . .
C5 C 0.336(2) 0.6082(18) 0.5632(12) 0.050(4) Uani 1 1 d . .
C7 C 0.583(3) 0.409(2) 0.7493(15) 0.071(6) Uani 1 1 d . .
H7 H 0.665064 0.339072 0.773691 0.085 Uiso 1 1 calc R U
C8 C 0.520(3) 0.533(3) 0.7940(14) 0.070(6) Uani 1 1 d . .
H8 H 0.622345 0.581288 0.831309 0.083 Uiso 1 1 calc R U
C1 C 0.203(2) 0.817(3) 0.4928(14) 0.068(6) Uani 1 1 d . .
H1 H 0.172274 0.913129 0.494692 0.082 Uiso 1 1 calc R U
C6 C 0.421(2) 0.5492(18) 0.6489(12) 0.045(4) Uani 1 1 d . .
C9 C 0.375(3) 0.491(3) 0.8512(15) 0.076(6) Uani 1 1 d . .
C3 C 0.193(4) 0.595(3) 0.4150(15) 0.087(7) Uani 1 1 d . .
H3 H 0.156406 0.542867 0.363589 0.104 Uiso 1 1 calc R U
C12 C 0.224(4) 0.407(3) 0.7953(17) 0.087(7) Uani 1 1 d . .
H12A H 0.160781 0.466968 0.748876 0.131 Uiso 1 1 calc R U
H12B H 0.144914 0.375262 0.830854 0.131 Uiso 1 1 calc R U
H12C H 0.271746 0.325706 0.770581 0.131 Uiso 1 1 calc R U
C2 C 0.156(3) 0.740(3) 0.4174(13) 0.070(6) Uani 1 1 d . .
H2 H 0.097334 0.785091 0.366212 0.085 Uiso 1 1 calc R U
C4 C 0.284(3) 0.532(2) 0.4897(14) 0.066(5) Uani 1 1 d . .
H4 H 0.310196 0.434384 0.489748 0.079 Uiso 1 1 calc R U
B1 B 0.868(3) 0.692(3) 0.649(2) 0.074(7) Uani 1 1 d . .
C11 C 0.291(4) 0.618(3) 0.8851(18) 0.108(10) Uani 1 1 d . .
H11A H 0.382389 0.680713 0.915961 0.162 Uiso 1 1 calc R U
H11B H 0.218889 0.585738 0.924143 0.162 Uiso 1 1 calc R U
H11C H 0.218122 0.668469 0.836760 0.162 Uiso 1 1 calc R U
F1 F 0.983(2) 0.8032(19) 0.6647(16) 0.140(7) Uani 1 1 d . .
F3 F 0.7157(17) 0.727(2) 0.6013(13) 0.130(7) Uani 1 1 d . .
F4 F 0.943(4) 0.582(3) 0.6186(18) 0.201(13) Uani 1 1 d . .
F6 F 0.850(3) 0.640(4) 0.7279(18) 0.198(14) Uani 1 1 d . .
C10 C 0.460(6) 0.393(5) 0.9282(19) 0.19(2) Uani 1 1 d . .
H10A H 0.469181 0.297589 0.906934 0.285 Uiso 1 1 calc R U
H10B H 0.387639 0.392703 0.970920 0.285 Uiso 1 1 calc R U
H10C H 0.576995 0.427942 0.954799 0.285 Uiso 1 1 calc R U
O3 O 0.003(2) 0.895(3) 0.9757(12) 0.133(10) Uani 1 1 d . .
O2 O -0.044(3) 0.120(2) 0.8419(17) 0.137(9) Uani 1 1 d . .
loop_
_atom_site_aniso_label
_atom_site_aniso_U_11
_atom_site_aniso_U_22
_atom_site_aniso_U_33
_atom_site_aniso_U_23
_atom_site_aniso_U_13
_atom_site_aniso_U_12
Au1 0.0478(3) 0.0414(3) 0.0660(4) -0.0084(4) 0.0180(2) -0.0086(4)
Br1 0.1006(18) 0.0400(11) 0.129(2) -0.0038(13) 0.0332(17) -0.0036(12)
Br2 0.112(2) 0.0944(18) 0.0892(18) -0.0384(15) 0.0097(15) -0.0274(15)
O1 0.070(8) 0.047(7) 0.080(10) 0.005(6) 0.027(7) 0.001(6)
N2 0.042(7) 0.037(7) 0.063(9) -0.007(7) 0.015(7) -0.010(6)
N1 0.058(8) 0.030(7) 0.068(9) 0.001(6) 0.031(7) -0.003(6)
C5 0.046(9) 0.046(10) 0.058(12) 0.009(8) 0.013(8) -0.004(8)
C7 0.060(12) 0.065(12) 0.082(15) 0.020(11) 0.004(10) 0.026(10)
C8 0.054(11) 0.084(15) 0.065(13) 0.021(11) 0.001(9) -0.017(11)
C1 0.061(9) 0.064(14) 0.079(13) 0.021(13) 0.017(9) 0.019(11)
C6 0.040(9) 0.038(10) 0.064(12) 0.004(8) 0.026(8) 0.009(7)
C9 0.077(14) 0.090(16) 0.059(13) 0.029(12) 0.015(11) 0.013(13)
C3 0.12(2) 0.091(18) 0.045(13) -0.008(12) 0.012(13) -0.026(16)
C12 0.096(17) 0.075(14) 0.093(18) 0.012(13) 0.027(14) -0.007(13)
C2 0.089(15) 0.080(15) 0.041(11) 0.007(10) 0.012(10) -0.010(12)
C4 0.079(13) 0.057(11) 0.066(14) -0.019(10) 0.028(11) -0.029(10)
B1 0.058(14) 0.043(12) 0.12(2) 0.022(13) 0.024(14) 0.001(11)
C11 0.17(3) 0.097(19) 0.074(17) -0.029(15) 0.056(19) -0.02(2)
F1 0.095(11) 0.106(17) 0.22(2) -0.020(13) 0.039(12) -0.031(10)
F3 0.055(8) 0.152(15) 0.181(17) 0.081(14) 0.017(9) -0.006(8)
F4 0.25(3) 0.118(16) 0.18(2) -0.078(16) -0.052(19) 0.079(18)
F6 0.100(14) 0.33(4) 0.17(2) 0.11(3) 0.034(14) -0.007(19)
C10 0.30(6) 0.17(4) 0.059(17) 0.05(2) -0.05(3) -0.03(4)
O3 0.085(11) 0.24(3) 0.085(12) 0.059(14) 0.041(9) 0.069(14)
O2 0.18(2) 0.074(12) 0.17(2) -0.006(12) 0.059(16) -0.079(14)
loop_
_atom_type_symbol
_atom_type_description
_atom_type_scat_dispersion_real
_atom_type_scat_dispersion_imag
_atom_type_scat_source
C C 0.0033 0.0016 'International Tables Vol C Tables 4.2.6.8 and 6.1.1.4'
H H 0.0000 0.0000 'International Tables Vol C Tables 4.2.6.8 and 6.1.1.4'
Au Au -2.0133 8.8022 'International Tables Vol C Tables 4.2.6.8 and 6.1.1.4'
B B 0.0013 0.0007 'International Tables Vol C Tables 4.2.6.8 and 6.1.1.4'
Br Br -0.2901 2.4595 'International Tables Vol C Tables 4.2.6.8 and 6.1.1.4'
F F 0.0171 0.0103 'International Tables Vol C Tables 4.2.6.8 and 6.1.1.4'
N N 0.0061 0.0033 'International Tables Vol C Tables 4.2.6.8 and 6.1.1.4'
O O 0.0106 0.0060 'International Tables Vol C Tables 4.2.6.8 and 6.1.1.4'
loop_
_geom_angle_atom_site_label_1
_geom_angle_atom_site_label_2
_geom_angle_atom_site_label_3
_geom_angle
N2 Au1 N1 79.4(6)
N2 Au1 Br2 97.2(4)
N1 Au1 Br2 175.3(4)
N2 Au1 Br1 173.5(4)
N1 Au1 Br1 94.9(4)
Br2 Au1 Br1 88.31(12)
C6 O1 C7 105.5(15)
C6 N2 C8 106.5(16)
C6 N2 Au1 113.0(13)
C8 N2 Au1 139.5(13)
C5 N1 C1 120.5(17)
C5 N1 Au1 113.4(12)
C1 N1 Au1 126.1(13)
N1 C5 C4 121.7(18)
N1 C5 C6 112.9(16)
C4 C5 C6 125.0(18)
C8 C7 O1 104.3(14)
C7 C8 N2 101.5(16)
C7 C8 C9 114.0(19)
N2 C8 C9 111.2(15)
C2 C1 N1 117(2)
N2 C6 O1 118.9(18)
N2 C6 C5 119.7(16)
O1 C6 C5 121.3(17)
C11 C9 C12 106(2)
C11 C9 C10 110(3)
C12 C9 C10 106(2)
C11 C9 C8 114(2)
C12 C9 C8 109.9(19)
C10 C9 C8 110(2)
C4 C3 C2 118(2)
C1 C2 C3 122(2)
C5 C4 C3 120(2)
F3 B1 F4 113(3)
F3 B1 F1 113(2)
F4 B1 F1 110(3)
F3 B1 F6 111(2)
F4 B1 F6 101(3)
F1 B1 F6 108(3)
loop_
_geom_bond_atom_site_label_1
_geom_bond_atom_site_label_2
_geom_bond_distance
Au1 N2 2.033(14)
Au1 N1 2.070(15)
Au1 Br2 2.366(3)
Au1 Br1 2.374(3)
O1 C6 1.28(2)
O1 C7 1.49(3)
N2 C6 1.27(2)
N2 C8 1.51(3)
N1 C5 1.33(2)
N1 C1 1.38(2)
C5 C4 1.34(3)
C5 C6 1.46(3)
C7 C8 1.49(3)
C8 C9 1.62(3)
C1 C2 1.36(3)
C9 C11 1.50(4)
C9 C12 1.51(3)
C9 C10 1.54(4)
C3 C4 1.36(3)
C3 C2 1.38(4)
B1 F3 1.29(3)
B1 F4 1.32(4)
B1 F1 1.35(3)
B1 F6 1.36(4)
loop_
_geom_torsion_atom_site_label_1
_geom_torsion_atom_site_label_2
_geom_torsion_atom_site_label_3
_geom_torsion_atom_site_label_4
_geom_torsion
C1 N1 C5 C4 -1(3)
Au1 N1 C5 C4 179.2(15)
C1 N1 C5 C6 -174.7(15)
Au1 N1 C5 C6 5.4(18)
C6 O1 C7 C8 15(2)
O1 C7 C8 N2 -17.5(19)
O1 C7 C8 C9 102.2(18)
C6 N2 C8 C7 14.7(18)
Au1 N2 C8 C7 -152.4(15)
C6 N2 C8 C9 -107(2)
Au1 N2 C8 C9 86(2)
C5 N1 C1 C2 -1(3)
Au1 N1 C1 C2 178.4(14)
C8 N2 C6 O1 -6(2)
Au1 N2 C6 O1 165.2(12)
C8 N2 C6 C5 176.6(15)
Au1 N2 C6 C5 -12.5(19)
C7 O1 C6 N2 -6(2)
C7 O1 C6 C5 171.5(16)
N1 C5 C6 N2 5(2)
C4 C5 C6 N2 -168.8(17)
N1 C5 C6 O1 -172.9(15)
C4 C5 C6 O1 13(3)
C7 C8 C9 C11 -171(2)
N2 C8 C9 C11 -57(3)
C7 C8 C9 C12 -52(2)
N2 C8 C9 C12 62(2)
C7 C8 C9 C10 65(3)
N2 C8 C9 C10 179(2)
N1 C1 C2 C3 3(3)
C4 C3 C2 C1 -2(4)
N1 C5 C4 C3 2(3)
C6 C5 C4 C3 175(2)
C2 C3 C4 C5 0(4)
