#------------------------------------------------------------------------------
#$Date: 2018-01-31 02:16:12 +0200 (Wed, 31 Jan 2018) $
#$Revision: 205917 $
#$URL: file:///home/coder/svn-repositories/cod/cif/4/12/71/4127116.cif $
#------------------------------------------------------------------------------
#
# This file is available in the Crystallography Open Database (COD),
# http://www.crystallography.net/
#
# All data on this site have been placed in the public domain by the
# contributors.
#
data_4127116
loop_
_publ_author_name
'Galley, Shane S.'
'Arico, Alexandra A.'
'Lee, Tsung-Han'
'Deng, Xiaoyu'
'Yao, Yong-Xin'
'Sperling, Joseph M.'
'Proust, Vanessa'
'Storbeck, Julia S.'
'Dobrosavljevic, Vladimir'
'Neu, Jennifer N.'
'Siegrist, Theo'
'Baumbach, Ryan E.'
'Albrecht-Schmitt, Thomas E'
'Kaltsoyannis, Nikolas'
'Lanat\`a, Nicola'
_publ_section_title
;
 Uncovering the Origin of Divergence in the CsM(CrO4)2 (M = La, Pr, Nd,
 Sm, Eu; Am) Family through Examination of the Chemical Bonding in a
 Molecular Cluster and by Band Structure Analysis.
;
_journal_name_full               'Journal of the American Chemical Society'
_journal_paper_doi               10.1021/jacs.7b09474
_journal_year                    2018
_chemical_formula_moiety         'Eu Cr2 O8, Cs'
_chemical_formula_sum            'Cr2 Cs Eu O8'
_chemical_formula_weight         516.85
_space_group_crystal_system      monoclinic
_space_group_IT_number           13
_space_group_name_Hall           '-P 2yc'
_space_group_name_H-M_alt        'P 1 2/c 1'
_symmetry_space_group_name_Hall  '-P 2yc'
_symmetry_space_group_name_H-M   'P 1 2/c 1'
_audit_creation_method           SHELXL-2014/7
_cell_angle_alpha                90
_cell_angle_beta                 98.8121(13)
_cell_angle_gamma                90
_cell_formula_units_Z            2
_cell_length_a                   9.1553(6)
_cell_length_b                   5.4948(4)
_cell_length_c                   7.6669(5)
_cell_measurement_reflns_used    5786
_cell_measurement_temperature    100(2)
_cell_measurement_theta_max      27.551
_cell_measurement_theta_min      2.251
_cell_volume                     381.14(4)
_computing_cell_refinement       'SAINT V8.37A (Bruker, 2016)'
_computing_data_collection       'Apex2 (Bruker, 2016)'
_computing_data_reduction        'SAINT V8.37A (Bruker, 2016)'
_computing_structure_refinement  'SHELXL-2014/7 (Sheldrick, 2014)'
_computing_structure_solution    'SHELXS-97 (Sheldrick, 2008)'
_diffrn_ambient_temperature      100(2)
_diffrn_measured_fraction_theta_full 1.000
_diffrn_measured_fraction_theta_max 1.000
_diffrn_measurement_device_type  'Bruker ApexII CCD diffractometer'
_diffrn_measurement_method       '0.5 wide w/ exposures'
_diffrn_radiation_type           MoK\a
_diffrn_radiation_wavelength     0.71073
_diffrn_reflns_av_R_equivalents  0.0262
_diffrn_reflns_av_unetI/netI     0.0151
_diffrn_reflns_Laue_measured_fraction_full 1.000
_diffrn_reflns_Laue_measured_fraction_max 1.000
_diffrn_reflns_limit_h_max       11
_diffrn_reflns_limit_h_min       -11
_diffrn_reflns_limit_k_max       7
_diffrn_reflns_limit_k_min       -7
_diffrn_reflns_limit_l_max       9
_diffrn_reflns_limit_l_min       -9
_diffrn_reflns_number            5479
_diffrn_reflns_point_group_measured_fraction_full 1.000
_diffrn_reflns_point_group_measured_fraction_max 1.000
_diffrn_reflns_theta_full        25.242
_diffrn_reflns_theta_max         27.551
_diffrn_reflns_theta_min         2.251
_diffrn_source                   'I-mu-S microsource X-ray tube'
_exptl_absorpt_coefficient_mu    15.637
_exptl_absorpt_correction_T_max  0.7465
_exptl_absorpt_correction_T_min  0.3425
_exptl_absorpt_correction_type   multi-scan
_exptl_absorpt_process_details
;
SADABS 2016/2: Krause, L., Herbst-Irmer, R., Sheldrick G.M. & Stalke D.,
J. Appl. Cryst. 48 (2015) 3-10
;
_exptl_crystal_colour            'Yellow gold'
_exptl_crystal_density_diffrn    4.503
_exptl_crystal_description       Plate
_exptl_crystal_F_000             460
_exptl_crystal_size_max          0.08
_exptl_crystal_size_mid          0.06
_exptl_crystal_size_min          0.04
_refine_diff_density_max         0.436
_refine_diff_density_min         -0.721
_refine_diff_density_rms         0.131
_refine_ls_extinction_coef       0.0045(3)
_refine_ls_extinction_expression Fc^*^=kFc[1+0.001xFc^2^\l^3^/sin(2\q)]^-1/4^
_refine_ls_extinction_method     'SHELXL-2014/7 (Sheldrick 2014'
_refine_ls_goodness_of_fit_ref   1.177
_refine_ls_hydrogen_treatment    undef
_refine_ls_matrix_type           full
_refine_ls_number_parameters     57
_refine_ls_number_reflns         878
_refine_ls_number_restraints     0
_refine_ls_restrained_S_all      1.177
_refine_ls_R_factor_all          0.0122
_refine_ls_R_factor_gt           0.0117
_refine_ls_shift/su_max          0.001
_refine_ls_shift/su_mean         0.000
_refine_ls_structure_factor_coef Fsqd
_refine_ls_weighting_details
'w=1/[\s^2^(Fo^2^)+(0.0082P)^2^+0.7092P] where P=(Fo^2^+2Fc^2^)/3'
_refine_ls_weighting_scheme      calc
_refine_ls_wR_factor_gt          0.0272
_refine_ls_wR_factor_ref         0.0273
_reflns_Friedel_coverage         0.000
_reflns_number_gt                860
_reflns_number_total             878
_reflns_threshold_expression     'I > 2\s(I)'
_cod_data_source_file            ja7b09474_si_001.cif
_cod_data_source_block           eu
_cod_database_code               4127116
_shelx_shelxl_version_number     2014/7
_shelx_space_group_comment
;
The symmetry employed for this shelxl refinement is uniquely defined
by the following loop, which should always be used as a source of
symmetry information in preference to the above space-group names.
They are only intended as comments.
;
_exptl_absorpt_special_details
;
 ?
;
_shelx_res_file
;

    eu.res created by SHELXL-2014/7


TITL eu in P2/c
CELL 0.71073   9.15530   5.49480   7.66690  90.0000  98.8121  90.0000
ZERR    1.00   0.00060   0.00040   0.00050   0.0000   0.0013   0.0000
LATT  1
SYMM -X, Y, 0.5-Z
SFAC O CR CS EU
UNIT 8 2 1 1
TEMP -173.160

L.S. 40
BOND
FMAP 2
PLAN 20
ACTA
WGHT    0.008200    0.709200
EXTI    0.004475
FVAR       0.12827
EU1   4    0.000000    0.910079    0.250000    10.50000    0.00397    0.00376 =
         0.00355    0.00000    0.00031    0.00000
CS1   3    0.500000    1.825407    0.250000    10.50000    0.00560    0.00576 =
         0.01175    0.00000    0.00242    0.00000
CR1   2    0.216459    1.333539    0.180454    11.00000    0.00382    0.00380 =
         0.00451   -0.00036    0.00052   -0.00014
O4    1    0.181825    1.618443    0.232008    11.00000    0.00766    0.00647 =
         0.00786   -0.00125    0.00093    0.00059
O2    1    0.069724    1.209294    0.049007    11.00000    0.00616    0.00595 =
         0.00640   -0.00076   -0.00032   -0.00159
O3    1    0.366074    1.322372    0.093408    11.00000    0.00515    0.00974 =
         0.00925   -0.00067    0.00269   -0.00054
O1    1    0.231860    1.152020    0.352630    11.00000    0.00691    0.00778 =
         0.00675    0.00184   -0.00015   -0.00062
HKLF 4

REM  eu in P2/c
REM R1 =  0.0117 for     860 Fo > 4sig(Fo)  and  0.0122 for all     878 data
REM     57 parameters refined using      0 restraints

END

WGHT      0.0083      0.7072

REM Highest difference peak  0.436,  deepest hole -0.721,  1-sigma level  0.131
Q1    1   0.5000  1.4937  0.2500  10.50000  0.05    0.44
Q2    1   0.3213  1.4114  0.1287  11.00000  0.05    0.42
Q3    1   0.0251  1.1564  0.1147  11.00000  0.05    0.39
Q4    1   0.3315  1.2269  0.1358  11.00000  0.05    0.39
Q5    1   0.0216  0.9070  0.1413  11.00000  0.05    0.37
Q6    1   0.2320  1.6277  0.2410  11.00000  0.05    0.37
Q7    1   0.1586  1.7437  0.2209  11.00000  0.05    0.37
Q8    1   0.1441  1.6396  0.1700  11.00000  0.05    0.35
Q9    1   0.1251  1.4927  0.2026  11.00000  0.05    0.33
Q10   1   0.1390  1.1890  0.0830  11.00000  0.05    0.33
Q11   1   0.5194  1.8249  0.1453  11.00000  0.05    0.33
Q12   1   0.1621  1.1252  0.3575  11.00000  0.05    0.32
Q13   1   0.1308  1.6174  0.2760  11.00000  0.05    0.32
Q14   1   0.5897  1.7892  0.2333  11.00000  0.05    0.32
Q15   1   0.0897  0.8055  0.2575  11.00000  0.05    0.32
Q16   1   0.1877  1.2180  0.3055  11.00000  0.05    0.32
Q17   1   0.1583  1.0812  0.2585  11.00000  0.05    0.32
Q18   1   0.0296  1.3006  0.0576  11.00000  0.05    0.31
Q19   1   0.3716  1.1724 -0.1014  11.00000  0.05    0.31
Q20   1   0.1189  1.2058  0.1358  11.00000  0.05    0.30
;
_shelx_res_checksum              48813
_shelx_hkl_file
;
   0   0   1    0.11    0.05
   0   0   1    0.15    0.06
   0   0   1    0.16    0.04
   0   0  -1    0.10    0.05
   0   0  -1    0.10    0.05
   0   0  -1    0.26    0.04
   0   0  -1    0.13    0.04
   0   0  -2  748.56   20.27
   0   0  -2  776.19   20.73
   0   0   2  997.07   20.77
   0   0   2  758.09   20.31
   0   0   2 1000.00   21.06
   0   0  -2  990.00   20.75
   0   0  -3    0.12    0.12
   0   0  -3    0.57    0.15
   0   0   3    0.01    0.09
   0   0   3    0.48    0.14
   0   0   4  367.97    8.33
   0   0   4  354.18    8.43
   0   0  -4  352.76    8.44
   0   0  -4  333.27    8.47
   0   0   5    0.03    0.16
   0   0   5    0.03    0.19
   0   0  -5    0.20    0.21
   0   0  -5   -0.22    0.21
   0   0  -6  179.18    4.78
   0   0   6  172.90    4.67
   0   0   6  185.45    4.54
   0   0  -6  181.97    4.68
   0   0   7    0.26    0.27
   0   0   7    0.20    0.30
   0   0  -7   -0.41    0.32
   0   0  -8   85.36    2.70
   0   0   8   86.55    2.50
   0   0   8   85.27    2.75
   0   0  -8   85.56    2.87
   0   0  -9    1.29    0.58
   0   0  -9    0.49    0.54
   0   0   9   -0.10    0.55
   0   1   0  124.03    3.13
   0   1   0  130.56    3.11
   0   1   0  136.74    3.05
   0   1   0  137.26    3.17
   0  -1   0  126.77    3.15
   0  -1   0  133.94    3.05
   0  -1   0  129.01    3.12
   0   1   1   62.15    1.55
   0   1   1   61.35    1.52
   0   1  -1   61.43    1.42
   0   1  -1   58.85    1.54
   0   1  -1   58.68    1.54
   0   1  -1   62.67    1.55
   0   1   1   57.83    1.54
   0  -1   1   62.43    1.42
   0  -1   1   57.33    1.54
   0  -1   1   58.71    1.55
   0  -1  -1   58.67    1.51
   0  -1  -1   62.55    1.43
   0  -1  -1   61.34    1.43
   0   1   2  134.76    3.48
   0   1  -2  142.49    3.51
   0   1   2  146.21    3.51
   0   1  -2  144.50    3.49
   0   1  -2  142.69    3.41
   0  -1   2  142.36    3.40
   0  -1  -2  143.31    3.51
   0  -1   2  146.30    3.51
   0   1   3  424.77   10.25
   0   1  -3  433.42   10.27
   0   1   3  443.16   10.03
   0   1  -3  435.15   10.22
   0   1   3  435.88   10.25
   0  -1  -3  418.71   10.26
   0  -1  -3  442.96   10.02
   0  -1   3  432.74   10.23
   0  -1   3  436.28   10.15
   0   1  -4  167.96    4.39
   0   1   4  171.94    4.36
   0   1  -4  173.06    4.33
   0   1   4  178.85    4.12
   0  -1   4  176.71    4.33
   0  -1  -4  169.54    4.43
   0  -1  -4  177.93    4.40
   0  -1   4  172.46    4.27
   0  -1  -4  165.18    4.11
   0   1   5  279.82    6.96
   0   1  -5  263.08    6.95
   0   1  -5  280.64    6.87
   0   1   5  283.65    6.63
   0  -1  -5  281.35    7.02
   0  -1  -5  282.70    6.96
   0  -1   5  286.73    6.84
   0  -1   5  280.27    6.86
   0   1  -6  147.97    3.90
   0   1  -6  144.30    4.04
   0   1   6  136.23    3.93
   0   1   6  151.88    3.65
   0  -1  -6  150.51    4.17
   0  -1  -6  148.91    4.02
   0  -1   6  146.55    3.88
   0   1  -7  241.60    6.20
   0   1  -7  235.23    6.37
   0   1   7  251.91    5.93
   0   1   7  239.35    6.31
   0  -1  -7  240.99    6.42
   0  -1  -7  237.79    6.31
   0  -1   7  240.78    6.21
   0  -1   7  256.65    6.45
   0   1  -8  115.24    3.65
   0   1  -8  117.16    3.43
   0   1   8  124.48    3.63
   0  -1  -8  122.45    3.71
   0  -1   8  117.22    3.50
   0  -1  -8  120.49    3.57
   0  -1   8  119.12    3.41
   0   1  -9  111.76    3.60
   0   1  -9  113.70    3.38
   0   1   9  107.83    3.54
   0  -1   9  102.41    3.39
   0  -1  -9  113.85    3.66
   0  -1   9  109.89    3.26
   0  -1  -9  111.77    3.46
   0   2   0  119.59    3.00
   0   2   0  113.96    3.03
   0   2   0  124.89    2.83
   0  -2   0  121.54    2.82
   0  -2   0  115.60    2.94
   0   2  -1  494.98   11.80
   0   2   1  468.60   11.80
   0   2  -1  513.59   11.85
   0   2   1  527.59   11.78
   0  -2  -1  524.30   11.73
   0  -2  -1  482.78   11.84
   0  -2   1  512.14   11.80
   0   2  -2    1.10    0.19
   0   2  -2    1.04    0.19
   0   2   2    1.11    0.19
   0   2   2    1.05    0.20
   0  -2   2    1.04    0.18
   0  -2   2    0.74    0.11
   0  -2  -2    1.39    0.13
   0  -2  -2    0.93    0.13
   0  -2  -2    1.29    0.23
   0   2  -3  321.48    7.63
   0   2  -3  309.54    7.39
   0   2   3  307.14    7.58
   0   2  -3  311.03    7.61
   0   2   3  312.26    7.63
   0  -2   3  329.14    7.39
   0  -2  -3  315.40    7.66
   0  -2   3  316.55    7.64
   0   2  -4    1.21    0.25
   0   2   4    1.21    0.27
   0   2  -4    1.61    0.30
   0   2   4    1.21    0.25
   0  -2   4    1.56    0.27
   0  -2  -4    1.52    0.29
   0  -2   4    1.53    0.24
   0   2  -5  140.88    3.70
   0   2  -5  137.11    3.76
   0   2   5  137.72    3.75
   0  -2  -5  133.13    3.83
   0  -2   5  144.62    3.58
   0  -2   5  137.46    3.74
   0  -2  -5  143.97    3.82
   0   2  -6    2.45    0.43
   0   2   6    2.31    0.40
   0  -2   6    3.60    0.49
   0  -2  -6    3.06    0.49
   0  -2   6    2.61    0.39
   0  -2  -6    2.83    0.50
   0   2   7   71.63    2.42
   0   2  -7   75.63    2.49
   0  -2   7   74.19    2.39
   0  -2  -7   76.30    2.60
   0  -2   7   77.13    2.30
   0  -2  -7   70.02    2.50
   0   2  -8    6.90    0.86
   0   2   8    8.26    0.90
   0   2  -8    7.14    0.81
   0  -2   8    7.50    0.80
   0  -2   8    6.90    0.78
   0  -2  -8    7.48    0.94
   0  -2  -8    7.38    1.04
   0   2   9   34.85    1.78
   0   2  -9   34.95    1.60
   0   2  -9   35.14    1.86
   0  -2  -9   38.42    1.87
   0  -2  -9   35.71    2.15
   0  -2   9   36.39    1.70
   0  -2   9   37.56    1.69
   0   3   0   10.91    0.39
   0   3   0   10.94    0.57
   0   3   0   11.37    0.63
   0  -3   0   10.09    0.50
   0  -3   0   10.89    0.40
   0   3  -1  141.08    3.73
   0   3  -1  147.23    3.81
   0   3   1  140.19    3.73
   0   3   1  150.14    3.56
   0  -3  -1  144.08    3.57
   0  -3   1  146.02    3.71
   0   3  -2   21.61    0.89
   0   3   2   21.17    0.87
   0   3  -2   20.54    0.86
   0   3   2   20.89    0.77
   0  -3  -2   19.84    0.90
   0  -3   2   21.34    0.88
   0  -3  -2   20.84    0.67
   0   3  -3   87.13    2.48
   0   3   3   83.90    2.47
   0   3   3   87.90    2.39
   0   3  -3   85.95    2.46
   0  -3   3   87.29    2.50
   0  -3  -3   87.51    2.11
   0  -3  -3   84.42    2.56
   0  -3  -3   86.87    2.09
   0   3  -4   91.97    2.58
   0   3   4   85.39    2.58
   0   3  -4   82.23    2.71
   0  -3   4   90.51    2.22
   0   3  -5  104.53    3.01
   0   3   5  105.78    3.04
   0   3  -5  110.29    3.30
   0   3   5  103.25    3.09
   0  -3   5  106.63    2.73
   0  -3  -5  103.02    3.15
   0   3   6   94.62    2.91
   0   3  -6   92.69    2.83
   0   3  -6   95.45    2.92
   0  -3  -6   92.47    3.03
   0  -3  -6   96.07    3.01
   0  -3   6   99.66    2.63
   0  -3   6   96.53    2.93
   0   3  -7   49.72    1.87
   0   3  -7   49.35    1.96
   0   3   7   49.84    1.95
   0  -3  -7   52.79    2.11
   0  -3   7   49.39    1.78
   0  -3   7   49.34    1.93
   0  -3  -7   49.48    2.03
   0   3  -8   87.38    2.84
   0   3   8   89.41    3.03
   0   3  -8   88.30    2.97
   0  -3   8   87.84    2.96
   0  -3  -8   83.67    3.04
   0  -3  -8   87.69    3.16
   0   4   0  214.94    5.52
   0   4   0  209.45    5.62
   0   4   0  233.71    5.14
   0  -4   0  207.92    5.11
   0  -4   0  216.19    5.42
   0   4  -1   23.92    1.03
   0   4  -1   24.75    1.09
   0   4   1   25.11    1.06
   0   4   1   25.66    0.86
   0  -4  -1   24.80    0.93
   0  -4  -1   24.68    1.12
   0  -4   1   25.33    1.03
   0   4  -2  162.98    4.47
   0   4  -2  168.54    4.43
   0   4   2  170.03    4.23
   0  -4  -2  164.61    4.57
   0  -4   2  163.00    4.41
   0  -4  -2  173.65    4.14
   0   4   3    2.07    0.36
   0   4  -3    1.82    0.41
   0   4  -3    2.69    0.64
   0   4   3    2.38    0.42
   0  -4  -3    2.19    0.30
   0  -4  -3    1.44    0.39
   0  -4   3    1.65    0.35
   0   4  -4   50.44    1.77
   0   4  -4   49.81    1.78
   0   4   4   50.24    1.81
   0  -4   4   47.85    1.79
   0  -4  -4   50.62    1.88
   0   4   5    6.17    0.71
   0   4   5    7.12    0.73
   0   4  -5    8.24    0.73
   0   4  -5    8.06    0.78
   0  -4  -5    7.43    0.89
   0  -4   5    7.36    0.73
   0   4  -6   24.21    1.28
   0   4  -6   24.81    1.27
   0   4   6   26.17    1.37
   0   4   6   24.91    1.31
   0  -4   6   25.79    1.33
   0  -4  -6   24.69    1.43
   0   4  -7    7.57    0.94
   0   4  -7    8.80    0.91
   0   4   7    8.63    0.99
   0  -4  -7   10.19    1.10
   0  -4  -7    7.85    1.08
   0  -4   7    8.14    1.00
   0   4  -8   24.62    1.52
   0   4   8   23.96    1.52
   0   4  -8   22.16    1.42
   0  -4   8   25.17    1.52
   0  -4  -8   26.48    1.75
   0  -4  -8   22.93    1.65
   0   5   0   23.53    1.11
   0  -5   0   21.21    0.99
   0  -5   0   21.79    1.18
   0   5   1    6.70    0.67
   0   5  -1    5.32    0.62
   0   5   1    6.32    0.51
   0   5  -1    5.78    0.72
   0  -5  -1    6.46    0.70
   0  -5   1    6.18    0.62
   0  -5  -1    6.12    0.59
   0   5   2   20.95    1.07
   0   5  -2   21.98    1.16
   0   5   2   23.20    0.96
   0   5  -2   21.16    1.10
   0  -5   2   22.74    1.12
   0  -5  -2   21.77    0.90
   0  -5  -2   21.79    1.19
   0   5   3    5.94    0.63
   0   5  -3    6.29    0.68
   0   5   3    5.85    0.70
   0   5  -3    5.55    0.74
   0  -5   3    4.71    0.65
   0  -5  -3    5.30    0.79
   0   5  -4    2.54    0.52
   0   5   4    1.64    0.43
   0   5  -4    2.83    0.54
   0   5   4    2.57    0.49
   0  -5  -4    2.08    0.57
   0  -5   4    2.33    0.51
   0   5  -5   27.75    1.44
   0   5   5   27.22    1.45
   0   5  -5   29.64    1.42
   0   5   5   28.95    1.36
   0  -5  -5   27.48    1.59
   0  -5   5   28.97    1.46
   0   5   6    0.51    0.90
   0   5   6    1.94    0.58
   0   5  -6    1.19    0.50
   0   5  -6    1.30    0.58
   0  -5  -6    1.06    0.63
   0   5   7   20.62    1.48
   0   5  -7   18.63    1.34
   0   5   7   20.72    1.39
   0  -5  -7   15.41    2.06
   0  -5   7   20.14    1.45
   0   6   0   18.75    1.15
   0  -6   0   18.96    1.26
   0  -6   0   17.67    1.02
   0   6  -1    1.54    0.48
   0   6   1    1.74    0.48
   0  -6  -1    1.02    0.41
   0  -6   1    1.27    0.42
   0  -6  -1    1.41    0.52
   0  -6   1    2.73    0.64
   0   6   2    0.74    0.42
   0   6  -2    0.28    0.43
   0   6  -2    0.50    0.44
   0  -6  -2    1.42    0.52
   0  -6   2    1.16    0.46
   0   6  -3    1.62    0.53
   0   6  -3    0.30    0.48
   0   6   3    0.77    0.49
   0  -6  -3    1.69    0.68
   0  -6   3    0.56    0.47
   0   6  -4   15.55    1.20
   0   6   4   14.33    1.08
   0   6   4   11.51    1.68
   0   6  -4   14.44    1.13
   0  -6   4   14.64    1.11
   0  -6  -4   12.38    1.30
   0   6  -5   -0.01    0.81
   0   6   5   -0.58    0.52
   0   6   5    1.15    0.63
   0  -6   5    0.96    0.58
   0  -6  -5   -0.49    0.69
   0   7   0   36.59    1.82
   0  -7   0   38.81    1.72
   0  -7   0   36.14    1.89
   0   7   1   18.79    1.36
   0   7  -1   17.15    1.25
   0  -7  -1   17.47    1.42
   0  -7   1   17.03    1.37
   0  -7   1   18.52    1.27
   0   7   2   22.05    1.46
   0   7  -2   20.65    1.40
   0  -7   2   21.08    1.54
   0  -7  -2   21.31    1.60
   1   0  -9   -0.74    0.55
  -1   0   9    0.68    0.50
   1   0  -9    0.73    0.55
   1   0  -8    1.43    0.52
  -1   0   8    0.23    0.40
   1   0  -8    0.43    0.43
   1   0  -7   -0.04    0.35
   1   0  -7    0.22    0.32
  -1   0   7    0.43    0.28
  -1   0   7   -0.08    0.26
   1   0  -6   16.01    0.87
  -1   0   6   15.22    0.69
  -1   0   6   14.55    0.82
   1   0  -6   14.50    0.81
  -1   0   5   -0.03    0.19
   1   0  -5    0.10    0.25
   1   0  -5    0.13    0.21
  -1   0   5    0.25    0.17
   1   0  -4    0.53    0.21
   1   0  -4    0.70    0.19
  -1   0   4    0.60    0.14
  -1   0   4    0.69    0.18
  -1   0   3    0.13    0.09
   1   0  -3    0.47    0.15
  -1   0   3    0.03    0.11
   1   0  -3    0.14    0.14
  -1   0   2   26.95    0.74
   1   0  -2   26.27    0.84
   1   0  -2   27.37    0.77
  -1   0   2   26.82    0.74
   1   0  -2   26.95    0.75
  -1   0   2   26.89    0.80
   1   0  -1    0.16    0.07
  -1   0   1    0.17    0.07
  -1   0   1    0.21    0.05
   1   0  -1    0.15    0.05
   1   0  -1    0.19    0.03
  -1   0   0   61.82    1.51
   1   0   0   60.48    1.44
   1   0   0   62.40    1.56
  -1   0   0   59.41    1.49
   1   0   0   56.93    1.43
   1   0   1    0.63    0.10
  -1   0  -1    0.31    0.09
   1   0   1    0.09    0.08
  -1   0  -1    0.10    0.06
  -1   0  -1    0.14    0.07
  -1   0  -2  124.15    3.22
  -1   0  -2  133.04    3.31
   1   0   2  131.82    3.16
   1   0   2  138.98    3.27
   1   0   2  136.14    3.22
  -1   0  -2  134.51    3.18
   1   0   3    0.07    0.10
  -1   0  -3   -0.01    0.11
   1   0   3    0.04    0.11
  -1   0  -3    0.00    0.14
  -1   0  -4   95.00    2.47
   1   0   4   94.35    2.45
   1   0   4   94.45    2.56
  -1   0  -4   94.23    2.63
  -1   0  -5    0.27    0.19
  -1   0  -5   -0.15    0.23
   1   0   5    1.16    0.32
   1   0   5    0.23    0.16
  -1   0  -6   31.30    1.56
   1   0   6   34.95    1.21
   1   0   6   35.19    1.50
  -1   0  -6   36.40    1.26
   1   0   7    0.41    0.33
  -1   0  -7    0.47    0.35
  -1   0  -7    0.25    0.32
   1   0   7    0.33    0.30
   1   0   8    2.76    0.55
  -1   0  -8    2.43    0.51
  -1   0  -8    1.67    0.56
   1   0   8    2.52    0.48
  -1   0  -9   -0.14    0.58
   1   0   9    0.14    0.51
  -1   1   9    9.80    1.05
   1   1  -9   11.26    1.03
   1   1  -9    9.68    1.16
  -1  -1   9    7.92    0.98
   1  -1  -9   10.19    1.09
   1  -1  -9   11.85    1.15
  -1  -1   9   10.31    0.93
   1   1  -8   13.91    0.98
   1   1  -8   15.20    1.09
  -1   1   8   14.07    1.01
   1  -1  -8   14.67    1.13
   1  -1  -8   15.84    1.07
  -1  -1   8   15.39    0.97
  -1  -1   8   15.81    0.93
   1   1  -7   10.66    0.81
  -1   1   7    9.64    0.54
  -1   1   7    8.66    0.74
   1  -1  -7    9.06    0.80
  -1  -1   7    9.45    0.70
  -1  -1   7    7.32    0.70
   1  -1  -7    9.17    0.83
   1   1  -6   43.93    1.57
  -1   1   6   40.57    1.51
  -1   1   6   43.47    1.22
   1   1  -6   44.24    1.56
  -1  -1   6   42.42    1.46
  -1  -1   6   40.59    1.57
   1  -1  -6   44.12    1.61
   1   1  -5    3.00    0.44
   1   1  -5    2.68    0.39
  -1   1   5    1.99    0.24
  -1   1   5    1.77    0.24
  -1   1   5    2.18    0.35
   1  -1  -5    2.43    0.41
  -1  -1   5    2.66    0.35
  -1  -1   5    2.44    0.35
   1  -1  -5    1.86    0.34
   1   1  -4   90.11    2.51
   1   1  -4   89.05    2.45
  -1   1   4   94.08    2.50
  -1   1   4   93.38    2.21
  -1   1   4   93.69    2.21
  -1  -1   4   88.20    2.43
   1  -1  -4   90.23    2.51
  -1  -1   4   91.11    2.39
   1  -1  -4   88.75    2.55
   1   1  -3    5.72    0.40
  -1   1   3    6.43    0.37
  -1   1   3    6.47    0.22
  -1   1   3    6.10    0.38
   1   1  -3    6.19    0.36
  -1   1   3    6.70    0.22
  -1  -1   3    6.50    0.37
  -1  -1   3    6.56    0.34
   1   1  -2  110.08    2.68
  -1   1   2  112.17    2.73
   1   1  -2  108.46    2.77
   1   1  -2  109.41    2.65
   1  -1  -2  110.14    2.78
  -1  -1   2  109.34    2.74
  -1  -1   2  102.82    2.69
  -1  -1   2  111.98    2.66
  -1   1   1    1.42    0.15
   1   1  -1    1.41    0.17
  -1   1   1    1.61    0.19
   1  -1  -1    1.66    0.16
   1  -1  -1    1.18    0.15
   1  -1  -1    1.56    0.11
  -1  -1   1    1.72    0.15
  -1  -1   1    1.19    0.16
   1  -1  -1    1.38    0.16
  -1   1   0   44.21    1.16
   1   1   0   45.24    1.14
   1   1   0   44.80    1.12
   1   1   0   41.41    1.16
  -1   1   0   44.02    1.09
  -1   1   0   44.42    1.15
   1   1   0   43.73    1.13
  -1   1   0   43.37    1.12
   1  -1   0   41.18    1.12
  -1  -1   0   43.07    1.13
   1  -1   0   45.67    1.15
  -1  -1   0   43.36    1.16
  -1  -1   0   44.10    1.12
   1  -1   0   40.35    1.15
   1  -1   0   44.35    1.10
  -1  -1   0   44.07    1.12
   1   1   1   78.79    2.08
   1   1   1   86.87    2.12
  -1   1  -1   85.09    2.04
  -1   1  -1   85.68    2.08
   1   1   1   84.47    2.12
   1  -1   1   85.98    2.05
  -1  -1  -1   80.63    2.09
  -1  -1  -1   85.01    2.11
   1  -1   1   82.22    2.12
   1  -1   1   87.64    2.10
  -1  -1  -1   84.54    2.18
  -1  -1  -1   86.70    2.07
   1   1   2    8.55    0.40
   1   1   2    7.84    0.35
  -1   1  -2    7.92    0.34
  -1   1  -2    8.12    0.42
   1   1   2    8.11    0.33
  -1   1  -2    8.45    0.34
   1  -1   2    8.84    0.35
   1  -1   2    8.70    0.40
  -1  -1  -2    8.43    0.34
   1  -1   2    7.94    0.35
  -1  -1  -2    8.67    0.38
  -1   1  -3   34.66    1.00
   1   1   3   35.07    0.97
  -1   1  -3   33.58    1.14
  -1  -1  -3   34.50    1.15
   1  -1   3   33.39    1.02
  -1  -1  -3   34.93    1.05
  -1  -1  -3   30.43    0.93
   1  -1   3   33.72    1.08
  -1   1  -4    0.30    0.16
  -1   1  -4    0.17    0.21
   1   1   4    0.28    0.18
   1   1   4    0.47    0.15
   1  -1   4    0.25    0.18
   1  -1   4    0.22    0.17
  -1  -1  -4    0.34    0.21
  -1  -1  -4    0.91    0.21
   1   1   5   21.51    0.98
   1   1   5   22.10    0.79
  -1   1  -5   22.05    1.03
  -1   1  -5   22.29    0.85
  -1  -1  -5   21.77    0.93
   1  -1   5   21.93    0.92
   1  -1   5   23.15    0.92
   1   1   6   17.89    0.74
  -1   1  -6   17.23    0.81
   1   1   6   16.14    0.89
  -1   1  -6   15.98    0.96
   1  -1   6   15.24    0.83
   1  -1   6   16.93    0.84
  -1  -1  -6   17.50    1.00
  -1  -1  -6   17.22    0.91
  -1   1  -7   -0.12    0.30
   1   1   7   -0.33    0.33
  -1   1  -7   -0.15    0.38
   1   1   7   -0.05    0.27
   1  -1   7    0.09    0.33
   1  -1   7   -0.11    0.28
  -1  -1  -7    0.08    0.35
  -1  -1  -7    0.49    0.39
   1   1   8   22.58    1.26
  -1   1  -8   21.97    1.37
  -1   1  -8   21.39    1.13
   1  -1   8   22.55    1.13
   1  -1   8   22.50    1.24
  -1  -1  -8   22.91    1.36
  -1   1  -9    4.61    0.87
   1  -1   9    5.59    0.83
  -1  -1  -9    6.00    0.87
   1  -1   9    4.34    0.79
   1   2  -9   25.95    1.51
   1   2  -9   24.53    1.42
  -1   2   9   24.01    1.44
   1  -2  -9   26.78    1.65
  -1  -2   9   26.71    1.44
   1  -2  -9   22.42    1.62
  -1  -2   9   22.52    1.36
   1   2  -8   49.48    1.90
  -1   2   8   49.19    1.95
   1   2  -8   47.24    1.91
  -1  -2   8   48.89    1.79
   1  -2  -8   51.03    2.10
   1  -2  -8   48.50    2.10
  -1  -2   8   48.06    1.85
   1   2  -7    4.77    0.67
   1   2  -7    6.69    0.71
  -1   2   7    6.29    0.68
   1  -2  -7    6.79    0.84
  -1  -2   7    5.26    0.66
   1  -2  -7    5.11    0.67
  -1  -2   7    6.45    0.62
   1   2  -6  111.08    3.18
   1   2  -6  111.41    3.13
   1  -2  -6  109.37    3.47
  -1  -2   6  113.68    3.00
  -1  -2   6  108.41    3.13
   1  -2  -6  105.61    3.24
   1   2  -5    3.95    0.48
   1   2  -5    3.99    0.45
  -1   2   5    2.98    0.43
   1  -2  -5    3.37    0.51
  -1  -2   5    4.17    0.41
  -1  -2   5    3.85    0.44
   1   2  -4  119.23    3.15
   1   2  -4  115.05    3.05
  -1   2   4  112.96    3.11
  -1   2   4  115.83    3.10
  -1  -2   4  110.79    3.10
  -1  -2   4  118.41    2.91
  -1   2   3   15.52    0.67
   1   2  -3   15.71    0.63
  -1   2   3   15.97    0.68
   1   2  -3   16.38    0.73
   1   2  -3   15.98    0.65
   1  -2  -3   14.48    0.70
  -1  -2   3   15.87    0.71
  -1  -2   3   16.19    0.54
  -1   2   2  273.06    6.12
   1   2  -2  271.31    6.18
  -1   2   2  264.77    6.38
   1   2  -2  247.08    6.41
   1   2  -2  263.43    6.32
  -1   2   2  264.78    6.32
   1  -2  -2  259.81    6.12
  -1  -2   2  267.50    6.41
  -1   2   1   14.28    0.51
  -1   2   1   13.75    0.48
   1   2  -1   14.17    0.54
  -1   2   1   13.78    0.57
   1  -2  -1   15.32    0.61
   1  -2  -1   14.60    0.48
  -1  -2   1   15.02    0.45
  -1  -2   1   14.50    0.59
  -1  -2   1   15.04    0.44
   1   2   0   98.22    2.60
   1   2   0   98.30    2.52
   1   2   0  101.33    2.44
  -1   2   0  100.21    2.58
   1  -2   0  101.32    2.40
   1  -2   0  100.96    2.59
  -1  -2   0   96.47    2.50
  -1  -2   0   97.60    2.41
   1  -2   0   99.07    2.50
  -1   2  -1   50.51    1.46
   1   2   1   49.25    1.43
   1   2   1   50.20    1.39
  -1   2  -1   51.62    1.23
  -1   2  -1   52.51    1.24
   1   2   1   50.79    1.50
  -1  -2  -1   53.04    1.37
  -1  -2  -1   51.45    1.41
   1  -2   1   50.14    1.44
   1   2   2   66.20    1.81
  -1   2  -2   66.15    1.61
   1   2   2   67.73    1.85
  -1   2  -2   66.04    1.81
   1   2   2   67.04    1.65
  -1  -2  -2   63.99    1.68
  -1  -2  -2   61.89    1.83
   1   2   3  160.77    3.96
  -1   2  -3  142.68    3.96
   1   2   3  155.53    3.67
  -1   2  -3  161.21    3.89
   1   2   3  147.68    3.94
  -1  -2  -3  155.26    3.70
   1  -2   3  159.56    3.75
  -1  -2  -3  151.22    3.94
   1  -2   3  154.15    3.96
  -1   2  -4   48.90    1.47
   1   2   4   48.49    1.59
  -1   2  -4   48.74    1.61
   1   2   4   46.64    1.54
   1   2   4   44.62    1.24
  -1  -2  -4   47.06    1.54
  -1  -2  -4   45.94    1.25
   1  -2   4   48.52    1.39
   1  -2   4   47.96    1.56
  -1   2  -5   13.56    0.81
   1   2   5   14.46    0.51
  -1   2  -5   13.02    0.68
   1   2   5   13.99    1.07
   1  -2   5   12.71    0.65
   1  -2   5   12.78    0.76
  -1  -2  -5   13.46    0.79
  -1  -2  -5   12.76    0.93
  -1  -2  -5   10.92    0.50
  -1   2  -6   44.13    1.51
  -1   2  -6   44.30    1.72
   1   2   6   46.45    1.27
   1   2   6   42.41    1.64
   1  -2   6   44.17    1.52
  -1  -2  -6   45.92    1.69
  -1  -2  -6   43.20    1.74
   1  -2   6   44.81    1.63
  -1   2  -7    0.31    0.32
  -1   2  -7    1.27    0.49
  -1  -2  -7    0.29    0.48
  -1  -2  -7   -0.01    0.38
   1  -2   7    0.43    0.36
   1  -2   7    0.37    0.43
   1   2   8   57.90    2.23
  -1   2  -8   55.05    1.92
  -1   2  -8   56.13    2.27
  -1  -2  -8   56.15    2.20
   1  -2   8   58.39    2.08
   1  -2   8   57.00    2.03
  -1  -2  -8   57.25    2.31
  -1   2  -9    0.78    0.84
   1   2   9    1.39    0.64
   1  -2   9    0.57    0.60
  -1  -2  -9    1.72    0.67
   1  -2   9    2.25    0.54
   1   3  -9   56.33    2.26
  -1   3   9   55.46    2.35
   1   3  -9   56.77    2.32
   1  -3  -9   57.93    2.52
  -1  -3   9   55.94    2.35
   1  -3  -9   55.25    2.54
   1   3  -8   22.46    1.35
  -1   3   8   23.76    1.37
   1   3  -8   20.77    1.31
   1  -3  -8   24.11    1.51
   1  -3  -8   23.62    1.58
  -1  -3   8   24.26    1.34
  -1   3   7   60.88    2.19
   1   3  -7   59.24    2.18
   1   3  -7   62.19    2.15
  -1  -3   7   63.32    1.97
   1  -3  -7   60.90    2.34
  -1  -3   7   60.46    2.18
   1  -3  -7   59.62    2.31
   1   3  -6    4.18    0.61
  -1   3   6    4.90    0.67
  -1   3   6    4.51    0.60
   1   3  -6    5.76    0.69
   1  -3  -6    6.78    0.77
  -1  -3   6    4.53    0.53
  -1  -3   6    5.20    0.66
   1   3  -5  123.16    3.53
   1   3  -5  122.97    3.36
  -1   3   5  116.15    3.37
  -1   3   5  124.46    3.48
   1  -3  -5  119.57    3.53
  -1  -3   5  128.07    3.10
  -1  -3   5  117.43    3.45
   1   3  -4   -0.02    0.19
  -1   3   4    0.39    0.22
  -1  -3   4    0.38    0.17
   1  -3  -4    0.20    0.25
  -1  -3   4   -0.02    0.21
  -1   3   3  127.39    3.26
   1   3  -3  120.58    3.38
  -1   3   3  122.32    3.35
   1   3  -3  124.56    3.27
   1   3  -3  128.40    2.99
   1  -3  -3  121.37    3.41
  -1  -3   3  121.83    3.36
  -1   3   2    3.81    0.33
  -1   3   2    3.52    0.36
   1   3  -2    3.67    0.37
  -1   3   2    3.90    0.30
   1   3  -2    3.84    0.41
  -1  -3   2    3.68    0.39
   1  -3  -2    3.45    0.27
   1  -3  -2    4.07    0.46
   1   3  -1  149.96    3.80
  -1   3   1  156.06    3.65
   1   3  -1  144.43    3.90
  -1   3   1  144.79    3.85
   1  -3  -1  136.00    3.87
  -1  -3   1  155.09    3.53
  -1  -3   1  147.74    3.82
  -1  -3   1  155.16    3.50
   1  -3  -1  152.62    3.68
   1   3   0   49.69    1.52
  -1   3   0   52.25    1.59
   1   3   0   52.02    1.63
   1   3   0   54.23    1.38
  -1   3   0   51.96    1.29
   1  -3   0   48.36    1.47
   1  -3   0   50.22    1.60
   1  -3   0   51.44    1.32
  -1  -3   0   46.29    1.32
  -1  -3   0   51.55    1.49
  -1   3  -1  217.22    5.53
   1   3   1  226.36    5.37
  -1   3  -1  220.65    5.54
   1   3   1  219.99    5.49
   1  -3   1  216.36    5.47
  -1  -3  -1  230.26    5.62
  -1  -3  -1  221.26    5.38
   1   3   2  350.13    8.41
  -1   3  -2  355.95    8.54
   1   3   2  342.06    8.50
  -1   3  -2  357.26    8.52
   1  -3   2  355.10    8.52
  -1  -3  -2  346.89    8.59
  -1  -3  -2  349.21    8.27
  -1   3  -3  143.77    3.86
  -1   3  -3  144.89    3.78
  -1   3  -3  145.19    3.41
   1   3   3  138.68    3.75
  -1  -3  -3  148.06    3.49
  -1  -3  -3  140.46    3.56
  -1  -3  -3  147.99    3.90
  -1   3  -4  194.48    4.99
  -1   3  -4  185.03    4.82
   1   3   4  180.15    4.87
   1  -3   4  187.59    4.55
  -1  -3  -4  194.65    4.98
   1   3   5  128.62    3.73
   1   3   5  126.35    3.67
  -1   3  -5  134.14    3.59
  -1   3  -5  133.36    3.75
   1  -3   5  132.90    3.72
  -1  -3  -5  130.96    3.71
   1  -3   5  134.93    3.37
   1   3   6   26.85    1.29
  -1   3  -6   24.80    1.14
  -1   3  -6   26.79    1.31
  -1  -3  -6   27.36    1.30
   1  -3   6   25.95    1.05
   1  -3   6   26.31    1.27
  -1  -3  -6   25.71    1.36
   1   3   7   70.64    2.52
  -1   3  -7   73.20    2.55
  -1   3  -7   70.97    2.30
  -1  -3  -7   69.83    2.50
   1  -3   7   70.98    2.32
   1  -3   7   71.47    2.48
  -1  -3  -7   73.47    2.66
  -1   3  -8    6.58    0.86
  -1   3  -8    7.56    1.00
   1  -3   8    4.60    0.72
  -1  -3  -8    6.75    1.08
  -1  -3  -8    8.15    1.13
   1   4  -8    5.34    0.80
  -1   4   8    5.71    0.85
   1   4  -8    6.88    1.02
  -1  -4   8    5.78    0.82
   1  -4  -8    5.70    0.95
   1  -4  -8    6.06    1.05
  -1   4   7  126.12    3.81
   1   4  -7  123.99    3.71
  -1   4   7  127.34    3.90
   1   4  -7  121.98    3.81
  -1  -4   7  125.00    3.86
   1  -4  -7  125.51    4.03
   1  -4  -7  127.10    3.99
   1   4  -6    0.81    0.38
   1   4  -6    0.96    0.46
  -1   4   6    0.81    0.40
  -1   4   6    1.26    0.43
  -1  -4   6    1.00    0.43
   1  -4  -6    1.50    0.55
   1   4  -5  266.53    7.07
  -1   4   5  277.06    7.11
  -1   4   5  283.90    6.98
   1   4  -5  266.84    6.92
   1  -4  -5  273.89    7.20
  -1  -4   5  269.02    7.09
  -1   4   4    0.60    0.32
  -1   4   4    0.95    0.33
   1   4  -4    0.72    0.31
   1  -4  -4    0.68    0.38
  -1  -4   4    0.41    0.30
   1   4  -3  327.43    8.14
  -1   4   3  332.00    8.26
  -1   4   3  341.17    8.05
   1   4  -3  317.39    8.27
   1  -4  -3  335.99    7.74
  -1  -4   3  327.45    8.25
   1  -4  -3  329.95    8.38
   1   4  -2   14.80    0.89
  -1   4   2   14.47    0.66
  -1  -4   2   13.34    0.78
   1  -4  -2   14.37    0.62
   1   4  -1  338.41    8.44
  -1   4   1  339.93    8.35
   1   4  -1  308.54    8.44
  -1   4   1  349.38    8.00
   1  -4  -1  346.81    8.13
   1  -4  -1  342.19    8.44
  -1  -4   1  340.30    8.29
  -1   4   0   18.37    0.57
  -1   4   0   16.60    0.85
   1   4   0   17.70    0.93
   1   4   0   18.70    0.67
   1  -4   0   16.78    0.61
  -1  -4   0   17.72    0.81
   1  -4   0   18.02    0.78
   1   4   1  149.77    3.63
  -1   4  -1  139.54    3.90
   1   4   1  137.54    3.82
  -1   4  -1  144.49    3.89
   1  -4   1  145.25    3.80
  -1  -4  -1  144.05    3.68
  -1  -4  -1  141.17    3.98
  -1   4  -2   46.91    1.84
   1   4   2   49.29    1.53
  -1   4  -2   47.58    1.67
   1  -4   2   47.26    1.64
  -1  -4  -2   49.47    1.78
  -1  -4  -2   48.76    1.44
  -1   4  -3   37.62    1.44
  -1   4  -3   37.55    1.46
   1   4   3   37.78    1.46
   1   4   3   39.42    1.38
   1  -4   3   36.32    1.43
  -1  -4  -3   35.55    1.51
  -1  -4  -3   39.80    1.15
   1   4   4   38.76    1.55
  -1   4  -4   37.28    1.51
   1   4   4   38.18    1.44
  -1   4  -4   36.54    1.66
  -1  -4  -4   37.87    1.61
   1  -4   4   38.76    1.52
  -1   4  -5  111.93    3.40
   1   4   5  114.88    3.42
   1   4   5  114.48    3.35
  -1   4  -5  113.26    3.29
  -1  -4  -5  114.42    3.49
   1  -4   5  113.27    3.42
  -1   4  -6   17.53    1.06
  -1   4  -6   20.70    1.22
   1   4   6   19.56    1.16
   1   4   6   21.05    1.18
   1  -4   6   18.91    1.20
  -1  -4  -6   18.81    1.24
  -1   4  -7  122.61    3.77
  -1   4  -7  112.93    3.51
   1   4   7  120.30    3.75
   1  -4   7  120.01    3.74
  -1  -4  -7  118.02    3.77
  -1  -4  -7  117.35    3.88
  -1   4  -8   14.15    1.33
  -1  -4  -8   13.44    1.43
  -1   5   7   17.08    1.35
  -1   5   7   10.89    1.36
   1   5  -7   13.59    1.18
   1   5  -7   11.50    1.18
  -1  -5   7   16.28    1.31
   1  -5  -7   13.63    1.45
   1   5  -6   85.01    2.91
  -1   5   6   82.42    2.94
   1   5  -6   84.60    2.78
  -1   5   6   82.35    2.76
   1  -5  -6   82.86    3.07
  -1  -5   6   84.20    3.39
  -1   5   5    7.79    0.79
   1   5  -5    8.92    0.91
  -1   5   5    8.21    0.89
   1   5  -5    8.75    0.81
  -1  -5   5   10.47    0.90
   1  -5  -5    7.82    0.99
  -1   5   4   92.76    2.94
   1   5  -4   89.43    2.81
  -1   5   4   92.29    2.72
   1   5  -4   90.16    2.95
   1  -5  -4   88.84    3.06
  -1  -5   4   89.36    2.92
  -1   5   3   21.61    1.03
   1   5  -3   22.46    1.25
   1   5  -3   23.66    1.13
  -1   5   3   22.00    1.15
  -1  -5   3   22.56    1.16
   1  -5  -3   22.27    1.28
   1   5  -2  137.24    3.82
  -1   5   2  130.79    3.89
   1   5  -2  136.34    4.00
  -1   5   2  140.61    3.58
  -1  -5   2  139.38    3.89
   1  -5  -2  139.45    3.57
   1  -5  -2  137.28    4.06
  -1   5   1   44.83    1.33
  -1   5   1   43.60    1.69
   1   5  -1   42.69    1.61
   1   5  -1   44.00    1.75
  -1  -5   1   43.13    1.60
   1  -5  -1   44.61    1.77
   1  -5  -1   45.09    1.50
   1   5   0  141.44    4.06
   1   5   0  139.84    3.86
  -1   5   0  133.59    3.88
  -1  -5   0  136.37    3.75
   1  -5   0  139.23    3.97
  -1  -5   0  138.03    4.02
   1  -5   0  138.09    3.73
   1   5   1   97.34    2.52
  -1   5  -1   94.80    2.86
   1   5   1   93.19    2.81
   1  -5   1   88.84    2.89
  -1  -5  -1   93.54    2.64
  -1  -5  -1   87.41    2.91
   1  -5   1   89.88    2.73
   1   5   2  258.59    6.19
  -1   5  -2  240.75    6.46
   1   5   2  244.71    6.44
  -1   5  -2  234.94    6.46
  -1  -5  -2  258.18    6.14
   1  -5   2  245.43    6.41
  -1  -5  -2  250.50    6.63
  -1   5  -3  116.56    3.46
   1   5   3  119.16    3.49
   1   5   3  118.56    3.27
  -1   5  -3  116.98    3.49
   1  -5   3  111.18    3.42
  -1  -5  -3  115.37    3.62
   1   5   4  175.27    4.84
  -1   5  -4  173.83    4.82
   1   5   4  171.24    4.65
  -1   5  -4  173.26    4.77
  -1  -5  -4  167.24    4.99
   1  -5   4  168.20    4.82
   1   5   5   61.78    2.19
   1   5   5   60.84    2.31
  -1   5  -5   63.07    2.30
  -1   5  -5   57.42    2.19
  -1  -5  -5   63.58    2.46
   1  -5   5   58.46    2.26
   1   5   6   83.21    3.03
  -1   5  -6   80.01    2.78
   1   5   6   85.11    2.88
  -1   5  -6   88.42    2.98
   1  -5   6   85.24    3.01
  -1  -5  -6   87.24    3.10
  -1   6   5   13.59    1.12
   1   6  -5   15.33    1.32
  -1   6   5   16.19    1.26
   1   6  -5   16.11    1.19
  -1  -6   5   13.12    1.21
   1  -6  -5   14.52    1.38
   1   6  -4  228.17    6.18
   1   6  -4  227.58    6.41
  -1   6   4  232.36    6.04
   1  -6  -4  232.16    7.80
  -1  -6   4  234.34    6.38
  -1   6   3    8.24    0.94
   1   6  -3    5.45    0.71
   1   6  -3    5.11    0.77
   1  -6  -3    5.28    0.80
  -1  -6   3    5.20    0.72
  -1   6   2  241.53    6.38
   1   6  -2  224.71    6.41
   1   6  -2  237.38    6.24
   1  -6  -2  241.36    6.56
  -1  -6   2  228.42    6.27
  -1   6   1   10.31    0.98
   1   6  -1   11.03    1.00
   1   6  -1    9.98    0.86
  -1  -6   1   10.89    1.06
   1  -6  -1   10.90    0.85
  -1  -6   1   11.83    0.90
   1  -6  -1   11.27    1.04
  -1   6   0  162.65    4.68
   1   6   0  163.01    4.61
   1  -6   0  161.54    4.46
  -1  -6   0  169.55    4.86
  -1  -6   0  164.16    4.49
   1  -6   0  165.21    4.82
   1   6   1   16.32    1.06
  -1   6  -1   15.76    1.07
   1  -6   1   15.96    1.14
  -1  -6  -1   15.76    0.96
   1  -6   1   15.24    1.04
  -1  -6  -1   15.71    1.15
  -1   6  -2   76.72    2.69
   1   6   2   82.87    2.75
   1  -6   2   80.35    2.67
  -1  -6  -2   81.35    2.90
   1  -6   2   78.16    2.79
   1   6   3    5.48    0.78
  -1   6  -3    4.52    0.70
   1   6   3    4.76    0.69
   1  -6   3    4.72    0.74
  -1  -6  -3    5.50    0.91
   1  -6   3    5.14    0.75
   1   6   4   69.52    2.68
  -1   6  -4   73.70    2.66
   1   6   4   73.15    2.47
  -1   6  -4   71.88    2.62
  -1  -6  -4   71.46    2.89
   1  -6   4   76.66    3.41
   1   6   5   11.76    1.12
  -1   6  -5   11.67    1.17
  -1   6  -5   11.48    1.16
   1   6   5   12.42    1.23
  -1  -6  -5   13.02    1.44
   1  -6   5   11.13    1.20
  -1   7   1   82.67    2.96
   1   7  -1   81.36    2.89
  -1  -7   1   77.47    2.78
   1  -7  -1   88.35    3.18
  -1  -7   1   82.53    3.09
  -1   7   0   50.01    2.14
   1   7   0   45.65    2.00
   1  -7   0   47.13    1.92
   1  -7   0   50.54    2.22
  -1  -7   0   45.51    1.91
  -1  -7   0   44.44    2.19
   1   7   1  160.75    4.75
  -1   7  -1  161.91    4.79
  -1  -7  -1  161.40    5.01
   1  -7   1  159.08    4.65
   1  -7   1  161.05    4.93
  -2   0   9   -0.12    0.53
   2   0  -9   -0.05    0.57
   2   0  -9    0.30    0.51
  -2   0   8  304.95    7.97
   2   0  -8  314.84    8.12
   2   0  -8  305.84    7.98
  -2   0   8  324.11    7.77
  -2   0   7    0.32    0.29
   2   0  -7    0.15    0.34
   2   0  -7    0.48    0.34
  -2   0   7    0.16    0.25
   2   0  -6  329.95    8.56
  -2   0   6  358.19    8.26
  -2   0   6  352.95    8.46
   2   0  -6  330.17    8.39
  -2   0   5    0.23    0.23
   2   0  -5    0.25    0.23
   2   0  -5   -0.16    0.23
  -2   0   5    0.49    0.16
   2   0  -4  387.06    9.43
  -2   0   4  390.32    9.34
   2   0  -4  370.22    9.24
  -2   0   4  411.55    9.20
  -2   0   3    0.18    0.11
   2   0  -3    0.07    0.10
   2   0  -3    0.48    0.13
  -2   0   3    0.10    0.13
   2   0  -3    0.11    0.15
  -2   0   2  179.28    4.36
  -2   0   2  191.65    4.44
   2   0  -2  180.75    4.30
   2   0  -2  164.73    4.46
   2   0  -2  187.79    4.36
   2   0  -2  192.72    4.28
   2   0  -1    0.17    0.04
  -2   0   1    0.06    0.11
   2   0  -1   -0.02    0.10
  -2   0   1    0.14    0.03
  -2   0   1    0.14    0.08
   2   0  -1    0.25    0.10
  -2   0   1    0.23    0.09
  -2   0   0  161.43    4.12
   2   0   0  172.33    4.01
  -2   0   0  176.22    4.01
   2   0   0  168.57    4.00
  -2   0   0  170.81    4.01
   2   0   1    0.12    0.12
  -2   0  -1    0.11    0.09
  -2   0  -2  267.21    5.93
   2   0   2  252.00    6.16
  -2   0  -2  255.21    6.20
   2   0   2  253.10    6.14
   2   0   3    0.21    0.14
   2   0   4  644.47   14.86
  -2   0  -4  634.94   14.60
   2   0   4  650.58   14.76
  -2   0  -4  598.15   14.89
   2   0   4  612.53   14.65
   2   0   5    0.51    0.23
  -2   0  -5    0.02    0.19
   2   0   5    0.63    0.31
  -2   0  -5    0.34    0.24
   2   0   6  597.22   14.28
  -2   0  -6  601.89   13.98
  -2   0  -6  573.55   14.37
   2   0   6  601.82   14.11
   2   0   7    0.38    0.37
  -2   0  -7   -0.22    0.38
   2   0   7    0.09    0.31
  -2   0  -7    0.73    0.33
  -2   0  -8  198.85    5.68
   2   0   8  197.18    5.51
   2   0   8  204.34    5.26
  -2   0  -9   -0.80    0.83
   2   0   9   -0.13    0.57
   2   1  -9   13.68    1.14
  -2   1   9   13.02    1.13
   2   1  -9   14.13    1.19
   2  -1  -9   16.06    1.25
   2  -1  -9   14.11    1.27
  -2  -1   9   12.36    1.04
  -2  -1   9   13.09    1.03
  -2   1   8   47.44    1.87
   2   1  -8   48.21    1.85
   2   1  -8   47.05    1.95
  -2  -1   8   46.03    1.70
   2  -1  -8   46.71    1.99
  -2  -1   8   46.37    1.76
   2  -1  -8   48.49    1.90
   2   1  -7   39.43    1.60
  -2   1   7   41.26    1.21
  -2   1   7   36.13    1.50
   2   1  -7   38.48    1.49
  -2  -1   7   39.68    1.44
  -2  -1   7   37.13    1.44
   2  -1  -7   39.07    1.61
   2  -1  -7   39.35    1.68
   2   1  -6  127.41    3.37
  -2   1   6  123.42    3.45
  -2   1   6  113.63    3.04
   2   1  -6  127.26    3.53
   2  -1  -6  118.15    3.56
  -2  -1   6  126.13    3.35
   2  -1  -6  126.62    3.48
   2   1  -5   97.53    2.65
  -2   1   5   95.32    3.16
  -2   1   5   96.75    2.43
   2   1  -5   98.33    2.83
  -2  -1   5  100.71    2.69
  -2  -1   5   96.94    2.65
   2  -1  -5   97.02    2.75
   2  -1  -5   98.78    2.88
  -2   1   4  333.64    8.19
   2   1  -4  332.50    8.13
  -2   1   4  360.89    7.99
  -2   1   4  335.13    8.28
  -2   1   4  330.83    7.98
   2   1  -4  342.65    8.36
   2  -1  -4  338.75    8.35
  -2  -1   4  349.51    8.23
  -2  -1   4  355.11    8.21
  -2   1   3  288.11    6.93
  -2   1   3  294.68    7.03
  -2   1   3  302.60    6.78
   2   1  -3  280.77    6.84
  -2   1   3  295.66    6.79
   2   1  -3  282.16    7.07
   2  -1  -3  283.20    7.07
  -2  -1   3  294.90    6.96
  -2  -1   3  291.39    6.97
  -2  -1   3  291.53    6.93
   2   1  -2  384.57    9.03
  -2   1   2  386.89    8.97
  -2   1   2  364.65    8.83
  -2   1   2  388.06    8.90
   2  -1  -2  373.44    8.85
  -2  -1   2  392.54    8.91
  -2  -1   2  343.82    8.81
  -2  -1   2  395.32    8.98
   2  -1  -2  387.54    9.02
   2   1  -1  491.46   13.31
   2   1  -1  617.27   13.48
   2   1  -1  514.71   13.36
  -2   1   1  598.86   13.73
  -2   1   1  595.76   13.33
   2   1  -1  589.42   13.52
  -2   1   1  601.14   13.33
   2  -1  -1  591.67   13.57
  -2  -1   1  577.40   13.43
   2  -1  -1  575.89   13.42
  -2  -1   1  544.47   13.41
   2  -1  -1  579.24   13.29
   2   1   0  429.42   10.29
  -2   1   0  459.00   10.27
  -2   1   0  447.29   10.28
   2   1   0  426.46   10.29
   2   1   0  417.88   10.33
  -2   1   0  499.72   10.43
   2   1   0  469.10   10.48
   2  -1   0  485.84   10.62
  -2  -1   0  394.57   10.25
   2  -1   0  453.66   10.29
  -2  -1   0  405.91   10.31
   2  -1   0  396.57   10.28
  -2  -1   0  443.48   10.22
   2   1   1  542.91   12.08
  -2   1  -1  503.97   12.06
   2   1   1  508.14   12.06
  -2   1  -1  524.34   12.12
   2   1   1  523.07   12.12
   2   1   1  515.85   12.03
   2  -1   1  539.05   12.11
   2  -1   1  493.51   12.08
   2  -1   1  528.85   12.31
   2  -1   1  521.54   11.99
  -2  -1  -1  493.61   12.01
  -2   1  -2  335.72    7.43
  -2   1  -2  311.00    7.64
   2   1   2  323.90    7.55
  -2  -1  -2  300.46    7.45
   2  -1   2  311.97    7.53
  -2  -1  -2  322.02    7.48
  -2  -1  -2  319.50    7.63
   2  -1   2  319.77    7.59
   2  -1   2  319.17    7.44
   2   1   3  220.01    5.88
  -2   1  -3  248.16    5.99
   2   1   3  240.89    5.80
  -2   1  -3  247.88    5.68
   2  -1   3  235.49    5.69
  -2  -1  -3  240.97    5.75
   2  -1   3  247.47    5.87
   2  -1   3  236.53    5.82
  -2  -1  -3  244.27    5.97
   2   1   4  121.73    3.42
  -2   1  -4  131.83    3.53
   2   1   4  131.71    3.29
  -2   1  -4  131.53    3.17
  -2  -1  -4  128.43    3.51
  -2  -1  -4  128.67    3.27
   2  -1   4  129.16    3.35
   2  -1   4  123.34    3.35
  -2   1  -5   15.78    0.90
   2   1   5   15.43    0.72
  -2   1  -5   15.08    0.63
   2   1   5   14.70    0.81
   2  -1   5   15.74    0.77
   2  -1   5   15.54    0.77
  -2  -1  -5   15.04    0.75
  -2  -1  -5   15.83    0.91
  -2   1  -6   77.26    2.55
   2   1   6   79.31    2.24
   2   1   6   75.40    2.46
  -2   1  -6   78.73    2.16
  -2  -1  -6   79.72    2.30
   2  -1   6   79.21    2.35
  -2  -1  -6   78.38    2.54
   2  -1   6   74.92    2.36
  -2   1  -7   36.45    1.65
  -2   1  -7   38.87    1.31
   2   1   7   38.65    1.39
   2   1   7   36.41    1.58
  -2  -1  -7   35.12    1.61
  -2  -1  -7   39.86    1.45
   2  -1   7   36.96    1.45
   2  -1   7   35.30    1.49
  -2   1  -8   52.31    2.21
   2   1   8   51.24    2.06
  -2  -1  -8   52.77    2.15
   2  -1   8   50.49    1.88
   2  -1   8   49.62    1.95
  -2   1  -9   59.45    2.58
   2   1   9   60.13    2.43
   2  -1   9   59.07    2.23
  -2  -1  -9   61.93    2.57
   2  -1   9   61.75    2.31
  -2   2   9  220.82    6.16
   2   2  -9  220.76    6.13
   2   2  -9  221.96    5.97
  -2  -2   9  220.56    5.90
   2  -2  -9  210.64    6.29
  -2  -2   9  227.81    6.02
   2  -2  -9  225.23    6.26
  -2   2   8    6.32    0.78
   2   2  -8    7.24    0.83
   2  -2  -8    7.31    0.97
   2  -2  -8    7.83    1.02
  -2  -2   8    5.77    0.77
  -2  -2   8    5.17    0.74
  -2   2   7  324.55    8.36
   2   2  -7  327.89    8.44
   2   2  -7  327.75    8.45
  -2  -2   7  344.07    8.39
   2  -2  -7  330.03    8.45
  -2  -2   7  327.23    8.29
   2  -2  -7  325.34    8.56
   2   2  -6    0.98    0.41
   2   2  -6    1.85    0.36
  -2   2   6    0.97    0.36
  -2  -2   6    1.23    0.32
   2  -2  -6    1.50    0.40
  -2  -2   6    1.38    0.35
  -2   2   5  214.19    5.54
   2   2  -5  212.79    5.68
   2   2  -5  215.44    5.39
  -2   2   5  218.05    5.53
   2  -2  -5  219.88    5.68
  -2  -2   5  212.19    5.53
  -2  -2   5  224.10    5.36
  -2   2   4    1.14    0.25
   2   2  -4    1.40    0.24
  -2   2   4    1.20    0.27
   2   2  -4    1.16    0.27
  -2  -2   4    1.35    0.24
   2  -2  -4    1.06    0.31
  -2  -2   4    1.34    0.28
  -2   2   3  230.90    5.71
   2   2  -3  234.62    5.58
   2   2  -3  229.86    5.79
  -2   2   3  220.98    5.67
   2  -2  -3  234.53    5.80
  -2  -2   3  230.77    5.54
  -2  -2   3  238.06    5.75
   2   2  -2   13.13    0.51
  -2   2   2   12.91    0.43
   2   2  -2   13.83    0.64
  -2   2   2   13.17    0.59
  -2   2   2   12.95    0.57
   2   2  -2   12.76    0.53
  -2  -2   2   13.53    0.62
  -2  -2   2   12.93    0.49
   2  -2  -2   12.93    0.63
   2  -2  -2   14.01    0.47
  -2   2   1  331.72    7.75
   2   2  -1  341.84    7.74
   2   2  -1  327.27    7.90
  -2   2   1  329.17    7.85
  -2  -2   1  317.39    7.76
  -2  -2   1  344.41    7.87
   2  -2  -1  336.01    7.73
  -2  -2   1  292.17    7.71
   2  -2  -1  335.69    7.89
   2   2   0    6.92    0.38
   2   2   0    7.39    0.44
   2   2   0    7.16    0.36
   2   2   0    7.55    0.39
  -2   2   0    7.19    0.33
   2  -2   0    7.41    0.37
   2  -2   0    7.54    0.38
   2  -2   0    6.96    0.40
   2   2   1  241.16    5.89
  -2   2  -1  237.56    5.97
   2   2   1  248.75    5.96
  -2   2  -1  239.93    5.79
  -2   2  -1  245.02    5.78
   2   2   1  240.46    5.90
   2   2   1  240.94    5.84
   2  -2   1  256.53    5.90
   2  -2   1  249.20    5.94
  -2   2  -2    5.03    0.43
   2   2   2    5.31    0.32
  -2   2  -2    5.07    0.36
   2   2   2    4.82    0.37
   2   2   2    4.65    0.37
  -2   2  -2    5.41    0.34
   2  -2   2    5.30    0.33
   2  -2   2    5.68    0.42
  -2   2  -3  393.78    9.45
   2   2   3  381.85    9.39
   2   2   3  394.34    9.40
  -2   2  -3  387.74    9.21
   2   2   3  399.32    9.17
   2  -2   3  385.31    9.20
   2  -2   3  403.38    9.41
  -2  -2  -3  368.58    9.31
  -2   2  -4    6.74    0.44
   2   2   4    6.68    0.42
  -2  -2  -4    6.79    0.58
  -2  -2  -4    6.73    0.55
   2  -2   4    7.07    0.46
  -2   2  -5  343.87    8.13
  -2   2  -5  331.54    8.48
   2   2   5  335.78    8.43
   2   2   5  346.17    8.05
  -2  -2  -5  328.35    8.28
   2  -2   5  340.94    8.20
   2  -2   5  338.38    9.17
  -2  -2  -5  336.81    8.51
   2   2   6   15.56    0.99
  -2   2  -6   17.69    0.80
   2   2   6   18.52    0.79
  -2   2  -6   18.71    1.08
   2  -2   6   16.16    0.93
  -2  -2  -6   17.93    1.00
  -2  -2  -6   16.14    1.03
  -2   2  -7  220.52    5.55
  -2   2  -7  219.74    6.04
   2   2   7  217.38    5.96
  -2  -2  -7  224.06    6.15
  -2  -2  -7  224.77    5.80
   2  -2   7  224.52    5.84
   2  -2   7  210.76    5.70
  -2   2  -8   -0.17    0.55
   2   2   8    0.69    0.49
  -2  -2  -8    0.26    0.51
   2  -2   8    0.80    0.52
   2  -2   8   -0.60    0.41
   2   2   9  124.99    4.03
  -2   2  -9  125.55    4.15
   2  -2   9  123.43    3.83
   2  -2   9  123.52    3.84
  -2  -2  -9  130.00    4.18
   2   3  -9   39.93    1.78
  -2   3   9   38.74    1.90
   2   3  -9   40.29    1.92
  -2  -3   9   36.24    2.11
   2  -3  -9   32.85    2.26
   2   3  -8    0.87    0.53
  -2   3   8    0.88    0.55
   2   3  -8    1.06    0.50
  -2  -3   8    1.20    0.49
  -2  -3   8    1.24    0.51
   2  -3  -8    1.79    0.70
   2  -3  -8    1.31    0.62
   2   3  -7   31.40    1.35
  -2   3   7   32.01    1.44
   2   3  -7   31.09    1.50
  -2  -3   7   31.33    1.49
   2  -3  -7   31.25    1.55
   2  -3  -7   29.07    1.62
   2   3  -6   32.47    1.27
  -2   3   6   30.93    1.39
  -2   3   6   30.42    1.35
   2   3  -6   32.02    1.43
  -2  -3   6   30.86    1.39
  -2  -3   6   32.41    1.15
   2  -3  -6   31.04    1.48
   2   3  -5   49.79    1.82
  -2   3   5   49.46    1.76
  -2   3   5   49.31    1.71
   2   3  -5   50.53    1.62
   2  -3  -5   49.81    1.87
  -2  -3   5   47.93    1.75
  -2  -3   5   51.46    1.48
  -2   3   4  210.66    5.43
   2   3  -4  207.77    5.51
   2   3  -4  210.03    5.25
  -2  -3   4  212.92    5.06
  -2  -3   4  209.86    5.56
   2   3  -3   58.48    1.76
   2   3  -3   59.29    1.98
  -2   3   3   61.14    1.89
   2   3  -3   61.77    1.75
  -2   3   3   60.14    1.80
  -2  -3   3   63.66    1.60
  -2   3   2  213.73    5.17
  -2   3   2  208.43    5.33
   2   3  -2  214.38    5.41
   2   3  -2  211.45    5.19
   2  -3  -2  211.75    5.05
  -2  -3   2  216.81    5.35
  -2  -3   2  200.41    5.02
   2  -3  -2  206.88    5.39
  -2  -3   2  215.07    5.01
   2   3  -1   68.60    2.12
  -2   3   1   74.06    2.10
   2   3  -1   71.15    1.97
  -2   3   1   74.90    1.90
  -2  -3   1   69.67    2.04
   2  -3  -1   66.79    2.08
  -2  -3   1   71.51    1.86
   2  -3  -1   72.74    1.91
  -2  -3   1   70.62    1.89
   2   3   0  291.76    7.62
  -2   3   0  314.26    7.61
   2   3   0  305.54    7.47
   2   3   0  308.97    7.42
  -2   3   0  319.20    7.30
   2  -3   0  305.37    7.57
  -2  -3   0  300.89    7.48
   2  -3   0  349.39    7.54
   2  -3   0  298.64    7.46
  -2   3  -1  103.94    2.94
   2   3   1  110.79    2.99
  -2   3  -1  110.21    2.62
  -2   3  -1  100.69    2.57
   2   3   1  112.17    2.82
   2   3   1  105.86    2.86
  -2  -3  -1  106.89    2.80
   2  -3   1  107.69    2.90
   2  -3   1  105.46    2.88
  -2   3  -2  168.91    3.96
  -2   3  -2  171.58    4.40
  -2   3  -2  163.60    3.98
  -2   3  -2  169.15    4.29
   2   3   2  169.79    4.27
   2   3   2  159.37    4.29
  -2  -3  -2  170.86    4.15
  -2  -3  -2  165.89    4.38
   2  -3   2  169.40    4.36
   2   3   3   50.43    1.66
  -2   3  -3   52.05    1.62
  -2   3  -3   51.38    1.43
   2   3   3   52.70    1.44
  -2   3  -3   49.84    1.75
   2   3   3   51.75    1.70
  -2   3  -3   52.83    1.41
  -2  -3  -3   52.65    1.73
   2  -3   3   48.50    1.69
   2   3   4   22.82    1.05
  -2   3  -4   22.38    0.94
   2   3   4   21.67    0.74
  -2   3  -4   22.14    1.09
   2   3   4   22.65    1.06
  -2  -3  -4   22.33    1.06
   2  -3   4   21.12    1.03
   2  -3   4   23.17    0.85
   2   3   5   63.99    2.17
   2   3   5   64.05    1.68
  -2   3  -5   63.34    2.23
  -2   3  -5   65.51    1.98
   2  -3   5   63.53    2.17
  -2  -3  -5   64.29    2.14
  -2  -3  -5   64.20    2.24
   2  -3   5   66.35    1.90
   2   3   6   11.52    0.91
  -2   3  -6   12.45    0.97
   2  -3   6   11.66    0.80
  -2  -3  -6   12.05    0.98
   2  -3   6   10.24    0.89
  -2   3  -7   41.59    1.86
  -2   3  -7   40.25    1.51
   2   3   7   42.79    1.84
   2  -3   7   38.92    1.54
   2  -3   7   40.25    1.71
  -2  -3  -7   39.40    1.76
  -2  -3  -7   40.73    1.89
  -2   3  -8    6.34    1.12
   2   3   8    5.38    0.87
   2  -3   8    6.70    0.94
  -2  -3  -8    9.44    1.34
  -2  -3  -8    7.65    1.13
   2   4  -8   47.27    1.89
  -2   4   8   44.95    1.99
   2   4  -8   45.39    2.09
   2  -4  -8   36.70    3.25
  -2  -4   8   49.11    2.08
   2  -4  -8   47.13    2.26
  -2   4   7   11.95    1.15
   2   4  -7   14.43    0.99
   2   4  -7   12.22    1.09
  -2   4   7   13.32    1.04
  -2  -4   7   13.12    1.10
   2  -4  -7   12.41    1.24
  -2   4   6   63.21    2.19
   2   4  -6   64.85    2.33
   2   4  -6   59.37    2.06
  -2   4   6   64.45    2.31
  -2  -4   6   63.52    2.32
   2  -4  -6   60.65    2.39
  -2   4   5    3.63    0.54
   2   4  -5    4.25    0.55
  -2   4   5    2.58    0.51
   2   4  -5    4.06    0.62
  -2  -4   5    2.46    0.48
   2  -4  -5    3.30    0.58
  -2   4   4   38.28    1.54
   2   4  -4   39.19    1.40
   2   4  -4   38.31    1.58
  -2   4   4   40.58    1.58
  -2  -4   4   37.08    1.52
  -2   4   3   11.62    0.66
  -2   4   3   11.91    0.79
   2   4  -3   11.19    0.81
   2  -4  -3   12.45    0.84
  -2  -4   3   12.17    0.82
   2  -4  -3   12.40    0.53
  -2   4   2   32.42    1.10
   2   4  -2   32.64    1.20
  -2   4   2   31.27    1.45
   2   4  -2   30.52    1.33
   2  -4  -2   33.18    1.38
  -2  -4   2   32.83    1.30
   2  -4  -2   33.09    1.05
  -2   4   1    9.69    0.67
  -2   4   1   10.34    0.51
   2   4  -1   10.64    0.65
   2   4  -1   10.37    0.77
   2  -4  -1   10.68    0.75
   2  -4  -1   10.71    0.61
  -2  -4   1   12.08    0.53
  -2  -4   1   11.54    0.52
  -2   4   0   10.87    0.44
   2   4   0   10.23    0.72
   2   4   0   11.42    0.61
  -2   4   0   12.22    0.74
   2  -4   0    9.77    0.68
   2  -4   0   10.71    0.62
  -2  -4   0   10.90    0.65
   2   4   1   27.63    1.01
   2   4   1   26.42    1.23
   2   4   1   26.74    1.08
  -2  -4  -1   25.98    1.19
  -2  -4  -1   26.62    1.03
   2  -4   1   26.80    1.13
   2   4   2   40.09    1.37
  -2   4  -2   38.86    1.45
   2   4   2   37.04    1.44
  -2   4  -2   38.46    1.48
  -2  -4  -2   40.77    1.29
  -2  -4  -2   38.56    1.55
   2   4   3    2.31    0.40
   2   4   3    2.15    0.38
  -2   4  -3    1.87    0.39
  -2   4  -3    1.18    0.34
   2  -4   3    1.56    0.36
  -2  -4  -3    2.35    0.31
  -2  -4  -3    1.26    0.39
   2   4   4   95.55    2.95
  -2   4  -4   96.81    2.84
  -2   4  -4   97.40    3.02
   2   4   4   96.99    2.89
   2  -4   4   95.52    2.97
  -2  -4  -4   99.17    2.50
  -2  -4  -4   95.66    3.04
  -2   4  -5    7.58    0.73
  -2   4  -5    8.64    0.81
   2   4   5    7.53    0.84
   2   4   5    7.34    0.78
   2  -4   5    6.52    0.77
  -2  -4  -5    6.74    0.86
  -2   4  -6   81.58    2.80
  -2   4  -6   78.58    2.50
   2   4   6   78.14    2.69
   2  -4   6   81.34    2.76
  -2  -4  -6   78.45    2.80
  -2  -4  -6   79.26    2.73
  -2   4  -7    3.84    0.82
   2   4   7    3.94    0.73
  -2   4  -7    4.04    0.81
  -2  -4  -7    3.84    0.77
  -2  -4  -7    4.27    0.76
   2   5  -7    5.62    0.76
  -2   5   7    6.29    0.92
  -2   5   7    5.13    0.98
   2   5  -7    5.83    0.90
  -2  -5   7    7.11    0.98
   2  -5  -7    5.11    0.93
  -2   5   6   30.33    1.55
  -2   5   6   24.39    1.33
   2   5  -6   28.80    1.62
   2   5  -6   25.30    1.34
   2  -5  -6   27.48    1.65
   2   5  -5   -0.32    0.44
   2   5  -5    0.94    0.44
  -2   5   5    0.83    0.42
  -2   5   5    1.12    0.50
  -2  -5   5    0.62    0.39
   2  -5  -5    0.60    0.50
   2   5  -4    2.84    0.58
  -2   5   4    4.20    0.69
  -2   5   4    4.30    0.55
   2   5  -4    4.44    0.63
  -2  -5   4    3.63    0.56
   2  -5  -4    3.78    0.66
   2   5  -3   12.41    0.81
   2   5  -3   12.99    1.00
  -2   5   3   14.46    0.96
  -2   5   3   12.34    0.76
  -2  -5   3   12.80    0.90
   2  -5  -3   12.19    0.97
  -2   5   2   11.82    0.90
  -2   5   2   12.11    0.68
   2   5  -2   12.45    0.98
   2   5  -2   13.07    0.82
   2  -5  -2   13.92    1.01
  -2  -5   2   11.63    0.85
   2  -5  -2   12.90    0.70
  -2   5   1   41.57    1.25
   2   5  -1   41.07    1.68
  -2   5   1   43.11    1.67
   2   5  -1   39.81    1.52
   2  -5  -1   41.33    1.44
   2  -5  -1   40.29    1.69
  -2  -5   1   40.59    1.58
   2   5   0    0.45    0.40
   2   5   0    1.07    0.32
  -2  -5   0    0.97    0.36
   2  -5   0    1.04    0.32
  -2  -5   0    1.70    0.37
   2  -5   0    0.91    0.38
  -2   5  -1   44.21    1.74
   2   5   1   48.53    1.55
   2   5   1   46.59    1.69
  -2  -5  -1   43.59    1.82
   2  -5   1   47.22    1.76
  -2  -5  -1   44.27    1.76
   2  -5   1   46.73    1.69
   2   5   2    6.96    0.66
   2   5   2    7.08    0.68
  -2   5  -2    6.37    0.76
   2  -5   2    4.62    0.70
   2  -5   2    6.45    0.72
  -2  -5  -2    4.72    0.70
   2   5   3    0.40    0.39
  -2   5  -3    0.76    0.39
  -2   5  -3    0.76    0.40
   2  -5   3    0.89    0.41
  -2  -5  -3    2.18    0.57
  -2  -5  -3    0.31    0.33
   2   5   4   31.03    1.49
   2   5   4   32.97    1.43
  -2   5  -4   32.12    1.54
  -2   5  -4   28.93    1.40
   2  -5   4   32.47    1.52
  -2  -5  -4   31.39    1.64
   2   5   5    7.71    0.93
  -2   5  -5    7.23    0.96
   2   5   5    9.35    0.93
  -2   5  -5    8.85    0.87
   2  -5   5    8.56    0.92
  -2  -5  -5    6.99    1.02
   2   5   6   21.82    1.37
   2   5   6   20.79    1.37
  -2   5  -6   20.66    2.17
  -2   5  -6   20.99    1.30
  -2  -5  -6   22.74    1.51
   2  -5   6   21.41    1.41
  -2  -5  -6   21.68    1.60
  -2   6   5    1.25    0.63
   2   6  -5    1.39    0.56
  -2   6   5    1.53    0.68
   2   6  -5    2.09    0.74
  -2  -6   5    2.23    0.69
   2  -6  -5    1.52    0.72
  -2   6   4    6.07    0.87
   2   6  -4    5.32    1.26
   2   6  -4    5.66    0.73
  -2  -6   4    6.08    0.88
   2  -6  -4    3.35    0.86
   2   6  -3    0.95    0.57
  -2   6   3   -0.30    0.44
   2   6  -3    0.34    0.41
  -2  -6   3    1.56    0.55
   2  -6  -3    1.86    0.66
   2   6  -2   22.17    1.19
  -2   6   2   24.41    1.37
   2   6  -2   23.43    1.38
  -2  -6   2   20.62    1.28
   2  -6  -2   22.28    1.46
   2   6  -1    0.87    0.43
  -2   6   1    0.24    0.43
   2   6  -1    0.06    0.42
   2  -6  -1    0.08    0.51
   2  -6  -1    0.29    0.38
  -2  -6   1   -0.27    0.40
   2   6   0   39.15    1.66
  -2   6   0   40.79    1.76
  -2  -6   0   40.92    1.66
   2  -6   0   43.87    1.83
  -2  -6   0   37.76    1.84
   2  -6   0   40.47    1.61
   2   6   1    5.15    0.76
  -2   6  -1    4.98    0.73
   2  -6   1    3.97    0.69
  -2  -6  -1    3.87    0.68
  -2  -6  -1    4.68    0.61
   2  -6   1    4.01    0.63
   2   6   2   12.00    1.03
  -2   6  -2   12.12    1.06
   2  -6   2   13.45    1.02
  -2  -6  -2   13.81    1.20
   2  -6   2   14.47    1.10
   2   6   3    0.45    0.52
   2   6   3    0.00    0.46
  -2   6  -3   -0.08    0.49
  -2  -6  -3    0.27    0.63
   2  -6   3    0.69    0.52
   2  -6   3   -0.41    0.44
   2   6   4    4.03    0.72
  -2   6  -4    2.25    0.67
   2   6   4    2.57    0.61
   2  -6   4    2.51    0.67
   2  -6   4    2.15    0.64
  -2  -6  -4    3.76    0.86
  -2   7   1   17.51    1.34
   2   7  -1   13.00    1.13
   2  -7  -1   16.45    1.41
  -2  -7   1   15.10    1.27
  -2  -7   1   12.58    1.38
   2   7   0    8.72    0.99
  -2   7   0    6.89    0.98
  -2  -7   0    7.45    1.07
  -2  -7   0    9.15    1.16
   2  -7   0    9.03    1.05
   2  -7   0    7.57    1.04
   3   0  -9   -0.96    0.52
   3   0  -9    0.81    0.52
  -3   0   9    0.83    0.53
  -3   0   8   15.00    1.01
   3   0  -8   14.41    1.10
   3   0  -8   13.89    0.99
   3   0  -7   -0.08    0.38
  -3   0   7    0.39    0.28
   3   0  -7   -0.51    0.38
  -3   0   7    0.09    0.34
  -3   0   6   69.36    1.98
   3   0  -6   67.81    2.03
   3   0  -6   67.98    2.99
  -3   0   5    0.05    0.17
   3   0  -5    0.05    0.27
  -3   0   5   -0.23    0.24
   3   0  -5    0.06    0.21
   3   0  -4   75.70    2.27
  -3   0   4   75.41    2.04
  -3   0   4   76.50    2.17
   3   0  -4   75.02    2.01
  -3   0   3    0.30    0.18
   3   0  -3    0.08    0.10
   3   0  -3    0.11    0.10
   3   0  -3    0.14    0.18
   3   0  -3    0.14    0.11
   3   0  -2   36.34    1.16
  -3   0   2   35.48    1.14
   3   0  -2   37.30    1.09
  -3   0   2   37.18    0.91
   3   0  -2   37.27    0.91
   3   0  -1    0.07    0.10
   3   0  -1    0.11    0.07
  -3   0   1    0.12    0.15
   3   0  -1    0.25    0.11
  -3   0   0   18.37    0.62
   3   0   0   20.68    0.74
   3   0   0   19.44    0.62
   3   0   0   19.95    0.62
  -3   0   0   20.51    0.63
   3   0   1    0.03    0.11
  -3   0  -1    0.16    0.12
   3   0   1    0.34    0.06
  -3   0  -1    0.22    0.07
   3   0   1    0.06    0.13
  -3   0  -2   29.46    1.02
   3   0   2   29.60    1.01
   3   0   2   30.28    1.03
   3   0   3    0.31    0.18
  -3   0  -3    0.01    0.19
   3   0   3    0.57    0.23
   3   0   4   39.57    1.00
   3   0   4   36.43    1.28
  -3   0  -4   38.15    1.41
   3   0   4   38.41    1.35
  -3   0  -5    0.50    0.34
  -3   0  -5    0.29    0.16
   3   0   5    0.53    0.19
   3   0   5    0.21    0.28
   3   0   5    0.53    0.25
  -3   0  -6    9.67    0.79
   3   0   6   10.04    0.70
   3   0   6    9.48    0.74
  -3   0  -6   10.62    0.52
   3   0   7   -0.24    0.33
   3   0   7    0.32    0.40
  -3   0  -7   -0.31    0.45
   3   0   8   18.90    1.23
  -3   0  -8   19.39    1.33
   3   0   8   18.36    1.07
   3   0   9   -0.04    0.60
  -3   0  -9    2.28    0.79
  -3   1   9    0.07    0.49
   3   1  -9    1.17    0.58
   3   1  -9    0.04    0.55
  -3  -1   9   -0.24    0.44
  -3  -1   9    0.83    0.50
   3  -1  -9    0.57    0.56
   3  -1  -9    1.79    0.70
   3   1  -8   18.63    1.25
   3   1  -8   17.54    1.07
  -3   1   8   18.94    1.16
  -3  -1   8   18.18    1.09
   3  -1  -8   18.46    1.16
   3  -1  -8   19.12    1.32
  -3  -1   8   19.51    1.04
   3   1  -7   23.08    1.23
  -3   1   7   21.00    1.12
   3   1  -7   22.59    1.06
  -3   1   7   23.05    0.83
  -3  -1   7   21.76    1.03
  -3  -1   7   23.30    1.09
   3  -1  -7   20.04    1.25
   3  -1  -7   20.47    1.16
  -3   1   6    5.40    0.53
   3   1  -6    5.30    0.64
  -3   1   6    5.88    0.40
   3   1  -6    5.33    0.52
   3  -1  -6    5.76    0.60
   3  -1  -6    6.89    0.75
  -3  -1   6    4.53    0.53
  -3  -1   6    4.70    0.53
   3   1  -5  101.09    2.60
  -3   1   5  101.65    2.50
  -3   1   5   97.12    2.83
   3  -1  -5  100.80    2.74
  -3  -1   5  102.57    2.77
  -3  -1   5  100.10    2.73
   3  -1  -5   85.33    3.26
  -3   1   4   11.75    0.55
   3   1  -4   12.67    0.73
   3   1  -4   11.74    0.48
  -3   1   4   12.34    0.48
  -3   1   4   12.77    0.69
   3  -1  -4   11.13    0.71
  -3  -1   4   11.72    0.62
  -3  -1   4   11.92    0.62
  -3   1   3   29.44    1.06
  -3   1   3   30.47    0.94
   3   1  -3   31.66    1.14
   3   1  -3   30.72    0.83
  -3  -1   3   30.57    1.02
  -3  -1   3   30.30    0.85
   3  -1  -3   30.76    1.12
   3  -1  -3   31.25    0.90
  -3  -1   3   30.09    1.03
   3   1  -2   30.04    1.04
   3   1  -2   29.16    0.97
   3   1  -2   30.54    0.75
  -3   1   2   31.64    1.02
  -3   1   2   31.05    0.90
  -3  -1   2   30.10    0.77
  -3  -1   2   29.40    0.98
   3  -1  -2   30.97    0.93
   3   1  -1    2.76    0.14
   3   1  -1    2.10    0.25
  -3   1   1    2.76    0.22
   3   1  -1    2.00    0.24
  -3  -1   1    2.44    0.29
   3  -1  -1    1.99    0.25
   3  -1  -1    2.14    0.24
  -3  -1   1    2.16    0.15
  -3   1   0   90.54    2.39
   3   1   0   89.46    2.39
  -3   1   0   92.48    2.36
  -3   1   0   91.95    2.41
   3   1   0   90.90    2.33
   3  -1   0   94.90    2.40
   3  -1   0   95.40    2.30
  -3  -1   0   88.34    2.47
  -3  -1   0   86.17    2.26
  -3  -1   0   94.25    2.28
   3   1   1   14.35    0.59
   3   1   1   14.06    0.50
   3   1   1   14.16    0.62
  -3   1  -1   13.50    0.58
  -3   1  -1   13.73    0.61
   3  -1   1   12.68    0.45
  -3  -1  -1   12.53    0.48
   3  -1   1   11.98    0.56
  -3  -1  -1   13.40    0.55
   3  -1   1   13.12    0.44
  -3   1  -2  166.58    4.27
   3   1   2  166.88    4.21
   3   1   2  163.97    4.25
   3  -1   2  162.97    4.22
  -3  -1  -2  166.02    4.02
  -3  -1  -2  172.27    4.04
   3  -1   2  165.59    3.94
   3  -1   2  172.84    3.97
   3  -1   2  170.88    4.22
  -3  -1  -2  171.94    4.25
  -3   1  -3   14.03    0.47
   3   1   3   14.24    0.67
  -3   1  -3   14.26    0.75
   3   1   3   13.90    0.70
   3  -1   3   14.31    0.66
  -3  -1  -3   13.60    0.52
  -3  -1  -3   15.90    0.55
   3  -1   3   14.99    0.47
  -3  -1  -3   14.56    0.73
   3  -1   3   14.80    0.69
  -3   1  -4  100.04    2.39
   3   1   4   96.48    2.66
   3  -1   4   97.54    2.40
   3  -1   4   98.52    2.72
  -3  -1  -4   98.51    2.50
  -3  -1  -4   92.39    3.05
   3  -1   4   97.36    2.72
  -3   1  -5    1.00    0.18
   3   1   5    0.51    0.27
  -3   1  -5    0.71    0.33
   3   1   5    0.40    0.27
   3  -1   5    1.05    0.30
  -3  -1  -5    0.75    0.31
  -3  -1  -5    0.82    0.28
  -3   1  -6   21.55    1.21
   3   1   6   22.16    1.03
   3   1   6   22.67    1.13
  -3   1  -6   22.64    0.80
   3  -1   6   21.35    1.07
  -3  -1  -6   22.42    0.90
   3  -1   6   21.01    1.04
  -3  -1  -6   23.07    1.21
   3   1   7   15.74    0.93
  -3   1  -7   15.00    1.14
   3   1   7   13.71    1.02
  -3  -1  -7   15.20    1.12
   3  -1   7   15.00    0.97
   3  -1   7   15.28    1.00
  -3   1  -8    3.08    0.70
   3   1   8    3.83    0.68
   3  -1   8    3.75    0.61
  -3  -1  -8    2.07    0.64
   3  -1   8    3.38    0.67
   3   1   9    7.00    0.97
  -3   1  -9    6.77    1.07
   3  -1   9    6.39    0.95
   3  -1   9    8.66    1.04
  -3  -1  -9    7.46    1.00
   3   2  -9    1.25    0.68
  -3   2   9    1.65    0.60
   3   2  -9    1.75    0.60
   3  -2  -9    0.89    0.65
  -3  -2   9    0.76    0.55
  -3  -2   9    1.34    0.56
   3  -2  -9    1.74    0.76
   3   2  -8   32.19    1.62
  -3   2   8   30.29    1.50
   3   2  -8   30.67    1.34
  -3  -2   8   27.92    1.42
   3  -2  -8   31.59    1.62
   3  -2  -8   31.17    1.70
  -3  -2   8   30.63    1.38
   3   2  -7   29.57    1.46
  -3   2   7   28.57    1.36
   3  -2  -7   31.70    1.58
  -3  -2   7   28.57    1.32
   3  -2  -7   31.30    1.43
  -3  -2   7   29.03    1.22
  -3   2   6   26.46    1.21
   3   2  -6   24.94    1.00
   3   2  -6   25.67    1.26
  -3  -2   6   24.73    1.15
  -3  -2   6   25.55    1.06
   3  -2  -6   26.53    1.21
   3  -2  -6   24.54    1.25
   3   2  -5   79.81    2.57
  -3   2   5   80.38    2.37
  -3   2   5   94.47    3.01
   3   2  -5   80.58    2.21
   3  -2  -5   81.02    2.80
  -3  -2   5   78.13    2.43
  -3  -2   5   79.42    2.31
   3   2  -4   25.37    1.13
   3   2  -4   24.84    0.84
  -3   2   4   24.20    1.03
  -3   2   4   25.81    0.98
  -3   2   4   25.05    0.71
  -3  -2   4   26.20    1.06
   3  -2  -4   24.91    1.14
  -3  -2   4   24.89    0.93
   3   2  -3   65.88    2.02
  -3   2   3   65.20    1.92
  -3   2   3   61.95    1.65
   3   2  -3   67.51    1.71
  -3   2   3   63.71    1.85
  -3  -2   3   64.51    1.81
  -3  -2   3   66.17    1.95
   3  -2  -3   63.53    1.67
   3   2  -2  174.94    4.08
  -3   2   2  161.91    4.23
   3   2  -2  171.93    4.36
  -3   2   2  166.20    4.24
  -3  -2   2  171.26    4.32
  -3  -2   2  170.05    4.20
   3  -2  -2  173.13    4.15
   3  -2  -2  166.78    4.32
  -3   2   1   43.51    1.29
   3   2  -1   44.54    1.35
   3   2  -1   42.94    1.40
   3   2  -1   44.66    1.20
  -3   2   1   43.25    1.34
  -3  -2   1   42.57    1.36
   3  -2  -1   43.81    1.35
   3  -2  -1   43.23    1.27
   3   2   0  141.82    3.62
   3   2   0  140.16    3.59
  -3   2   0  144.76    3.50
   3   2   0  138.68    3.54
   3   2   0  145.17    3.46
  -3   2   0  135.93    3.58
   3  -2   0  136.66    3.53
   3  -2   0  135.76    3.52
   3   2   1    1.24    0.24
   3   2   1    1.73    0.29
  -3   2  -1    1.54    0.27
   3   2   1    1.54    0.23
  -3   2  -1    2.07    0.28
   3   2   1    1.44    0.22
   3  -2   1    1.43    0.23
   3  -2   1    1.55    0.23
   3   2   2  150.86    3.94
   3   2   2  155.28    4.00
   3   2   2  159.62    3.89
  -3   2  -2  157.41    4.05
  -3   2  -2  151.45    3.90
   3  -2   2  156.66    3.80
   3  -2   2  151.18    3.97
  -3  -2  -2  152.66    3.92
  -3   2  -3    9.53    0.63
  -3   2  -3   10.26    0.47
   3   2   3   10.11    0.55
   3   2   3    9.93    0.63
   3  -2   3    9.75    0.60
  -3  -2  -3    9.27    0.60
   3  -2   3    9.89    0.56
  -3  -2  -3    9.99    0.57
   3   2   4  143.12    4.05
   3   2   4  153.02    3.86
  -3   2  -4  160.01    3.77
  -3   2  -4  151.47    4.16
   3  -2   4  153.54    3.94
   3  -2   4  146.35    4.02
  -3  -2  -4  153.41    3.91
  -3  -2  -4  149.12    4.13
   3   2   5    1.83    0.42
  -3   2  -5    2.63    0.49
   3   2   5    2.16    0.35
  -3   2  -5    3.19    0.34
   3  -2   5    2.42    0.43
  -3  -2  -5    2.04    0.42
   3  -2   5    1.34    0.35
  -3  -2  -5    2.17    0.40
   3   2   6   33.97    1.25
   3   2   6   34.33    1.49
  -3   2  -6   33.95    1.14
  -3   2  -6   34.26    1.59
   3  -2   6   32.62    1.34
   3  -2   6   32.14    1.40
  -3  -2  -6   32.99    1.55
  -3  -2  -6   35.43    1.36
   3   2   7   43.64    1.86
  -3   2  -7   45.55    1.99
   3  -2   7   43.30    1.71
   3  -2   7   45.54    1.78
  -3  -2  -7   44.62    1.94
  -3   2  -8   21.65    1.52
   3  -2   8   22.90    1.30
   3  -2   8   22.30    1.30
   3   3  -8   18.06    1.26
   3   3  -8   12.92    1.07
  -3   3   8   15.19    1.17
  -3  -3   8   13.36    1.15
   3  -3  -8   14.68    1.47
  -3  -3   8   17.75    1.02
   3  -3  -8   16.28    1.32
  -3   3   7   56.71    2.10
  -3   3   7   56.44    2.09
   3   3  -7   56.88    2.20
  -3  -3   7   58.36    1.86
  -3  -3   7   58.54    2.15
   3  -3  -7   55.08    2.25
   3  -3  -7   55.97    2.17
   3   3  -6  106.97    2.94
   3   3  -6  108.29    3.31
  -3   3   6  105.73    3.17
  -3   3   6  104.56    3.17
   3  -3  -6  100.42    3.31
  -3  -3   6  109.51    2.91
  -3  -3   6  106.72    3.21
  -3   3   5   84.83    2.73
  -3   3   5   91.09    2.72
   3   3  -5   93.09    2.88
   3   3  -5   92.16    2.52
  -3  -3   5   91.66    2.80
   3  -3  -5   93.47    2.90
  -3  -3   5   92.32    2.50
  -3   3   4  103.62    2.94
  -3   3   4  104.00    2.99
   3   3  -4  107.17    2.79
   3   3  -4  104.70    3.17
  -3  -3   4  101.98    3.03
  -3  -3   4  108.85    2.76
   3   3  -3  114.50    3.31
  -3   3   3  115.83    3.17
  -3   3   3  110.41    3.10
  -3   3   3  121.09    2.90
   3   3  -3  116.47    2.98
  -3  -3   3  118.53    2.94
   3  -3  -3  109.95    3.25
  -3  -3   3  111.64    3.22
   3  -3  -3  116.45    2.88
  -3   3   2   80.88    2.41
   3   3  -2   84.74    2.52
   3   3  -2   85.31    2.25
  -3   3   2   85.05    2.33
  -3  -3   2   85.36    2.24
   3  -3  -2   84.56    2.48
  -3  -3   2   82.25    2.45
   3  -3  -2   85.31    2.23
   3   3  -1   98.75    2.60
  -3   3   1  100.48    2.78
  -3   3   1  100.44    2.60
   3   3  -1  103.16    2.85
  -3  -3   1   98.16    2.76
   3  -3  -1  100.28    2.80
  -3  -3   1   92.43    2.64
   3  -3  -1  100.64    2.62
   3   3   0   15.33    0.67
   3   3   0   15.59    0.74
   3   3   0   18.08    0.83
  -3   3   0   15.98    0.61
   3  -3   0   15.42    0.75
   3  -3   0   16.19    0.71
  -3  -3   0   15.72    0.74
   3   3   1  147.87    3.88
   3   3   1  146.61    3.71
  -3   3  -1  146.37    3.56
   3   3   1  142.99    3.74
  -3   3  -1  139.89    3.86
   3   3   1  144.22    3.78
   3  -3   1  150.10    3.77
   3  -3   1  141.85    3.77
  -3   3  -2    4.41    0.38
   3   3   2    5.04    0.51
  -3   3  -2    4.90    0.50
   3   3   2    4.36    0.44
   3   3   2    5.53    0.39
  -3  -3  -2    4.66    0.50
   3  -3   2    4.53    0.42
  -3   3  -3   70.83    2.04
   3   3   3   68.02    2.15
  -3   3  -3   73.61    1.99
   3   3   3   70.59    2.17
   3   3   3   69.79    1.96
  -3  -3  -3   68.20    2.15
  -3   3  -4    0.02    0.35
  -3   3  -4    0.68    0.25
   3   3   4    0.16    0.23
   3   3   4   -0.15    0.27
   3  -3   4    0.30    0.25
  -3  -3  -4    0.38    0.32
   3  -3   4    0.64    0.32
  -3  -3  -4    0.45    0.36
  -3   3  -5   77.95    2.20
  -3   3  -5   73.60    2.56
   3   3   5   77.72    2.09
   3   3   5   75.98    2.48
   3  -3   5   76.37    2.24
  -3  -3  -5   72.35    2.55
  -3  -3  -5   73.47    2.53
   3  -3   5   73.96    2.44
  -3   3  -6   23.43    1.03
  -3   3  -6   23.85    1.36
   3   3   6   23.60    1.28
  -3  -3  -6   23.73    1.24
   3  -3   6   24.00    1.25
   3  -3   6   23.27    1.14
  -3  -3  -6   23.12    1.35
   3   3   7   63.99    2.44
  -3   3  -7   60.95    2.47
   3  -3   7   66.08    2.36
  -3  -3  -7   66.32    2.55
   3  -3   7   64.99    2.20
  -3  -3  -7   62.75    2.27
   3   3   8   65.70    2.59
  -3   3  -8   61.54    2.63
   3  -3   8   64.21    2.50
  -3  -3  -8   64.82    2.72
   3   4  -8    8.90    1.37
  -3   4   8   10.46    1.10
  -3  -4   8    8.57    1.13
   3  -4  -8   11.44    1.30
   3   4  -7   65.74    2.51
  -3   4   7   62.76    2.39
  -3   4   7   60.46    2.28
   3   4  -7   62.55    2.11
   3  -4  -7   63.77    2.57
  -3  -4   7   64.13    2.44
   3   4  -6   35.45    1.37
  -3   4   6   36.78    1.64
   3   4  -6   36.86    1.70
  -3   4   6   34.80    1.52
   3  -4  -6   33.15    1.67
  -3  -4   6   34.13    1.63
  -3   4   5   62.70    2.11
  -3   4   5   63.48    2.23
   3   4  -5   63.55    1.99
   3   4  -5   64.32    2.34
  -3  -4   5   64.89    2.29
   3  -4  -5   63.97    2.35
  -3   4   4   15.79    0.87
   3   4  -4   15.93    0.82
   3   4  -4   15.61    0.99
  -3   4   4   15.71    0.96
   3  -4  -4   16.12    1.04
  -3  -4   4   16.56    0.98
  -3  -4   4   17.06    0.67
  -3   4   3  141.76    4.00
  -3   4   3  140.37    3.83
   3   4  -3  144.49    4.13
   3   4  -3  149.58    3.80
  -3  -4   3  138.52    4.01
  -3  -4   3  149.57    3.55
   3  -4  -3  141.32    4.09
   3  -4  -3  149.95    3.63
  -3   4   2    5.53    0.49
   3   4  -2    5.70    0.64
   3   4  -2    5.36    0.48
  -3   4   2    6.40    0.61
   3  -4  -2    5.26    0.62
   3  -4  -2    5.83    0.47
  -3  -4   2    5.56    0.59
  -3  -4   2    6.64    0.44
  -3   4   1  201.20    5.34
   3   4  -1  206.69    5.11
   3   4  -1  193.94    5.36
  -3   4   1  208.77    4.99
   3  -4  -1  206.27    5.08
  -3  -4   1  201.00    5.24
  -3  -4   1  197.68    5.03
  -3   4   0    0.23    0.20
  -3   4   0    0.93    0.27
   3   4   0    0.66    0.30
   3  -4   0    0.28    0.22
   3  -4   0    0.10    0.24
   3   4   1  381.04    9.65
   3   4   1  370.48    9.29
  -3   4  -1  415.55    9.28
  -3   4  -1  379.72    8.91
   3   4   1  387.49    9.27
  -3   4  -1  359.20    9.44
  -3  -4  -1  377.78    9.26
   3  -4   1  391.31    9.38
   3  -4   1  372.77    9.31
   3   4   2    0.52    0.30
  -3   4  -2    0.16    0.30
  -3   4  -2    0.10    0.16
   3  -4   2    0.00    0.23
   3  -4   2    0.45    0.29
  -3  -4  -2   -0.04    0.24
  -3   4  -3  329.55    8.61
  -3   4  -3  360.45    8.20
   3   4   3  327.98    8.48
  -3  -4  -3  340.53    8.23
   3  -4   3  354.18    8.42
  -3  -4  -3  338.07    8.58
   3  -4   3  330.02    8.52
   3   4   4    2.12    0.47
  -3   4  -4    1.66    0.40
   3   4   4    2.22    0.47
  -3   4  -4    1.59    0.46
   3  -4   4    2.44    0.44
  -3  -4  -4    2.83    0.53
  -3  -4  -4    2.31    0.37
  -3   4  -5  187.55    4.95
   3   4   5  188.02    5.18
  -3   4  -5  192.26    5.35
  -3  -4  -5  185.94    5.19
  -3  -4  -5  183.05    5.30
   3  -4   5  192.98    5.22
  -3   4  -6    3.75    0.73
   3   4   6    4.30    0.74
  -3   4  -6    3.20    0.53
  -3  -4  -6    3.59    0.72
  -3  -4  -6    3.39    0.69
   3  -4   6    2.45    0.59
   3   4   7   53.77    2.26
  -3   4  -7   53.82    2.42
  -3  -4  -7   53.08    2.18
   3  -4   7   54.04    2.23
  -3  -4  -7   53.96    2.38
  -3   5   6  188.10    5.39
   3   5  -6  185.58    5.01
  -3   5   6  188.84    5.17
   3   5  -6  191.05    5.50
  -3  -5   6  178.00    5.62
   3   5  -5  123.34    3.51
   3   5  -5  129.54    3.98
  -3   5   5  121.87    3.59
  -3   5   5  120.95    3.80
  -3  -5   5  125.78    3.88
   3  -5  -5  124.22    3.94
   3   5  -4  178.28    5.04
  -3   5   4  170.84    4.88
  -3   5   4  170.04    4.61
   3   5  -4  173.47    4.60
   3  -5  -4  169.45    5.01
  -3  -5   4  175.33    4.94
  -3   5   3   76.11    2.61
   3   5  -3   78.39    2.72
  -3   5   3   78.86    2.32
   3   5  -3   77.28    2.38
   3  -5  -3   79.26    2.74
  -3  -5   3   78.32    2.63
  -3   5   2  200.01    5.40
  -3   5   2  199.13    4.96
   3   5  -2  199.32    5.14
   3   5  -2  191.74    5.47
  -3  -5   2  195.66    5.34
   3  -5  -2  191.66    5.44
   3  -5  -2  203.10    5.01
   3   5  -1   40.88    1.53
   3   5  -1   43.34    1.80
  -3   5   1   42.35    1.30
  -3   5   1   43.18    1.70
   3  -5  -1   40.54    1.70
  -3  -5   1   42.35    1.64
   3   5   0  152.25    4.18
   3   5   0  159.20    4.47
  -3   5   0  152.88    4.37
  -3  -5   0  158.50    4.09
   3  -5   0  149.74    4.33
  -3  -5   0  153.65    4.21
   3  -5   0  155.43    4.35
   3   5   1   21.84    1.10
  -3   5  -1   23.00    1.23
   3   5   1   22.82    1.10
  -3  -5  -1   21.76    1.27
   3  -5   1   22.04    1.16
  -3  -5  -1   22.69    1.08
   3  -5   1   21.32    1.10
   3   5   2  107.83    3.23
   3   5   2  114.67    3.16
  -3   5  -2  105.68    3.37
   3  -5   2  111.06    3.26
   3  -5   2  111.59    3.27
  -3  -5  -2   98.21    3.20
  -3  -5  -2  112.17    3.44
   3   5   3   19.46    1.08
   3   5   3   16.72    1.09
  -3   5  -3   17.06    1.16
  -3  -5  -3   18.65    1.21
   3  -5   3   17.95    1.10
  -3  -5  -3   18.11    0.95
   3  -5   3   19.89    1.10
   3   5   4  109.75    3.32
   3   5   4  107.74    3.36
  -3   5  -4  106.14    3.47
   3  -5   4  108.57    3.26
  -3  -5  -4  102.84    3.47
   3  -5   4  110.91    3.41
   3   5   5   26.13    1.44
  -3   5  -5   27.57    1.59
  -3   5  -5   27.02    1.36
   3   5   5   25.92    1.49
   3  -5   5   27.34    1.35
  -3  -5  -5   27.27    1.64
   3  -5   5   28.54    1.77
  -3   5  -6  101.64    3.52
  -3  -5  -6  100.55    3.53
   3  -5   6  101.25    3.39
  -3  -5  -6   96.85    3.45
  -3   6   5   14.38    1.23
   3   6  -5   10.88    1.05
   3   6  -5   12.26    1.37
  -3   6   5   12.22    1.07
   3  -6  -5    9.63    1.22
  -3  -6   5   12.92    1.29
  -3   6   4   66.35    2.23
   3   6  -4   69.80    2.31
  -3   6   4   67.42    2.66
   3   6  -4   69.10    2.72
   3  -6  -4   67.30    2.71
  -3  -6   4   64.18    2.72
   3   6  -3   24.08    1.51
  -3   6   3   25.82    1.50
   3   6  -3   26.12    1.29
   3  -6  -3   24.94    1.62
  -3  -6   3   27.30    1.48
   3   6  -2  165.85    4.47
  -3   6   2  162.12    4.72
   3   6  -2  164.65    4.85
   3  -6  -2  150.02    4.73
  -3  -6   2  158.71    4.65
   3   6  -1   16.96    1.22
   3   6  -1   17.06    1.05
  -3   6   1   15.91    1.17
   3  -6  -1   16.71    1.22
   3  -6  -1   15.90    1.03
  -3  -6   1   15.20    1.11
   3   6   0  222.56    6.32
  -3   6   0  216.32    6.13
   3   6   0  226.76    5.97
   3  -6   0  225.40    6.18
  -3  -6   0  227.46    6.32
   3  -6   0  225.22    5.87
  -3  -6   0  221.68    5.96
  -3   6  -1   21.22    1.31
   3   6   1   21.67    1.23
  -3  -6  -1   23.17    1.45
   3  -6   1   22.84    1.32
  -3  -6  -1   20.30    1.20
   3  -6   1   21.66    1.21
  -3   6  -2  244.14    6.74
   3   6   2  249.10    6.59
  -3  -6  -2  241.06    6.85
   3  -6   2  244.62    6.55
   3  -6   2  249.51    6.64
   3   6   3    9.16    1.01
   3   6   3   12.45    1.07
  -3   6  -3   11.00    1.13
   3  -6   3   13.74    1.16
  -3  -6  -3   10.45    1.27
   3  -6   3    9.81    1.04
   3   6   4  191.85    5.42
  -3   6  -4  200.42    5.75
   3   6   4  195.01    5.59
  -3  -6  -4  195.43    6.08
   3  -6   4  196.67    5.48
   3  -6   4  195.45    5.58
   4   0  -9    0.70    0.52
   4   0  -9   -0.60    0.61
  -4   0   9    0.16    0.55
   4   0  -8  122.20    3.90
   4   0  -8  129.65    3.56
  -4   0   8  123.77    3.72
  -4   0   8  124.84    3.44
  -4   0   7   -0.05    0.31
   4   0  -7    0.14    0.39
   4   0  -7    0.59    0.35
  -4   0   7    0.59    0.30
  -4   0   6  170.05    4.60
  -4   0   6  169.12    4.36
   4   0  -6  176.51    4.34
   4   0  -6  164.37    4.71
   4   0  -5   -0.05    0.29
   4   0  -5   -0.03    0.19
  -4   0   5    0.36    0.20
  -4   0   5    0.34    0.31
   4   0  -4  632.94   14.58
  -4   0   4  652.18   14.97
   4   0  -4  605.62   14.62
   4   0  -4  654.03   14.80
   4   0  -4  606.23   15.05
   4   0  -3    0.27    0.14
  -4   0   3    0.02    0.21
   4   0  -3    0.57    0.10
   4   0  -3    0.70    0.24
   4   0  -3    0.26    0.10
   4   0  -2  679.82   17.78
  -4   0   2  806.65   17.86
   4   0  -2  774.05   17.55
   4   0  -2  746.58   17.75
  -4   0   2  793.37   17.59
   4   0   0  623.17   15.73
  -4   0   0  702.71   15.76
   4   0   0  677.84   15.72
  -4   0   0  677.10   15.83
   4   0   1    0.19    0.17
   4   0   1    0.34    0.18
  -4   0  -1    0.12    0.10
  -4   0  -1   -0.02    0.13
   4   0   2  520.06   12.69
  -4   0  -2  546.35   12.68
   4   0   2  535.54   12.73
   4   0   3    0.11    0.22
   4   0   3    0.23    0.22
  -4   0  -3    0.36    0.20
   4   0   4   96.18    2.80
   4   0   4   99.42    2.75
  -4   0  -4   90.52    2.78
   4   0   5   -0.07    0.28
  -4   0  -5   -0.13    0.23
   4   0   5   -0.14    0.26
   4   0   6   63.18    2.05
   4   0   6   61.01    2.15
  -4   0  -6   59.29    2.20
   4   0   7   -0.20    0.43
   4   0   7    0.29    0.39
  -4   0  -7   -0.23    0.42
   4   0   8   90.61    3.10
   4   0   8   87.42    2.85
   4   1  -9  105.66    3.59
  -4  -1   9  101.43    3.27
   4  -1  -9  101.34    3.63
   4  -1  -9  109.24    3.29
  -4  -1   9  102.83    3.16
   4   1  -8  124.68    3.46
   4   1  -8  123.53    3.93
  -4   1   8  122.67    3.78
  -4  -1   8  126.63    3.60
  -4  -1   8  123.89    3.67
   4  -1  -8  128.13    4.03
   4  -1  -8  129.40    3.66
  -4   1   7  206.65    4.99
   4   1  -7  198.38    5.58
  -4   1   7  200.90    5.40
   4   1  -7  202.02    5.08
  -4  -1   7  204.62    5.29
  -4  -1   7  199.93    5.32
   4  -1  -7  195.26    5.58
   4  -1  -7  203.66    5.63
   4   1  -6  117.00    3.53
  -4   1   6  115.92    3.42
  -4   1   6  123.24    3.04
   4   1  -6  118.61    3.05
   4  -1  -6  118.70    3.26
   4  -1  -6  114.65    3.55
  -4  -1   6  115.68    3.26
   4   1  -5  158.91    3.94
  -4   1   5  165.01    4.37
  -4   1   5  164.86    4.02
   4   1  -5  159.41    4.44
   4  -1  -5  160.67    4.47
  -4  -1   5  164.98    4.24
   4  -1  -5  161.73    4.15
  -4  -1   5  159.06    4.26
   4   1  -4   79.22    2.47
  -4   1   4   79.95    2.38
   4   1  -4   80.53    2.00
   4   1  -4   81.55    2.00
  -4   1   4   84.08    2.18
   4  -1  -4   84.06    2.50
   4  -1  -4   82.13    2.15
  -4  -1   4   81.77    2.35
  -4  -1   4   80.46    2.34
  -4   1   3   47.87    1.54
  -4   1   3   49.01    1.34
   4   1  -3   46.93    1.58
   4   1  -3   46.44    1.47
  -4  -1   3   46.13    1.50
   4  -1  -3   48.24    1.59
   4  -1  -3   47.29    1.39
  -4   1   2   97.19    2.40
  -4   1   2   92.05    2.58
   4   1  -2   94.00    2.56
   4   1  -2   91.93    2.60
  -4  -1   2   97.07    2.61
   4  -1  -2   95.95    2.58
   4  -1  -2   93.65    2.51
  -4   1   1  151.46    3.83
   4   1  -1  148.24    3.77
  -4   1   1  151.74    3.67
   4   1  -1  150.20    3.80
  -4  -1   1  146.95    3.51
   4  -1  -1  151.10    3.80
   4  -1  -1  144.47    3.73
  -4  -1   1  147.02    3.56
  -4  -1   1  146.63    3.87
   4   1   0  216.26    5.31
  -4   1   0  215.78    5.21
  -4   1   0  200.20    5.31
   4   1   0  213.27    5.18
   4  -1   0  215.68    5.14
  -4  -1   0  213.94    5.41
  -4  -1   0  215.39    5.12
   4  -1   0  217.41    5.31
  -4   1  -1   87.65    2.46
  -4   1  -1   88.01    2.27
   4   1   1   93.28    2.59
  -4   1  -1   95.40    2.58
   4   1   1   94.90    2.34
   4   1   1   88.98    2.51
   4  -1   1   91.47    2.52
  -4  -1  -1   92.76    2.43
   4  -1   1   90.80    2.26
   4   1   2  248.56    6.15
   4   1   2  243.92    6.19
  -4   1  -2  259.01    6.18
   4  -1   2  248.01    6.17
  -4  -1  -2  235.11    5.83
   4  -1   2  239.19    6.12
  -4  -1  -2  248.65    5.87
  -4  -1  -2  257.82    6.16
  -4   1  -3  228.06    5.80
   4   1   3  232.94    5.73
   4   1   3  224.04    5.77
  -4  -1  -3  222.52    5.74
  -4  -1  -3  225.13    5.34
   4  -1   3  233.43    5.72
  -4  -1  -3  226.53    5.37
   4  -1   3  220.80    5.71
   4   1   4  186.00    5.17
  -4   1  -4  199.73    5.25
   4   1   4  199.52    5.09
   4  -1   4  198.71    5.12
  -4  -1  -4  208.08    4.74
  -4  -1  -4  197.80    5.19
   4  -1   4  195.01    5.13
  -4  -1  -4  198.31    4.70
   4   1   5  279.30    7.26
  -4   1  -5  282.14    7.34
   4   1   5  281.73    7.10
   4  -1   5  279.68    7.18
  -4  -1  -5  275.24    7.26
  -4  -1  -5  300.80    6.74
   4  -1   5  286.48    7.18
   4   1   6  166.96    4.43
  -4   1  -6  168.47    4.73
   4   1   6  163.57    4.63
   4  -1   6  163.01    4.54
  -4  -1  -6  161.66    4.65
   4  -1   6  163.00    4.51
   4   1   7  134.78    3.76
   4   1   7  132.83    4.02
  -4   1  -7  132.92    4.13
   4  -1   7  130.25    3.90
  -4  -1  -7  133.33    4.08
   4  -1   7  134.35    3.87
  -4   1  -8   78.32    3.74
   4  -1   8   83.21    2.75
   4  -1   8   81.42    2.83
  -4  -1  -8   77.28    3.07
   4   2  -9   28.44    1.93
  -4   2   9   29.80    1.65
  -4  -2   9   33.34    1.62
   4  -2  -9   27.43    1.69
  -4  -2   9   29.07    1.52
  -4   2   8    2.55    0.62
   4   2  -8    2.08    0.64
  -4  -2   8    1.23    0.43
  -4  -2   8    2.71    0.55
   4  -2  -8    1.27    0.61
   4  -2  -8    1.91    0.70
   4   2  -7   69.31    2.49
  -4   2   7   71.47    2.39
   4   2  -7   68.54    2.01
  -4  -2   7   67.44    2.29
  -4  -2   7   63.93    2.15
   4  -2  -7   66.35    2.56
   4  -2  -7   68.45    2.34
  -4   2   6    4.55    0.61
   4   2  -6    4.42    0.48
  -4   2   6    5.17    0.58
   4   2  -6    3.06    0.53
  -4  -2   6    4.55    0.55
   4  -2  -6    4.33    0.66
  -4  -2   6    5.33    0.61
  -4   2   5  265.65    6.84
  -4   2   5  272.21    6.68
  -4   2   5  270.80    6.33
   4   2  -5  261.15    6.94
   4   2  -5  276.18    6.42
  -4  -2   5  270.72    6.68
   4  -2  -5  259.76    6.91
  -4   2   4   15.79    0.74
  -4   2   4   14.88    0.83
   4   2  -4   14.37    0.88
   4   2  -4   15.24    0.55
  -4  -2   4   14.70    0.74
   4  -2  -4   16.05    0.88
   4  -2  -4   15.83    0.61
  -4  -2   4   15.91    0.84
  -4   2   3  552.92   12.67
   4   2  -3  528.12   12.28
  -4   2   3  542.91   12.55
  -4  -2   3  477.43   12.31
   4  -2  -3  542.89   12.75
   4  -2  -3  507.38   12.43
  -4  -2   3  532.20   12.58
  -4  -2   3  557.97   12.72
   4   2  -2   12.51    0.70
  -4   2   2   13.08    0.62
   4   2  -2   13.36    0.68
  -4   2   2   12.43    0.64
   4   2  -2   12.80    0.44
  -4  -2   2   12.38    0.52
  -4  -2   2   12.61    0.68
   4  -2  -2   13.34    0.62
   4  -2  -2   12.83    0.67
   4   2  -1  499.54   12.13
   4   2  -1  488.90   12.16
  -4   2   1  535.45   12.12
  -4   2   1  534.20   12.13
   4   2  -1  521.65   11.89
   4  -2  -1  512.28   12.09
   4  -2  -1  519.58   12.10
  -4  -2   1  473.55   12.18
   4   2   0    4.74    0.42
   4   2   0    5.03    0.32
   4   2   0    5.49    0.42
  -4   2   0    4.86    0.41
  -4   2   0    4.99    0.42
  -4  -2   0    4.85    0.49
   4  -2   0    5.61    0.39
   4  -2   0    5.65    0.43
  -4   2  -1  279.46    6.81
  -4   2  -1  284.31    6.89
   4   2   1  274.97    6.90
   4   2   1  279.71    6.73
   4   2   1  277.46    6.78
   4   2   1  282.32    6.82
   4  -2   1  261.58    6.82
   4  -2   1  286.04    6.66
  -4   2  -2    4.39    0.49
   4   2   2    5.45    0.47
   4   2   2    4.73    0.43
   4   2   2    4.65    0.47
  -4   2  -2    4.96    0.51
  -4  -2  -2    4.94    0.45
   4  -2   2    5.48    0.35
   4  -2   2    5.28    0.49
   4   2   3  208.29    5.53
  -4   2  -3  213.06    5.57
   4   2   3  214.35    5.38
  -4  -2  -3  213.87    5.30
   4  -2   3  211.87    5.13
   4  -2   3  218.12    5.52
   4  -2   3  221.91    5.45
   4   2   4   10.74    0.77
   4   2   4   10.74    0.67
  -4   2  -4   10.30    0.79
   4  -2   4   10.46    0.69
   4  -2   4   10.14    0.72
  -4  -2  -4   10.63    0.65
   4  -2   4    9.72    0.46
  -4  -2  -4    9.86    0.75
   4   2   5  104.15    2.89
  -4   2  -5  102.16    3.20
   4   2   5   97.68    3.10
  -4  -2  -5  100.47    3.16
  -4  -2  -5  108.80    2.82
   4  -2   5  101.83    3.07
   4  -2   5  101.35    2.95
   4   2   6    6.10    0.76
  -4   2  -6    5.88    0.80
   4   2   6    5.10    0.71
   4  -2   6    5.32    0.65
  -4  -2  -6    6.06    0.78
   4  -2   6    5.50    0.72
   4   2   7   74.31    2.70
  -4   2  -7   76.78    2.81
   4  -2   7   75.36    2.61
  -4  -2  -7   75.59    2.74
   4  -2   7   73.78    2.53
  -4   2  -8    2.32    0.74
   4   2   8    1.91    0.64
  -4  -2  -8    1.17    0.67
   4  -2   8    1.08    0.57
   4  -2   8    0.52    0.61
   4   3  -8  106.12    3.60
  -4  -3   8  109.44    3.49
   4  -3  -8  108.84    3.57
  -4  -3   8  105.97    3.16
   4  -3  -8  109.84    3.79
  -4   3   7   45.90    1.81
  -4   3   7   44.12    1.86
   4   3  -7   45.72    1.97
  -4  -3   7   45.06    1.87
   4  -3  -7   41.90    2.01
  -4  -3   7   45.05    1.63
  -4   3   6   58.18    2.03
   4   3  -6   58.68    2.23
   4   3  -6   60.22    1.77
  -4   3   6   56.64    2.05
  -4  -3   6   58.70    2.06
  -4  -3   6   58.52    2.12
   4  -3  -6   56.49    2.24
   4   3  -5   67.14    2.33
   4   3  -5   67.39    1.89
  -4   3   5   66.99    2.19
  -4  -3   5   63.72    2.22
   4  -3  -5   62.89    2.29
  -4  -3   5   69.93    2.03
   4   3  -4    8.88    0.73
   4   3  -4    9.65    0.52
  -4   3   4    8.93    0.65
  -4   3   4   10.15    0.76
  -4  -3   4    9.58    0.62
   4  -3  -4   10.54    0.49
  -4  -3   4    9.89    0.76
   4  -3  -4    9.75    0.77
  -4   3   3  101.66    2.91
   4   3  -3  102.25    2.65
   4   3  -3  107.39    3.81
  -4   3   3  105.41    2.91
   4  -3  -3  100.12    3.03
  -4  -3   3  103.14    2.78
   4  -3  -3  103.44    2.72
  -4   3   2    4.02    0.47
   4   3  -2    3.96    0.34
   4   3  -2    3.29    0.47
  -4   3   2    3.33    0.44
  -4  -3   2    3.23    0.45
   4  -3  -2    3.98    0.44
  -4  -3   2    3.03    0.40
  -4   3   1   52.54    1.61
   4   3  -1   54.14    1.81
  -4   3   1   54.49    1.75
   4   3  -1   54.36    1.54
  -4  -3   1   54.72    1.77
  -4  -3   1   51.29    1.72
   4  -3  -1   54.46    1.64
   4  -3  -1   53.41    1.73
   4   3   0   66.31    1.98
   4   3   0   65.01    2.06
  -4   3   0   67.29    1.87
   4   3   0   65.84    1.87
  -4   3   0   64.10    2.04
   4  -3   0   64.54    1.96
   4  -3   0   66.48    1.97
  -4  -3   0   65.16    2.06
   4   3   1   79.47    2.41
  -4   3  -1   79.73    2.45
   4   3   1   80.92    2.30
  -4   3  -1   84.30    2.24
   4   3   1   84.91    2.46
   4   3   1   82.80    2.33
   4  -3   1   81.82    2.30
   4  -3   1   79.12    2.40
  -4   3  -2  122.60    3.22
   4   3   2  126.13    3.29
  -4   3  -2  117.56    3.50
   4  -3   2  122.98    3.41
  -4  -3  -2  123.42    3.40
   4  -3   2  123.65    3.22
   4   3   3   47.04    2.17
  -4   3  -3   58.09    1.74
   4   3   3   57.93    1.74
  -4   3  -3   52.35    1.93
  -4  -3  -3   54.93    1.91
   4  -3   3   53.26    1.87
  -4  -3  -3   56.65    1.84
   4  -3   3   58.02    1.67
   4   3   4  118.16    3.12
  -4   3  -4  116.96    3.20
  -4   3  -4  114.88    3.48
   4   3   4  116.97    3.41
   4  -3   4  118.54    3.04
  -4  -3  -4  114.00    3.27
  -4  -3  -4  110.29    3.40
   4  -3   4  112.99    3.37
   4   3   5   48.97    1.59
   4   3   5   45.81    1.85
  -4   3  -5   46.47    1.94
   4  -3   5   46.24    1.82
  -4  -3  -5   47.00    1.92
  -4  -3  -5   46.93    1.72
   4  -3   5   47.47    1.49
   4  -3   5   48.72    1.73
  -4   3  -6  137.57    4.16
   4   3   6  135.98    4.07
  -4  -3  -6  133.50    4.13
   4  -3   6  133.23    3.99
  -4  -3  -6  129.18    3.86
   4  -3   6  135.38    3.81
   4  -3   7   41.08    1.83
  -4   4   7   10.78    1.13
  -4   4   7   11.27    1.05
   4   4  -7   12.30    1.26
   4  -4  -7   11.07    1.22
  -4  -4   7   12.74    1.13
  -4   4   6   43.40    1.83
  -4   4   6   43.84    1.77
   4   4  -6   44.05    2.00
   4   4  -6   41.47    1.52
  -4  -4   6   42.11    1.87
   4  -4  -6   44.54    2.01
  -4   4   5    1.76    0.43
   4   4  -5    1.36    0.37
   4   4  -5    2.56    0.58
  -4   4   5    2.20    0.46
   4  -4  -5    1.43    0.49
  -4  -4   5    1.85    0.47
  -4   4   4   68.94    2.30
   4   4  -4   66.20    2.41
  -4   4   4   68.05    2.18
   4   4  -4   71.51    2.02
  -4  -4   4   69.53    2.37
   4  -4  -4   66.32    2.39
  -4  -4   4   71.10    1.97
  -4   4   3   24.70    1.17
   4   4  -3   23.84    1.25
  -4   4   3   23.24    1.05
   4   4  -3   25.30    0.96
  -4  -4   3   24.79    1.22
   4  -4  -3   25.57    0.99
   4  -4  -3   23.24    1.19
  -4  -4   3   23.71    0.94
  -4   4   2  130.59    3.42
  -4   4   2  128.55    3.63
   4   4  -2  121.34    3.69
   4   4  -2  126.68    3.34
   4  -4  -2  129.62    3.38
  -4  -4   2  126.30    3.63
   4  -4  -2  127.46    3.66
  -4  -4   2  128.91    3.36
   4   4  -1   20.10    0.85
  -4   4   1   19.75    1.02
   4   4  -1   20.13    1.07
  -4   4   1   19.73    0.85
  -4  -4   1   22.11    1.03
  -4  -4   1   19.71    0.98
   4  -4  -1   18.36    0.89
   4  -4  -1   19.45    1.01
  -4   4   0  115.03    3.36
   4   4   0  115.14    3.39
  -4   4   0  113.67    2.96
  -4  -4   0  117.37    3.26
  -4  -4   0  112.55    3.25
   4  -4   0  114.59    3.19
   4  -4   0  114.22    3.27
   4   4   1    0.74    0.36
  -4   4  -1    1.03    0.36
   4   4   1    1.01    0.38
  -4   4  -1    0.43    0.25
   4   4   1    0.89    0.28
   4  -4   1    0.88    0.32
  -4  -4  -1    0.81    0.32
   4  -4   1    0.81    0.32
   4   4   2   55.17    1.84
  -4   4  -2   54.96    1.55
  -4   4  -2   51.67    1.94
   4   4   2   55.25    1.88
  -4  -4  -2   55.92    1.80
   4  -4   2   52.67    1.88
   4  -4   2   56.06    1.79
  -4  -4  -2   53.91    2.02
  -4   4  -3    2.32    0.37
   4   4   3    2.38    0.39
   4   4   3    2.06    0.45
   4   4   3    2.57    0.44
  -4   4  -3    1.91    0.50
  -4  -4  -3    1.78    0.46
   4  -4   3    2.72    0.48
   4  -4   3    2.08    0.39
   4   4   4   21.52    0.99
  -4   4  -4   21.93    1.27
   4   4   4   22.36    1.23
  -4  -4  -4   22.05    1.23
   4  -4   4   22.16    1.21
  -4  -4  -4   21.60    1.23
   4  -4   4   22.84    1.04
  -4   4  -5   16.85    1.26
   4   4   5   17.24    1.14
  -4  -4  -5   18.12    1.23
   4  -4   5   15.39    1.13
   4  -4   5   18.10    0.98
  -4  -4  -5   15.19    1.14
   4   4   6    5.08    0.83
  -4  -4  -6    5.56    1.24
  -4  -4  -6    6.17    0.82
  -4   5   6    6.75    0.92
   4   5  -6    5.64    0.93
  -4   5   6    6.56    0.87
   4  -5  -6    5.69    0.92
  -4  -5   6    6.97    0.98
   4   5  -5    2.34    0.51
   4   5  -5    3.12    0.74
  -4   5   5    3.69    0.60
  -4   5   5    3.69    0.68
  -4  -5   5    3.82    0.68
   4  -5  -5    3.10    0.70
  -4   5   4   17.21    0.99
  -4   5   4   17.01    1.14
   4   5  -4   16.17    1.25
   4   5  -4   17.76    0.93
  -4  -5   4   15.65    1.13
   4  -5  -4   16.49    1.24
  -4   5   3    1.61    0.49
  -4   5   3    1.53    0.48
   4   5  -3    2.00    0.40
   4   5  -3    2.38    0.58
  -4  -5   3    1.24    0.49
   4  -5  -3    0.94    0.48
  -4   5   2   36.52    1.32
   4   5  -2   35.79    1.67
  -4   5   2   37.70    1.62
   4   5  -2   36.94    1.38
   4  -5  -2   35.56    1.61
   4  -5  -2   36.01    1.36
  -4  -5   2   34.90    1.57
  -4   5   1    5.10    0.73
   4   5  -1    4.66    0.56
  -4   5   1    3.83    0.51
   4   5  -1    4.87    0.73
  -4  -5   1    3.97    0.58
   4  -5  -1    5.15    0.71
  -4  -5   1    6.78    0.74
   4  -5  -1    4.07    0.52
   4   5   0   19.83    1.21
  -4   5   0   17.52    1.12
   4   5   0   20.13    0.99
   4  -5   0   19.29    1.13
  -4  -5   0   18.40    1.06
  -4  -5   0   19.77    1.05
   4  -5   0   18.89    1.02
  -4   5  -1    0.45    0.39
   4   5   1   -0.63    0.41
   4   5   1    0.13    0.48
   4  -5   1   -0.55    0.35
   4  -5   1    0.32    0.35
  -4  -5  -1    0.41    0.35
   4   5   2    7.89    0.77
   4   5   2    9.03    0.83
  -4   5  -2    8.82    0.90
  -4  -5  -2    7.98    0.86
   4  -5   2    8.46    0.83
  -4  -5  -2    9.19    0.96
   4  -5   2    7.53    0.79
   4   5   3    9.42    0.88
  -4   5  -3    9.17    0.97
   4   5   3    8.89    0.88
   4  -5   3    9.72    0.86
  -4  -5  -3    9.14    0.79
  -4  -5  -3    9.70    0.98
   4  -5   3   10.33    0.89
  -4   5  -4    9.21    1.03
   4   5   4    6.63    0.89
   4   5   4    8.02    0.98
   4  -5   4    7.82    0.92
   4  -5   4    7.25    0.82
  -4  -5  -4    9.27    1.08
  -4   5  -5   32.61    1.77
   4   5   5   28.38    1.61
  -4  -5  -5   29.65    1.71
   4  -5   5   29.16    1.61
  -4  -5  -5   31.04    1.72
  -4   6   4    0.51    0.69
   4   6  -4    0.98    0.65
  -4   6   4    0.45    0.60
   4   6  -4    0.26    0.51
  -4  -6   4    1.31    0.61
   4  -6  -4    0.51    0.65
   4   6  -3   -0.20    0.57
   4   6  -3    0.19    0.41
   4  -6  -3    0.75    0.78
  -4  -6   3    0.00    0.56
   4   6  -2    8.79    0.83
  -4   6   2    7.08    0.96
   4   6  -2    9.03    1.13
  -4  -6   2    8.60    1.00
   4  -6  -2    6.61    0.99
   4   6  -1    0.12    0.41
   4   6  -1    0.58    0.57
  -4   6   1    0.21    0.51
   4  -6  -1    0.74    0.44
   4  -6  -1    2.88    0.67
  -4  -6   1    0.88    0.50
  -4   6   0    0.45    0.46
   4   6   0    2.47    0.63
   4   6   0    1.24    0.48
   4  -6   0    1.63    0.59
   4  -6   0    1.60    0.49
  -4  -6   0    2.04    0.54
   4   6   1    0.64    0.44
  -4   6  -1    1.17    0.55
   4  -6   1    0.47    0.46
   4  -6   1    0.24    0.50
  -4  -6  -1    0.15    0.51
  -4  -6  -1    0.42    0.59
  -4   6  -2    2.41    0.68
   4   6   2    1.71    0.54
   4  -6   2    1.12    0.56
  -4  -6  -2    2.37    0.72
   4  -6   2    1.53    0.61
  -4  -6  -2    2.16    0.69
  -4   6  -3    0.52    0.67
   4   6   3    1.20    0.62
   4   6   3    0.08    0.57
  -4  -6  -3    0.58    0.68
   4  -6   3    0.16    0.56
   4  -6   3   -0.23    0.66
   5   0  -9    0.39    0.77
  -5   0   9    0.15    0.52
  -5   0   8    1.21    0.54
   5   0  -8    2.57    0.61
  -5   0   7   -0.52    0.32
   5   0  -7   -0.43    0.31
   5   0  -7    0.69    0.42
  -5   0   7   -0.01    0.38
   5   0  -6   19.91    1.14
   5   0  -6   20.20    0.79
  -5   0   6   17.30    1.03
  -5   0   6   19.77    0.94
  -5   0   5    0.38    0.24
   5   0  -5    0.33    0.19
   5   0  -5   -0.14    0.31
   5   0  -4    2.18    0.22
   5   0  -4    1.74    0.29
   5   0  -4    1.79    0.57
   5   0  -3    0.11    0.22
   5   0  -3    0.15    0.17
  -5   0   3    0.32    0.26
  -5   0   2   75.66    1.85
  -5   0   2   77.03    2.30
   5   0  -2   77.71    1.85
   5   0  -2   77.29    2.23
   5   0  -2   77.05    2.21
   5   0  -1    1.23    0.24
   5   0  -1    0.05    0.15
   5   0  -1    0.28    0.16
  -5   0   1   -0.07    0.22
  -5   0   1    0.54    0.13
   5   0   0  139.86    3.73
  -5   0   0  140.25    3.49
  -5   0  -1    0.60    0.27
   5   0   1    0.20    0.19
  -5   0  -1    0.48    0.20
   5   0   1    0.64    0.14
  -5   0  -2   74.37    2.22
   5   0   2   79.06    2.36
  -5   0  -3   -0.11    0.22
   5   0   3   -0.05    0.22
   5   0   3    0.28    0.25
  -5   0  -4    7.65    0.67
   5   0   4    7.05    0.63
   5   0   4    7.08    0.61
  -5   0  -5   -0.13    0.29
   5   0   5   -0.32    0.29
   5   0   5    0.39    0.30
   5   0   6    2.87    0.50
   5   0   6    3.71    0.65
  -5   0  -6    3.19    0.57
   5   0   7   -0.72    0.42
   5   0   7   -0.16    0.53
  -5   0  -7    0.69    0.52
   5   0   8    2.10    0.62
  -5   0  -8    1.80    0.70
   5   0   8    1.82    0.80
  -5   1   9    1.24    0.64
  -5  -1   9    1.07    0.53
   5  -1  -9   -0.88    0.98
  -5  -1   9    1.00    0.61
  -5   1   8   18.42    1.24
   5   1  -8   20.07    1.35
   5  -1  -8   20.43    1.78
  -5  -1   8   17.48    1.18
  -5  -1   8   18.78    1.14
   5  -1  -8   19.23    1.45
   5   1  -7   11.12    0.82
  -5   1   7   11.41    0.70
   5   1  -7   11.63    1.06
  -5   1   7   11.12    0.95
  -5  -1   7   11.57    0.89
   5  -1  -7   12.56    0.89
  -5  -1   7   10.72    0.83
   5  -1  -7   12.72    1.10
   5   1  -6   26.68    0.87
  -5   1   6   26.65    1.32
  -5   1   6   27.75    1.04
   5   1  -6   27.91    1.39
   5  -1  -6   27.90    1.38
  -5  -1   6   26.99    1.26
   5  -1  -6   28.21    1.12
  -5   1   5   40.11    1.54
   5   1  -5   39.63    1.63
   5   1  -5   40.96    1.06
   5   1  -5   38.99    1.05
  -5  -1   5   40.05    1.47
   5  -1  -5   40.58    1.33
  -5  -1   5   40.11    1.51
   5  -1  -5   40.26    1.63
   5  -1  -5   41.68    1.30
   5   1  -4   43.37    1.47
  -5   1   4   43.48    1.55
   5   1  -4   43.75    1.64
  -5   1   4   43.78    1.28
  -5  -1   4   42.73    1.54
   5  -1  -4   42.83    1.63
   5  -1  -4   43.40    1.38
  -5   1   3    1.80    0.34
   5   1  -3    2.42    0.38
  -5   1   3    2.12    0.27
   5   1  -3    2.22    0.34
   5  -1  -3    2.60    0.40
   5  -1  -3    1.87    0.28
  -5  -1   3    2.57    0.40
  -5   1   2   13.39    0.54
  -5   1   2   13.27    0.74
   5   1  -2   14.45    0.72
   5   1  -2   13.74    0.72
  -5  -1   2   13.51    0.76
   5  -1  -2   13.16    0.68
   5  -1  -2   12.84    0.69
  -5   1   1   40.60    1.42
   5   1  -1   40.88    1.40
  -5   1   1   42.44    1.24
   5   1  -1   40.48    1.32
  -5  -1   1   41.57    1.09
   5  -1  -1   40.17    1.30
  -5  -1   1   39.54    1.07
   5  -1  -1   40.67    1.38
  -5  -1   1   37.58    1.44
   5   1   0    0.51    0.23
  -5   1   0    1.12    0.23
   5   1   0    0.50    0.18
  -5   1   0    1.13    0.30
   5  -1   0    0.74    0.22
  -5  -1   0    0.67    0.30
  -5  -1   0    0.81    0.18
   5  -1   0    0.25    0.17
   5   1   1   61.03    1.95
   5   1   1   58.03    1.85
  -5   1  -1   56.63    1.57
  -5   1  -1   57.49    1.77
   5   1   1   61.55    1.64
  -5   1  -1   57.27    1.89
   5  -1   1   57.92    1.86
  -5  -1  -1   57.86    1.70
   5  -1   1   61.42    1.57
   5   1   2    2.48    0.27
   5   1   2    2.51    0.37
   5   1   2    3.00    0.45
  -5   1  -2    2.34    0.37
  -5   1  -2    3.55    0.52
  -5  -1  -2    2.17    0.30
  -5  -1  -2    2.74    0.39
   5  -1   2    1.95    0.36
   5  -1   2    3.36    0.49
   5   1   3    7.29    0.59
   5   1   3    7.74    0.64
  -5   1  -3    7.80    0.65
   5  -1   3    7.60    0.65
  -5  -1  -3    7.89    0.35
   5  -1   3    7.57    0.63
   5   1   4    3.99    0.57
  -5   1  -4    2.77    0.48
   5   1   4    3.15    0.46
  -5  -1  -4    3.63    0.52
   5  -1   4    4.34    0.55
   5  -1   4    3.34    0.50
   5   1   5    0.73    0.39
   5   1   5    0.28    0.33
  -5   1  -5    0.96    0.40
   5  -1   5    0.18    0.34
   5  -1   5    0.11    0.31
  -5  -1  -5    0.74    0.31
  -5   1  -6   25.12    1.44
   5   1   6   25.54    1.25
   5   1   6   25.17    1.38
  -5  -1  -6   25.33    1.39
   5  -1   6   29.10    1.39
   5  -1   6   26.93    1.34
  -5   1  -7    1.05    0.63
   5   1   7    1.71    0.65
   5   1   7    2.09    0.52
   5  -1   7    2.20    0.56
  -5  -1  -7    2.22    0.59
   5  -1   7    2.19    0.58
  -5   1  -8   41.53    2.10
   5   1   8   38.97    1.98
   5  -1   8   36.75    1.88
  -5  -1  -8   41.47    2.04
   5  -1   8   39.70    1.86
  -5   2   9    0.35    0.62
   5   2  -9    0.07    0.72
  -5  -2   9   -0.54    0.60
  -5  -2   9    1.38    0.60
   5  -2  -9    1.09    0.80
   5  -2  -9    1.27    0.84
  -5   2   8   44.13    1.92
   5   2  -8   43.21    2.02
   5  -2  -8   39.97    1.83
  -5  -2   8   42.84    1.83
  -5  -2   8   40.89    1.74
   5  -2  -8   45.33    2.18
  -5   2   7    1.13    0.50
   5   2  -7    1.63    0.55
   5  -2  -7    0.73    0.51
  -5  -2   7    1.01    0.40
  -5  -2   7    1.21    0.45
   5  -2  -7    0.18    0.44
   5   2  -6  123.02    3.06
  -5   2   6  120.37    3.60
   5   2  -6  115.03    3.66
  -5   2   6  122.65    3.79
  -5   2   6  124.62    3.08
   5  -2  -6  119.09    3.73
  -5  -2   6  122.56    3.47
  -5  -2   6  123.41    3.57
  -5   2   5    7.33    0.75
   5   2  -5    9.56    0.41
   5   2  -5    9.30    0.81
  -5   2   5    8.48    0.62
   5  -2  -5    9.58    0.52
  -5  -2   5    9.11    0.75
  -5  -2   5    9.64    0.73
   5  -2  -5    9.37    0.77
  -5   2   4  120.00    3.54
  -5   2   4  119.73    3.10
   5   2  -4  111.34    3.39
  -5  -2   4  112.28    3.71
   5  -2  -4  118.07    3.01
  -5  -2   4  117.78    3.21
  -5  -2   4  112.43    2.77
   5  -2  -4  110.08    3.51
   5   2  -3    6.14    0.51
  -5   2   3    6.32    0.49
  -5  -2   3    7.01    0.61
   5  -2  -3    7.22    0.53
   5  -2  -3    6.34    0.71
   5   2  -2   60.58    1.94
  -5   2   2   59.86    1.89
   5   2  -2   62.50    1.52
   5   2  -2   56.69    1.89
  -5   2   2   61.08    1.79
   5  -2  -2   61.77    1.91
  -5  -2   2   60.32    1.94
   5  -2  -2   62.07    1.86
  -5  -2   2   58.82    1.57
   5   2  -1   27.28    1.07
  -5   2   1   25.83    1.00
   5   2  -1   28.05    1.09
  -5   2   1   25.45    1.04
  -5  -2   1   25.95    1.13
   5  -2  -1   25.61    0.99
   5  -2  -1   24.66    1.02
   5   2   0   48.10    1.54
   5   2   0   48.83    1.60
  -5   2   0   48.28    1.59
  -5   2   0   48.40    1.56
   5  -2   0   47.77    1.46
   5  -2   0   48.39    1.59
  -5  -2   0   47.44    1.42
  -5  -2   0   47.15    1.70
   5   2   1   39.69    1.47
  -5   2  -1   38.38    1.37
   5   2   1   36.37    1.35
  -5   2  -1   35.82    1.35
   5   2   1   37.57    1.27
   5  -2   1   35.27    1.34
  -5  -2  -1   37.57    1.26
   5  -2   1   38.37    1.16
   5   2   2   39.32    1.25
   5   2   2   37.33    1.36
   5   2   2   36.33    1.43
  -5   2  -2   34.89    1.41
  -5   2  -2   38.76    1.41
  -5  -2  -2   36.49    1.33
   5  -2   2   34.56    1.08
   5  -2   2   36.78    1.38
  -5   2  -3   37.59    1.40
   5   2   3   33.29    1.40
  -5   2  -3   33.49    1.41
   5   2   3   34.67    1.32
  -5  -2  -3   33.54    1.36
   5  -2   3   35.01    0.98
  -5  -2  -3   34.81    1.16
   5  -2   3   33.77    1.37
   5  -2   3   33.57    1.04
  -5   2  -4   65.09    2.27
   5   2   4   64.78    2.23
  -5  -2  -4   66.89    1.89
  -5  -2  -4   67.04    2.24
   5  -2   4   64.07    2.14
   5  -2   4   64.08    2.20
  -5   2  -5    9.28    0.90
   5   2   5   10.02    0.90
   5   2   5    9.64    0.77
  -5  -2  -5    9.48    0.86
   5  -2   5    9.89    0.83
   5  -2   5    9.57    0.84
  -5   2  -6   46.23    2.01
   5   2   6   44.87    1.67
   5   2   6   44.13    1.92
   5  -2   6   45.74    1.86
  -5  -2  -6   44.30    1.90
   5  -2   6   42.20    1.76
  -5  -2  -7    3.46    0.76
   5  -2   7    3.20    0.70
   5  -2   7    3.45    0.65
   5   3  -8    5.17    1.08
  -5   3   8    4.76    0.84
  -5  -3   8    6.47    0.84
   5  -3  -8    5.20    0.87
   5  -3  -8    5.21    0.94
  -5  -3   8    5.97    0.89
  -5   3   7   83.29    2.78
  -5   3   7   85.03    2.88
   5   3  -7   85.39    3.06
  -5  -3   7   86.60    2.92
   5  -3  -7   88.56    3.14
  -5  -3   7   85.71    2.67
  -5   3   6    6.79    0.77
  -5   3   6    6.23    0.76
   5   3  -6    5.69    0.88
  -5  -3   6    6.51    0.69
  -5  -3   6    6.44    0.79
   5  -3  -6    6.97    0.88
   5   3  -5   97.96    2.41
  -5   3   5   89.29    2.87
   5   3  -5   90.39    3.00
  -5  -3   5   91.73    2.88
  -5  -3   5   92.72    2.95
   5  -3  -5   94.06    3.03
   5   3  -4    2.18    0.49
   5   3  -4    2.70    0.33
  -5   3   4    2.76    0.46
  -5   3   4    3.16    0.43
   5  -3  -4    3.00    0.38
  -5  -3   4    2.40    0.44
   5  -3  -4    2.67    0.49
  -5  -3   4    2.56    0.47
   5   3  -3  138.93    4.04
   5   3  -3  142.33    3.50
  -5   3   3  142.49    3.87
   5  -3  -3  150.54    3.75
   5  -3  -3  135.67    3.95
  -5  -3   3  146.38    4.01
  -5  -3   3  141.01    3.81
  -5   3   2   65.18    2.05
  -5   3   2   62.91    1.99
   5   3  -2   68.99    1.76
   5   3  -2   61.21    2.14
  -5  -3   2   58.43    2.15
  -5  -3   2   65.09    2.05
   5  -3  -2   63.25    2.05
   5  -3  -2   66.94    1.97
  -5   3   1  113.14    3.47
   5   3  -1  122.66    3.01
   5   3  -1  115.85    3.34
   5   3  -1  114.36    3.27
  -5   3   1  115.71    3.16
   5  -3  -1  116.08    3.20
  -5  -3   1  113.98    3.33
   5  -3  -1  122.22    3.25
   5   3   0  170.22    4.59
   5   3   0  180.21    4.42
   5   3   0  178.58    4.68
  -5   3   0  178.32    4.68
  -5   3   0  181.95    4.52
   5  -3   0  168.74    5.23
   5  -3   0  177.51    4.54
  -5  -3   0  171.22    4.72
   5   3   1  133.75    3.99
   5   3   1  151.11    3.94
   5   3   1  146.06    3.78
   5   3   1  136.72    4.21
  -5   3  -1  150.08    3.80
  -5   3  -1  145.50    4.01
   5  -3   1  147.50    3.75
   5  -3   1  140.05    3.91
  -5   3  -2  112.67    3.39
  -5   3  -2  114.51    3.18
   5   3   2  121.48    3.30
  -5  -3  -2  114.94    3.27
   5  -3   2  119.50    3.09
   5  -3   2  115.13    3.33
  -5   3  -3  114.77    3.13
   5   3   3  108.39    3.28
  -5   3  -3  106.13    3.32
   5  -3   3  111.10    2.90
  -5  -3  -3  111.21    3.25
  -5  -3  -3  110.16    3.12
   5  -3   3  107.24    3.24
   5   3   4   84.76    2.78
   5   3   4   88.36    2.57
  -5   3  -4   85.36    2.85
  -5   3  -4   89.27    2.64
  -5  -3  -4   82.98    2.58
   5  -3   4   83.65    2.76
  -5  -3  -4   86.05    2.79
   5  -3   4   89.32    2.33
   5   3   5   82.71    2.47
   5   3   5   81.01    2.78
  -5   3  -5   83.43    2.88
  -5   3  -5   79.70    2.55
   5  -3   5   78.06    2.71
  -5  -3  -5   84.11    2.52
  -5  -3  -5   77.82    2.75
  -5   3  -6    5.42    0.87
   5   3   6    6.74    0.92
   5  -3   6    3.94    0.74
   5  -3   6    5.16    0.78
  -5  -3  -6    5.21    0.82
  -5   3  -7   63.71    2.66
   5   3   7   61.60    2.61
   5  -3   7   65.66    2.50
  -5  -3  -7   63.98    2.61
  -5   4   7  143.52    4.65
  -5   4   7  142.05    4.30
   5   4  -7  147.77    4.64
  -5  -4   7  145.94    4.51
   5  -4  -7  144.12    4.61
   5   4  -6    2.95    0.66
  -5   4   6    0.76    0.50
  -5   4   6    1.83    0.56
  -5  -4   6    1.92    0.62
   5  -4  -6    2.17    0.64
  -5   4   5  220.87    5.94
   5   4  -5  218.71    6.27
  -5   4   5  226.74    6.03
  -5  -4   5  232.01    5.73
   5  -4  -5  225.21    6.23
  -5  -4   5  228.46    6.17
   5   4  -4    4.53    0.50
   5   4  -4    3.72    0.64
  -5   4   4    3.13    0.54
  -5   4   4    3.75    0.58
  -5  -4   4    3.17    0.56
  -5  -4   4    4.30    0.62
   5  -4  -4    3.23    0.60
   5   4  -3  245.41    5.95
   5   4  -3  241.64    6.53
  -5   4   3  241.38    6.25
  -5   4   3  236.56    6.35
   5  -4  -3  243.31    6.41
  -5  -4   3  239.41    6.08
  -5  -4   3  242.30    6.43
   5  -4  -3  250.46    6.08
   5   4  -2   33.90    1.51
   5   4  -2   34.11    1.18
  -5   4   2   31.76    1.42
  -5   4   2   32.75    1.42
  -5  -4   2   33.59    1.44
   5  -4  -2   34.03    1.46
   5  -4  -2   34.75    1.33
  -5  -4   2   36.38    1.37
  -5   4   1   83.47    2.46
   5   4  -1   86.41    2.78
  -5   4   1   85.66    2.70
   5   4  -1   88.34    2.42
  -5  -4   1   88.44    2.67
   5  -4  -1   85.67    2.54
   5  -4  -1   87.38    2.67
  -5  -4   1   84.09    2.69
   5   4   0   60.34    2.09
  -5   4   0   56.93    1.77
  -5   4   0   58.84    2.07
   5   4   0   57.54    1.82
  -5  -4   0   58.88    2.05
   5  -4   0   56.85    2.13
  -5  -4   0   57.53    2.02
   5  -4   0   58.30    2.15
   5   4   1   90.23    2.83
   5   4   1   92.64    2.71
  -5   4  -1   90.32    2.51
  -5   4  -1   88.87    2.87
   5   4   1   93.10    2.85
   5  -4   1   90.16    2.77
   5  -4   1   91.71    2.70
   5   4   2   25.44    1.15
  -5   4  -2   24.99    1.31
   5   4   2   26.97    1.30
  -5   4  -2   26.30    1.04
  -5  -4  -2   25.38    1.29
   5  -4   2   27.20    1.14
   5  -4   2   25.88    1.28
  -5   4  -3   87.62    2.41
   5   4   3   81.28    2.47
  -5   4  -3   80.71    2.78
   5   4   3   82.04    2.70
   5  -4   3   81.09    2.70
  -5  -4  -3   82.26    2.70
  -5  -4  -3   81.25    2.67
  -5   4  -4   17.61    1.17
   5   4   4   16.41    1.16
   5   4   4   16.80    0.92
  -5  -4  -4   17.81    1.18
   5  -4   4   17.52    0.97
   5  -4   4   16.45    1.09
  -5  -4  -4   15.05    1.10
   5   4   5   88.70    3.07
  -5   4  -5   93.18    3.23
   5  -4   5   91.23    3.09
  -5  -4  -5   93.02    2.95
  -5  -4  -5   91.50    3.15
   5   4   6    2.77    0.77
  -5   4  -6    4.82    0.95
  -5  -4  -6    4.71    0.84
   5  -4   6    3.59    0.68
   5   5  -6   68.00    2.81
  -5   5   6   70.68    2.69
  -5   5   6   66.25    2.49
   5  -5  -6   65.34    2.77
  -5  -5   6   71.61    2.77
  -5   5   5    2.98    0.68
  -5   5   5    2.81    0.64
  -5   5   4   61.72    2.15
   5   5  -4   63.38    2.52
  -5   5   4   62.86    2.37
   5  -5  -4   63.80    2.47
  -5  -5   4   64.97    2.46
  -5   5   3   26.35    1.19
  -5   5   3   27.82    1.45
   5   5  -3   27.48    1.55
   5  -5  -3   27.46    1.47
  -5  -5   3   25.54    1.49
  -5   5   2  134.74    3.70
  -5   5   2  137.82    4.06
   5   5  -2  138.45    4.18
   5   5  -2  136.75    3.68
  -5  -5   2  136.59    4.08
   5  -5  -2  132.61    4.04
   5  -5  -2  137.98    3.76
  -5   5   1  115.35    3.52
   5   5  -1  114.79    3.61
  -5   5   1  113.47    3.09
   5   5  -1  115.44    3.19
   5  -5  -1  112.15    3.46
  -5  -5   1  112.58    3.46
  -5  -5   1  110.88    3.25
   5  -5  -1  109.81    3.24
  -5   5   0  198.93    5.47
   5   5   0  197.64    5.50
   5   5   0  192.42    5.11
   5  -5   0  198.29    5.33
  -5  -5   0  187.45    5.30
  -5  -5   0  196.74    5.27
   5  -5   0  198.65    5.25
   5   5   1   97.59    2.91
  -5   5  -1   97.21    3.22
   5   5   1   99.49    3.21
   5  -5   1   98.95    3.05
  -5  -5  -1   93.69    2.98
   5  -5   1   97.07    3.04
  -5  -5  -1   96.55    3.07
   5   5   2  133.51    3.87
   5   5   2  126.06    3.73
  -5   5  -2  130.84    4.01
  -5  -5  -2  122.89    3.70
  -5  -5  -2  134.04    3.99
   5  -5   2  132.11    3.75
   5  -5   2  128.30    3.85
   5   5   3   57.93    2.18
  -5   5  -3   56.61    2.31
   5   5   3   54.19    2.11
  -5  -5  -3   58.00    2.02
  -5  -5  -3   53.14    2.20
   5  -5   3   57.73    2.20
   5  -5   3   56.59    2.02
   5   5   4  135.86    4.08
  -5   5  -4  138.06    4.29
  -5  -5  -4  131.95    4.13
  -5  -5  -4  126.35    4.08
   5   5   5   20.90    2.33
  -5   5  -5   28.17    1.71
   5  -5   5   28.17    1.64
  -5  -5  -5   27.99    1.73
  -5  -5  -5   24.86    1.60
   5   6  -4  216.56    6.38
  -5   6   4  218.68    6.19
  -5  -6   4  216.38    6.24
   5  -6  -4  216.04    6.29
  -5   6   3    9.84    1.13
   5   6  -3    9.38    0.90
   5   6  -3   10.51    1.31
   5  -6  -3    8.70    1.15
  -5  -6   3    9.34    1.16
   5   6  -2  108.15    3.21
   5   6  -2  109.42    3.74
  -5  -6   2  109.94    3.59
   5   6  -1    1.40    0.50
   5   6  -1    0.79    1.04
  -5  -6   1    1.96    0.60
   5  -6  -1    1.52    0.63
   5  -6  -1    1.56    0.54
   5   6   0   59.54    2.15
  -5   6   0   56.21    3.38
   5   6   0   60.90    2.52
   5  -6   0   64.08    2.28
  -5  -6   0   62.64    2.38
   5  -6   0   66.71    2.45
   5   6   1   11.49    1.04
  -5   6  -1   11.56    1.20
  -5  -6  -1   11.82    1.16
  -5  -6  -1    9.72    1.30
   5  -6   1    8.91    1.16
   5  -6   1   10.83    1.12
  -5   6  -2   79.93    3.04
   5   6   2   80.70    2.77
   5  -6   2   84.20    2.85
   5  -6   2   83.59    2.94
  -5  -6  -2   81.05    3.06
  -5  -6  -2   80.31    3.22
  -6   0   9    1.02    0.63
   6   0  -9   -1.00    0.63
  -6   0   8  215.79    6.07
   6   0  -8  221.73    6.27
  -6   0   8  214.90    5.68
   6   0  -7   -0.13    0.47
  -6   0   7    0.50    0.44
  -6   0   7   -0.81    0.43
   6   0  -6  200.03    5.66
  -6   0   6  210.61    5.36
  -6   0   6  208.21    5.59
  -6   0   5    1.10    0.39
   6   0  -5   -0.52    0.28
  -6   0   4  237.16    6.65
   6   0  -4  228.26    5.79
   6   0  -4  220.79    5.99
   6   0  -3    0.07    0.25
  -6   0   3    0.39    0.30
   6   0  -3    0.34    0.24
  -6   0   2  188.32    4.95
   6   0  -2  178.67    4.82
   6   0  -2  183.89    4.77
   6   0  -2  192.11    4.38
  -6   0   1   -0.09    0.25
   6   0  -1   -0.04    0.19
   6   0  -1    0.34    0.25
  -6   0   0  277.66    6.71
   6   0   0  276.22    7.00
  -6   0   0  281.40    7.11
   6   0   0  276.23    6.70
   6   0   1    0.10    0.15
  -6   0  -1    0.27    0.20
   6   0   2  557.02   13.83
   6   0   2  551.93   13.76
  -6   0  -2  603.56   13.68
   6   0   3    0.02    0.28
  -6   0  -3    0.07    0.28
   6   0   3    0.67    0.37
   6   0   4  380.31    9.95
   6   0   4  408.99    9.93
  -6   0  -4  405.65    9.93
   6   0   5   -0.31    0.39
   6   0   5   -0.26    0.34
  -6   0  -5    0.26    0.41
   6   0   6  325.69    8.44
  -6   0  -6  333.80    8.64
   6   0   6  328.48    8.59
   6   0   7    0.04    0.53
   6   0   7    1.23    0.57
  -6   1   9   32.40    1.81
   6   1  -9   33.52    1.99
  -6  -1   9   34.84    1.70
   6  -1  -9   36.17    2.01
  -6   1   8   53.84    2.25
   6   1  -8   56.53    2.44
  -6  -1   8   55.90    2.08
   6  -1  -8   55.76    2.44
  -6  -1   8   52.99    2.18
  -6   1   7   78.65    2.75
   6   1  -7   76.57    2.82
  -6   1   7   79.36    2.35
   6  -1  -7   83.89    3.00
  -6  -1   7   79.96    2.59
   6  -1  -7   79.69    2.90
  -6  -1   7   78.12    2.70
  -6   1   6   97.72    3.10
   6   1  -6   93.28    3.14
  -6   1   6   99.23    2.77
   6  -1  -6   98.32    3.18
   6  -1  -6  101.68    2.71
  -6  -1   6   98.83    2.96
  -6  -1   6   96.45    3.03
  -6   1   5  186.49    5.02
   6   1  -5  184.31    5.09
   6  -1  -5  188.58    4.70
   6  -1  -5  184.77    4.57
   6  -1  -5  180.31    5.08
  -6  -1   5  178.66    4.95
  -6  -1   5  182.43    4.94
  -6   1   4  200.79    4.81
  -6   1   4  203.86    5.30
   6   1  -4  199.77    5.17
   6   1  -4  188.40    5.32
  -6  -1   4  199.48    5.24
   6  -1  -4  188.66    5.58
   6  -1  -4  204.80    5.06
  -6   1   3  293.11    6.56
   6   1  -3  281.65    6.91
  -6   1   3  283.59    6.99
   6   1  -3  265.98    7.22
  -6  -1   3  237.72    7.16
   6  -1  -3  281.86    6.84
   6   1  -2  259.61    6.43
  -6   1   2  253.53    6.15
  -6  -1   2  258.14    6.58
   6  -1  -2  259.20    6.42
   6  -1  -2  247.62    6.41
  -6   1   1  409.36   10.14
  -6   1   1  418.51    9.83
   6   1  -1  411.78    9.95
   6   1  -1  413.06   10.14
  -6  -1   1  383.12    9.63
   6  -1  -1  419.99    9.93
  -6  -1   1  396.39   10.19
   6  -1  -1  431.95   10.10
  -6  -1   1  435.53    9.67
  -6   1   0  131.96    3.61
   6   1   0  118.79    3.74
   6   1   0  130.22    3.32
  -6   1   0  127.71    3.35
  -6  -1   0  129.66    3.24
   6  -1   0  129.06    3.28
   6  -1   0  128.43    3.54
  -6  -1   0  123.38    3.67
   6   1   1  145.25    4.44
   6   1   1  162.17    3.97
  -6   1  -1  159.44    4.33
  -6   1  -1  164.76    4.16
   6  -1   1  155.13    3.87
  -6  -1  -1  166.81    4.08
  -6  -1  -1  157.23    4.41
   6  -1   1  158.33    4.28
  -6   1  -2   70.38    2.33
   6   1   2   68.28    2.23
  -6   1  -2   73.16    2.33
   6   1   2   73.05    3.06
   6   1   2   69.74    1.84
  -6  -1  -2   67.82    2.11
  -6  -1  -2   77.17    2.03
   6  -1   2   63.82    2.61
  -6   1  -3   63.90    2.18
   6   1   3   65.78    2.24
   6   1   3   69.46    2.46
  -6  -1  -3   62.24    2.09
   6  -1   3   68.24    2.49
   6  -1   3   63.52    2.17
   6   1   4   51.03    1.95
   6   1   4   53.10    1.88
  -6   1  -4   54.47    1.96
  -6  -1  -4   51.83    1.90
   6  -1   4   51.27    1.95
   6  -1   4   53.79    1.94
  -6   1  -5   50.61    2.03
   6   1   5   52.91    1.92
   6   1   5   51.93    2.03
   6  -1   5   50.72    1.96
   6  -1   5   52.63    1.99
  -6  -1  -5   51.82    1.99
   6   1   6   49.03    1.95
   6   1   6   52.25    2.15
  -6   1  -6   52.23    2.16
  -6  -1  -6   52.27    2.10
   6  -1   6   50.41    2.05
   6  -1   6   50.11    2.04
  -6   1  -7   27.72    1.57
   6   1   7   28.89    1.47
   6   1   7   25.90    1.68
   6  -1   7   25.55    1.54
  -6  -1  -7   27.71    1.69
   6  -1   7   27.14    1.59
  -6  -2   8    0.99    0.62
  -6  -2   8    1.58    0.55
   6   2  -7  146.59    4.49
  -6   2   7  149.64    4.42
   6  -2  -7  143.62    4.07
   6  -2  -7  147.18    4.57
  -6  -2   7  142.82    4.22
  -6  -2   7  147.18    4.26
  -6   2   6    0.27    0.35
  -6   2   6    0.11    0.47
   6   2  -6    0.64    0.43
  -6   2   6    0.40    0.32
  -6  -2   6    0.75    0.37
  -6  -2   6    0.74    0.42
   6  -2  -6    0.23    0.49
   6   2  -5  112.36    3.48
  -6   2   5  113.17    3.39
  -6   2   5  111.11    3.07
  -6  -2   5  113.07    3.31
   6  -2  -5  109.91    3.46
  -6  -2   5  114.43    3.37
   6  -2  -5  115.61    3.02
   6   2  -4    1.91    0.48
  -6   2   4    2.19    0.34
  -6   2   4    1.39    0.42
   6  -2  -4    2.02    0.37
  -6  -2   4    1.54    0.39
   6  -2  -4    1.27    0.41
  -6  -2   4    2.86    0.46
   6   2  -3   41.88    1.56
  -6   2   3   43.20    1.41
  -6   2   3   41.91    1.75
   6  -2  -3   45.61    1.51
   6  -2  -3   42.27    1.58
  -6   2   2    7.25    0.63
  -6   2   2    7.35    0.53
   6   2  -2    6.97    0.63
  -6  -2   2    6.55    0.36
   6  -2  -2    6.89    0.59
  -6  -2   2    6.91    0.67
   6  -2  -2    7.15    0.65
   6   2  -1  113.27    3.33
  -6   2   1  122.59    3.35
  -6   2   1  116.66    3.19
   6   2  -1  118.92    3.27
   6  -2  -1  119.37    3.20
   6  -2  -1  115.40    3.29
  -6  -2   1  117.41    2.96
  -6  -2   1  117.76    3.48
   6   2   0    3.74    0.49
  -6   2   0    3.33    0.50
  -6   2   0    3.55    0.45
   6   2   0    3.38    0.45
   6  -2   0    3.06    0.44
  -6  -2   0    3.25    0.54
  -6  -2   0    3.05    0.41
   6  -2   0    4.78    0.44
   6   2   1  285.40    7.36
  -6   2  -1  289.67    7.23
   6   2   1  285.15    7.22
   6   2   1  283.90    7.02
  -6  -2  -1  285.20    7.03
   6  -2   1  291.25    7.52
  -6  -2  -1  276.16    7.37
   6  -2   1  288.83    6.88
   6   2   2   11.47    0.64
   6   2   2   10.52    0.83
   6   2   2   11.36    0.74
   6  -2   2   11.45    0.52
   6  -2   2    9.87    0.75
  -6  -2  -2   11.08    0.77
   6   2   3  273.92    7.12
  -6   2  -3  282.41    7.08
  -6   2  -3  275.62    7.00
   6  -2   3  264.52    7.01
  -6  -2  -3  264.35    6.94
  -6  -2  -3  273.26    6.61
   6   2   4    2.16    0.44
   6   2   4    2.47    0.55
  -6   2  -4    1.74    0.47
  -6   2  -4    2.83    0.55
   6  -2   4    1.80    0.42
  -6  -2  -4    2.04    0.43
   6   2   5  185.66    5.08
   6   2   5  192.38    5.40
  -6   2  -5  191.58    5.38
   6  -2   5  188.45    5.23
   6  -2   5  188.71    5.26
  -6  -2  -5  190.54    5.28
   6   2   6    2.86    0.56
   6   2   6    3.14    0.64
  -6   2  -6    3.32    0.69
   6  -2   6    4.64    0.73
   6  -2   6    2.53    0.54
  -6  -2  -6    2.57    0.59
  -6   2  -7   99.82    3.53
   6   2   7  100.60    3.47
   6  -2   7  101.58    3.39
   6  -2   7   98.29    3.33
  -6  -2  -7   94.67    3.39
  -6   3   8   13.87    1.29
   6   3  -8   15.01    1.46
   6  -3  -8   15.92    1.51
   6  -3  -8   13.93    1.37
  -6  -3   8   14.20    1.32
  -6  -3   8   16.16    1.16
  -6   3   7   45.04    1.86
   6   3  -7   44.06    2.13
  -6   3   7   47.35    2.00
   6  -3  -7   44.72    2.17
  -6  -3   7   45.78    1.99
  -6  -3   7   46.67    1.85
  -6   3   6   44.57    1.88
  -6   3   6   44.56    1.70
   6   3  -6   44.56    2.02
  -6  -3   6   44.72    1.91
   6  -3  -6   45.77    2.01
  -6  -3   6   42.96    1.70
   6   3  -5   45.55    1.96
  -6   3   5   45.48    1.81
  -6  -3   5   45.76    1.86
   6  -3  -5   43.32    1.89
   6   3  -4  152.76    4.50
  -6   3   4  162.44    4.39
  -6   3   4  154.77    4.22
  -6  -3   4  155.10    4.46
   6  -3  -4  155.13    4.46
  -6  -3   4  160.05    4.27
   6  -3  -4  160.18    4.11
   6   3  -3   77.41    1.93
   6   3  -3   72.37    2.50
  -6   3   3   71.80    2.37
  -6   3   3   75.05    2.33
   6  -3  -3   76.83    2.48
   6  -3  -3   77.92    2.31
  -6  -3   3   77.31    2.53
  -6   3   2  232.84    5.96
  -6   3   2  229.32    5.94
   6   3  -2  228.06    6.03
   6   3  -2  223.68    6.10
   6   3  -2  243.61    5.56
   6  -3  -2  228.31    6.25
   6  -3  -2  234.17    5.93
  -6   3   1   63.85    2.09
   6   3  -1   62.76    2.09
   6   3  -1   61.02    2.12
   6   3  -1   65.07    1.78
  -6  -3   1   62.27    2.21
   6  -3  -1   62.79    2.01
   6  -3  -1   64.56    2.06
   6   3   0   56.83    1.91
  -6   3   0   56.07    1.85
  -6   3   0   54.44    2.09
   6   3   0   54.60    1.90
  -6  -3   0   56.44    2.07
   6  -3   0   56.10    1.79
  -6  -3   0   56.81    1.74
   6   3   1   91.29    2.70
  -6   3  -1   87.56    2.76
  -6   3  -1   91.97    2.69
   6   3   1   89.03    2.73
   6   3   1   89.84    2.85
   6  -3   1   90.80    2.75
  -6  -3  -1   92.16    2.62
  -6  -3  -1   87.46    2.88
   6  -3   1   89.16    2.51
  -6   3  -2   11.78    0.84
   6   3   2   13.58    0.82
  -6   3  -2   10.79    0.87
   6   3   2   14.08    0.84
   6   3   2   12.36    0.92
   6  -3   2   12.69    0.71
   6  -3   2   10.87    0.83
  -6   3  -3   72.22    2.32
  -6   3  -3   73.55    2.50
   6   3   3   71.92    2.29
   6   3   3   66.70    2.42
  -6  -3  -3   67.65    2.34
  -6  -3  -3   68.99    2.20
   6  -3   3   70.39    2.40
   6  -3   3   71.76    1.97
   6   3   4    5.63    0.78
  -6   3  -4    4.18    0.72
   6   3   4    7.11    0.75
   6  -3   4    5.44    0.78
  -6  -3  -4    5.29    0.76
  -6  -3  -4    3.63    0.63
  -6   3  -5   41.16    1.78
  -6   3  -5   39.19    1.90
   6   3   5   43.08    1.91
   6   3   5   39.74    1.64
  -6  -3  -5   38.79    1.86
   6  -3   5   41.76    1.84
  -6   3  -6   10.15    1.18
   6   3   6   12.48    1.22
  -6   3  -6    9.55    1.18
   6  -3   6   10.07    1.08
  -6   4   7   -0.75    0.55
  -6   4   7   -0.16    0.62
   6   4  -7    1.02    0.73
  -6  -4   7    0.70    0.63
   6  -4  -7    0.76    0.65
   6   4  -6   40.33    2.47
  -6   4   6   40.77    1.82
  -6   4   6   40.52    1.80
   6  -4  -6   43.72    2.32
  -6  -4   6   42.86    1.99
   6   4  -5    1.73    0.61
  -6   4   5    2.46    0.59
  -6   4   5    1.47    0.57
  -6  -4   5    1.77    0.51
  -6  -4   5    1.34    0.55
   6  -4  -5    2.04    0.60
  -6   4   4   35.33    1.57
   6   4  -4   38.98    1.80
  -6   4   4   36.44    1.59
  -6  -4   4   35.77    1.46
   6  -4  -4   38.25    1.72
  -6  -4   4   34.34    1.66
   6   4  -3   36.24    1.19
   6   4  -3   35.87    1.69
  -6   4   3   37.03    1.56
  -6   4   3   36.84    1.51
  -6  -4   3   36.92    1.62
   6  -4  -3   37.34    1.62
   6  -4  -3   35.79    1.46
  -6   4   2   31.15    1.41
   6   4  -2   30.18    1.48
  -6   4   2   29.13    1.40
   6   4  -2   30.99    1.08
  -6  -4   2   30.30    1.45
   6  -4  -2   30.68    1.28
   6  -4  -2   30.48    1.38
  -6  -4   2   29.42    1.39
  -6   4   1    7.77    0.68
   6   4  -1    7.59    0.57
   6   4  -1    8.01    0.80
  -6   4   1    7.62    0.76
  -6  -4   1    7.05    0.81
   6  -4  -1    7.24    0.73
  -6  -4   1    6.22    0.72
   6  -4  -1    7.92    0.77
   6   4   0   54.65    2.04
   6   4   0   55.63    1.77
  -6   4   0   54.42    2.05
   6   4   0   56.36    1.98
  -6   4   0   54.89    1.81
   6  -4   0   56.06    1.91
   6  -4   0   57.27    1.98
  -6  -4   0   54.77    2.11
  -6   4  -1    3.09    0.52
   6   4   1    5.49    0.75
  -6   4  -1    3.97    0.55
   6   4   1    3.16    0.52
   6   4   1    4.16    0.57
  -6  -4  -1    4.71    0.71
   6  -4   1    4.25    0.60
   6  -4   1    3.53    0.54
   6   4   2   69.21    2.29
  -6   4  -2   71.28    2.20
  -6   4  -2   66.31    2.47
   6   4   2   71.29    2.48
  -6  -4  -2   69.29    2.39
  -6  -4  -2   70.28    2.33
   6  -4   2   70.21    2.43
   6  -4   2   70.00    2.16
   6   4   3    9.18    0.94
  -6   4  -3    7.03    0.85
  -6   4  -3    8.03    0.95
   6   4   3    9.13    0.78
  -6  -4  -3    8.45    0.90
  -6  -4  -3    8.53    0.91
   6  -4   3    7.79    0.76
   6  -4   3    8.23    0.93
  -6   4  -4  100.65    3.33
   6   4   4   96.03    2.90
   6   4   4   94.78    3.22
  -6  -4  -4   92.30    2.99
   6  -4   4   96.33    3.19
  -6  -4  -4   96.52    3.20
  -6   4  -5    5.01    0.88
  -6  -4  -5    6.00    0.87
   6  -4   5    7.47    1.03
   6   5  -5    6.10    1.00
  -6   5   5    7.67    1.09
  -6   5   5    6.65    0.96
   6  -5  -5    8.83    1.11
  -6  -5   5    6.09    0.91
  -6   5   4    0.77    0.55
   6   5  -4    0.95    0.71
  -6   5   4    1.27    0.53
  -6  -5   4    1.16    0.61
   6  -5  -4    0.56    0.58
  -6   5   3   33.30    1.69
  -6   5   3   32.16    1.42
   6   5  -3   30.92    1.74
  -6  -5   3   33.47    1.71
   6  -5  -3   33.19    1.63
  -6   5   2    0.25    0.48
   6   5  -2    1.62    0.59
  -6   5   2   -0.67    0.50
   6  -5  -2    0.71    0.48
  -6  -5   2    0.81    0.51
   6  -5  -2    1.51    0.48
  -6   5   1   28.62    1.50
   6   5  -1   29.28    1.58
  -6   5   1   25.71    1.23
   6   5  -1   27.54    1.19
   6  -5  -1   30.44    1.49
  -6  -5   1   28.27    1.60
   6  -5  -1   28.01    1.36
  -6  -5   1   29.03    1.50
   6   5   0    6.72    0.98
   6   5   0    7.81    0.73
  -6   5   0    8.49    0.94
  -6  -5   0    7.00    1.00
   6  -5   0    8.50    0.87
   6  -5   0    6.53    0.88
  -6  -5   0    6.29    0.77
   6   5   1    4.58    0.76
   6   5   1    4.41    0.59
  -6   5  -1    4.62    0.74
   6  -5   1    5.16    0.80
   6  -5   1    6.86    0.88
  -6  -5  -1    4.95    0.69
  -6  -5  -1    6.09    0.85
   6   5   2    9.70    0.91
  -6   5  -2   11.12    1.11
   6   5   2   10.01    1.08
   6  -5   2    7.92    1.06
  -6  -5  -2    9.50    0.98
  -6  -5  -2   10.11    1.09
   6  -5   2   11.13    0.93
   6   5   3    0.05    0.61
  -6   5  -3    0.40    0.60
  -6  -5  -3    0.51    0.54
  -6  -5  -3    0.59    0.62
  -6  -5  -3    0.71    0.56
   6  -5   3    1.67    0.72
   6   5   4   20.44    1.45
  -6   5  -4   18.83    1.44
   6  -5   4   19.42    1.42
  -6  -5  -4   19.07    1.44
  -6  -5  -4   16.54    1.58
  -6   6   2   32.39    1.77
   6   6  -2   32.08    1.94
  -6  -6   2   29.92    1.79
   6  -6  -2   32.26    1.75
   6   6  -1    0.70    0.52
  -6   6   1   -0.25    0.57
   6   6  -1    1.13    0.67
  -6  -6   1   -0.03    0.58
   6  -6  -1   -0.78    0.57
   6  -6  -1    0.45    0.73
   6   6   0    9.14    0.95
   6   6   0    8.60    1.09
  -6   6   0   11.75    1.17
   6  -6   0    9.27    1.13
   6  -6   0   10.73    1.15
  -6  -6   0    9.64    1.17
   6   6   1    0.76    0.54
  -6   6  -1    2.03    0.68
   6  -6   1   -0.17    0.62
  -6  -6  -1    0.68    0.60
   6  -6   1    0.38    0.61
  -7   0   8   37.73    1.65
  -7   0   8   37.07    1.86
  -7   0   7   -0.30    0.42
   7   0  -7    0.04    0.53
  -7   0   7   -0.55    0.47
   7   0  -6   28.13    1.46
  -7   0   6   24.72    1.24
  -7   0   6   25.59    1.41
   7   0  -5    0.14    0.32
   7   0  -5    0.14    0.35
  -7   0   5    0.34    0.43
   7   0  -4    9.44    0.76
  -7   0   4    8.22    0.78
   7   0  -4    9.61    0.74
   7   0  -3    0.32    0.29
   7   0  -3    0.25    0.28
  -7   0   3   -0.02    0.33
  -7   0   2    2.04    0.25
   7   0  -2    1.83    0.39
   7   0  -2    2.45    0.30
   7   0  -2    2.21    0.39
  -7   0   1    0.43    0.21
  -7   0   1    1.11    0.34
   7   0  -1    0.10    0.25
   7   0  -1    0.42    0.25
   7   0   0   84.81    3.17
  -7   0   0   76.56    2.13
   7   0   0   75.70    2.12
  -7   0   0   67.36    2.87
   7   0   1    0.19    0.27
   7   0   1    0.22    0.18
  -7   0  -1    0.17    0.23
  -7   0  -1    1.05    0.39
  -7   0  -2    0.18    0.29
  -7   0  -2    0.14    0.41
   7   0   2    0.70    0.32
   7   0   3    0.06    0.36
  -7   0  -3    0.36    0.30
   7   0   3   -0.38    0.31
   7   0   4   17.08    1.07
  -7   0  -4   18.88    1.11
   7   0   4   18.14    1.18
   7   0   5    0.68    0.43
   7   0   5    0.02    0.46
  -7   0  -5    0.64    0.44
   7   0   6   28.52    1.58
  -7   0  -6   29.20    1.63
   7   0   6   28.68    1.55
   7   0   7    1.94    0.65
  -7   0  -7   -0.89    0.67
   7   0   7    1.16    0.69
   7   1  -8    6.06    0.95
  -7   1   8    5.18    0.95
  -7  -1   8    5.39    0.75
  -7  -1   8    5.15    0.87
   7  -1  -8    6.43    0.94
  -7   1   7   36.92    1.50
   7   1  -7   39.30    1.91
  -7   1   7   38.85    1.83
  -7  -1   7   38.78    1.67
  -7  -1   7   37.15    1.77
   7  -1  -7   37.85    1.88
  -7   1   6    9.70    0.97
   7   1  -6   10.60    1.06
  -7   1   6   10.60    0.77
  -7  -1   6   10.16    0.95
   7  -1  -6   10.11    0.73
  -7  -1   6   10.56    0.88
   7  -1  -6    9.62    0.94
   7   1  -5   14.49    1.04
  -7   1   5   14.62    1.02
   7   1  -5   14.32    0.90
   7  -1  -5   15.81    0.70
   7  -1  -5   14.97    0.85
   7  -1  -5   15.40    1.06
  -7  -1   5   14.86    1.00
   7   1  -4   15.50    0.88
   7   1  -4   15.56    0.97
  -7   1   4   13.98    0.59
  -7   1   4   14.60    0.98
   7  -1  -4   14.30    0.94
   7  -1  -4   13.57    0.84
  -7  -1   4   14.04    0.94
  -7   1   3   10.31    0.51
   7   1  -3    9.71    0.77
   7   1  -3   10.29    0.76
  -7   1   3   10.83    0.82
  -7  -1   3    9.68    0.82
   7  -1  -3   10.50    0.72
   7  -1  -3   10.70    0.78
   7   1  -2   31.86    1.29
   7   1  -2   31.15    1.35
  -7   1   2   31.54    1.41
  -7   1   2   31.80    1.07
   7  -1  -2   30.58    1.29
   7  -1  -2   34.14    1.29
  -7   1   1   20.05    0.83
  -7   1   1   18.53    1.10
   7   1  -1   19.88    0.91
   7   1  -1   16.94    1.05
   7  -1  -1   18.81    0.86
   7  -1  -1   19.62    1.01
  -7  -1   1   19.44    0.69
  -7   1   0   53.55    2.00
   7   1   0   55.96    1.69
   7   1   0   53.24    1.93
  -7   1   0   55.27    1.74
   7  -1   0   56.57    1.66
  -7  -1   0   53.31    2.03
  -7  -1   0   55.48    1.62
   7   1   1   20.59    0.83
  -7   1  -1   20.40    1.30
  -7   1  -1   21.19    0.98
  -7  -1  -1   20.23    0.91
   7  -1   1   20.25    0.74
   7  -1   1   20.32    1.07
  -7   1  -2   47.81    1.69
   7   1   2   46.65    1.30
  -7   1  -2   46.68    1.86
   7   1   2   46.86    1.75
   7   1   2   44.31    1.81
   7  -1   2   45.80    1.76
  -7  -1  -2   45.53    1.87
  -7   1  -3    5.17    0.71
  -7   1  -3    5.35    0.69
   7   1   3    4.61    0.73
   7   1   3    3.96    0.56
  -7  -1  -3    5.65    0.65
   7  -1   3    4.56    0.66
   7   1   4   13.70    1.00
  -7   1  -4   14.25    1.03
   7   1   4   13.98    1.08
  -7  -1  -4   13.55    0.97
   7  -1   4   14.02    1.04
   7  -1   4   17.34    1.09
   7   1   5    4.46    0.67
   7   1   5    4.03    0.68
  -7   1  -5    6.76    0.88
   7  -1   5    5.15    0.76
  -7  -1  -5    5.53    0.83
   7  -1   5    4.94    0.70
   7   1   6    3.69    0.80
   7   1   6    2.90    0.63
  -7   1  -6    3.52    0.81
   7  -1   6    4.16    0.71
  -7  -1  -6    3.82    0.73
   7  -1   6    4.36    0.76
   7   2  -8   12.63    1.28
  -7   2   8    9.81    1.22
   7  -2  -8   15.09    1.43
  -7  -2   8   11.55    1.18
  -7  -2   8   10.38    1.14
  -7   2   7   26.85    1.55
   7   2  -7   28.82    1.64
  -7  -2   7   26.61    1.51
   7  -2  -7   27.87    1.67
  -7  -2   7   25.38    1.49
  -7   2   6   27.68    1.45
   7   2  -6   27.92    1.55
  -7   2   6   27.52    1.49
  -7  -2   6   27.59    1.42
   7  -2  -6   27.93    1.53
  -7  -2   6   27.94    1.43
   7   2  -5   24.39    1.39
  -7   2   5   23.74    1.02
  -7   2   5   23.45    1.33
  -7  -2   5   23.92    1.25
   7  -2  -5   25.07    1.13
   7  -2  -5   23.20    1.38
  -7  -2   5   22.50    1.26
   7   2  -4   44.61    1.73
  -7   2   4   44.94    1.49
  -7   2   4   43.38    1.77
   7   2  -4   46.06    1.87
   7  -2  -4   46.89    1.65
  -7  -2   4   45.62    1.79
   7  -2  -4   46.47    1.83
  -7   2   3    8.94    0.77
   7   2  -3    8.19    0.77
   7   2  -3    8.41    0.67
  -7   2   3    8.21    0.63
  -7  -2   3    8.20    0.81
   7  -2  -3    7.21    0.71
  -7   2   2   75.39    2.46
   7   2  -2   76.48    2.40
   7   2  -2   76.15    2.46
  -7   2   2   77.32    2.23
   7  -2  -2   74.06    2.38
  -7  -2   2   70.60    2.53
   7  -2  -2   78.69    2.37
   7   2  -1    0.99    0.39
   7   2  -1    0.77    0.35
  -7   2   1    1.10    0.34
   7  -2  -1    0.52    0.37
  -7  -2   1    0.86    0.41
  -7  -2   1    0.40    0.21
   7  -2  -1    0.54    0.29
   7   2   0  176.84    4.59
  -7   2   0  179.69    5.09
  -7   2   0  174.95    4.65
   7   2   0  168.43    4.75
   7  -2   0  178.18    4.48
  -7  -2   0  177.16    4.93
   7  -2   0  171.43    4.75
  -7  -2   0  175.15    4.41
  -7   2  -1    7.40    0.70
   7   2   1    7.05    0.69
   7   2   1    8.12    0.63
  -7  -2  -1    8.52    0.62
   7  -2   1    8.60    0.58
  -7  -2  -1    8.23    0.83
   7  -2   1    8.95    0.73
   7   2   2   72.13    2.41
  -7   2  -2   74.74    2.48
   7   2   2   75.02    2.57
  -7   2  -2   74.23    2.41
   7   2   2   75.65    2.12
  -7  -2  -2   71.12    2.25
   7  -2   2   74.45    1.94
   7  -2   2   66.78    2.39
   7   2   3   -0.04    0.36
  -7   2  -3    0.10    0.43
  -7   2  -3    0.50    0.40
   7   2   3    1.36    0.49
  -7  -2  -3    0.20    0.34
   7  -2   3   -0.34    0.33
   7   2   4   37.21    1.77
   7   2   4   40.08    1.60
  -7   2  -4   37.84    1.72
  -7   2  -4   37.53    1.69
   7  -2   4   37.61    1.72
  -7  -2  -4   37.40    1.61
   7   2   5   14.59    1.22
  -7   2  -5   14.68    1.18
  -7   2  -5   15.67    1.22
   7   2   5   16.18    1.10
  -7  -2  -5   18.43    1.18
   7  -2   5   13.27    1.13
   7   2   6   21.18    1.30
   7   2   6   21.05    1.47
  -7   2  -6   23.40    1.54
   7  -2   6   23.45    1.52
   7  -2   6   18.89    1.49
  -7   3   7   50.85    2.28
   7   3  -7   52.25    2.40
  -7  -3   7   53.79    2.66
   7  -3  -7   51.20    2.36
  -7  -3   7   51.18    2.11
  -7   3   6   44.12    2.04
  -7   3   6   44.44    1.73
   7   3  -6   44.87    2.11
  -7  -3   6   46.53    1.88
   7  -3  -6   45.06    2.11
  -7  -3   6   45.04    2.00
  -7   3   5   49.31    2.04
   7   3  -5   51.50    2.17
  -7   3   5   52.10    2.07
  -7  -3   5   51.50    2.07
   7  -3  -5   50.79    2.12
  -7  -3   5   51.61    1.95
  -7   3   4   44.55    1.62
   7   3  -4   42.63    1.86
  -7   3   4   43.79    1.79
  -7  -3   4   44.89    1.87
   7  -3  -4   43.41    1.62
   7  -3  -4   45.46    1.83
  -7  -3   4   42.20    1.74
   7   3  -3   98.25    3.11
  -7   3   3   97.80    3.03
   7   3  -3   95.04    3.02
  -7   3   3   97.26    2.87
  -7  -3   3   94.30    3.02
   7  -3  -3   98.82    2.89
  -7  -3   3   94.07    3.07
   7  -3  -3   99.13    3.04
   7   3  -2   13.79    0.93
   7   3  -2   13.69    0.96
  -7   3   2   14.85    0.92
  -7   3   2   14.37    0.89
  -7  -3   2   13.92    0.81
   7  -3  -2   14.24    0.97
  -7  -3   2   13.19    1.03
   7  -3  -2   13.70    0.90
   7   3  -1   85.32    2.71
   7   3  -1   85.93    2.73
  -7   3   1   89.54    2.70
  -7   3   1   81.25    2.93
   7  -3  -1   86.00    2.70
   7  -3  -1   86.64    2.62
  -7  -3   1   91.16    2.39
  -7  -3   1   83.97    2.84
   7   3   0    1.09    0.40
   7   3   0    1.33    0.38
  -7   3   0    1.64    0.44
   7  -3   0    1.04    0.43
  -7  -3   0    1.15    0.50
  -7  -3   0    1.02    0.34
   7  -3   0    1.51    0.40
   7   3   1   79.72    2.50
   7   3   1   80.85    2.63
  -7   3  -1   82.19    2.63
   7  -3   1   77.10    2.61
  -7  -3  -1   79.05    2.79
  -7  -3  -1   79.77    2.43
   7  -3   1   85.80    2.36
  -7   3  -2    1.27    0.47
   7   3   2    1.02    0.49
  -7   3  -2    1.83    0.50
   7   3   2    0.48    0.36
   7   3   2    1.05    0.43
   7  -3   2    0.68    0.42
   7  -3   2    0.34    0.30
  -7  -3  -2    0.55    0.36
   7   3   3   84.35    2.94
  -7   3  -3   84.96    2.88
  -7   3  -3   87.53    2.76
   7   3   3   83.24    2.71
  -7  -3  -3   84.91    2.59
  -7  -3  -3   83.37    2.74
   7  -3   3   81.16    2.82
   7   3   4   27.74    1.56
  -7   3  -4   28.28    1.44
   7   3   4   28.48    1.39
  -7   3  -4   26.54    1.52
  -7  -3  -4   29.38    1.52
   7  -3   4   28.05    1.52
  -7   3  -5   53.77    2.17
   7   3   5   52.93    2.05
  -7  -3  -5   54.87    2.22
   7  -3   5   50.44    2.33
   7   4  -6   19.68    1.55
  -7   4   6   20.88    1.42
  -7   4   6   20.69    1.59
  -7  -4   6   22.05    1.55
   7  -4  -6   20.21    1.52
  -7   4   5   73.77    2.59
  -7   4   5   74.89    2.69
   7   4  -5   74.85    2.91
  -7  -4   5   74.68    2.82
   7  -4  -5   75.92    2.86
  -7  -4   5   77.31    2.52
  -7   4   4   11.01    0.98
   7   4  -4   10.86    1.11
  -7   4   4    9.48    0.98
   7  -4  -4   12.53    1.06
  -7  -4   4   12.58    1.10
  -7  -4   4   12.20    1.00
  -7   4   3  144.67    4.12
  -7   4   3  143.97    4.09
   7   4  -3  139.64    4.30
  -7  -4   3  139.80    4.06
   7  -4  -3  139.54    4.18
   7  -4  -3  144.11    3.98
  -7  -4   3  143.77    4.31
  -7   4   2    0.95    0.45
   7   4  -2    0.62    0.48
  -7   4   2   -0.34    0.39
   7  -4  -2    1.27    0.43
  -7  -4   2    0.88    0.42
   7  -4  -2    1.53    0.46
  -7  -4   2    0.98    0.49
   7   4  -1  220.20    5.97
  -7   4   1  211.94    5.88
  -7   4   1  219.29    5.73
   7   4  -1  222.67    5.93
   7  -4  -1  220.88    5.83
   7  -4  -1  222.64    5.81
  -7  -4   1  210.67    5.93
   7   4   0    1.95    0.46
  -7   4   0    1.61    0.44
   7   4   0   -0.32    0.38
  -7   4   0    0.42    0.44
  -7  -4   0    0.59    0.38
   7  -4   0    0.33    0.36
  -7  -4   0    0.60    0.55
   7  -4   0   -0.16    0.42
  -7   4  -1  267.19    6.86
   7   4   1  256.57    6.71
   7   4   1  249.16    6.70
  -7   4  -1  248.47    6.80
   7  -4   1  258.69    6.62
  -7  -4  -1  256.79    6.57
   7  -4   1  251.52    6.76
  -7  -4  -1  247.91    6.87
   7   4   2    1.23    0.58
   7   4   2    2.70    0.52
  -7   4  -2    2.22    0.57
   7  -4   2    2.51    0.47
  -7  -4  -2    2.55    0.62
   7  -4   2    2.87    0.55
  -7  -4  -2    1.81    0.55
   7   4   3  158.43    4.41
  -7   4  -3  155.35    4.68
   7   4   3  158.62    4.70
   7  -4   3  155.54    4.62
  -7  -4  -3  155.99    4.50
  -7  -4  -3  148.46    4.36
   7   4   4   13.90    1.38
   7   4   4   17.10    1.18
  -7   4  -4   18.01    1.42
  -7  -4  -4   17.12    1.27
   7  -4   4   18.47    1.33
  -7   5   4  129.51    3.91
  -7   5   4  131.29    4.06
   7   5  -4  131.39    4.28
  -7  -5   4  127.86    4.21
   7  -5  -4  126.63    4.13
   7   5  -3   33.93    2.10
  -7   5   3   31.53    1.58
  -7   5   3   33.71    1.78
   7  -5  -3   36.47    1.78
  -7   5   2   90.50    2.90
   7   5  -2   93.14    3.24
  -7   5   2   94.45    3.16
  -7  -5   2   92.49    3.22
   7  -5  -2   91.39    2.96
   7  -5  -2   94.35    3.13
   7   5  -1    5.96    0.86
  -7   5   1    6.87    0.97
  -7   5   1    6.62    0.91
  -7  -5   1    7.74    1.09
   7  -5  -1    6.23    0.89
   7  -5  -1    6.85    0.95
  -7  -5   1    5.25    0.82
   7   5   0   80.44    2.53
   7   5   0   80.60    2.91
  -7   5   0   82.09    2.92
   7  -5   0   83.20    2.80
  -7  -5   0   84.44    2.93
  -7  -5   0   77.56    2.84
   7  -5   0   82.81    2.72
   7   5   1    4.42    0.81
  -7   5  -1    4.42    0.84
  -7  -5  -1    6.25    0.93
  -7  -5  -1    3.76    0.75
   7  -5   1    5.79    0.77
  -7  -5  -1    5.88    0.91
   7  -5   1    5.08    0.77
  -7   5  -2   64.93    2.58
  -7  -5  -2   62.03    2.44
   7  -5   2   63.13    3.27
  -7  -5  -2   64.02    2.62
  -7  -5  -2   65.35    2.42
  -7  -5  -2   63.57    2.51
  -7   5  -3   29.88    1.78
   7   5   3   28.31    1.79
  -7  -5  -3   29.00    1.66
  -7  -5  -3   29.33    1.68
   7  -5   3   33.26    1.78
  -8   0   8  133.79    4.02
   8   0  -8  138.33    4.48
  -8   0   8  134.52    4.39
  -8   0   7    1.36    0.57
   8   0  -7   -0.81    0.54
  -8   0   7   -0.27    0.50
  -8   0   6  267.14    6.84
   8   0  -6  263.32    6.79
  -8   0   6  255.78    7.06
   8   0  -6  257.44    7.08
  -8   0   5    0.42    0.51
   8   0  -5    1.12    0.36
   8   0  -5    0.12    0.41
   8   0  -4  270.13    6.91
  -8   0   4  258.22    7.01
   8   0  -4  264.95    6.92
   8   0  -3    1.41    0.39
   8   0  -3    0.17    0.33
   8   0  -2  363.52    9.15
  -8   0   2  358.12    8.51
   8   0  -2  373.69    8.98
  -8   0   2  357.84    9.28
  -8   0   1    0.18    0.38
  -8   0   1    0.10    0.24
   8   0  -1    0.15    0.31
   8   0  -1    0.44    0.30
   8   0   0  227.50    6.11
   8   0   0  235.07    5.71
  -8   0   0  234.25    5.74
  -8   0   0  224.62    6.24
  -8   0  -1   -0.05    0.40
  -8   0  -1    0.32    0.29
   8   0   1    0.04    0.22
   8   0   1   -0.08    0.31
   8   0   2  117.12    3.55
  -8   0  -2  116.37    3.67
   8   0   3    0.34    0.41
  -8   0  -3    0.09    0.38
  -8   0  -3    0.44    0.53
   8   0   4   62.76    2.41
   8   0   4   66.35    2.51
  -8   0  -4   65.28    2.35
   8   0   5   -0.74    0.62
  -8   0  -5   -0.13    0.52
   8   0   5    0.27    0.49
   8   0   6   74.63    3.46
  -8   0  -6   86.10    3.06
   8   0   6   82.97    3.11
  -8   1   8   83.14    3.15
   8   1  -8   84.04    3.25
   8  -1  -8   83.05    3.16
  -8  -1   8   83.94    3.15
  -8  -1   8   84.78    2.98
  -8   1   7   29.40    1.45
  -8   1   7   30.90    1.73
   8   1  -7   30.16    1.78
   8  -1  -7   32.59    1.82
  -8  -1   7   30.63    1.60
  -8  -1   7   31.09    1.73
   8   1  -6   65.75    2.53
  -8   1   6   66.63    2.56
   8  -1  -6   66.49    2.21
  -8  -1   6   63.78    2.37
   8  -1  -6   65.49    2.54
  -8  -1   6   65.45    2.48
   8   1  -5   50.40    1.95
   8   1  -5   51.49    2.04
  -8   1   5   50.95    2.11
  -8  -1   5   50.47    2.10
   8  -1  -5   50.15    1.85
   8  -1  -5   52.53    2.10
   8   1  -4   60.29    2.17
  -8   1   4   61.60    2.29
   8   1  -4   64.11    2.26
  -8  -1   4   61.35    2.30
   8  -1  -4   63.56    2.25
   8  -1  -4   63.40    2.14
   8   1  -3   43.83    1.81
  -8   1   3   49.33    1.93
   8   1  -3   48.11    1.78
  -8   1   3   47.62    1.39
  -8  -1   3   49.70    1.97
   8  -1  -3   47.37    1.78
   8  -1  -3   46.87    1.77
  -8   1   2   90.08    2.45
   8   1  -2   86.27    2.84
  -8   1   2   89.19    2.94
   8   1  -2   92.12    2.72
  -8  -1   2   88.66    2.97
   8  -1  -2   91.69    2.80
   8  -1  -2   91.74    2.71
   8   1  -1   60.18    2.20
  -8   1   1   63.96    1.92
   8   1  -1   64.29    2.02
  -8   1   1   61.75    2.27
   8  -1  -1   62.91    1.97
   8  -1  -1   61.41    2.17
  -8  -1   1   64.59    1.73
  -8  -1   1   63.56    2.34
   8   1   0  136.57    3.96
  -8   1   0  141.28    3.69
   8   1   0  135.49    3.60
  -8   1   0  135.09    4.01
  -8  -1   0  137.29    3.54
  -8  -1   0  138.60    4.14
   8  -1   0  133.91    3.53
   8  -1   0  130.97    3.91
  -8   1  -1  147.30    4.03
   8   1   1  148.57    4.25
   8   1   1  153.54    3.82
  -8   1  -1  147.42    4.35
  -8  -1  -1  150.19    4.44
   8  -1   1  138.55    4.23
   8  -1   1  152.30    3.72
  -8  -1  -1  153.55    3.98
  -8   1  -2  191.57    5.11
  -8   1  -2  189.94    5.33
   8   1   2  195.10    5.28
   8  -1   2  187.07    5.28
  -8  -1  -2  187.11    5.44
  -8  -1  -2  195.34    5.25
   8   1   3  164.68    4.86
  -8   1  -3  164.12    4.61
   8   1   3  162.83    4.67
  -8   1  -3  168.17    4.81
  -8  -1  -3  170.29    4.95
   8  -1   3  161.71    4.73
  -8  -1  -3  159.41    4.52
  -8   1  -4  132.92    4.18
   8   1   4  133.98    4.05
   8   1   4  134.21    4.24
  -8   1  -4  138.40    4.08
   8  -1   4  140.25    4.16
  -8  -1  -4  134.45    3.99
   8   1   5  130.49    4.29
  -8   1  -5  131.87    4.11
   8   1   5  135.14    4.05
  -8   1  -5  134.84    4.23
   8  -1   5  132.17    4.19
   8  -1   5  134.10    4.14
  -8  -1  -5  132.15    4.06
   8   1   6   63.96    2.75
  -8   1  -6   66.64    2.65
   8   1   6   62.16    2.45
  -8  -1  -6   65.26    2.56
   8  -1   6   62.46    2.55
   8  -1   6   57.33    3.76
   8   2  -7  135.08    4.39
  -8   2   7  138.99    4.36
  -8  -2   7  129.45    4.16
   8  -2  -7  136.07    4.37
  -8  -2   7  133.33    4.18
   8   2  -6    3.99    0.82
  -8   2   6    4.38    0.84
  -8  -2   6    4.14    0.69
   8  -2  -6    3.58    0.79
  -8  -2   6    3.12    0.71
   8   2  -5  297.69    7.74
  -8   2   5  291.83    7.67
   8  -2  -5  283.74    7.67
  -8  -2   5  273.11    7.56
  -8  -2   5  289.48    7.65
   8   2  -4    2.35    0.50
  -8   2   4    2.15    0.40
  -8   2   4    2.12    0.57
   8   2  -4    2.65    0.58
   8  -2  -4    2.05    0.51
  -8  -2   4    1.22    0.57
   8  -2  -4    1.94    0.50
  -8   2   3  314.73    8.16
   8   2  -3  304.88    8.09
  -8   2   3  317.84    7.73
   8   2  -3  326.45    8.12
   8  -2  -3  325.61    8.09
   8  -2  -3  319.09    7.98
  -8  -2   3  297.01    8.19
   8   2  -2    8.22    0.78
   8   2  -2    9.68    0.86
  -8   2   2    9.84    0.90
   8  -2  -2    8.23    0.78
  -8  -2   2    8.30    0.92
   8  -2  -2    8.04    0.78
  -8   2   1  269.98    7.16
   8   2  -1  263.67    7.12
  -8   2   1  278.91    6.88
   8   2  -1  275.58    6.96
  -8  -2   1  257.42    7.24
   8  -2  -1  275.88    7.09
  -8  -2   1  287.34    6.55
   8   2   0    0.36    0.34
  -8   2   0   -0.25    0.32
   8   2   0    0.66    0.36
  -8   2   0    0.30    0.43
   8  -2   0    0.14    0.32
  -8  -2   0    0.00    0.28
  -8  -2   0    1.03    0.51
   8   2   1  124.69    3.38
  -8   2  -1  124.13    3.58
  -8   2  -1  123.25    3.71
   8   2   1  122.27    3.72
  -8  -2  -1  119.80    3.88
   8  -2   1  124.58    3.74
  -8  -2  -1  125.66    3.40
   8  -2   1  127.79    3.25
  -8   2  -2    1.26    0.55
   8   2   2    1.65    0.46
  -8   2  -2    1.84    0.46
   8  -2   2    1.16    0.42
  -8  -2  -2    2.08    0.62
  -8  -2  -2    2.78    0.48
   8   2   3   50.55    2.17
   8   2   3   50.14    2.00
  -8   2  -3   51.01    2.06
  -8   2  -3   52.42    2.04
  -8  -2  -3   50.66    1.89
   8  -2   3   46.86    2.00
   8   2   4    5.89    0.93
   8   2   4    4.30    0.67
  -8   2  -4    4.38    0.73
  -8   2  -4    4.11    0.80
  -8  -2  -4    4.71    0.68
   8  -2   4    5.99    0.89
  -8   2  -5   89.73    3.14
   8   2   5   90.35    2.99
   8   2   5   86.62    3.25
   8  -2   5   87.49    3.14
  -8  -2  -5   93.57    3.10
   8   3  -7   32.83    2.02
  -8   3   7   37.84    2.00
  -8  -3   7   34.56    1.98
  -8  -3   7   35.36    1.86
   8  -3  -7   34.68    2.06
   8   3  -6   14.99    1.58
  -8   3   6   12.88    1.58
  -8  -3   6   14.16    1.64
  -8  -3   6   14.92    1.24
  -8   3   5   29.36    1.58
   8   3  -5   29.13    1.63
  -8   3   5   26.55    1.30
  -8  -3   5   29.60    1.66
  -8  -3   5   26.11    1.51
   8  -3  -5   30.15    1.64
  -8   3   4    6.35    0.88
   8   3  -4    8.41    0.95
  -8  -3   4    6.51    0.93
   8  -3  -4    6.71    0.81
   8  -3  -4    7.74    0.90
  -8  -3   4    5.84    0.78
   8   3  -3   44.30    1.85
  -8   3   3   42.27    1.83
   8   3  -3   40.42    1.80
   8  -3  -3   40.70    1.64
   8  -3  -3   42.63    1.76
  -8  -3   3   40.42    1.84
   8   3  -2   21.73    1.28
   8   3  -2   22.75    1.27
  -8   3   2   21.69    1.13
  -8   3   2   21.58    1.23
   8  -3  -2   22.21    1.20
  -8  -3   2   20.22    1.35
   8  -3  -2   23.26    1.16
  -8   3   1   40.63    1.66
   8   3  -1   39.36    1.68
   8   3  -1   41.34    1.73
  -8   3   1   41.30    1.74
   8  -3  -1   40.78    1.58
   8  -3  -1   42.35    1.73
  -8  -3   1   39.58    1.85
  -8   3   0   57.32    2.05
  -8   3   0   54.76    2.10
   8   3   0   55.42    2.12
   8   3   0   56.63    2.02
   8  -3   0   54.62    1.87
  -8  -3   0   57.62    2.29
   8  -3   0   56.15    2.13
  -8  -3   0   59.17    1.83
   8   3   1   30.85    1.51
  -8   3  -1   29.82    1.47
  -8   3  -1   30.01    1.48
   8   3   1   31.57    1.36
  -8  -3  -1   31.68    1.32
  -8  -3  -1   28.85    1.64
   8  -3   1   30.10    1.48
   8  -3   1   32.78    1.23
  -8   3  -2  166.10    4.67
  -8   3  -2  164.31    4.73
   8   3   2  159.21    4.67
  -8  -3  -2  163.90    4.96
  -8  -3  -2  169.19    4.53
   8  -3   2  164.72    4.79
   8   3   3   41.12    1.76
  -8   3  -3   40.41    1.84
   8   3   3   36.48    1.89
  -8   3  -3   40.29    1.81
   8  -3   3   39.11    1.79
  -8  -3  -3   38.77    1.68
  -8   3  -4  117.06    3.54
   8   3   4  110.01    3.44
  -8   3  -4  106.90    3.67
   8   3   4   94.52    4.79
   8  -3   4  109.96    3.63
  -8  -3  -4  108.07    3.44
   8   4  -5   11.02    1.33
  -8   4   5   10.46    1.10
  -8   4   5   11.31    1.21
  -8  -4   5   10.09    1.23
   8  -4  -5   10.15    1.17
  -8  -4   5   11.81    1.18
  -8   4   4   49.05    2.06
   8   4  -4   50.96    2.22
  -8   4   4   48.26    2.01
   8  -4  -4   50.05    2.17
  -8  -4   4   51.70    2.08
  -8   4   3    6.83    1.01
   8   4  -3    8.16    1.00
  -8   4   3    8.16    0.95
  -8  -4   3    7.95    1.12
   8  -4  -3    5.96    0.77
  -8  -4   3    8.87    0.98
   8  -4  -3    7.80    0.95
  -8   4   2   42.74    1.82
   8   4  -2   41.47    1.92
  -8   4   2   40.66    1.79
  -8  -4   2   42.00    1.89
  -8  -4   2   42.85    1.95
   8  -4  -2   41.62    1.79
   8  -4  -2   43.85    1.82
  -8   4   1    3.22    0.61
   8   4  -1    3.52    0.62
  -8   4   1    2.58    0.57
   8   4  -1    3.34    0.65
  -8  -4   1    2.35    0.73
   8  -4  -1    3.08    0.60
   8  -4  -1    2.83    0.59
   8   4   0   43.84    1.88
  -8   4   0   42.27    1.87
   8   4   0   43.81    1.87
  -8   4   0   42.17    1.77
  -8  -4   0   42.62    2.03
   8  -4   0   40.69    1.69
   8  -4   0   45.65    1.92
   8   4   1    4.99    0.72
  -8   4  -1    4.30    0.72
   8   4   1    4.99    0.70
  -8   4  -1    4.53    0.74
   8  -4   1    4.13    0.72
  -8  -4  -1    4.22    0.65
  -8  -4  -1    5.31    0.90
   8  -4   1    4.67    0.64
   8   4   2   17.41    1.20
  -8   4  -2   15.31    1.25
  -8   4  -2   15.56    1.21
   8  -4   2   15.65    1.29
  -8  -4  -2   17.67    1.21
  -8  -4  -2   14.36    1.17
  -8  -4  -2   15.10    1.43
  -8   4  -3   27.97    1.92
   8   4   3   31.79    2.63
   8   4   3   32.21    1.61
  -8  -4  -3   29.36    1.61
   8  -4   3   31.62    1.71
  -8   5   3    0.51    0.63
   8   5  -3   -0.72    0.62
  -8   5   3    0.60    0.71
   8  -5  -3    1.23    0.74
  -8  -5   3    0.19    0.69
  -8   5   2   15.82    1.31
  -8   5   2   15.54    1.27
   8  -5  -2   16.56    1.29
   8  -5  -2   18.39    1.34
  -8  -5   2   14.84    1.36
   8   5  -1    0.87    0.68
  -8   5   1   -0.19    0.56
   8  -5  -1    1.26    0.61
  -8  -5   1    1.20    0.70
   8  -5  -1    0.42    0.57
  -8  -5   1    1.17    1.12
  -8   5   0   18.57    1.96
   8   5   0   15.89    1.35
  -8  -5   0   19.17    1.55
  -8  -5   0   17.46    1.53
   8  -5   0   18.98    1.29
   8  -5   0   19.94    1.38
   8   5   1    3.95    0.79
  -8   5  -1    4.05    0.84
   8  -5   1    5.08    1.42
  -8  -5  -1    3.42    0.79
  -8  -5  -1    5.07    0.98
   9   0  -7    0.93    0.65
  -9   0   7   -0.31    0.57
  -9   0   7   -0.64    0.67
  -9   0   6    4.10    0.84
   9   0  -6    3.44    0.70
   9   0  -6    3.72    0.65
   9   0  -5   -0.16    0.50
   9   0  -5    0.29    0.39
  -9   0   5    0.55    0.60
  -9   0   4    2.23    0.59
   9   0  -4    2.60    0.55
   9   0  -3   -0.02    0.38
  -9   0   3   -0.63    0.45
   9   0  -3    0.95    0.40
   9   0  -2   40.52    1.77
   9   0  -2   41.24    1.73
  -9   0   2   36.73    1.82
  -9   0   1   -0.61    0.46
   9   0  -1    0.57    0.34
   9   0  -1    0.36    0.35
  -9   0   1    0.57    0.32
   9   0   0   30.20    1.46
  -9   0   0   31.51    1.23
   9   0   0   32.44    1.20
  -9   0   0   30.70    1.64
  -9   0  -1    0.60    0.56
   9   0   1    0.20    0.40
  -9   0  -1    0.44    0.37
  -9   0  -2   15.02    1.24
  -9   0  -2   10.80    0.90
   9   0   2   12.58    1.07
   9   0   3    0.08    0.44
  -9   0  -3    0.10    0.61
  -9   0  -3   -0.17    0.40
  -9   0  -4    3.08    0.65
   9   0   4    2.42    0.61
  -9   0  -4    3.33    0.80
   9   0   5   -0.26    0.54
  -9   0  -5    0.38    0.77
  -9   1   7    8.03    1.17
  -9   1   7    7.42    1.15
   9   1  -7    5.87    0.92
   9  -1  -7    7.97    1.19
  -9  -1   7    6.26    0.88
  -9  -1   7    6.38    1.13
   9   1  -6   21.69    1.44
  -9   1   6   21.13    1.50
  -9  -1   6   18.34    1.36
  -9  -1   6   21.36    1.51
   9  -1  -6   22.40    1.49
   9  -1  -6   21.12    1.25
  -9   1   5    0.87    0.53
   9   1  -5   -0.31    0.43
   9   1  -5    0.70    0.51
  -9  -1   5    0.79    0.62
   9  -1  -5   -0.75    0.48
   9  -1  -5    0.51    0.47
   9   1  -4    8.74    0.88
  -9   1   4    8.05    1.00
   9   1  -4    7.84    0.85
   9  -1  -4    7.04    0.84
   9  -1  -4    7.32    0.85
  -9  -1   4    7.86    0.96
   9   1  -3   19.45    1.10
  -9   1   3   18.98    1.28
   9   1  -3   16.93    1.20
   9  -1  -3   19.68    1.19
  -9  -1   3   18.11    1.29
   9  -1  -3   19.76    1.10
   9   1  -2    9.86    0.83
   9   1  -2    8.08    0.85
  -9   1   2    9.71    1.01
   9  -1  -2    8.33    0.77
  -9  -1   2    9.32    1.02
   9  -1  -2    9.94    0.85
  -9   1   1   46.27    1.55
   9   1  -1   43.71    1.62
   9   1  -1   44.03    1.87
  -9   1   1   44.56    1.94
   9  -1  -1   43.48    1.79
  -9  -1   1   43.23    1.93
   9   1   0    7.76    0.69
  -9   1   0    6.44    0.88
   9   1   0    6.67    0.80
   9  -1   0    5.86    0.78
   9  -1   0    6.14    0.60
  -9  -1   0    5.30    0.78
  -9  -1   0    7.04    0.61
  -9   1  -1   23.77    1.41
  -9   1  -1   23.67    1.16
   9   1   1   24.66    1.34
  -9  -1  -1   25.51    1.50
   9  -1   1   25.54    1.36
  -9  -1  -1   22.00    1.26
  -9   1  -2    8.12    1.02
   9   1   2    8.03    0.91
  -9   1  -2    9.38    0.84
   9  -1   2    9.56    0.95
  -9  -1  -2    8.29    0.80
  -9  -1  -2    8.48    1.09
   9   1   3    3.63    0.61
  -9   1  -3    5.50    0.89
  -9   1  -3    3.20    0.61
  -9  -1  -3    4.41    0.89
   9  -1   3    3.74    0.65
   9   1   4   25.46    1.43
  -9   1  -4   23.59    1.59
  -9   1  -4   23.14    1.42
   9  -1   4   21.67    1.80
  -9  -1  -4   25.66    1.45
  -9   1  -5    9.09    1.19
   9   1   5   11.30    1.39
  -9   1  -5   13.91    1.43
   9  -1   5   12.69    1.22
   9   2  -7    4.16    0.96
  -9   2   7    2.62    0.88
   9  -2  -7    3.00    0.90
   9   2  -6   49.26    3.36
  -9   2   6   54.57    2.42
  -9  -2   6   55.93    2.40
  -9  -2   6   55.95    2.36
   9   2  -5    7.19    0.98
  -9   2   5    6.75    0.96
   9  -2  -5    6.89    0.98
  -9  -2   5    8.08    1.05
   9  -2  -5    5.58    0.81
  -9  -2   5    6.80    0.98
  -9   2   4   45.27    2.02
   9   2  -4   44.72    1.93
   9   2  -4   42.88    1.93
  -9  -2   4   45.52    2.04
   9  -2  -4   44.87    1.84
   9  -2  -4   42.78    1.89
  -9   2   3   19.40    1.28
   9   2  -3   20.69    1.23
   9   2  -3   19.01    1.22
   9  -2  -3   18.27    1.14
   9  -2  -3   18.78    1.18
  -9  -2   3   19.29    1.36
  -9   2   2   19.43    1.26
  -9   2   2   19.84    1.02
   9   2  -2   18.71    1.23
   9   2  -2   18.91    1.11
  -9  -2   2   20.68    1.38
   9  -2  -2   19.06    1.15
   9  -2  -2   19.83    1.19
  -9   2   1   23.79    1.15
  -9   2   1   23.21    1.36
   9   2  -1   22.41    1.17
   9   2  -1   21.41    1.29
   9  -2  -1   21.66    1.26
   9  -2  -1   22.60    1.13
  -9  -2   1   22.33    1.41
  -9   2   0   28.55    1.31
   9   2   0   28.13    1.48
  -9   2   0   27.65    1.51
   9   2   0   27.58    1.27
  -9  -2   0   31.84    1.71
   9  -2   0   29.65    1.20
   9  -2   0   28.80    1.46
  -9   2  -1   37.70    1.61
  -9   2  -1   40.05    1.77
   9   2   1   40.60    2.05
   9   2   1   39.52    1.78
  -9  -2  -1   41.43    1.96
   9  -2   1   37.06    1.74
  -9  -2  -1   37.43    1.49
  -9   2  -2   25.53    1.39
   9   2   2   27.42    1.48
  -9   2  -2   25.08    1.48
   9  -2   2   27.63    1.50
  -9  -2  -2   26.60    1.28
  -9  -2  -2   25.37    1.63
   9   2   3   10.22    1.05
  -9   2  -3    8.94    1.08
  -9   2  -3   10.90    1.05
  -9  -2  -3    8.86    1.21
  -9  -2  -3   11.11    0.98
   9  -2   3    8.71    1.04
  -9   2  -4   49.18    2.17
  -9   2  -4   51.09    2.19
   9   2   4   47.48    2.30
   9   2   4   50.38    2.13
  -9  -2  -4   44.32    2.01
   9  -2   4   47.53    2.20
   9   3  -6    3.65    0.87
  -9   3   6    4.05    0.93
  -9  -3   6    5.12    0.88
   9  -3  -6    4.12    0.92
  -9  -3   6    5.81    0.97
  -9   3   5   52.95    3.12
  -9  -3   5   53.32    2.40
   9  -3  -5   57.00    2.40
  -9  -3   5   57.91    2.38
  -9   3   4   48.75    2.11
   9   3  -4   47.79    2.09
  -9  -3   4   48.44    2.17
   9  -3  -4   48.80    2.14
   9  -3  -4   48.72    1.94
  -9  -3   4   48.56    2.20
  -9   3   3   62.87    2.43
   9   3  -3   64.75    2.42
   9   3  -3   64.00    2.46
  -9   3   3   61.34    2.15
  -9  -3   3   59.16    2.48
   9  -3  -3   63.09    2.28
   9  -3  -3   63.73    2.35
  -9   3   2   46.70    1.97
   9   3  -2   46.56    1.91
  -9   3   2   45.56    1.78
   9   3  -2   45.95    2.00
  -9  -3   2   47.70    2.14
   9  -3  -2   45.19    1.90
   9  -3  -2   45.52    1.87
  -9   3   1   57.22    2.31
   9   3  -1   61.38    2.37
  -9   3   1   63.78    2.23
   9   3  -1   61.08    2.25
  -9  -3   1   61.45    2.50
   9  -3  -1   61.56    2.12
   9  -3  -1   61.00    2.31
  -9   3   0   69.72    2.43
   9   3   0   73.19    2.41
  -9   3   0   69.45    2.54
   9   3   0   69.29    2.60
   9  -3   0   69.44    2.55
  -9  -3   0   69.47    2.76
   9  -3   0   69.76    2.44
  -9   3  -1   51.85    2.06
   9   3   1   52.02    2.15
   9   3   1   50.82    1.92
  -9   3  -1   53.66    2.15
   9  -3   1   51.71    2.15
  -9  -3  -1   50.14    1.82
  -9  -3  -1   51.32    2.32
  -9   3  -2   42.05    1.92
   9   3   2   43.55    1.91
  -9   3  -2   43.67    1.98
   9  -3   2   42.48    1.94
  -9  -3  -2   42.68    2.18
  -9  -3  -2   43.09    1.77
  -9   3  -3   67.19    2.51
   9   3   3   61.76    2.44
  -9   3  -3   62.53    2.50
   9  -3   3   62.96    2.54
  -9  -3  -3   66.03    2.35
  -9  -3  -3   61.91    2.70
  -9   4   4    9.04    1.24
  -9   4   4    8.75    1.43
   9   4  -4    7.56    1.14
   9  -4  -4    8.90    1.70
  -9  -4   4    9.11    1.25
  -9  -4   4    8.51    1.23
   9   4  -3   74.80    2.83
  -9   4   3   74.23    2.76
  -9   4   3   73.90    2.66
  -9  -4   3   70.18    2.77
   9  -4  -3   76.12    2.70
  -9  -4   3   71.80    2.87
   9  -4  -3   75.30    2.61
  -9   4   2   14.98    1.33
   9   4  -2   15.11    1.33
   9   4  -2   16.08    1.26
  -9   4   2   17.00    1.27
  -9  -4   2   13.92    1.35
   9  -4  -2   16.00    1.20
   9  -4  -2   15.64    1.22
  -9   4   1   76.22    2.74
   9   4  -1   78.33    2.80
  -9   4   1   76.65    2.73
  -9  -4   1   79.28    2.94
   9  -4  -1   76.17    2.63
   9  -4  -1   77.38    2.77
  -9   4   0   23.36    1.54
   9   4   0   25.60    1.52
   9   4   0   24.97    1.44
  -9   4   0   23.94    1.45
  -9  -4   0   24.83    1.67
   9  -4   0   23.76    1.52
   9  -4   0   24.59    1.59
  -9   4  -1   46.78    2.06
  -9   4  -1   47.17    2.12
   9   4   1   47.75    2.13
   9   4   1   50.05    2.04
  -9  -4  -1   48.65    2.30
  -9   4  -2    7.12    1.01
  -9   4  -2    6.50    0.99
   9   4   2   10.02    1.45
  -9  -4  -2    8.41    1.14
   9  -4   2    5.90    0.94
  -9  -4  -2    7.22    1.12
 -10   0   6   83.72    3.23
  10   0  -6   82.45    2.92
  10   0  -6   81.15    3.09
 -10   0   5    0.36    0.69
  10   0  -5   -0.09    0.54
  10   0  -5   -0.33    0.49
 -10   0   4   84.92    3.13
  10   0  -4   85.68    2.99
  10   0  -4   88.08    2.91
  10   0  -3   -0.12    0.44
  10   0  -3    0.22    0.47
 -10   0   3   -0.88    0.54
 -10   0   2  234.23    6.57
  10   0  -2  230.62    6.05
  10   0  -2  229.45    6.36
 -10   0   1   -0.32    0.52
  10   0  -1    0.53    0.45
  10   0  -1    0.69    0.38
  10   0   0  229.18    6.37
 -10   0   0  237.59    6.59
 -10   0  -1    0.27    0.41
 -10   0  -1   -0.77    0.59
  10   0   1    0.00    0.44
  10   0   2  248.85    6.84
 -10   0  -2  243.23    6.48
 -10   0  -2  255.57    7.06
 -10   0  -3    1.27    0.58
 -10   0  -3    0.78    0.84
 -10   0  -4  241.49    6.66
 -10   0  -4  252.31    7.12
  10   0   4  240.44    6.84
  10   1  -6   92.91    3.19
 -10   1   6   94.08    3.42
  10   1  -6   88.78    3.25
 -10  -1   6   93.79    3.46
  10  -1  -6   92.90    3.28
 -10  -1   6   94.16    3.33
  10  -1  -6   86.27    3.02
  10   1  -5  183.04    5.20
  10   1  -5  179.35    5.20
  10  -1  -5  178.41    5.16
  10  -1  -5  166.92    5.04
 -10  -1   5  180.07    5.39
  10   1  -4  111.75    3.50
  10   1  -4  110.13    3.58
 -10   1   4  110.24    3.74
  10  -1  -4  113.94    3.49
  10  -1  -4  109.62    3.51
 -10  -1   4  106.50    3.73
 -10   1   3  129.93    4.19
  10   1  -3  134.73    3.88
  10   1  -3  122.49    4.05
 -10  -1   3  131.60    4.22
  10  -1  -3  127.43    3.82
  10  -1  -3  134.63    4.02
  10   1  -2   93.28    2.93
  10   1  -2   91.58    3.16
 -10   1   2   96.67    3.32
 -10  -1   2   93.81    3.32
  10  -1  -2   94.11    2.88
  10  -1  -2   93.21    3.13
  10   1  -1   67.48    2.25
 -10   1   1   68.34    2.65
  10   1  -1   68.48    2.57
  10  -1  -1   68.83    2.48
  10  -1  -1   68.48    2.18
 -10  -1   1   68.02    2.70
 -10   1   0   59.27    1.99
 -10   1   0   57.76    2.39
  10   1   0   59.46    2.32
  10  -1   0   54.57    2.25
 -10  -1   0   59.80    2.46
  10   1   1   70.82    2.69
 -10   1  -1   71.79    2.43
 -10   1  -1   72.61    2.78
  10  -1   1   72.92    2.70
 -10  -1  -1   76.50    2.95
 -10   1  -2   36.68    1.95
  10   1   2   39.90    1.83
 -10   1  -2   34.99    1.63
 -10  -1  -2   37.80    1.94
  10  -1   2   36.42    1.84
 -10  -1  -2   37.63    1.60
  10   1   3   18.98    1.80
 -10   1  -3   19.36    2.31
 -10   1  -3   20.61    1.34
  10  -1   3   20.10    1.46
 -10  -1  -3   19.90    1.35
 -10  -1  -3   20.69    1.64
  10   2  -5   31.25    1.76
 -10   2   5   36.07    1.95
 -10  -2   5   33.46    1.94
  10  -2  -5   32.82    1.84
  10  -2  -5   31.53    1.64
  10   2  -4    5.30    0.82
 -10   2   4    5.44    0.96
  10   2  -4    4.90    0.80
 -10  -2   4    4.99    0.92
  10  -2  -4    5.37    0.79
  10  -2  -4    5.59    0.79
  10   2  -3   62.20    2.31
 -10   2   3   60.28    2.48
  10   2  -3   60.52    2.42
  10  -2  -3   61.29    2.36
  10  -2  -3   59.45    2.27
 -10  -2   3   61.39    2.59
  10   2  -2    0.87    0.49
 -10   2   2    0.39    0.59
  10   2  -2    0.70    0.54
  10  -2  -2    1.17    0.51
 -10  -2   2    1.50    0.71
  10  -2  -2   -0.23    0.45
 -10   2   1  120.18    3.94
  10   2  -1  126.66    3.64
 -10   2   1  123.81    3.56
  10   2  -1  123.54    3.93
  10  -2  -1  121.44    3.83
  10  -2  -1  119.88    3.51
 -10  -2   1  127.38    4.07
 -10   2   0    0.58    0.62
 -10   2   0    0.26    0.52
  10   2   0    0.08    0.47
  10  -2   0    0.75    0.48
 -10  -2   0    0.82    0.72
  10   2   1  205.49    5.90
 -10   2  -1  209.47    5.94
 -10   2  -1  202.73    5.61
 -10  -2  -1  215.60    6.17
  10  -2   1  201.89    5.86
 -10   2  -2    2.46    0.64
 -10   2  -2    3.42    0.86
  10   2   2    2.19    0.82
 -10  -2  -2    2.47    0.88
  10  -2   2    1.69    0.58
 -10  -2  -2    2.77    0.59
 -10   2  -3  184.10    5.36
  10   2   3  193.95    5.50
 -10   2  -3  176.85    5.78
  10  -2   3  192.70    5.60
 -10  -2  -3  181.44    5.19
 -10  -2  -3  192.26    5.79
 -10   3   4   93.47    3.37
  10   3  -4   95.70    3.37
  10  -3  -4   96.22    3.32
 -10  -3   4   94.86    3.44
  10  -3  -4   94.00    3.14
 -10  -3   4   88.94    3.35
 -10   3   3   38.92    1.99
  10   3  -3   38.79    1.95
  10   3  -3   40.67    1.94
  10  -3  -3   38.55    1.88
 -10  -3   3   39.52    2.07
  10  -3  -3   38.46    1.78
 -10   3   2   56.19    2.37
  10   3  -2   59.96    2.30
  10   3  -2   57.63    2.40
  10  -3  -2   58.94    2.23
 -10  -3   2   59.10    2.57
  10  -3  -2   55.66    2.25
  10   3  -1   41.47    2.64
 -10   3   1   47.65    2.14
 -10   3   1   50.44    1.99
  10   3  -1   47.63    1.97
  10  -3  -1   46.76    1.91
  10  -3  -1   46.08    2.04
 -10  -3   1   47.36    2.30
 -10   3   0   17.65    1.25
  10   3   0   12.59    1.69
  10   3   0   16.18    1.33
 -10   3   0   12.66    1.30
  10  -3   0   17.31    1.34
 -10  -3   0   17.05    1.51
 -10   3  -1   31.20    1.60
  10   3   1   33.30    1.83
 -10   3  -1   29.54    1.71
  10  -3   1   33.04    1.82
 -10  -3  -1   31.08    1.98
 -10   3  -2    2.35    0.77
  10   3   2    2.27    0.68
 -10   3  -2    4.47    0.81
  10  -3   2    2.61    0.73
 -10  -3  -2    4.43    0.99
  11   0  -5    0.42    1.08
 -11   0   5    0.62    0.86
  11   0  -4    1.70    0.65
 -11   0   4    0.39    0.75
  11   0  -4    0.99    0.65
  11   0  -3    0.19    0.51
  11   0  -3   -0.07    0.57
 -11   0   3   -1.38    0.75
  11   0  -2    8.56    1.06
  11   0  -2    7.18    0.90
  11   0  -1   -0.31    0.53
  11   0   0    2.30    1.10
 -11   0   0    2.08    1.20
 -11   0  -1   -0.09    0.78
  11   0   1    0.75    0.50
  11   0   2    3.77    0.78
 -11   0  -2    3.82    1.02
 -11   1   4   17.68    1.56
  11   1  -4   19.26    1.41
  11   1  -4   16.33    1.35
 -11  -1   4   17.16    1.56
  11  -1  -4   15.03    1.36
  11  -1  -4   16.42    1.27
  11   1  -3    8.11    1.36
 -11   1   3   14.00    1.43
  11   1  -3   13.90    1.16
  11  -1  -3   11.03    1.08
 -11  -1   3   12.52    1.39
  11  -1  -3   13.00    1.28
  11   1  -2   24.13    1.36
 -11  -1   2   21.17    2.60
  11  -1  -2   25.78    1.50
  11  -1  -2   23.23    1.33
  11   1  -1    4.96    0.88
  11  -1  -1    4.30    0.72
 -11  -1   1    5.44    1.73
  11   1   0   12.09    1.24
 -11  -1   0   12.71    1.32
  11  -1   0   12.29    1.29
 -11   1  -1    3.22    0.86
  11   1   1    2.15    0.65
  11  -1   1    1.59    0.60
 -11  -1  -1    1.34    0.73
 -11   1  -2    8.41    1.11
  11   1   2    7.02    0.98
 -11   1  -2    7.83    1.04
 -11  -1  -2    6.05    1.15
  11  -1   2    5.74    0.89
  11   2  -4   60.19    3.26
 -11   2   4   57.88    2.62
 -11  -2   4   54.47    2.61
  11  -2  -4   57.58    2.39
 -11   2   3    5.71    1.06
  11   2  -3    5.71    0.82
  11   2  -3    4.67    0.86
  11  -2  -3    5.54    0.84
 -11  -2   3    7.07    1.10
  11  -2  -3    5.77    0.79
  11   2  -2   68.41    2.75
  11   2  -2   67.21    2.47
 -11   2   2   65.97    2.77
  11  -2  -2   63.98    2.37
  11  -2  -2   69.72    2.58
 -11  -2   2   69.52    2.87
 -11   2   1    3.92    0.99
  11   2  -1    3.71    0.76
  11  -2  -1    1.63    1.07
 -11  -2   1    2.89    0.83
 -11   2   0   48.62    2.48
  11   2   0   53.08    2.34
  11  -2   0   50.67    2.25
 -11  -2   0   48.93    2.46
 -11   2  -1    1.88    0.77
 -11   2  -1    1.55    0.64
  11   2   1    1.64    0.64
 -11  -2  -1    0.51    0.85
   0   0   0    0.00    0.00
;
_shelx_hkl_checksum              26439
loop_
_space_group_symop_operation_xyz
'x, y, z'
'-x, y, -z+1/2'
'-x, -y, -z'
'x, -y, z-1/2'
loop_
_atom_site_label
_atom_site_type_symbol
_atom_site_fract_x
_atom_site_fract_y
_atom_site_fract_z
_atom_site_U_iso_or_equiv
_atom_site_adp_type
_atom_site_occupancy
_atom_site_site_symmetry_order
_atom_site_calc_flag
_atom_site_refinement_flags_posn
_atom_site_refinement_flags_adp
_atom_site_refinement_flags_occupancy
Eu1 Eu 0.0000 0.91008(3) 0.2500 0.00379(7) Uani 1 2 d S T P
Cs1 Cs 0.5000 1.82541(4) 0.2500 0.00759(7) Uani 1 2 d S T P
Cr1 Cr 0.21646(5) 1.33354(8) 0.18045(5) 0.00406(10) Uani 1 1 d . . .
O4 O 0.1818(2) 1.6184(3) 0.2320(2) 0.0074(4) Uani 1 1 d . . .
O2 O 0.0697(2) 1.2093(3) 0.0490(2) 0.0063(4) Uani 1 1 d . . .
O3 O 0.3661(2) 1.3224(3) 0.0934(2) 0.0079(4) Uani 1 1 d . . .
O1 O 0.2319(2) 1.1520(3) 0.3526(2) 0.0073(4) Uani 1 1 d . . .
loop_
_atom_site_aniso_label
_atom_site_aniso_U_11
_atom_site_aniso_U_22
_atom_site_aniso_U_33
_atom_site_aniso_U_23
_atom_site_aniso_U_13
_atom_site_aniso_U_12
Eu1 0.00397(10) 0.00376(10) 0.00355(10) 0.000 0.00031(6) 0.000
Cs1 0.00560(12) 0.00576(12) 0.01175(12) 0.000 0.00242(8) 0.000
Cr1 0.0038(2) 0.00380(19) 0.00451(19) -0.00036(15) 0.00052(15) -0.00014(14)
O4 0.0077(9) 0.0065(9) 0.0079(9) -0.0012(7) 0.0009(7) 0.0006(7)
O2 0.0062(9) 0.0060(8) 0.0064(9) -0.0008(7) -0.0003(7) -0.0016(7)
O3 0.0052(9) 0.0097(9) 0.0092(9) -0.0007(7) 0.0027(7) -0.0005(7)
O1 0.0069(9) 0.0078(9) 0.0068(9) 0.0018(7) -0.0001(7) -0.0006(7)
loop_
_atom_type_symbol
_atom_type_description
_atom_type_scat_dispersion_real
_atom_type_scat_dispersion_imag
_atom_type_scat_source
O O 0.0106 0.0060 'International Tables Vol C Tables 4.2.6.8 and 6.1.1.4'
Cr Cr 0.3209 0.6236 'International Tables Vol C Tables 4.2.6.8 and 6.1.1.4'
Cs Cs -0.3680 2.1192 'International Tables Vol C Tables 4.2.6.8 and 6.1.1.4'
Eu Eu -0.1578 3.6682 'International Tables Vol C Tables 4.2.6.8 and 6.1.1.4'
loop_
_geom_angle_atom_site_label_1
_geom_angle_atom_site_label_2
_geom_angle_atom_site_label_3
_geom_angle
_geom_angle_site_symmetry_1
_geom_angle_site_symmetry_3
O4 Eu1 O4 93.09(9) 2_545 1_545
O4 Eu1 O2 77.20(6) 2_545 3_575
O4 Eu1 O2 80.90(6) 1_545 3_575
O4 Eu1 O2 80.90(6) 2_545 4_576
O4 Eu1 O2 77.20(6) 1_545 4_576
O2 Eu1 O2 147.95(9) 3_575 4_576
O4 Eu1 O2 140.37(6) 2_545 .
O4 Eu1 O2 99.79(6) 1_545 .
O2 Eu1 O2 68.22(7) 3_575 .
O2 Eu1 O2 138.45(7) 4_576 .
O4 Eu1 O2 99.79(6) 2_545 2
O4 Eu1 O2 140.37(6) 1_545 2
O2 Eu1 O2 138.45(7) 3_575 2
O2 Eu1 O2 68.22(7) 4_576 2
O2 Eu1 O2 93.77(9) . 2
O4 Eu1 O1 78.84(6) 2_545 2
O4 Eu1 O1 156.56(6) 1_545 2
O2 Eu1 O1 75.88(6) 3_575 2
O2 Eu1 O1 122.32(6) 4_576 2
O2 Eu1 O1 74.55(6) . 2
O2 Eu1 O1 63.07(6) 2 2
O4 Eu1 O1 156.56(6) 2_545 .
O4 Eu1 O1 78.84(6) 1_545 .
O2 Eu1 O1 122.32(6) 3_575 .
O2 Eu1 O1 75.88(6) 4_576 .
O2 Eu1 O1 63.07(6) . .
O2 Eu1 O1 74.55(6) 2 .
O1 Eu1 O1 116.49(9) 2 .
O4 Eu1 Cr1 172.08(5) 2_545 .
O4 Eu1 Cr1 91.39(5) 1_545 .
O2 Eu1 Cr1 97.09(4) 3_575 .
O2 Eu1 Cr1 106.49(5) 4_576 .
O2 Eu1 Cr1 32.04(4) . .
O2 Eu1 Cr1 80.76(5) 2 .
O1 Eu1 Cr1 94.52(4) 2 .
O1 Eu1 Cr1 31.20(4) . .
O4 Eu1 Cr1 91.39(5) 2_545 2
O4 Eu1 Cr1 172.08(5) 1_545 2
O2 Eu1 Cr1 106.49(4) 3_575 2
O2 Eu1 Cr1 97.09(4) 4_576 2
O2 Eu1 Cr1 80.76(4) . 2
O2 Eu1 Cr1 32.04(4) 2 2
O1 Eu1 Cr1 31.20(4) 2 2
O1 Eu1 Cr1 94.52(4) . 2
Cr1 Eu1 Cr1 84.934(16) . 2
O4 Eu1 Eu1 90.48(5) 2_545 3_576
O4 Eu1 Eu1 109.57(5) 1_545 3_576
O2 Eu1 Eu1 164.45(4) 3_575 3_576
O2 Eu1 Eu1 34.35(4) 4_576 3_576
O2 Eu1 Eu1 119.28(4) . 3_576
O2 Eu1 Eu1 33.87(4) 2 3_576
O1 Eu1 Eu1 92.61(4) 2 3_576
O1 Eu1 Eu1 72.04(4) . 3_576
Cr1 Eu1 Eu1 94.172(9) . 3_576
Cr1 Eu1 Eu1 63.830(8) 2 3_576
O4 Eu1 Eu1 109.57(5) 2_545 3_575
O4 Eu1 Eu1 90.48(5) 1_545 3_575
O2 Eu1 Eu1 34.35(4) 3_575 3_575
O2 Eu1 Eu1 164.45(4) 4_576 3_575
O2 Eu1 Eu1 33.87(4) . 3_575
O2 Eu1 Eu1 119.28(4) 2 3_575
O1 Eu1 Eu1 72.04(4) 2 3_575
O1 Eu1 Eu1 92.61(4) . 3_575
Cr1 Eu1 Eu1 63.830(8) . 3_575
Cr1 Eu1 Eu1 94.173(9) 2 3_575
Eu1 Eu1 Eu1 151.090(10) 3_576 3_575
O4 Cs1 O4 137.11(7) 2_655 .
O4 Cs1 O3 89.59(5) 2_655 2_665
O4 Cs1 O3 129.80(5) . 2_665
O4 Cs1 O3 129.80(5) 2_655 1_565
O4 Cs1 O3 89.59(5) . 1_565
O3 Cs1 O3 60.08(7) 2_665 1_565
O4 Cs1 O3 57.68(5) 2_655 3_685
O4 Cs1 O3 110.35(5) . 3_685
O3 Cs1 O3 111.10(5) 2_665 3_685
O3 Cs1 O3 94.75(5) 1_565 3_685
O4 Cs1 O3 110.35(5) 2_655 4_586
O4 Cs1 O3 57.68(5) . 4_586
O3 Cs1 O3 94.75(5) 2_665 4_586
O3 Cs1 O3 111.10(5) 1_565 4_586
O3 Cs1 O3 150.37(7) 3_685 4_586
O4 Cs1 O3 50.34(5) 2_655 2_655
O4 Cs1 O3 90.19(5) . 2_655
O3 Cs1 O3 120.22(6) 2_665 2_655
O3 Cs1 O3 179.70(3) 1_565 2_655
O3 Cs1 O3 85.14(4) 3_685 2_655
O3 Cs1 O3 68.94(6) 4_586 2_655
O4 Cs1 O3 90.19(5) 2_655 .
O4 Cs1 O3 50.34(5) . .
O3 Cs1 O3 179.70(3) 2_665 .
O3 Cs1 O3 120.22(6) 1_565 .
O3 Cs1 O3 68.94(5) 3_685 .
O3 Cs1 O3 85.14(4) 4_586 .
O3 Cs1 O3 59.48(7) 2_655 .
O4 Cs1 O1 58.20(5) 2_655 2_665
O4 Cs1 O1 158.87(5) . 2_665
O3 Cs1 O1 49.22(5) 2_665 2_665
O3 Cs1 O1 72.08(5) 1_565 2_665
O3 Cs1 O1 62.37(5) 3_685 2_665
O3 Cs1 O1 138.38(5) 4_586 2_665
O3 Cs1 O1 108.10(5) 2_655 2_665
O3 Cs1 O1 130.77(5) . 2_665
O4 Cs1 O1 158.87(5) 2_655 1_565
O4 Cs1 O1 58.20(5) . 1_565
O3 Cs1 O1 72.08(5) 2_665 1_565
O3 Cs1 O1 49.22(5) 1_565 1_565
O3 Cs1 O1 138.38(5) 3_685 1_565
O3 Cs1 O1 62.37(5) 4_586 1_565
O3 Cs1 O1 130.77(5) 2_655 1_565
O3 Cs1 O1 108.10(5) . 1_565
O1 Cs1 O1 112.59(7) 2_665 1_565
O4 Cs1 O1 57.59(4) 2_655 3_686
O4 Cs1 O1 124.14(5) . 3_686
O3 Cs1 O1 58.31(5) 2_665 3_686
O3 Cs1 O1 117.77(5) 1_565 3_686
O3 Cs1 O1 114.17(5) 3_685 3_686
O3 Cs1 O1 66.93(5) 4_586 3_686
O3 Cs1 O1 62.53(5) 2_655 3_686
O3 Cs1 O1 121.40(5) . 3_686
O1 Cs1 O1 75.10(4) 2_665 3_686
O1 Cs1 O1 102.65(4) 1_565 3_686
O4 Cs1 O1 124.14(5) 2_655 4_585
O4 Cs1 O1 57.59(4) . 4_585
O3 Cs1 O1 117.77(5) 2_665 4_585
O3 Cs1 O1 58.31(5) 1_565 4_585
O3 Cs1 O1 66.93(5) 3_685 4_585
O3 Cs1 O1 114.17(5) 4_586 4_585
O3 Cs1 O1 121.40(5) 2_655 4_585
O3 Cs1 O1 62.53(5) . 4_585
O1 Cs1 O1 102.65(4) 2_665 4_585
O1 Cs1 O1 75.10(4) 1_565 4_585
O1 Cs1 O1 176.06(6) 3_686 4_585
O3 Cr1 O1 109.59(10) . .
O3 Cr1 O4 109.88(10) . .
O1 Cr1 O4 112.20(10) . .
O3 Cr1 O2 112.61(9) . .
O1 Cr1 O2 101.29(9) . .
O4 Cr1 O2 111.05(9) . .
O3 Cr1 Eu1 129.55(7) . .
O1 Cr1 Eu1 52.79(7) . .
O4 Cr1 Eu1 120.56(7) . .
O2 Cr1 Eu1 48.85(6) . .
O3 Cr1 Cs1 58.02(7) . .
O1 Cr1 Cs1 110.66(7) . .
O4 Cr1 Cs1 55.64(7) . .
O2 Cr1 Cs1 148.01(6) . .
Eu1 Cr1 Cs1 162.208(14) . .
O3 Cr1 Cs1 54.86(7) . 1_545
O1 Cr1 Cs1 57.84(7) . 1_545
O4 Cr1 Cs1 144.44(7) . 1_545
O2 Cr1 Cs1 104.48(6) . 1_545
Eu1 Cr1 Cs1 82.383(11) . 1_545
Cs1 Cr1 Cs1 93.839(11) . 1_545
Cr1 O4 Eu1 145.94(11) . 1_565
Cr1 O4 Cs1 98.27(8) . .
Eu1 O4 Cs1 114.75(7) 1_565 .
Cr1 O2 Eu1 139.15(10) . 3_575
Cr1 O2 Eu1 99.11(8) . .
Eu1 O2 Eu1 111.78(7) 3_575 .
Cr1 O3 Cs1 100.40(8) . 1_545
Cr1 O3 Cs1 144.33(10) . 3_685
Cs1 O3 Cs1 85.25(5) 1_545 3_685
Cr1 O3 Cs1 96.50(8) . .
Cs1 O3 Cs1 120.22(6) 1_545 .
Cs1 O3 Cs1 111.06(5) 3_685 .
Cr1 O1 Eu1 96.01(8) . .
Cr1 O1 Cs1 96.68(8) . 1_545
Eu1 O1 Cs1 105.38(6) . 1_545
Cr1 O1 Cs1 128.36(9) . 3_686
Eu1 O1 Cs1 135.34(7) . 3_686
Cs1 O1 Cs1 77.35(4) 1_545 3_686
loop_
_geom_bond_atom_site_label_1
_geom_bond_atom_site_label_2
_geom_bond_distance
_geom_bond_site_symmetry_2
Eu1 O4 2.3299(19) 2_545
Eu1 O4 2.3299(19) 1_545
Eu1 O2 2.3759(18) 3_575
Eu1 O2 2.3759(18) 4_576
Eu1 O2 2.4056(18) .
Eu1 O2 2.4056(18) 2
Eu1 O1 2.5260(19) 2
Eu1 O1 2.5260(19) .
Eu1 Cr1 3.1543(5) .
Eu1 Cr1 3.1543(5) 2
Eu1 Eu1 3.9588(3) 3_576
Eu1 Eu1 3.9588(3) 3_575
Cs1 O4 3.1104(19) 2_655
Cs1 O4 3.1104(19) .
Cs1 O3 3.1545(19) 2_665
Cs1 O3 3.1545(19) 1_565
Cs1 O3 3.1755(18) 3_685
Cs1 O3 3.1755(18) 4_586
Cs1 O3 3.1834(19) 2_655
Cs1 O3 3.1834(19) .
Cs1 O1 3.2339(19) 2_665
Cs1 O1 3.2339(19) 1_565
Cs1 O1 3.6100(19) 3_686
Cs1 O1 3.6100(19) 4_585
Cr1 O3 1.6142(18) .
Cr1 O1 1.6432(19) .
Cr1 O4 1.6571(18) .
Cr1 O2 1.6946(18) .
Cr1 Cs1 3.7940(5) 1_545
O4 Eu1 2.3299(19) 1_565
O2 Eu1 2.3759(18) 3_575
O3 Cs1 3.1544(19) 1_545
O3 Cs1 3.1755(18) 3_685
O1 Cs1 3.2339(19) 1_545
O1 Cs1 3.6100(19) 3_686
