#------------------------------------------------------------------------------
#$Date: 2019-11-02 05:56:46 +0200 (Sat, 02 Nov 2019) $
#$Revision: 220763 $
#$URL: file:///home/coder/svn-repositories/cod/cif/4/12/75/4127501.cif $
#------------------------------------------------------------------------------
#
# This file is available in the Crystallography Open Database (COD),
# http://www.crystallography.net/
#
# All data on this site have been placed in the public domain by the
# contributors.
#
data_4127501
loop_
_publ_author_name
'Fan, Jie'
'Liao, Ge'
'Kindinger, Florian'
'Ludwig-Radtke, Lena'
'Yin, Wen-Bing'
'Li, Shu-Ming'
_publ_section_title
;
 Peniphenone and Penilactone Formation in Penicillium crustosum via
 1,4-Michael Additions of ortho-Quinone Methide from Hydroxyclavatol to
 \g-Butyrolactones from Crustosic Acid.
;
_journal_issue                   10
_journal_name_full               'Journal of the American Chemical Society'
_journal_page_first              4225
_journal_page_last               4229
_journal_paper_doi               10.1021/jacs.9b00110
_journal_volume                  141
_journal_year                    2019
_chemical_formula_sum            'C10 H12 O4'
_chemical_formula_weight         196.20
_space_group_crystal_system      triclinic
_space_group_IT_number           2
_space_group_name_Hall           '-P 1'
_space_group_name_H-M_alt        'P -1'
_symmetry_space_group_name_Hall  '-P 1'
_symmetry_space_group_name_H-M   'P -1'
_atom_sites_solution_hydrogens   geom
_audit_creation_method           SHELXL-2018/1
_cell_angle_alpha                77.750(5)
_cell_angle_beta                 69.610(4)
_cell_angle_gamma                66.847(5)
_cell_formula_units_Z            2
_cell_length_a                   7.7553(9)
_cell_length_b                   8.2119(10)
_cell_length_c                   8.3575(10)
_cell_measurement_temperature    113(2)
_cell_volume                     456.97(10)
_computing_structure_refinement  'SHELXL-2018/1 (Sheldrick, 2018)'
_diffrn_ambient_temperature      113(2)
_diffrn_measured_fraction_theta_full 0.926
_diffrn_measured_fraction_theta_max 0.926
_diffrn_radiation_type           CuK\a
_diffrn_radiation_wavelength     1.54178
_diffrn_reflns_av_R_equivalents  0.0585
_diffrn_reflns_av_unetI/netI     0.0557
_diffrn_reflns_Laue_measured_fraction_full 0.926
_diffrn_reflns_Laue_measured_fraction_max 0.926
_diffrn_reflns_limit_h_max       9
_diffrn_reflns_limit_h_min       -8
_diffrn_reflns_limit_k_max       9
_diffrn_reflns_limit_k_min       -9
_diffrn_reflns_limit_l_max       9
_diffrn_reflns_limit_l_min       -9
_diffrn_reflns_number            3969
_diffrn_reflns_point_group_measured_fraction_full 0.926
_diffrn_reflns_point_group_measured_fraction_max 0.926
_diffrn_reflns_theta_full        64.115
_diffrn_reflns_theta_max         64.115
_diffrn_reflns_theta_min         5.669
_exptl_absorpt_coefficient_mu    0.929
_exptl_crystal_density_diffrn    1.426
_exptl_crystal_F_000             208
_exptl_crystal_size_max          0.900
_exptl_crystal_size_mid          0.500
_exptl_crystal_size_min          0.200
_refine_diff_density_max         0.391
_refine_diff_density_min         -0.328
_refine_diff_density_rms         0.085
_refine_ls_extinction_coef       0.044(8)
_refine_ls_extinction_expression Fc^*^=kFc[1+0.001xFc^2^\l^3^/sin(2\q)]^-1/4^
_refine_ls_extinction_method     'SHELXL-2018/1 (Sheldrick 2018)'
_refine_ls_goodness_of_fit_ref   1.589
_refine_ls_hydrogen_treatment    mixed
_refine_ls_matrix_type           full
_refine_ls_number_parameters     134
_refine_ls_number_reflns         1409
_refine_ls_number_restraints     8
_refine_ls_restrained_S_all      1.589
_refine_ls_R_factor_all          0.0542
_refine_ls_R_factor_gt           0.0535
_refine_ls_shift/su_max          0.000
_refine_ls_shift/su_mean         0.000
_refine_ls_structure_factor_coef Fsqd
_refine_ls_weighting_details
'w=1/[\s^2^(Fo^2^)+(0.1000P)^2^] where P=(Fo^2^+2Fc^2^)/3'
_refine_ls_weighting_scheme      calc
_refine_ls_wR_factor_gt          0.1801
_refine_ls_wR_factor_ref         0.1834
_reflns_Friedel_coverage         0.000
_reflns_number_gt                1368
_reflns_number_total             1409
_reflns_threshold_expression     'I > 2\s(I)'
_cod_data_source_file            ja9b00110_si_002.cif
_cod_data_source_block           li28
_cod_database_code               4127501
_shelx_shelxl_version_number     2018/1
_shelx_space_group_comment
;
The symmetry employed for this shelxl refinement is uniquely defined
by the following loop, which should always be used as a source of
symmetry information in preference to the above space-group names.
They are only intended as comments.
;
_shelx_estimated_absorpt_t_min   0.489
_shelx_estimated_absorpt_t_max   0.836
_shelx_res_file
;
TITL li2_0m in P-1
    li28.res
    created by SHELXL-2018/1 at 14:01:57 on 04-Dec-2018
CELL 1.54178 7.7553 8.2119 8.3575 77.750 69.610 66.847
ZERR 2.00 0.0009 0.0010 0.0010 0.005 0.004 0.005
LATT 1
SFAC C  H  O
UNIT 20  24  8
L.S. 20
ACTA
BOND $H
FMAP 2
PLAN -2
HTAB C8' O8'_$1
EQIV $1 -x+1, -y+1, -z-1
SIZE 0.200 0.500 0.900
HTAB
CONF
TEMP -160.000
FLAT C5' C4' C3' C2' C1' C6' C7' O4' C8' O2' C2
WGHT    0.100000
EXTI    0.044441
FVAR       0.47870
C6'   1    0.169262    0.445262    0.176426    11.00000    0.01155    0.01891 =
         0.01592   -0.00613   -0.00267   -0.00540
AFIX  43
H6'   2    0.070318    0.462103    0.283789    11.00000    0.02476
AFIX   0
O4'   3    0.256983    0.677873   -0.240059    11.00000    0.01706    0.01584 =
         0.01685    0.00027   -0.00500   -0.00088
AFIX  83
H13   2    0.350120    0.652408   -0.330605    11.00000    0.04479
AFIX   0
O2'   3    0.639101    0.114857   -0.029542    11.00000    0.01222    0.01422 =
         0.01772   -0.00262   -0.00323    0.00120
AFIX  83
H12   2    0.640249    0.050016    0.062775    11.00000    0.06309
AFIX   0
O8'   3    0.527673    0.314499   -0.429653    11.00000    0.02782    0.01452 =
         0.01518   -0.00067   -0.00576   -0.00597
AFIX  83
H11   2    0.524508    0.210970   -0.402410    11.00000    0.02755
AFIX   0
O2    3    0.499410    0.009816    0.284222    11.00000    0.01704    0.01421 =
         0.01964   -0.00119   -0.00667   -0.00190
C7'   1   -0.023547    0.750234    0.070260    11.00000    0.01313    0.01925 =
         0.02140   -0.00529   -0.00486   -0.00076
AFIX 137
H7    2   -0.125321    0.738836    0.177083    11.00000   -1.50000
H1    2   -0.077505    0.779851   -0.026492    11.00000   -1.50000
H8    2    0.021246    0.844711    0.075304    11.00000   -1.50000
AFIX   0
C5'   1    0.147015    0.576967    0.047022    11.00000    0.01037    0.01505 =
         0.02006   -0.00608   -0.00519   -0.00114
C1'   1    0.331920    0.285086    0.158959    11.00000    0.01214    0.01313 =
         0.01668   -0.00329   -0.00566   -0.00260
C2    1    0.348925    0.144773    0.296290    11.00000    0.01761    0.01527 =
         0.01776   -0.00390   -0.00615   -0.00541
C1    1    0.178369    0.157528    0.457658    11.00000    0.02424    0.02392 =
         0.01816    0.00222    0.00054   -0.00085
AFIX 137
H2    2    0.212114    0.050502    0.535618    11.00000   -1.50000
H6    2    0.062508    0.167925    0.428175    11.00000   -1.50000
H5    2    0.149969    0.262422    0.513743    11.00000   -1.50000
AFIX   0
C4'   1    0.291623    0.545693   -0.115534    11.00000    0.01366    0.01482 =
         0.01891   -0.00220   -0.00669   -0.00477
C2'   1    0.477412    0.261866   -0.002400    11.00000    0.01220    0.01218 =
         0.01904   -0.00404   -0.00616   -0.00273
C3'   1    0.454313    0.390160   -0.140910    11.00000    0.01182    0.01608 =
         0.01620   -0.00309   -0.00513   -0.00439
C8'   1    0.603672    0.355996   -0.314523    11.00000    0.01496    0.01667 =
         0.01602   -0.00242   -0.00276   -0.00281
AFIX  23
H3    2    0.640702    0.462564   -0.363747    11.00000   -1.20000
H4    2    0.723215    0.255715   -0.301806    11.00000   -1.20000
AFIX   0
HKLF 4 1 1 0 0 0 1 0 0 0 1




REM  li2_0m in P-1
REM R1 =  0.0535 for    1368 Fo > 4sig(Fo)  and  0.0542 for all    1409 data
REM    134 parameters refined using      8 restraints

END

WGHT      0.0984      0.1684

REM Instructions for potential hydrogen bonds
HTAB O4' O8'_$1
HTAB O2' O2
EQIV $2 -x+1, -y, -z
HTAB O8' O2_$2
HTAB C8' O8'_$1

REM Highest difference peak  0.391,  deepest hole -0.328,  1-sigma level  0.085
Q1    1   0.0554  0.6411  0.0551  11.00000  0.05    0.39
Q2    1   0.6839  0.2161 -0.0204  11.00000  0.05    0.34
;
_shelx_res_checksum              91225
_shelx_hkl_file
;
   1   0   0  279.12   21.93
   2   0   0   24.53    1.79
   2   0   0   22.77    1.86
   3   0   0   24.69    1.84
   3   0   0   23.74    1.90
   4   0   0   11.90    1.07
   4   0   0   13.94    1.02
   5   0   0    8.96    0.65
   3  -1   0   48.42    3.34
  -3   1   0   39.63    3.80
  -2   1   0  136.91   11.92
  -1   1   0   28.52    2.74
  -1   1   0   34.86    2.48
   0  -1   0   94.48    7.20
   0  -1   0   94.76    8.26
   0   1   0   97.10    8.32
  -1  -1   0    9.85    0.75
   1   1   0    9.97    0.78
  -2  -1   0    0.26    0.02
  -2  -1   0    0.29    0.02
  -3  -1   0    0.17    0.02
   3   1   0    0.16    0.03
  -4  -1   0    0.87    0.07
   4   1   0    0.97    0.08
  -5  -1   0    4.64    0.35
   5   1   0    4.39    0.33
   5   1   0    4.63    0.38
   6   1   0    3.09    0.30
   6   1   0    3.39    0.31
   6   1   0    3.67    0.25
   6   1   0    3.18    0.24
   6   1   0    3.35    0.25
   7   1   0  153.61   12.12
   7   1   0  165.54   13.93
   7   1   0  168.49   11.72
   7   1   0  169.29   14.01
   3  -2   0   59.66    4.89
  -3   2   0   58.89    5.12
   1  -2   0   77.62    6.11
  -1   2   0   81.51    6.38
  -1   2   0   70.31    5.79
  -1   2   0   65.95    5.57
   0   2   0   59.94    4.64
   0   2   0   63.14    4.82
  -1  -2   0  101.94    7.22
   1   2   0   87.49    8.27
   1   2   0   94.80    7.50
   1   2   0   98.45    7.22
  -2  -2   0   41.64    3.26
   2   2   0   44.55    3.38
  -3  -2   0    4.88    0.38
  -3  -2   0    3.87    0.33
   3   2   0    3.69    0.36
   3   2   0    4.67    0.34
  -4  -2   0    8.28    0.66
  -4  -2   0    6.90    0.57
   4   2   0    7.84    0.60
   4   2   0    6.96    0.62
  -5  -2   0    7.89    0.61
  -5  -2   0    9.04    0.71
   5   2   0    7.06    0.59
   5   2   0    8.12    0.64
   5   2   0    7.84    0.67
   6   2   0    4.15    0.35
   6   2   0    4.37    0.31
   6   2   0    4.47    0.32
   6   2   0    3.98    0.37
   6   2   0    4.17    0.38
   6   2   0    4.03    0.30
   7   2   0    9.62    0.90
   7   2   0    9.82    0.77
   7   2   0   10.02    0.74
   7   2   0   11.34    0.90
   7   2   0   11.08    0.76
   8   2   0   14.71    1.01
   8   2   0   15.22    1.22
   8   2   0   12.56    1.05
   5  -3   0    1.25    0.10
   4  -3   0   12.83    0.93
  -3   3   0   57.43    4.33
   2  -3   0  124.27    9.52
  -2   3   0  105.36    8.69
  -2   3   0  107.84    9.02
  -2   3   0  123.44    9.95
   1  -3   0  311.99   21.94
  -1   3   0  244.50   20.21
  -1   3   0  240.19   20.81
   0  -3   0   59.61    4.95
   0   3   0   57.70    4.53
   0   3   0   65.52    5.18
   0   3   0   57.10    4.70
   1   3   0   69.35    5.58
   1   3   0   74.32    5.38
   1   3   0   70.09    6.16
  -2  -3   0   35.33    2.55
   2   3   0   34.47    2.65
   2   3   0   31.39    2.92
  -3  -3   0   15.42    1.23
   3   3   0   17.69    1.28
   3   3   0   15.70    1.35
  -4  -3   0  297.11   24.56
  -4  -3   0  266.26   21.18
   4   3   0  297.59   22.00
   4   3   0  261.98   23.19
  -5  -3   0   69.89    5.54
   5   3   0   77.91    6.07
   5   3   0   74.52    5.35
   5   3   0   71.47    5.76
   6   3   0    1.20    0.16
   6   3   0    1.23    0.14
   6   3   0    1.59    0.13
   6   3   0    1.47    0.11
   6   3   0    1.57    0.12
   6   3   0    1.34    0.11
   7   3   0    0.40    0.11
   7   3   0    0.59    0.05
   7   3   0    0.53    0.05
   7   3   0    0.54    0.09
   7   3   0    0.62    0.06
   7   3   0    0.47    0.07
   8   3   0   18.10    1.50
   8   3   0   20.59    1.45
   8   3   0   21.41    1.74
   8   3   0   19.96    1.48
   8   3   0   21.43    1.74
   5  -4   0   32.39    2.39
   4  -4   0  125.67    8.26
   4  -4   0  106.51    8.56
   3  -4   0   12.39    0.96
   3  -4   0   13.29    1.00
   3  -4   0   13.74    1.28
   3  -4   0   14.38    0.97
   2  -4   0   37.94    3.14
  -2   4   0   37.98    2.87
   1  -4   0    5.69    0.49
  -1   4   0    5.46    0.46
  -1   4   0    5.72    0.51
  -1   4   0    6.36    0.44
   0  -4   0    1.13    0.10
   0   4   0    1.23    0.11
   0   4   0    1.07    0.10
   0   4   0    1.04    0.09
  -1  -4   0   51.96    4.31
  -1  -4   0   49.18    4.68
   1   4   0   52.85    4.09
   1   4   0   50.49    4.51
   1   4   0   55.64    3.94
  -2  -4   0   28.58    2.70
   2   4   0   33.23    2.36
   2   4   0   28.37    2.60
  -3  -4   0    8.71    0.64
   3   4   0    8.02    0.70
  -4  -4   0   18.34    1.45
   4   4   0   19.95    1.51
   4   4   0   19.21    1.59
   5   4   0    7.90    0.68
   5   4   0    8.10    0.59
   5   4   0    7.75    0.70
   5   4   0    8.48    0.65
   6   4   0   25.99    1.88
   6   4   0   25.25    2.25
   6   4   0   25.45    2.18
   6   4   0   29.20    2.16
   6   4   0   26.09    1.92
   6   4   0   28.23    2.26
   6   4   0   24.14    1.95
   7   4   0   -0.01    0.03
   7   4   0   -0.02    0.02
   7   4   0   -0.02    0.03
   7   4   0   -0.05    0.04
   7   4   0    0.01    0.02
   8   4   0    0.29    0.04
   8   4   0    0.22    0.05
   8   4   0    0.33    0.04
   8   4   0    0.23    0.05
   4  -5   0    0.14    0.03
   3  -5   0    9.49    0.70
   3  -5   0    9.96    0.95
   3  -5   0    9.99    0.71
   3  -5   0    9.80    0.73
   2  -5   0    5.62    0.41
   2  -5   0    5.56    0.43
   2  -5   0    5.68    0.42
   2  -5   0    5.85    0.56
   1  -5   0   13.21    1.10
  -1   5   0   13.13    1.00
   0  -5   0   12.85    1.06
   0   5   0   11.32    1.00
   0   5   0   14.05    0.97
   1   5   0    1.88    0.15
   1   5   0    1.80    0.15
  -2  -5   0   39.58    3.58
   2   5   0   40.25    3.13
  -3  -5   0  109.27    9.91
   3   5   0  111.91    8.66
   4   5   0    5.66    0.49
   4   5   0    6.58    0.54
   5   5   0    9.21    0.80
   6   5   0    2.23    0.15
   6   5   0    1.80    0.17
   6   5   0    2.27    0.20
   6   5   0    1.78    0.22
   6   5   0    1.93    0.19
   7   5   0    5.51    0.40
   7   5   0    5.02    0.49
   7   5   0    5.69    0.39
   8   5   0    0.64    0.07
   8   5   0    0.80    0.06
   8   5   0    0.76    0.06
   4  -6   0    5.45    0.41
   3  -6   0    3.18    0.24
   3  -6   0    3.20    0.25
   3  -6   0    3.43    0.33
   2  -6   0    7.12    0.48
   2  -6   0    6.08    0.63
   2  -6   0    6.23    0.49
   2  -6   0    6.64    0.47
   1  -6   0   14.05    1.04
   1  -6   0   14.54    1.38
   1  -6   0   14.88    1.19
   0  -6   0    3.80    0.34
   0  -6   0    3.11    0.30
   0  -6   0    3.06    0.26
   0  -6   0    3.54    0.29
  -1  -6   0   33.35    2.98
  -2  -6   0    1.24    0.12
  -3  -6   0    0.63    0.09
  -4  -6   0    7.90    0.68
  -4  -6   0    7.33    0.69
   4   6   0    7.37    0.66
  -5  -6   0   29.91    2.96
   5   6   0   33.15    2.83
   5   6   0   36.35    2.72
  -6  -6   0    1.77    0.15
   6   6   0    1.33    0.18
   6   6   0    1.36    0.18
   6   6   0    1.48    0.15
  -7  -6   0    4.18    0.42
   7   6   0    4.76    0.40
   7   6   0    5.29    0.34
   7   6   0    4.08    0.35
   7   6   0    4.53    0.38
   8   6   0    2.83    0.21
   3  -7   0    3.06    0.23
   2  -7   0    0.52    0.10
   2  -7   0    0.80    0.06
   2  -7   0    0.65    0.06
   1  -7   0    7.78    0.61
   1  -7   0    8.69    0.60
   1  -7   0    8.58    0.67
   1  -7   0    7.69    0.79
   0  -7   0   76.31    5.22
   0  -7   0   69.80    6.52
   0  -7   0   77.64    5.97
   0  -7   0   68.41    6.87
  -1  -7   0    1.08    0.13
  -1  -7   0    0.92    0.12
  -2  -7   0    7.33    0.80
  -2  -7   0    9.48    0.76
  -3  -7   0   10.57    0.94
  -3  -7   0   10.17    0.94
  -4  -7   0    0.00    0.02
  -4  -7   0    0.09    0.05
   4   7   0   -0.02    0.04
  -5  -7   0   23.95    2.11
  -5  -7   0   23.34    2.12
   5   7   0   23.35    2.01
  -6  -7   0    4.51    0.45
   6   7   0    5.30    0.44
  -7  -7   0    0.04    0.03
   7   7   0   -0.02    0.03
   7   7   0   -0.03    0.03
   1  -8   0    2.23    0.19
   1  -8   0    2.43    0.25
   1  -8   0    2.69    0.18
   0  -8   0    1.34    0.11
   0  -8   0    1.41    0.12
   0  -8   0    1.06    0.15
  -1  -8   0   64.53    5.65
  -1  -8   0   58.65    5.95
  -1  -8   0   66.59    5.17
  -2  -8   0  116.51   10.30
  -2  -8   0  116.14   10.85
  -2  -8   0  113.83    9.44
  -3  -8   0    3.51    0.33
  -4  -8   0    1.93    0.19
  -5  -8   0    0.81    0.09
   5   8   0    0.69    0.10
  -6  -8   0    2.19    0.22
   6   8   0    2.46    0.21
  -1  -9   0    4.01    0.32
  -1  -9   0    3.57    0.37
  -2  -9   0   11.35    0.93
  -2  -9   0   11.16    1.01
  -3  -9   0    1.08    0.11
  -4  -9   0    4.67    0.43
  -3  -9   1    2.55    0.24
  -2  -9   1   11.08    0.91
   5   8  -1    0.80    0.10
   5   8  -1    0.62    0.10
  -5  -8   1    0.70    0.08
   4   8  -1    0.22    0.05
  -4  -8   1    0.31    0.05
  -3  -8   1    0.17    0.05
  -2  -8   1   38.99    3.49
  -1  -8   1   11.89    0.94
  -1  -8   1   10.82    1.02
   0  -8   1   15.97    1.12
   0  -8   1   15.05    1.27
   6   7  -1    0.11    0.04
   6   7  -1    0.16    0.05
   5   7  -1    1.12    0.15
  -5  -7   1    0.96    0.11
   4   7  -1    2.47    0.26
  -4  -7   1    2.57    0.26
  -4  -7   1    2.87    0.25
   3   7  -1    0.46    0.11
  -3  -7   1    0.60    0.07
  -3  -7   1    0.49    0.08
  -2  -7   1    1.64    0.16
  -1  -7   1    3.66    0.33
  -1  -7   1    3.39    0.32
   0  -7   1   71.40    4.62
   0  -7   1   61.94    6.07
   0  -7   1   59.90    5.76
   0  -7   1   64.97    5.28
   1  -7   1    8.11    0.63
   1  -7   1    8.25    0.81
   1  -7   1    9.00    0.70
   2  -7   1   12.03    0.90
   2  -7   1   13.51    0.87
   2  -7   1   10.71    1.15
   7   6  -1    2.24    0.21
   7   6  -1    2.02    0.20
   6   6  -1   22.29    1.98
  -6  -6   1   23.95    2.07
   5   6  -1    1.42    0.15
   5   6  -1    1.08    0.18
   5   6  -1    1.54    0.15
  -5  -6   1    1.35    0.14
   4   6  -1    1.39    0.18
  -4  -6   1    1.63    0.15
   3   6  -1   21.32    1.91
  -3  -6   1   23.13    2.00
  -3  -6   1   22.56    2.01
   2   6  -1   -0.02    0.04
  -2  -6   1    0.01    0.02
  -2  -6   1   -0.02    0.04
   1   6  -1    0.09    0.04
   0  -6   1  216.62   21.17
   0  -6   1  236.38   18.41
   0  -6   1  219.06   18.61
   0  -6   1  229.85   20.11
   1  -6   1   42.81    3.78
   1  -6   1   47.29    3.46
   1  -6   1   40.50    3.50
   1  -6   1   40.42    3.12
   1  -6   1   40.48    3.98
   3  -6   1    3.88    0.29
   3  -6   1    4.03    0.30
   4  -6   1    3.79    0.28
   7   5  -1    3.74    0.28
   7   5  -1    3.33    0.29
   7   5  -1    3.97    0.36
   7   5  -1    3.97    0.28
   7   5  -1    3.91    0.34
   6   5  -1    6.75    0.53
   6   5  -1    5.80    0.56
   6   5  -1    5.85    0.48
  -6  -5   1    6.60    0.57
   5   5  -1    0.55    0.08
   5   5  -1    0.62    0.09
   5   5  -1    0.51    0.08
   5   5  -1    0.71    0.06
   4   5  -1    1.64    0.19
  -4  -5   1    1.68    0.16
   3   5  -1  133.00   10.40
  -3  -5   1  132.49   11.89
   2   5  -1   57.24    4.55
  -2  -5   1   58.86    5.20
   1   5  -1    6.47    0.54
  -1  -5   1    7.25    0.62
   0   5  -1    1.23    0.10
   0  -5   1    1.15    0.11
   1  -5   1    1.71    0.13
   1  -5   1    1.45    0.15
   2  -5   1    4.03    0.41
   2  -5   1    4.11    0.31
   2  -5   1    4.49    0.35
   2  -5   1    4.08    0.31
   2  -5   1    3.90    0.35
   3  -5   1    6.39    0.47
   3  -5   1    6.01    0.61
   4  -5   1    0.28    0.04
   5  -5   1    3.17    0.23
   5  -5   1    2.99    0.22
   8   4  -1    0.72    0.07
   8   4  -1    0.71    0.06
   8   4  -1    0.81    0.06
   7   4  -1    0.23    0.04
   6   4  -1    0.38    0.07
   5   4  -1    0.34    0.06
   5   4  -1    0.34    0.05
   5   4  -1    0.31    0.06
   5   4  -1    0.36    0.08
   5   4  -1    0.37    0.06
   4   4  -1   34.49    3.11
   4   4  -1   39.17    2.96
  -4  -4   1   39.23    2.84
   3   4  -1    3.05    0.28
   3   4  -1    3.24    0.26
  -3  -4   1    3.40    0.25
   1   4  -1   12.57    0.99
   1   4  -1   13.14    1.09
  -1  -4   1   11.90    1.13
   0   4  -1    3.30    0.25
   0   4  -1    2.91    0.25
   0   4  -1    3.15    0.28
   0  -4   1    3.34    0.27
  -1   4  -1   55.36    3.99
   1  -4   1   50.35    4.37
  -2   4  -1    2.76    0.21
   2  -4   1    2.49    0.23
   3  -4   1    8.54    0.86
   3  -4   1    9.17    0.67
   3  -4   1   10.27    0.66
   3  -4   1    7.99    0.75
   4  -4   1   26.14    1.78
   4  -4   1   21.90    1.72
   5  -4   1    7.86    0.58
   8   3  -1    1.69    0.12
   8   3  -1    1.52    0.13
   7   3  -1    6.66    0.59
   7   3  -1    8.00    0.58
   7   3  -1    9.07    0.69
   7   3  -1    8.38    0.57
   7   3  -1    7.43    0.69
   6   3  -1    0.87    0.10
   6   3  -1    1.07    0.11
   6   3  -1    1.18    0.09
   6   3  -1    1.09    0.09
   6   3  -1    1.06    0.12
   6   3  -1    0.98    0.15
   5   3  -1    0.75    0.11
   5   3  -1    0.78    0.07
   5   3  -1    0.75    0.06
   5   3  -1    0.75    0.08
   5   3  -1    0.83    0.09
   4   3  -1   13.03    1.00
   4   3  -1   12.11    1.05
  -4  -3   1   13.73    1.11
  -4  -3   1   11.52    0.95
   3   3  -1   18.75    1.70
   3   3  -1   21.12    1.62
  -3  -3   1   20.03    1.55
  -3  -3   1   22.26    1.81
   2   3  -1   74.13    6.92
   2   3  -1   79.15    7.24
   2   3  -1   84.62    6.57
  -2  -3   1   89.71    6.32
  -2  -3   1   91.47    7.33
   1   3  -1  141.25   11.53
   1   3  -1  152.67   11.11
   1   3  -1  147.52   12.72
   0   3  -1   12.59    0.99
   0  -3   1   11.16    1.13
   0  -3   1   13.48    1.04
  -1   3  -1   32.97    2.77
  -1   3  -1   32.96    2.41
  -1   3  -1   29.06    2.51
   1  -3   1   32.89    2.64
  -2   3  -1    2.97    0.23
   2  -3   1    3.03    0.26
  -3   3  -1   46.84    3.48
   3  -3   1   45.46    3.81
   4  -3   1    0.78    0.07
   5  -3   1    8.48    0.63
   6  -3   1    2.89    0.25
   6  -3   1    3.96    0.25
   8   2  -1    4.05    0.30
   8   2  -1    4.34    0.31
   7   2  -1    4.82    0.35
   7   2  -1    4.68    0.34
   7   2  -1    4.82    0.41
   7   2  -1    4.36    0.34
   6   2  -1   15.42    1.04
   6   2  -1   14.77    1.22
   6   2  -1   13.78    1.05
   6   2  -1   13.37    1.17
   6   2  -1   14.10    1.01
   6   2  -1   13.90    1.22
  -6  -2   1   13.76    1.25
   5   2  -1    1.61    0.17
   5   2  -1    1.90    0.17
   5   2  -1    1.77    0.14
  -5  -2   1    2.19    0.18
   4   2  -1  141.57   11.71
   4   2  -1  151.14   11.11
  -4  -2   1  128.37   10.69
  -4  -2   1  145.97   12.41
   3   2  -1    6.04    0.46
   3   2  -1    5.59    0.48
  -3  -2   1    5.28    0.44
  -3  -2   1    6.27    0.51
   2   2  -1    5.77    0.54
   2   2  -1    6.38    0.51
  -2  -2   1    6.49    0.49
  -2  -2   1    7.24    0.57
   1   2  -1    0.29    0.03
   1   2  -1    0.33    0.03
  -1  -2   1    0.31    0.03
   0   2  -1   27.61    2.22
   0  -2   1   31.12    2.22
  -1   2  -1  231.75   17.73
  -1   2  -1  248.62   18.47
   1  -2   1  224.72   20.42
  -2   2  -1   20.02    1.71
  -2   2  -1   17.27    1.49
   2  -2   1   21.90    1.63
  -3   2  -1   77.48    6.13
  -3   2  -1   75.58    7.02
   3  -2   1   90.84    6.72
   4  -2   1    2.65    0.22
   6  -2   1   10.08    0.74
   6  -2   1   10.63    0.77
   7   1  -1   48.38    3.98
   7   1  -1   59.48    3.85
   6   1  -1    0.09    0.02
   6   1  -1    0.07    0.03
   6   1  -1    0.11    0.02
   5   1  -1   17.07    1.23
   5   1  -1   18.20    1.33
   5   1  -1   15.20    1.39
   4   1  -1   11.18    0.81
   4   1  -1   10.34    0.85
  -4  -1   1    9.26    0.77
   3   1  -1   15.76    1.15
   3   1  -1   15.23    1.21
  -3  -1   1   12.74    1.10
   2   1  -1  126.30    8.57
   2   1  -1  117.26    8.75
   2   1  -1  106.11    9.22
  -2  -1   1   97.26    8.42
   1   1  -1    7.87    0.59
   1   1  -1    6.36    0.65
   0   1  -1   16.48    1.26
   0   1  -1   14.96    1.31
   0  -1   1   15.31    1.45
   0  -1   1   18.36    1.26
  -1   1  -1   75.04    6.58
  -1   1  -1   80.40    6.34
  -1   1  -1   96.57    6.34
  -2   1  -1   63.33    5.14
  -2   1  -1   62.43    4.65
  -2   1  -1   53.76    4.47
   2  -1   1   57.65    5.19
  -3   1  -1  305.69   30.65
   3  -1   1  399.62   29.12
   4  -1   1   55.37    4.57
   5  -1   1   12.47    1.07
   6   0  -1   38.30    2.73
   4   0  -1   17.28    1.39
   4   0  -1   17.93    1.34
   3   0  -1  261.89   19.94
   3   0  -1  301.09   20.62
   3   0  -1  226.31   21.71
   2   0  -1   18.88    1.55
   2   0  -1   20.66    1.50
   1   0  -1   72.91    5.73
   0   0  -1  210.77   15.76
   0   0  -1  192.24   15.17
   0   0   1  198.10   15.19
  -1   0  -1   15.00    1.17
  -1   0  -1   17.46    1.17
   1   0   1   14.10    1.35
   2   0   1    9.64    0.72
   2   0   1    8.66    0.80
   4   0   1    1.01    0.09
   5   0   1   87.00    7.18
   6   0   1    0.24    0.03
   6   0   1    0.29    0.08
   6   0   1    0.31    0.03
   7   0   1    0.21    0.03
   7   0   1    0.14    0.03
   4  -1  -1    0.56    0.07
   3  -1  -1   17.42    1.42
   3  -1  -1   18.57    1.37
   2  -1  -1   69.27    5.18
   2  -1  -1   66.83    5.35
   0  -1  -1  164.93   12.95
   0   1   1  151.32   11.69
   0   1   1  151.50   11.31
   0   1   1  129.29   12.93
  -1  -1  -1   33.56    2.44
  -1  -1  -1   26.60    2.79
   1   1   1   30.61    2.80
   1   1   1   32.03    2.56
   1   1   1   31.49    2.44
  -2  -1  -1  529.48   43.26
  -2  -1  -1  539.39   43.27
   2   1   1  603.73   44.94
   2   1   1  618.26   49.84
  -3  -1  -1    3.38    0.26
   3   1   1    3.67    0.27
   3   1   1    3.09    0.30
  -4  -1  -1   18.27    1.42
   4   1   1   20.20    1.48
   4   1   1   17.80    1.55
  -5  -1  -1   30.02    2.39
   5   1   1   33.42    2.62
   6   1   1    3.33    0.33
   6   1   1    3.58    0.28
   6   1   1    3.63    0.28
   6   1   1    3.74    0.27
   6   1   1    4.35    0.34
   7   1   1   25.81    1.90
   7   1   1   26.09    1.83
   7   1   1   26.13    1.87
   7   1   1   24.68    2.20
   8   1   1   25.20    2.02
   8   1   1   29.40    1.96
   8   1   1   27.58    2.34
   3  -2  -1   63.88    4.61
  -3   2   1   57.67    4.76
  -2   2   1    0.56    0.06
  -2   2   1    0.56    0.05
  -1   2   1    2.89    0.26
  -1   2   1    2.74    0.24
  -1   2   1    3.15    0.22
   0   2   1    1.60    0.13
   0   2   1    1.45    0.12
   0   2   1    1.65    0.14
   0   2   1    1.56    0.14
  -1  -2  -1  194.17   15.71
   1   2   1  223.15   18.17
   1   2   1  226.95   16.46
   1   2   1  219.58   15.71
   1   2   1  177.85   18.08
  -2  -2  -1  760.39   66.23
   2   2   1  993.98   68.84
  -3  -2  -1   37.90    2.95
   3   2   1   40.19    3.06
  -4  -2  -1    1.46    0.12
   4   2   1    1.48    0.13
   4   2   1    1.67    0.13
  -5  -2  -1   11.77    0.91
   5   2   1   12.24    1.00
   6   2   1    0.20    0.03
   6   2   1    0.26    0.04
   6   2   1    0.24    0.03
   6   2   1    0.15    0.04
   7   2   1   49.81    4.00
   7   2   1   45.47    3.43
   7   2   1   45.99    3.36
   7   2   1   47.70    3.47
   7   2   1   46.27    4.02
   8   2   1   48.01    4.08
   8   2   1   46.00    4.10
   8   2   1   53.64    3.49
   8   2   1   46.52    3.42
   8   2   1   45.57    3.54
   4  -3  -1   15.04    1.09
   3  -3  -1    1.68    0.12
   3  -3  -1    1.36    0.14
  -3   3   1    1.75    0.13
  -2   3   1    6.50    0.51
  -2   3   1    6.32    0.49
   1  -3  -1  119.95   10.62
  -1   3   1  135.59   10.08
  -1   3   1  124.16    9.71
  -1   3   1  134.77   11.11
   0  -3  -1   35.50    3.05
   0   3   1   36.67    2.79
   0   3   1   37.58    2.89
   0   3   1   37.85    3.19
   1   3   1  218.03   20.28
   1   3   1  251.02   17.71
   1   3   1  235.01   18.39
  -2  -3  -1   17.34    1.20
   2   3   1   15.71    1.20
   2   3   1   16.73    1.25
   2   3   1   13.79    1.38
  -3  -3  -1    0.79    0.06
   3   3   1    0.69    0.06
   3   3   1    0.61    0.07
   5   3   1    0.18    0.05
   5   3   1    0.27    0.04
   6   3   1    2.86    0.22
   6   3   1    2.65    0.26
   6   3   1    2.82    0.26
   6   3   1    2.77    0.21
   6   3   1    2.74    0.21
   6   3   1    2.95    0.24
   7   3   1    4.67    0.36
   7   3   1    5.25    0.35
   7   3   1    4.78    0.43
   7   3   1    4.84    0.43
   7   3   1    4.39    0.40
   7   3   1    4.79    0.36
   8   3   1    7.00    0.55
   8   3   1    7.06    0.64
   8   3   1    7.04    0.53
   8   3   1    7.89    0.64
   8   3   1    7.82    0.54
   4  -4  -1    1.98    0.16
   4  -4  -1    1.59    0.13
   3  -4  -1    5.08    0.40
   3  -4  -1    6.41    0.55
   3  -4  -1    5.55    0.41
   3  -4  -1    5.15    0.41
   2  -4  -1   12.55    0.91
  -2   4   1   12.85    0.96
   1  -4  -1   31.27    2.22
  -1   4   1   29.90    2.44
  -1   4   1   32.08    2.35
   0  -4  -1    6.16    0.50
   0   4   1    5.96    0.46
   0   4   1    5.88    0.48
  -2  -4  -1    2.53    0.26
   2   4   1    3.19    0.22
   2   4   1    2.58    0.25
  -3  -4  -1    0.22    0.05
  -3  -4  -1    0.22    0.03
  -4  -4  -1    6.47    0.50
   4   4   1    6.60    0.52
   4   4   1    6.45    0.55
  -5  -4  -1    1.00    0.09
   5   4   1    1.16    0.09
   6   4   1   92.36    6.79
   6   4   1   94.31    7.96
   6   4   1  106.32    7.62
   6   4   1   92.85    6.65
   6   4   1   87.98    7.92
   6   4   1   91.58    7.70
   6   4   1   87.33    6.88
   7   4   1    6.33    0.49
   7   4   1    6.32    0.57
   7   4   1    6.65    0.54
   7   4   1    6.21    0.47
   7   4   1    6.54    0.48
   7   4   1    6.60    0.57
   8   4   1    1.80    0.16
   8   4   1    1.85    0.15
   8   4   1    2.26    0.19
   8   4   1    1.83    0.20
   8   4   1    2.02    0.15
   4  -5  -1    4.96    0.37
   3  -5  -1   13.03    0.96
   3  -5  -1   13.03    1.00
   3  -5  -1   12.86    0.97
   3  -5  -1   14.96    1.29
   2  -5  -1   10.68    0.98
   2  -5  -1    9.47    0.74
   2  -5  -1   11.16    0.76
   2  -5  -1    9.59    0.74
   1  -5  -1   33.92    2.32
   1  -5  -1   31.00    2.32
   0  -5  -1    5.24    0.37
   0   5   1    5.12    0.39
   0   5   1    4.90    0.41
   1   5   1    5.09    0.39
   1   5   1    4.54    0.37
  -2  -5  -1   16.12    1.46
   2   5   1   16.30    1.28
  -4  -5  -1    7.30    0.67
   4   5   1    7.48    0.59
   5   5   1    0.20    0.04
   5   5   1    0.12    0.03
   6   5   1   36.02    3.15
   6   5   1   40.70    3.03
   6   5   1   32.20    3.06
   6   5   1   40.91    3.16
   6   5   1   34.27    2.70
   6   5   1   37.64    2.64
   7   5   1    7.24    0.62
   7   5   1    7.96    0.61
   7   5   1    6.41    0.51
   7   5   1    6.47    0.59
   7   5   1    6.69    0.50
   8   5   1    0.89    0.09
   8   5   1    1.03    0.08
   8   5   1    0.91    0.13
   8   5   1    1.19    0.09
   3  -6  -1   53.50    3.95
   2  -6  -1   75.51    7.55
   2  -6  -1   80.99    5.73
   2  -6  -1   82.63    5.92
   2  -6  -1   81.75    5.71
   1  -6  -1    6.58    0.63
   1  -6  -1    6.43    0.48
   1  -6  -1    6.19    0.47
   1  -6  -1    6.39    0.49
   1  -6  -1    7.00    0.54
   0  -6  -1   24.61    2.16
   0  -6  -1   22.57    1.69
   0  -6  -1   21.43    1.63
   2   6   1   10.30    0.82
  -3  -6  -1    2.63    0.25
  -4  -6  -1   11.97    1.01
   4   6   1   10.39    0.96
  -5  -6  -1    6.44    0.53
  -5  -6  -1    5.57    0.54
   5   6   1    5.47    0.51
   6   6   1   47.89    3.92
   7   6   1    2.25    0.22
   7   6   1    2.30    0.18
   7   6   1    2.63    0.21
   7   6   1    2.14    0.23
  -8  -6  -1    7.07    0.74
   8   6   1    9.08    0.59
   8   6   1    8.97    0.60
   8   6   1    7.44    0.71
   8   6   1    9.43    0.71
   8   6   1    7.06    0.61
   2  -7  -1    0.11    0.03
   2  -7  -1    0.07    0.02
   1  -7  -1    5.81    0.58
   1  -7  -1    5.88    0.44
   1  -7  -1    6.00    0.43
   1  -7  -1    5.97    0.44
   0  -7  -1   13.17    1.05
   0  -7  -1   11.94    1.21
   0  -7  -1   13.12    0.92
  -1  -7  -1    6.49    0.59
  -1  -7  -1    7.53    0.52
  -1  -7  -1    6.60    0.68
  -1  -7  -1    7.74    0.65
  -2  -7  -1    5.24    0.58
  -2  -7  -1    6.87    0.55
  -3  -7  -1    0.05    0.03
  -4  -7  -1   22.92    2.08
  -4  -7  -1   23.47    2.09
  -5  -7  -1   52.17    4.45
  -5  -7  -1   49.95    4.47
   5   7   1   47.24    4.23
  -6  -7  -1    0.30    0.06
   6   7   1    0.27    0.05
   6   7   1    0.31    0.09
  -7  -7  -1    2.24    0.22
   7   7   1    2.53    0.23
   1  -8  -1    0.53    0.10
   1  -8  -1    0.53    0.05
   1  -8  -1    0.67    0.06
   0  -8  -1    1.45    0.17
   0  -8  -1    1.58    0.12
   0  -8  -1    1.54    0.13
  -1  -8  -1    3.62    0.37
  -1  -8  -1    3.64    0.28
  -1  -8  -1    4.01    0.33
  -2  -8  -1   81.38    7.80
  -2  -8  -1   90.57    6.79
  -2  -8  -1   77.07    7.41
  -3  -8  -1    0.44    0.07
  -3  -8  -1    0.31    0.06
  -5  -8  -1    5.78    0.53
  -6  -8  -1    0.85    0.09
   7   8   1   15.05    1.24
  -1  -9  -1   23.04    2.39
  -1  -9  -1   27.62    2.07
  -2  -9  -1   51.32    4.98
  -2  -9  -1   54.55    4.33
  -3  -9  -1    0.40    0.06
  -3  -9  -1    0.29    0.06
  -4  -9  -1    1.31    0.13
  -5  -9  -1    8.70    0.78
   4   8  -2    4.12    0.39
  -4  -8   2    4.73    0.40
  -1  -8   2    8.49    0.68
  -1  -8   2    7.81    0.74
   0  -8   2    6.14    0.51
   6   7  -2    1.91    0.17
   6   7  -2    1.65    0.19
  -6  -7   2    2.19    0.18
   5   7  -2    0.96    0.13
  -5  -7   2    0.94    0.09
  -5  -7   2    0.83    0.10
   4   7  -2    1.49    0.19
  -4  -7   2    1.85    0.16
   3   7  -2    3.90    0.38
  -3  -7   2    4.18    0.38
  -3  -7   2    4.26    0.38
   2   7  -2    2.72    0.29
  -2  -7   2    3.34    0.29
   1   7  -2    4.44    0.46
  -1  -7   2    5.87    0.47
   0  -7   2   36.19    3.38
   0  -7   2   39.38    3.09
   1  -7   2    0.27    0.07
   1  -7   2    0.25    0.05
   2  -7   2    0.05    0.02
   2  -7   2    0.01    0.01
   6   6  -2   18.52    1.58
   6   6  -2   18.32    1.51
   5   6  -2  123.82    9.28
   5   6  -2  110.08    9.64
  -5  -6   2  106.56   10.12
   4   6  -2   12.91    1.08
  -4  -6   2   11.50    1.13
  -4  -6   2   13.05    1.12
   3   6  -2    5.64    0.51
  -3  -6   2    5.58    0.49
  -3  -6   2    5.72    0.52
  -3  -6   2    5.64    0.51
   2   6  -2    4.60    0.43
  -2  -6   2    4.76    0.44
  -2  -6   2    4.81    0.43
   1   6  -2    1.16    0.16
  -1  -6   2    1.52    0.14
   0   6  -2   90.22    8.64
   0  -6   2  111.53    8.32
   0  -6   2  103.69    9.09
  -1   6  -2   81.24    7.48
   1  -6   2   83.70    8.28
   1  -6   2   88.82    7.28
   1  -6   2   88.42    7.87
   1  -6   2   98.51    7.21
   2  -6   2   12.73    1.21
   2  -6   2   16.30    1.19
   2  -6   2   13.95    1.38
   2  -6   2   15.10    1.08
   3  -6   2    8.95    0.70
   3  -6   2   10.42    0.72
   4  -6   2   22.76    1.52
   4  -6   2   18.38    1.47
   7   5  -2    0.16    0.03
   7   5  -2    0.24    0.06
   7   5  -2    0.23    0.03
   6   5  -2    1.88    0.19
   6   5  -2    1.97    0.16
   6   5  -2    1.94    0.17
   6   5  -2    1.60    0.21
   6   5  -2    2.02    0.15
   6   5  -2    1.99    0.15
   5   5  -2    0.42    0.08
   5   5  -2    0.54    0.12
   4   5  -2   35.38    2.65
   4   5  -2   33.61    2.76
   4   5  -2   31.87    2.76
  -4  -5   2   28.18    2.88
   3   5  -2    0.01    0.04
  -3  -5   2    0.00    0.02
  -3  -5   2    0.04    0.03
   2   5  -2   32.37    2.52
   2   5  -2   25.78    2.31
  -2  -5   2   30.28    2.65
   1   5  -2   74.41    5.85
  -1  -5   2   63.30    6.17
   0   5  -2    0.34    0.09
  -1   5  -2   15.75    1.26
   1  -5   2   14.56    1.32
   1  -5   2   13.70    1.22
   2  -5   2  238.93   18.36
   2  -5   2  279.10   20.34
   2  -5   2  234.25   20.56
   2  -5   2  244.03   23.39
   3  -5   2   29.29    2.49
   3  -5   2   30.93    2.23
   4  -5   2    0.67    0.06
   4  -5   2    0.58    0.05
   5  -5   2    0.11    0.03
   5  -5   2    0.07    0.02
   7   4  -2    7.78    0.55
   7   4  -2    7.88    0.56
   7   4  -2    7.93    0.67
   7   4  -2    6.54    0.57
   7   4  -2    8.17    0.66
   6   4  -2    2.98    0.24
   6   4  -2    2.41    0.26
   6   4  -2    2.29    0.19
   6   4  -2    2.29    0.21
   6   4  -2    2.93    0.20
   5   4  -2    0.07    0.04
   5   4  -2    0.01    0.06
   5   4  -2    0.08    0.02
   5   4  -2    0.10    0.03
   5   4  -2    0.08    0.03
   5   4  -2    0.04    0.03
   4   4  -2    1.82    0.13
   4   4  -2    1.54    0.16
   4   4  -2    1.61    0.18
   3   4  -2   23.56    1.83
   3   4  -2   23.08    1.94
   2   4  -2    0.12    0.03
   1   4  -2   28.07    2.17
  -1  -4   2   27.24    2.48
   0  -4   2    7.56    0.68
  -1   4  -2    1.22    0.11
   1  -4   2    1.62    0.13
  -2   4  -2   55.55    4.07
   2  -4   2   52.18    4.45
   3  -4   2    6.43    0.57
   3  -4   2    7.00    0.57
   3  -4   2    7.15    0.66
   3  -4   2    6.83    0.51
   4  -4   2   13.76    0.90
   4  -4   2   10.51    1.01
   5  -4   2    3.11    0.24
   5  -4   2    3.30    0.24
   6  -4   2    3.09    0.22
   7   3  -2   18.06    1.28
   7   3  -2   16.92    1.30
   7   3  -2   18.75    1.50
   7   3  -2   16.15    1.25
   6   3  -2    0.46    0.05
   5   3  -2    5.40    0.37
   5   3  -2    4.86    0.44
   5   3  -2    4.60    0.42
   5   3  -2    4.35    0.41
   5   3  -2    4.53    0.38
   5   3  -2    5.76    0.36
  -5  -3   2    4.85    0.44
   4   3  -2   16.12    1.32
   4   3  -2   17.53    1.23
   4   3  -2   15.63    1.39
  -4  -3   2   17.87    1.48
  -4  -3   2   16.62    1.27
   3   3  -2    0.44    0.05
   3   3  -2    0.43    0.06
  -3  -3   2    0.48    0.06
   2   3  -2    3.76    0.35
   2   3  -2    3.80    0.37
   2   3  -2    3.97    0.33
  -2  -3   2    4.65    0.37
  -2  -3   2    4.50    0.32
   1   3  -2  274.06   20.96
   1   3  -2  286.82   22.91
  -1  -3   2  234.40   23.75
   0   3  -2  154.88   13.23
   0   3  -2  162.04   11.16
   0   3  -2  153.42   11.69
   0  -3   2  139.48   12.19
   0  -3   2  129.07   13.24
  -1   3  -2    0.17    0.02
  -1   3  -2    0.19    0.03
  -2   3  -2    1.20    0.10
  -3   3  -2   12.00    0.87
   3  -3   2   10.97    0.95
   4  -3   2   18.19    1.58
   4  -3   2   18.78    1.53
   5  -3   2   31.15    2.30
   6  -3   2    0.80    0.07
   7   2  -2    0.07    0.02
   7   2  -2    0.08    0.03
   6   2  -2    1.75    0.17
   6   2  -2    1.90    0.16
   6   2  -2    2.14    0.19
   6   2  -2    2.04    0.15
  -6  -2   2    1.95    0.19
   5   2  -2    2.50    0.23
   5   2  -2    2.76    0.19
   5   2  -2    2.43    0.20
   5   2  -2    2.53    0.24
  -5  -2   2    2.60    0.24
   4   2  -2   14.60    0.96
   4   2  -2   13.42    1.09
   4   2  -2   11.72    1.03
  -4  -2   2   12.08    0.99
  -4  -2   2   13.44    1.15
   3   2  -2   53.77    4.53
   3   2  -2   57.16    4.77
  -3  -2   2   57.64    4.36
  -3  -2   2   62.51    5.06
   2   2  -2  291.97   22.97
   2   2  -2  263.77   24.21
  -2  -2   2  303.23   22.11
  -2  -2   2  313.57   25.66
   1   2  -2  158.32   13.62
   1   2  -2  171.76   15.03
  -1  -2   2  172.34   15.21
  -1  -2   2  192.55   13.12
   0   2  -2  310.87   23.99
   0  -2   2  325.21   23.99
  -1   2  -2   15.95    1.24
  -1   2  -2   18.46    1.42
   1  -2   2   15.82    1.42
   1  -2   2   15.11    1.36
  -2   2  -2   22.58    1.97
  -2   2  -2   22.18    1.72
   2  -2   2   23.63    1.89
  -3   2  -2    8.30    0.67
   3  -2   2    9.33    0.73
  -4   2  -2   21.44    1.62
   4  -2   2   21.43    1.77
   5  -2   2    0.63    0.06
   6  -2   2   90.13    7.95
   6  -2   2   97.16    6.68
   7  -2   2   37.87    2.79
   7   1  -2    0.06    0.02
   7   1  -2    0.06    0.01
   6   1  -2   17.98    1.47
   6   1  -2   21.33    1.45
   6   1  -2   21.96    1.42
  -6  -1   2   17.96    1.74
   5   1  -2    1.20    0.09
   5   1  -2    0.96    0.10
   5   1  -2    1.13    0.09
   5   1  -2    1.08    0.10
  -5  -1   2    1.05    0.11
   4   1  -2    0.00    0.04
   4   1  -2    0.04    0.02
  -4  -1   2    0.04    0.01
   3   1  -2  112.43    8.13
   3   1  -2  112.33    8.57
  -3  -1   2   89.92    9.07
  -3  -1   2  100.40    7.83
   2   1  -2  570.71   39.46
   2   1  -2  580.10   42.67
  -2  -1   2  448.16   45.20
  -2  -1   2  469.54   39.14
   1   1  -2   23.52    2.27
   1   1  -2   29.01    2.06
  -1  -1   2   24.29    2.27
  -1  -1   2   28.30    2.30
   0   1  -2   17.17    1.29
   0   1  -2   15.90    1.34
   0  -1   2   18.28    1.29
  -1   1  -2    8.17    0.70
  -1   1  -2    9.40    0.78
  -1   1  -2    9.25    0.68
   1  -1   2    9.39    0.78
   1  -1   2    8.52    0.68
  -2   1  -2   11.58    0.87
  -2   1  -2   12.20    1.00
   2  -1   2   10.22    1.01
   2  -1   2   11.86    0.96
  -3   1  -2    0.26    0.03
  -3   1  -2    0.30    0.03
  -4   1  -2   46.74    3.78
   4  -1   2   53.38    4.13
   5  -1   2   23.32    1.73
   5  -1   2   18.58    1.79
   6  -1   2    2.58    0.24
   6  -1   2    2.73    0.19
   6  -1   2    2.13    0.23
   7  -1   2    0.33    0.04
   7  -1   2    0.24    0.04
   6   0  -2   20.01    1.58
   6   0  -2   22.70    1.53
   5   0  -2   26.70    1.98
   5   0  -2   26.35    1.95
   5   0  -2   27.16    1.91
   4   0  -2    2.13    0.17
   4   0  -2    1.99    0.17
   4   0  -2    1.86    0.16
  -4   0   2    1.75    0.15
   3   0  -2   32.47    2.66
   3   0  -2   36.40    2.57
   3   0  -2   37.40    2.80
  -3   0   2   29.08    2.55
   2   0  -2  153.88   12.63
   2   0  -2  172.79   12.22
  -2   0   2  156.75   12.15
   1   0  -2    4.08    0.30
   1   0  -2    3.78    0.31
  -1   0   2    4.35    0.30
  -1   0   2    3.38    0.34
   0   0  -2    6.90    0.53
   0   0  -2    5.79    0.48
   0   0  -2    5.60    0.46
   0   0   2    5.67    0.46
  -1   0  -2  119.03    8.26
  -1   0  -2  103.07    9.45
   1   0   2  113.81    9.50
   1   0   2  101.55    8.26
  -3   0  -2    0.95    0.08
   3   0   2    0.95    0.08
  -4   0  -2   29.97    2.28
   4   0   2   30.26    2.49
  -5   0  -2  110.83    9.17
   5   0   2  132.45   10.03
   6   0   2    1.35    0.12
   6   0   2    1.46    0.11
   6   0   2    1.28    0.11
   7   0   2    1.38    0.11
   7   0   2    1.60    0.17
   7   0   2    1.49    0.12
   7   0   2    1.61    0.12
   4  -1  -2   17.71    1.29
   4  -1  -2   17.26    1.22
  -4   1   2   15.39    1.33
   3  -1  -2   12.24    0.95
   3  -1  -2   11.87    0.92
   2  -1  -2   74.07    5.23
   2  -1  -2   74.30    5.40
  -2   1   2   58.42    5.23
   1  -1  -2  219.46   16.43
   1  -1  -2  220.56   16.99
  -1   1   2  210.19   16.35
   0   1   2    4.26    0.33
  -1  -1  -2  124.01    9.34
   1   1   2  116.53    9.34
   1   1   2  130.57   10.74
   2   1   2    7.07    0.63
   2   1   2    7.38    0.57
  -3  -1  -2  125.22    8.96
   3   1   2  120.08   10.31
   3   1   2  120.88    9.81
   3   1   2  108.78    9.30
  -4  -1  -2   22.95    1.64
   4   1   2   21.70    1.80
   4   1   2   20.53    1.89
  -5  -1  -2   13.07    1.04
   5   1   2   14.41    1.14
   6   1   2    0.03    0.01
   6   1   2    0.04    0.03
   6   1   2    0.03    0.02
   6   1   2    0.04    0.02
   6   1   2    0.05    0.02
   7   1   2    8.70    0.66
   7   1   2    8.95    0.67
   7   1   2    8.04    0.78
   7   1   2    9.80    0.78
   7   1   2    9.31    0.64
   8   1   2    7.07    0.59
   8   1   2    6.24    0.50
   8   1   2    6.57    0.59
   8   1   2    7.10    0.49
   4  -2  -2  192.44   14.58
   3  -2  -2  178.52   12.56
  -3   2   2  152.99   12.98
  -1   2   2   10.67    0.82
  -1   2   2   10.77    0.86
   0  -2  -2   18.76    1.53
   0   2   2   16.50    1.39
   0   2   2   16.68    1.34
   0   2   2   18.84    1.54
  -1  -2  -2   32.11    2.97
  -1  -2  -2   34.47    2.59
   1   2   2   35.14    2.59
   1   2   2   35.48    2.98
   1   2   2   34.51    2.69
  -2  -2  -2  888.17   70.18
   2   2   2 1000.00   72.86
   2   2   2  896.02   70.15
  -3  -2  -2  147.13   10.19
   3   2   2  121.17   11.15
   3   2   2  141.33   10.58
   3   2   2  130.36   11.88
  -4  -2  -2    7.10    0.54
   4   2   2    6.59    0.63
   4   2   2    7.74    0.59
  -5  -2  -2    2.84    0.22
   5   2   2    2.91    0.24
   6   2   2    0.02    0.03
   6   2   2    0.03    0.02
   6   2   2    0.06    0.02
   6   2   2    0.03    0.02
   6   2   2    0.05    0.02
   7   2   2   18.28    1.74
   7   2   2   21.13    1.73
   7   2   2   20.31    1.50
   7   2   2   22.04    1.67
   7   2   2   20.37    1.45
   7   2   2   19.15    1.48
   8   2   2    7.86    0.70
   8   2   2    8.34    0.60
   8   2   2    7.63    0.57
   8   2   2    8.45    0.70
   8   2   2    7.67    0.59
   4  -3  -2    0.92    0.08
   3  -3  -2   39.57    2.84
   3  -3  -2   39.94    3.02
   2  -3  -2   21.89    1.57
   2  -3  -2   18.62    1.47
  -2   3   2   20.70    1.56
  -2   3   2   21.16    1.62
  -1   3   2   75.15    5.82
  -1   3   2   79.08    6.04
   0   3   2   53.94    3.96
   0   3   2   52.84    3.81
   0   3   2   44.91    4.37
  -1  -3  -2    1.03    0.09
   1   3   2    0.92    0.09
   1   3   2    0.94    0.09
   1   3   2    1.02    0.08
  -2  -3  -2   44.34    3.11
   2   3   2   39.69    3.11
   2   3   2   38.54    3.58
   2   3   2   42.33    3.23
  -3  -3  -2   38.66    2.66
   3   3   2   30.57    2.91
   3   3   2   37.99    2.76
   3   3   2   33.09    3.06
   4   3   2  122.86   10.79
   4   3   2  114.46   10.27
   4   3   2  135.84    9.74
  -5  -3  -2    0.90    0.08
   5   3   2    0.96    0.09
   6   3   2    1.91    0.16
   6   3   2    1.74    0.14
   6   3   2    1.66    0.17
   6   3   2    1.86    0.18
   6   3   2    1.77    0.14
   7   3   2    0.08    0.02
   7   3   2    0.06    0.03
   7   3   2    0.08    0.02
   8   3   2    4.90    0.36
   8   3   2    5.24    0.44
   8   3   2    5.00    0.37
   8   3   2    4.67    0.37
   8   3   2    4.91    0.44
   4  -4  -2    0.23    0.06
   3  -4  -2    3.19    0.27
   3  -4  -2    3.37    0.25
   3  -4  -2    3.25    0.24
   2  -4  -2    4.33    0.33
   2  -4  -2    4.35    0.32
   1  -4  -2   84.42    6.28
  -1   4   2   90.12    6.89
  -1   4   2   89.27    6.63
   0   4   2   33.85    2.66
   0   4   2   33.86    2.56
   1   4   2    5.34    0.42
   1   4   2    5.18    0.40
  -2  -4  -2    3.51    0.33
   2   4   2    3.48    0.28
   2   4   2    3.87    0.29
  -3  -4  -2   31.24    3.16
   3   4   2   39.31    2.77
  -4  -4  -2   37.66    2.80
   4   4   2   39.51    2.91
   4   4   2   34.08    3.07
  -5  -4  -2    2.03    0.17
   5   4   2    2.08    0.18
   5   4   2    2.26    0.19
   6   4   2    3.77    0.35
   6   4   2    3.84    0.30
   6   4   2    3.96    0.30
   6   4   2    4.01    0.35
   6   4   2    3.82    0.34
   6   4   2    3.76    0.29
   6   4   2    4.34    0.34
   7   4   2   20.98    1.49
   7   4   2   20.38    1.47
   7   4   2   17.68    1.67
   7   4   2   21.65    1.72
   7   4   2   19.35    1.44
   7   4   2   20.54    1.73
   8   4   2    2.30    0.23
   8   4   2    2.48    0.18
   8   4   2    2.22    0.18
   8   4   2    2.24    0.22
   8   4   2    2.35    0.17
   3  -5  -2    5.48    0.39
   3  -5  -2    4.77    0.38
   2  -5  -2    3.38    0.25
   2  -5  -2    3.12    0.26
   2  -5  -2    3.16    0.26
   2  -5  -2    3.90    0.36
   1  -5  -2   10.51    0.78
   1  -5  -2    9.81    0.77
   1  -5  -2   11.94    0.78
   0  -5  -2   36.85    2.52
   0   5   2   35.46    2.76
   0   5   2   33.20    2.66
  -1  -5  -2  175.21   12.00
   1   5   2  157.12   12.68
   1   5   2  172.04   13.17
  -2  -5  -2    0.77    0.08
   2   5   2    0.82    0.08
  -3  -5  -2    1.24    0.14
   3   5   2    1.50    0.12
   4   5   2    1.57    0.14
   5   5   2    0.95    0.10
   5   5   2    1.15    0.11
   6   5   2   24.74    2.00
   6   5   2   23.51    1.78
   6   5   2   24.19    1.74
   6   5   2   23.49    1.80
   6   5   2   25.59    2.08
   6   5   2   25.14    2.02
   6   5   2   23.54    2.07
   7   5   2    6.57    0.56
   7   5   2    6.96    0.54
   7   5   2    6.24    0.47
   7   5   2    5.90    0.46
   7   5   2    6.01    0.48
   7   5   2    6.35    0.56
   8   5   2   18.20    1.29
   8   5   2   19.69    1.54
   8   5   2   16.34    1.54
   8   5   2   18.03    1.32
   8   5   2   17.58    1.33
   3  -6  -2    0.06    0.04
   2  -6  -2   12.67    0.91
   2  -6  -2   12.80    0.92
   2  -6  -2   12.01    0.94
   2  -6  -2   13.37    1.21
   1  -6  -2    1.53    0.12
   1  -6  -2    1.41    0.11
   1  -6  -2    1.32    0.11
   1  -6  -2    1.21    0.17
   1  -6  -2    1.27    0.12
   0  -6  -2    9.10    0.70
   0  -6  -2   10.47    0.72
   0  -6  -2    9.72    0.70
   0  -6  -2    9.53    0.81
  -1  -6  -2    0.05    0.03
  -3  -6  -2   32.65    2.93
  -4  -6  -2    4.01    0.37
  -5  -6  -2    0.01    0.04
  -5  -6  -2    0.03    0.02
   6   6   2    1.33    0.14
   6   6   2    0.95    0.16
   7   6   2    4.63    0.39
   7   6   2    4.04    0.39
   8   6   2   43.44    3.51
   8   6   2   45.54    4.04
   8   6   2   49.83    3.47
   8   6   2   51.22    3.39
   2  -7  -2    7.71    0.54
   2  -7  -2    7.23    0.72
   1  -7  -2   38.10    2.59
   1  -7  -2   34.26    2.67
   1  -7  -2   35.78    3.41
   1  -7  -2   36.64    2.58
   0  -7  -2   29.60    2.24
   0  -7  -2   26.83    2.03
   0  -7  -2   26.60    1.96
   0  -7  -2   25.70    1.96
   0  -7  -2   28.16    2.59
  -1  -7  -2    1.38    0.16
  -1  -7  -2    1.48    0.12
  -1  -7  -2    1.15    0.14
  -2  -7  -2    0.18    0.05
  -3  -7  -2    0.01    0.04
  -3  -7  -2   -0.03    0.05
  -4  -7  -2   10.39    0.98
  -4  -7  -2   11.34    1.04
  -5  -7  -2   39.25    4.03
  -5  -7  -2   50.96    4.05
  -6  -7  -2   27.87    2.51
  -7  -7  -2   13.09    1.25
   7   7   2   14.67    1.19
  -8  -7  -2    0.28    0.05
   1  -8  -2    0.91    0.12
   0  -8  -2   16.56    1.17
   0  -8  -2   16.06    1.55
  -1  -8  -2    7.86    0.76
  -2  -8  -2    3.08    0.29
  -2  -8  -2    2.50    0.27
  -3  -8  -2    3.69    0.39
  -3  -8  -2    4.90    0.43
  -4  -8  -2    0.45    0.08
  -4  -8  -2    0.55    0.09
  -5  -8  -2   -0.05    0.04
  -6  -8  -2    0.06    0.04
  -7  -8  -2    2.26    0.21
  -1  -9  -2    0.92    0.12
  -2  -9  -2    1.17    0.13
  -2  -9  -2    1.08    0.13
  -4  -9  -2   15.11    1.47
  -4  -9  -2   15.97    1.39
  -5  -9  -2    0.09    0.04
  -6  -9  -2    7.16    0.64
  -3  -8   3    2.41    0.22
   2   8  -3    0.13    0.03
  -2  -8   3    0.18    0.04
   1   8  -3    2.40    0.22
   5   7  -3    1.12    0.12
   5   7  -3    1.17    0.12
  -5  -7   3    1.17    0.11
   4   7  -3   14.25    1.16
   4   7  -3   13.62    1.11
  -4  -7   3   12.49    1.20
   3   7  -3    4.88    0.43
  -3  -7   3    4.76    0.44
   2   7  -3   28.93    2.50
  -2  -7   3   29.66    2.62
   1   7  -3    0.56    0.09
  -1  -7   3    0.49    0.07
  -1   7  -3    2.01    0.21
   1  -7   3    2.44    0.19
   6   6  -3    7.25    0.70
  -6  -6   3    9.04    0.70
   5   6  -3   81.99    6.93
   5   6  -3   87.59    7.20
   4   6  -3   14.76    1.26
   4   6  -3   14.34    1.21
  -4  -6   3   16.60    1.26
  -4  -6   3   12.82    1.32
   3   6  -3    1.01    0.15
  -3  -6   3    1.09    0.13
  -3  -6   3    1.04    0.11
  -3  -6   3    1.11    0.11
   2   6  -3    0.07    0.04
  -2  -6   3    0.11    0.04
   1   6  -3    4.43    0.39
  -1  -6   3    4.12    0.39
   0   6  -3    3.08    0.27
   0  -6   3    2.80    0.27
   0  -6   3    2.86    0.28
  -1   6  -3    8.28    0.75
   1  -6   3    9.00    0.72
  -2   6  -3    1.88    0.19
   2  -6   3    1.68    0.14
   2  -6   3    2.05    0.17
   3  -6   3    4.91    0.35
   3  -6   3    4.35    0.34
   6   5  -3    0.00    0.02
   6   5  -3   -0.01    0.04
   6   5  -3    0.00    0.02
   5   5  -3  106.46    8.59
   5   5  -3  100.32    8.63
   5   5  -3   96.78    8.27
   4   5  -3   12.18    1.06
   4   5  -3   12.83    1.10
   4   5  -3   13.33    1.11
   3   5  -3    0.06    0.04
  -3  -5   3    0.00    0.02
   2   5  -3    6.68    0.56
  -2  -5   3    5.91    0.57
  -2  -5   3    6.25    0.56
  -2  -5   3    6.12    0.54
   1   5  -3   30.87    2.49
  -1  -5   3   28.57    2.61
  -1  -5   3   26.84    2.62
  -1  -5   3   30.47    2.50
   0   5  -3    1.93    0.19
   0  -5   3    1.89    0.19
  -1   5  -3    1.96    0.20
   1  -5   3    2.14    0.20
  -2   5  -3   86.56    6.49
   2  -5   3   83.19    6.25
   2  -5   3   71.03    6.31
   2  -5   3   72.81    5.64
   2  -5   3   68.55    7.18
   3  -5   3   12.03    0.81
   3  -5   3    9.62    0.90
   4  -5   3    0.47    0.05
   4  -5   3    0.36    0.05
   5  -5   3    0.54    0.05
   6   4  -3    2.74    0.26
   6   4  -3    2.93    0.21
   6   4  -3    2.80    0.23
   6   4  -3    2.85    0.21
   5   4  -3    1.06    0.13
   5   4  -3    0.92    0.10
   5   4  -3    1.02    0.08
   5   4  -3    1.18    0.12
   5   4  -3    0.97    0.09
   5   4  -3    1.00    0.11
   5   4  -3    0.79    0.14
   4   4  -3   31.63    2.52
   4   4  -3   37.62    2.90
   4   4  -3   31.86    2.82
   4   4  -3   33.59    2.79
   4   4  -3   35.35    2.91
   3   4  -3   32.71    2.79
   3   4  -3   32.45    2.78
   2   4  -3    0.16    0.04
  -2  -4   3    0.14    0.03
   0  -4   3   46.13    4.13
   1  -4   3   28.61    2.37
   2  -4   3  177.49   14.49
   2  -4   3  164.25   14.10
   3  -4   3   43.78    3.81
   3  -4   3   49.71    3.40
   3  -4   3   47.76    3.77
   3  -4   3   42.81    3.91
   4  -4   3    3.94    0.28
   4  -4   3    3.37    0.27
   4  -4   3    3.33    0.31
   4  -4   3    4.02    0.33
   5  -4   3    0.32    0.04
   5  -4   3    0.31    0.04
   7   3  -3   10.69    0.81
   7   3  -3   10.66    0.84
   7   3  -3   12.42    0.82
   6   3  -3   12.10    0.86
   6   3  -3   12.31    0.84
   6   3  -3    9.95    0.98
   6   3  -3   11.38    0.82
   5   3  -3   17.35    1.28
   5   3  -3   17.67    1.23
   5   3  -3   15.38    1.26
   5   3  -3   18.94    1.48
   5   3  -3   16.30    1.43
  -5  -3   3   17.40    1.51
   4   3  -3    5.02    0.35
   4   3  -3    4.72    0.42
   4   3  -3    4.42    0.36
   4   3  -3    4.48    0.34
   4   3  -3    4.94    0.42
   4   3  -3    4.29    0.41
  -4  -3   3    5.00    0.43
   3   3  -3    4.45    0.39
  -3  -3   3    4.75    0.35
  -3  -3   3    4.33    0.41
   2   3  -3    0.20    0.04
   2   3  -3    0.15    0.03
  -2  -3   3    0.21    0.03
  -2  -3   3    0.19    0.04
   1   3  -3   80.45    6.00
   1   3  -3   78.13    6.62
  -1  -3   3   71.17    6.86
   0   3  -3    0.07    0.02
   0   3  -3    0.05    0.02
  -1   3  -3   15.74    1.25
   1  -3   3   17.34    1.37
  -2   3  -3   15.82    1.31
   2  -3   3   18.67    1.43
   3  -3   3   16.59    1.41
   3  -3   3   17.29    1.45
   4  -3   3   84.87    7.75
   4  -3   3  101.39    6.74
   4  -3   3   87.89    7.54
   5  -3   3    5.43    0.47
   5  -3   3    5.19    0.39
   6  -3   3    2.29    0.21
   6  -3   3    2.39    0.17
   6  -3   3    1.97    0.17
   7   2  -3    0.00    0.01
   7   2  -3    0.02    0.02
   6   2  -3   12.89    0.96
   6   2  -3   13.64    0.94
   6   2  -3   12.12    1.11
   6   2  -3   12.87    0.92
   5   2  -3   10.07    0.92
   5   2  -3   11.46    0.82
   5   2  -3   10.19    0.79
   5   2  -3   12.10    0.95
   5   2  -3   10.67    0.81
  -5  -2   3   11.64    0.98
   4   2  -3   33.61    2.61
   4   2  -3   27.73    2.53
   4   2  -3   31.39    2.18
   4   2  -3   31.73    2.23
  -4  -2   3   28.04    2.68
   3   2  -3   55.95    4.62
   3   2  -3   48.16    4.39
  -3  -2   3   56.19    4.22
  -3  -2   3   63.41    4.90
   2   2  -3    5.94    0.57
   2   2  -3    6.99    0.54
  -2  -2   3    7.00    0.60
  -2  -2   3    7.17    0.52
   1   2  -3   29.61    2.33
   1   2  -3   30.07    2.57
   1   2  -3   31.01    2.45
  -1  -2   3   27.94    2.60
   0   2  -3   39.27    3.30
   0   2  -3   34.41    2.88
   0   2  -3   36.62    3.18
  -1   2  -3   47.51    3.96
   1  -2   3   52.39    4.33
   1  -2   3   57.36    4.56
  -2   2  -3    6.95    0.57
  -2   2  -3    7.25    0.65
   2  -2   3    8.12    0.62
  -3   2  -3   56.73    4.64
   3  -2   3   66.14    5.07
   4  -2   3    0.10    0.03
   4  -2   3    0.09    0.03
   5  -2   3    0.04    0.02
   6  -2   3   13.36    0.90
   6  -2   3   11.69    1.08
   7  -2   3    1.10    0.10
   7  -2   3    1.19    0.10
   7  -2   3    1.42    0.13
   6   1  -3   15.58    1.04
   6   1  -3   13.09    1.05
   6   1  -3   13.91    1.02
   5   1  -3   30.60    2.20
   5   1  -3   29.92    2.16
   5   1  -3   29.98    2.12
  -5  -1   3   28.16    2.60
   4   1  -3   10.49    0.71
   4   1  -3   10.38    0.72
   4   1  -3    9.50    0.82
  -4  -1   3    8.96    0.87
   3   1  -3    5.75    0.52
   3   1  -3    7.07    0.54
  -3  -1   3    7.03    0.49
  -3  -1   3    5.93    0.57
   2   1  -3   38.40    3.39
   2   1  -3   49.41    3.58
  -2  -1   3   45.31    3.26
  -2  -1   3   39.90    3.79
   1   1  -3   21.69    1.90
   1   1  -3   26.42    2.00
  -1  -1   3   22.96    2.12
  -1  -1   3   25.60    1.83
   0   1  -3   18.66    1.59
   0   1  -3   16.92    1.44
   0   1  -3   18.70    1.65
   0  -1   3   17.64    1.61
   0  -1   3   19.74    1.39
  -1   1  -3  145.26   12.52
  -1   1  -3  176.16   14.35
   1  -1   3  176.75   14.41
  -2   1  -3    1.00    0.10
  -2   1  -3    1.08    0.09
   2  -1   3    1.06    0.11
   2  -1   3    1.08    0.10
  -3   1  -3    9.94    0.90
  -3   1  -3   10.26    0.78
   3  -1   3   10.70    0.86
  -4   1  -3   10.21    0.86
   4  -1   3   12.46    0.94
   5  -1   3    7.93    0.74
   5  -1   3    8.42    0.63
   5  -1   3    9.15    0.74
   7  -1   3    4.84    0.45
   7  -1   3    4.75    0.45
   7  -1   3    5.83    0.38
   6   0  -3    0.66    0.07
   6   0  -3    0.85    0.06
   5   0  -3    0.08    0.02
   5   0  -3    0.07    0.02
   4   0  -3   27.77    2.41
   4   0  -3   29.27    2.09
   4   0  -3   30.52    2.13
   3   0  -3    3.30    0.27
   3   0  -3    3.30    0.28
  -3   0   3    3.47    0.26
   2   0  -3  109.87    8.03
   2   0  -3  101.73    8.30
  -2   0   3  106.34    7.99
   1   0  -3    4.05    0.33
   1   0  -3    3.99    0.32
  -1   0   3    4.42    0.32
   0   0  -3   20.56    1.50
   0   0  -3   18.02    1.65
   0   0   3   17.20    1.68
   0   0   3   20.84    1.45
  -1   0  -3  232.08   19.03
  -1   0  -3  206.80   16.78
   1   0   3  208.29   16.63
   1   0   3  233.91   19.13
  -2   0  -3   38.05    3.63
  -2   0  -3   47.11    3.17
   2   0   3   41.74    3.65
   2   0   3   40.78    3.47
  -3   0  -3   35.06    3.22
  -3   0  -3   40.65    2.81
   3   0   3   34.00    3.24
   3   0   3   39.21    3.08
  -4   0  -3    2.03    0.16
   4   0   3    2.06    0.18
   5   0   3    0.06    0.02
   5   0   3    0.08    0.03
   6   0   3    4.88    0.37
   6   0   3    4.83    0.43
   6   0   3    4.92    0.36
   7   0   3    6.46    0.52
   7   0   3    6.57    0.62
   7   0   3    7.63    0.52
   7   0   3    7.75    0.51
   7   0   3    6.67    0.61
   8   0   3   43.68    3.52
   8   0   3   49.65    4.08
   8   0   3   49.79    3.40
   5  -1  -3    0.79    0.08
   5  -1  -3    0.89    0.07
   5  -1  -3    1.08    0.08
   4  -1  -3   50.01    3.24
   4  -1  -3   43.78    3.28
   4  -1  -3   38.91    3.67
   4  -1  -3   42.65    3.18
   4  -1  -3   47.11    3.38
   3  -1  -3    0.34    0.06
   3  -1  -3    0.48    0.05
   3  -1  -3    0.35    0.04
   2  -1  -3   21.91    1.70
   2  -1  -3   22.27    1.65
  -2   1   3   20.71    1.63
   1  -1  -3  334.87   24.84
   1  -1  -3  332.50   24.03
  -1   1   3  283.87   23.91
   0  -1  -3  575.47   45.63
   0   1   3  643.60   52.39
   0   1   3  580.72   45.50
  -1  -1  -3   27.63    2.09
  -1  -1  -3   27.85    2.09
   1   1   3   30.57    2.40
   1   1   3   26.51    2.17
   1   1   3   25.59    2.09
  -2  -1  -3   46.08    3.29
   2   1   3   44.51    3.78
   2   1   3   40.13    3.41
  -3  -1  -3    6.49    0.44
   3   1   3    5.29    0.51
   3   1   3    5.45    0.48
  -4  -1  -3   34.24    2.42
   4   1   3   29.27    2.79
   4   1   3   32.67    2.65
  -5  -1  -3   98.83    7.20
   5   1   3   99.40    7.88
   5   1   3   88.19    8.29
   6   1   3   40.21    2.98
   6   1   3   37.84    3.08
   6   1   3   45.92    3.45
   6   1   3   43.13    3.55
   7   1   3    7.81    0.78
   7   1   3    8.83    0.65
   7   1   3    9.94    0.74
   7   1   3    8.62    0.77
   7   1   3    9.23    0.64
   7   1   3    8.88    0.66
   8   1   3    8.41    0.78
   8   1   3    8.09    0.67
   8   1   3    9.91    0.65
   8   1   3    9.56    0.66
   8   1   3    9.10    0.78
   5  -2  -3    7.47    0.51
   5  -2  -3    6.27    0.49
   4  -2  -3   23.01    1.88
   4  -2  -3   22.67    1.79
   4  -2  -3   28.08    1.82
   3  -2  -3  169.61   12.03
   3  -2  -3  147.94   11.56
  -2   2   3    0.58    0.06
  -2   2   3    0.46    0.04
   1  -2  -3   24.92    2.01
  -1   2   3   29.31    2.00
  -1   2   3   25.22    2.08
   0   2   3   29.00    2.55
   0   2   3   32.49    2.46
   0   2   3   35.99    2.83
   1   2   3    0.03    0.02
   1   2   3    0.02    0.02
  -2  -2  -3    5.73    0.39
   2   2   3    4.77    0.45
   2   2   3    4.80    0.40
   2   2   3    4.93    0.39
  -3  -2  -3   13.70    0.92
   3   2   3   12.00    0.96
   3   2   3   11.56    1.01
   3   2   3   11.42    1.06
  -4  -2  -3   31.53    2.30
   4   2   3   28.92    2.65
   4   2   3   30.93    2.52
  -5  -2  -3   16.30    1.16
   5   2   3   13.68    1.34
   5   2   3   16.70    1.27
   5   2   3   14.59    1.14
   6   2   3    0.21    0.04
   7   2   3   28.75    2.08
   7   2   3   29.44    2.03
   7   2   3   25.33    2.35
   7   2   3   30.78    2.42
   7   2   3   30.17    2.10
   7   2   3   25.93    2.43
   8   2   3    0.40    0.05
   8   2   3    0.37    0.04
   8   2   3    0.32    0.09
   8   2   3    0.33    0.09
   4  -3  -3   13.50    0.96
   4  -3  -3   12.37    0.93
   3  -3  -3  172.51   11.74
   3  -3  -3  143.13   11.05
   3  -3  -3  149.12   11.02
   2  -3  -3    4.81    0.41
   2  -3  -3    6.31    0.43
  -2   3   3    5.64    0.42
  -2   3   3    5.45    0.45
   1  -3  -3    0.70    0.06
  -1   3   3    0.66    0.06
  -1   3   3    0.82    0.08
  -1  -3  -3    0.18    0.04
   1   3   3    0.21    0.03
   1   3   3    0.16    0.04
  -2  -3  -3   12.12    1.03
   2   3   3   11.13    1.00
   2   3   3   11.54    0.91
   2   3   3   11.16    0.87
  -3  -3  -3    0.36    0.06
   3   3   3    0.46    0.05
   3   3   3    0.43    0.05
  -4  -3  -3  169.94   12.86
   4   3   3  174.93   14.86
   4   3   3  168.64   14.06
   4   3   3  167.89   13.54
  -5  -3  -3    7.75    0.62
   5   3   3    8.35    0.72
   5   3   3    8.37    0.61
   6   3   3   18.06    1.71
   6   3   3   20.97    1.65
   6   3   3   20.53    1.47
   6   3   3   20.58    1.70
   6   3   3   19.76    1.46
   6   3   3   19.49    1.43
   7   3   3    3.63    0.36
   7   3   3    3.84    0.30
   7   3   3    4.16    0.31
   7   3   3    4.70    0.37
   7   3   3    3.94    0.34
   7   3   3    3.97    0.30
   8   3   3    1.61    0.12
   8   3   3    1.31    0.15
   8   3   3    1.36    0.12
   8   3   3    1.45    0.11
   8   3   3    1.41    0.15
   9   3   3    3.72    0.25
   9   3   3    3.15    0.26
   4  -4  -3   28.08    2.12
   4  -4  -3   29.36    2.06
   3  -4  -3   36.41    2.83
   3  -4  -3   42.83    2.83
   2  -4  -3   48.48    3.76
   2  -4  -3   59.64    4.00
   2  -4  -3   58.93    3.76
   2  -4  -3   44.83    3.88
   2  -4  -3   51.14    3.75
   1  -4  -3   38.42    2.72
  -1   4   3   38.30    2.88
  -1   4   3   37.46    2.99
   0  -4  -3   19.94    1.50
   0   4   3   21.95    1.65
   0   4   3   20.99    1.59
   1   4   3    3.40    0.29
   1   4   3    4.18    0.31
  -2  -4  -3    6.23    0.52
   2   4   3    5.82    0.46
   2   4   3    5.20    0.44
  -3  -4  -3  177.93   16.48
   3   4   3  205.06   14.41
   3   4   3  168.68   15.95
  -4  -4  -3  579.98   57.28
   4   4   3  716.35   50.10
   4   4   3  654.69   55.47
   4   4   3  607.39   50.86
  -5  -4  -3   57.70    4.26
   5   4   3   62.26    4.49
   5   4   3   53.48    4.17
   5   4   3   52.13    4.66
   6   4   3    2.86    0.23
   6   4   3    2.64    0.24
   6   4   3    2.39    0.24
   6   4   3    2.16    0.20
   6   4   3    2.70    0.20
   6   4   3    2.53    0.19
   6   4   3    2.66    0.24
   7   4   3    0.94    0.12
   7   4   3    0.92    0.11
   7   4   3    0.98    0.10
   7   4   3    0.94    0.08
   7   4   3    0.96    0.09
   7   4   3    0.96    0.10
   8   4   3    1.82    0.17
   8   4   3    1.54    0.13
   8   4   3    1.46    0.13
   8   4   3    1.56    0.17
   8   4   3    1.70    0.13
   9   4   3    4.15    0.28
   9   4   3    3.39    0.28
   4  -5  -3    0.45    0.04
   3  -5  -3    2.21    0.17
   3  -5  -3    1.75    0.15
   2  -5  -3    7.67    0.55
   2  -5  -3    7.42    0.56
   2  -5  -3    7.37    0.54
   1  -5  -3    4.64    0.33
   1  -5  -3    4.34    0.34
   1  -5  -3    4.79    0.38
   1  -5  -3    4.28    0.34
   1  -5  -3    4.27    0.33
   0  -5  -3    0.33    0.05
   0   5   3    0.27    0.05
  -1  -5  -3   76.09    5.52
   1   5   3   81.23    6.06
   1   5   3   74.32    5.83
  -2  -5  -3    7.20    0.59
   2   5   3    5.77    0.52
  -3  -5  -3   52.61    4.53
   3   5   3   48.53    3.97
   4   5   3    0.21    0.04
   4   5   3    0.31    0.05
   5   5   3    0.49    0.07
  -6  -5  -3    5.44    0.53
   6   5   3    5.47    0.47
   6   5   3    4.95    0.48
   6   5   3    6.08    0.47
   7   5   3    5.19    0.39
   7   5   3    4.97    0.45
   7   5   3    5.41    0.44
   7   5   3    4.80    0.39
   7   5   3    5.25    0.46
   7   5   3    5.20    0.38
   7   5   3    5.22    0.44
   8   5   3    4.04    0.30
   8   5   3    4.08    0.36
   8   5   3    4.08    0.31
   8   5   3    3.78    0.29
   8   5   3    4.06    0.36
   3  -6  -3    1.27    0.10
   3  -6  -3    1.11    0.11
   2  -6  -3    3.77    0.29
   1  -6  -3    3.80    0.31
   1  -6  -3    3.84    0.31
   1  -6  -3    4.16    0.30
   1  -6  -3    4.60    0.41
   0  -6  -3    4.08    0.33
   0  -6  -3    4.39    0.32
   0  -6  -3    4.82    0.43
   0  -6  -3    4.05    0.33
  -1  -6  -3   15.92    1.32
  -1  -6  -3   19.33    1.33
  -1  -6  -3   20.07    1.75
  -3  -6  -3   14.77    1.33
  -4  -6  -3    0.07    0.02
  -4  -6  -3    0.09    0.04
  -5  -6  -3    3.81    0.40
  -5  -6  -3    4.26    0.38
   5   6   3    4.06    0.34
  -6  -6  -3    5.32    0.49
   6   6   3    4.56    0.42
   7   6   3    1.53    0.17
   7   6   3    1.97    0.17
   8   6   3   10.11    0.70
   8   6   3    8.95    0.82
   2  -7  -3    0.05    0.02
   2  -7  -3    0.12    0.03
   1  -7  -3    1.42    0.16
   1  -7  -3    1.32    0.10
   1  -7  -3    1.27    0.12
   0  -7  -3    0.14    0.03
   0  -7  -3    0.21    0.04
   0  -7  -3    0.24    0.06
  -1  -7  -3   36.19    3.18
  -1  -7  -3   34.13    2.42
  -1  -7  -3   32.81    2.76
  -1  -7  -3   31.77    2.41
  -2  -7  -3   23.72    2.06
  -2  -7  -3   19.82    1.79
  -3  -7  -3   63.96    6.02
  -4  -7  -3   32.49    3.46
  -4  -7  -3   40.99    3.30
  -5  -7  -3   23.84    1.86
  -5  -7  -3   20.76    1.86
  -5  -7  -3   18.19    1.96
   5   7   3   19.99    1.66
  -6  -7  -3    0.57    0.11
  -6  -7  -3    0.71    0.09
   6   7   3    0.61    0.10
  -7  -7  -3    3.70    0.34
  -8  -7  -3   15.93    1.43
   0  -8  -3   34.79    2.53
   0  -8  -3   30.44    3.33
   0  -8  -3   39.87    2.61
   0  -8  -3   36.37    2.52
  -1  -8  -3    3.48    0.27
  -1  -8  -3    4.03    0.31
  -1  -8  -3    3.33    0.36
  -2  -8  -3   12.20    1.05
  -2  -8  -3   13.29    1.21
  -3  -8  -3   -0.01    0.04
  -4  -8  -3    0.64    0.12
  -5  -8  -3    2.07    0.21
   5   8   3    2.20    0.19
  -6  -8  -3    0.22    0.05
  -7  -8  -3    0.93    0.10
  -2  -9  -3   13.68    1.44
  -2  -9  -3   16.76    1.25
  -3  -9  -3   12.64    1.05
  -3  -9  -3   12.87    1.21
  -4  -9  -3    4.46    0.43
  -5  -9  -3    0.49    0.08
   5   9   3    0.38    0.07
  -6  -9  -3    9.98    0.90
   3   7  -4    5.90    0.58
  -3  -7   4    7.53    0.58
   2   7  -4   30.47    2.73
  -2  -7   4   33.66    2.86
   1   7  -4   19.45    1.66
   0   7  -4   13.26    1.21
   0  -7   4   15.01    1.16
  -1   7  -4    0.59    0.09
   1  -7   4    0.78    0.07
   5   6  -4    6.27    0.58
  -5  -6   4    7.72    0.60
   4   6  -4    5.41    0.50
   4   6  -4    5.89    0.48
   3   6  -4    0.12    0.04
  -3  -6   4    0.15    0.03
   2   6  -4   19.60    1.74
  -2  -6   4   23.28    1.75
  -2  -6   4   18.18    1.82
   1   6  -4    0.03    0.04
  -1  -6   4    0.03    0.04
  -1  -6   4    0.04    0.02
   0   6  -4   14.64    1.18
   0  -6   4   12.86    1.23
  -1   6  -4    2.54    0.24
   1  -6   4    2.51    0.23
  -2   6  -4    1.79    0.18
   2  -6   4    1.95    0.17
  -3   6  -4    0.57    0.08
   3  -6   4    0.44    0.04
   5   5  -4    4.98    0.44
   5   5  -4    5.00    0.42
   4   5  -4    6.71    0.64
   4   5  -4    7.67    0.67
  -4  -5   4    8.74    0.67
   3   5  -4    2.31    0.24
  -3  -5   4    2.15    0.24
  -3  -5   4    2.71    0.22
   2   5  -4    3.70    0.34
  -2  -5   4    3.34    0.35
  -2  -5   4    3.96    0.33
   1   5  -4    5.46    0.48
  -1  -5   4    5.77    0.50
  -1  -5   4    5.02    0.50
  -1  -5   4    5.49    0.48
   0   5  -4    9.47    0.75
   0  -5   4    8.37    0.75
   0  -5   4    8.17    0.78
   1  -5   4    0.25    0.07
   1  -5   4    0.36    0.08
  -2   5  -4    4.77    0.39
   2  -5   4    4.24    0.38
   2  -5   4    4.17    0.38
  -3   5  -4   15.06    1.22
   3  -5   4   14.08    1.05
   3  -5   4   14.73    1.16
   3  -5   4   12.81    1.02
  -4   5  -4    1.71    0.16
   4  -5   4    1.44    0.12
   4  -5   4    1.44    0.12
   6   4  -4    0.85    0.07
   6   4  -4    0.69    0.07
   6   4  -4    0.86    0.08
   5   4  -4    0.04    0.02
   5   4  -4    0.02    0.02
   5   4  -4    0.01    0.02
   4   4  -4   35.90    2.97
   4   4  -4   33.63    3.00
   4   4  -4   39.12    3.09
   3   4  -4  321.59   25.93
   3   4  -4  290.18   24.98
   2   4  -4  102.86    8.22
  -2  -4   4   91.25    8.67
  -2  -4   4   96.23    8.26
   1   4  -4    1.44    0.15
  -1  -4   4    1.35    0.15
  -1  -4   4    1.31    0.14
   0   4  -4    6.48    0.50
   0  -4   4    4.91    0.52
  -1   4  -4    5.97    0.52
   1  -4   4    5.78    0.52
   2  -4   4   26.98    2.32
   2  -4   4   27.17    2.25
   3  -4   4   36.98    2.91
   3  -4   4   32.38    2.51
   3  -4   4   31.60    3.01
   3  -4   4   39.47    2.88
   4  -4   4    8.40    0.58
   4  -4   4    7.22    0.65
   4  -4   4    7.59    0.56
   5  -4   4   14.80    1.06
   5  -4   4   13.85    1.03
   6   3  -4    2.96    0.21
   6   3  -4    2.70    0.20
   6   3  -4    2.55    0.20
   5   3  -4    6.25    0.46
   5   3  -4    6.67    0.47
   5   3  -4    5.80    0.45
   4   3  -4    4.47    0.32
   4   3  -4    4.50    0.34
   4   3  -4    4.23    0.39
   4   3  -4    4.37    0.33
   4   3  -4    4.69    0.39
   4   3  -4    4.05    0.40
  -4  -3   4    4.68    0.40
   3   3  -4   25.06    2.14
   3   3  -4   26.02    2.14
   3   3  -4   23.34    2.06
   3   3  -4   23.49    2.08
   3   3  -4   25.15    1.83
  -3  -3   4   27.01    2.20
   2   3  -4   14.11    1.11
   2   3  -4   11.78    1.02
  -1  -3   4    0.11    0.02
  -1   3  -4    0.07    0.02
   2  -3   4   12.93    1.23
   2  -3   4   16.65    1.27
   3  -3   4    0.43    0.06
   3  -3   4    0.67    0.09
   3  -3   4    0.58    0.07
   4  -3   4  241.90   20.45
   4  -3   4  265.67   21.00
   4  -3   4  241.30   20.24
   4  -3   4  272.06   18.27
   4  -3   4  217.86   17.67
   5  -3   4   22.63    1.81
   5  -3   4   26.57    2.15
   5  -3   4   26.46    1.87
   6  -3   4    4.29    0.35
   6  -3   4    4.01    0.30
   6  -3   4    3.57    0.29
   6   2  -4    4.69    0.34
   6   2  -4    4.71    0.36
   5   2  -4    0.39    0.05
   5   2  -4    0.57    0.07
   5   2  -4    0.52    0.05
   4   2  -4    2.95    0.30
   4   2  -4    3.23    0.25
   4   2  -4    3.62    0.29
   4   2  -4    3.53    0.26
   4   2  -4    3.21    0.30
   4   2  -4    3.43    0.26
  -4  -2   4    3.58    0.31
   3   2  -4   26.35    1.82
   3   2  -4   26.49    2.07
   3   2  -4   22.72    2.13
   3   2  -4   24.29    1.78
  -3  -2   4   24.71    2.19
   2   2  -4    3.56    0.34
   2   2  -4    3.71    0.32
  -2  -2   4    4.18    0.35
  -2  -2   4    4.22    0.30
  -1  -2   4    0.88    0.09
  -1  -2   4    0.84    0.09
  -1   2  -4   19.04    1.45
   1  -2   4   14.69    1.28
   1  -2   4   14.46    1.44
  -2   2  -4   14.31    1.05
   2  -2   4   14.80    1.16
   2  -2   4   12.58    1.11
  -3   2  -4    7.87    0.59
   3  -2   4    6.70    0.66
   3  -2   4    8.42    0.64
   4  -2   4   61.63    4.18
   4  -2   4   49.50    4.84
   4  -2   4   54.96    4.81
   4  -2   4   56.17    4.68
   4  -2   4   57.02    4.63
   4  -2   4   60.49    4.05
   5  -2   4    8.07    0.61
   5  -2   4    7.47    0.54
   5  -2   4    6.05    0.62
   6  -2   4    0.47    0.10
   6  -2   4    0.59    0.06
   6  -2   4    0.63    0.06
   6  -2   4    0.40    0.09
   7  -2   4    5.43    0.39
   7  -2   4    4.89    0.37
   7  -2   4    5.18    0.45
   6   1  -4    5.44    0.37
   6   1  -4    4.70    0.37
   6   1  -4    5.16    0.38
   5   1  -4   34.71    2.39
   5   1  -4   31.37    2.34
   5   1  -4   32.15    2.42
   4   1  -4   28.95    1.98
   4   1  -4   25.58    1.91
   4   1  -4   24.43    2.21
   4   1  -4   27.51    1.95
  -4  -1   4   26.94    2.34
   3   1  -4   26.07    2.05
   3   1  -4   28.63    2.09
   3   1  -4   30.33    2.38
  -3  -1   4   29.55    2.51
   2   1  -4    0.23    0.05
  -2  -1   4    0.20    0.04
  -2  -1   4    0.19    0.03
   1   1  -4   49.64    3.88
   1   1  -4   42.18    3.68
  -1  -1   4   47.95    4.11
  -1  -1   4   48.21    3.55
   0   1  -4   10.29    0.94
   0   1  -4    9.87    0.83
   0  -1   4   11.23    0.92
  -1   1  -4  460.25   42.77
   1  -1   4  494.82   41.43
  -2   1  -4  155.92   13.99
  -2   1  -4  160.82   12.22
   2  -1   4  156.81   14.05
   2  -1   4  174.15   13.36
  -3   1  -4    1.65    0.13
   3  -1   4    1.65    0.15
   4  -1   4    1.31    0.14
   4  -1   4    1.38    0.12
   5  -1   4   18.13    1.55
   5  -1   4   17.75    1.49
   5  -1   4   18.50    1.57
   5  -1   4   18.42    1.35
   6  -1   4    0.04    0.03
   6  -1   4    0.08    0.02
   7  -1   4    7.48    0.70
   7  -1   4    8.55    0.59
   7  -1   4    8.25    0.71
   6   0  -4    2.70    0.21
   6   0  -4    2.89    0.20
   5   0  -4    4.60    0.36
   5   0  -4    5.02    0.34
   5   0  -4    4.44    0.35
   4   0  -4    4.62    0.34
   4   0  -4    4.85    0.35
   4   0  -4    4.72    0.35
  -4   0   4    4.41    0.42
   3   0  -4    0.29    0.04
   3   0  -4    0.39    0.06
  -3   0   4    0.38    0.05
   2   0  -4   31.33    2.36
   2   0  -4   30.82    2.44
  -2   0   4   30.80    2.34
   1   0  -4   -0.02    0.03
   1   0  -4   -0.02    0.03
  -1   0   4   -0.02    0.02
  -1   0   4    0.00    0.02
   0   0  -4   59.06    4.64
   0   0  -4   51.35    5.31
   0   0  -4   58.93    4.49
   0   0   4   67.58    4.47
  -1   0  -4   27.44    2.31
   1   0   4   24.13    2.25
  -2   0  -4   29.68    2.51
  -2   0  -4   27.44    2.11
  -2   0  -4   28.07    2.42
   2   0   4   27.41    2.43
   2   0   4   27.10    2.31
  -3   0  -4   53.12    3.83
   3   0   4   52.94    4.18
   3   0   4   45.88    4.40
   5   0   4    6.37    0.58
   5   0   4    6.94    0.48
   6   0   4    0.22    0.04
   6   0   4    0.27    0.05
   7   0   4    2.80    0.27
   7   0   4    3.20    0.22
   7   0   4    3.14    0.23
   7   0   4    2.75    0.28
   8   0   4   29.53    2.09
   8   0   4   28.38    2.02
   8   0   4   27.84    2.06
   8   0   4   27.49    2.43
   5  -1  -4    0.67    0.07
   5  -1  -4    0.67    0.06
   4  -1  -4    4.57    0.34
   4  -1  -4    4.68    0.38
   4  -1  -4    4.43    0.34
   4  -1  -4    4.89    0.33
  -4   1   4    4.06    0.41
   3  -1  -4   15.36    1.23
   3  -1  -4   17.05    1.22
   3  -1  -4   15.84    1.27
   3  -1  -4   18.95    1.38
   3  -1  -4   15.88    1.19
   2  -1  -4    5.90    0.46
   2  -1  -4    6.07    0.44
  -2   1   4    5.95    0.46
   1  -1  -4   16.38    1.33
  -1   1   4   18.50    1.32
   0  -1  -4  279.95   22.61
   0   1   4  322.76   22.82
   0   1   4  292.79   23.37
  -1  -1  -4    3.49    0.32
  -1  -1  -4    3.06    0.27
   1   1   4    3.94    0.32
   1   1   4    3.51    0.28
   1   1   4    3.37    0.27
  -2  -1  -4    1.89    0.19
  -2  -1  -4    2.21    0.16
   2   1   4    2.09    0.20
  -3  -1  -4   18.41    1.34
   3   1   4   17.84    1.55
   3   1   4   16.82    1.46
   4   1   4    7.31    0.68
   4   1   4    7.87    0.64
   4   1   4    7.73    0.61
   5   1   4   20.64    1.83
   5   1   4   20.16    1.88
   5   1   4   23.59    1.78
   6   1   4   17.07    1.48
   6   1   4   18.98    1.34
   6   1   4   16.09    1.56
   6   1   4   19.22    1.55
   6   1   4   19.35    1.30
   7   1   4   11.48    0.98
   7   1   4   10.15    0.94
   7   1   4   12.31    0.82
   7   1   4   10.90    0.84
   7   1   4   10.96    0.99
   7   1   4   12.24    0.84
   8   1   4    4.77    0.38
   8   1   4    4.92    0.45
   8   1   4    4.43    0.44
   8   1   4    5.65    0.37
   8   1   4    5.65    0.38
   5  -2  -4    2.76    0.23
   5  -2  -4    3.47    0.24
   4  -2  -4    0.19    0.03
   4  -2  -4    0.19    0.04
   4  -2  -4    0.18    0.04
   3  -2  -4    0.03    0.02
   3  -2  -4    0.08    0.02
   2  -2  -4   62.21    4.64
   2  -2  -4   62.80    4.83
  -2   2   4   66.00    5.00
   1  -2  -4    1.90    0.18
  -1   2   4    2.36    0.20
  -1   2   4    2.10    0.18
  -1   2   4    2.31    0.17
   0   2   4   20.48    1.49
   0   2   4   16.91    1.55
   0   2   4   21.59    1.72
  -1  -2  -4   38.57    3.05
   1   2   4   44.69    3.49
   1   2   4   38.52    3.15
   1   2   4   38.96    3.03
  -2  -2  -4   53.43    4.59
   2   2   4   51.48    4.45
   2   2   4   48.92    4.02
  -3  -2  -4   15.63    1.08
  -3  -2  -4   14.05    1.29
   3   2   4   13.22    1.25
  -4  -2  -4   28.62    2.00
   4   2   4   26.19    2.10
   4   2   4   25.93    2.30
   4   2   4   24.88    2.18
  -5  -2  -4   18.94    1.65
   5   2   4   22.34    1.91
   5   2   4   23.15    1.81
   5   2   4   22.79    1.62
   6   2   4   21.57    1.60
   6   2   4   24.93    1.90
   6   2   4   22.95    1.85
   6   2   4   20.43    1.91
   6   2   4   19.95    1.83
   6   2   4   23.94    1.65
   7   2   4   48.08    4.37
   7   2   4   50.81    3.65
   7   2   4   52.56    3.77
   7   2   4   51.72    4.34
   7   2   4   53.66    3.73
   7   2   4   49.42    4.22
   8   2   4    0.38    0.09
   8   2   4    0.59    0.09
   8   2   4    0.46    0.06
   8   2   4    0.52    0.06
   8   2   4    0.57    0.06
   4  -3  -4    1.60    0.13
   4  -3  -4    1.86    0.14
   3  -3  -4   97.70    7.07
   3  -3  -4  100.55    7.31
   2  -3  -4    0.81    0.10
   2  -3  -4    0.79    0.07
   2  -3  -4    0.75    0.09
   2  -3  -4    0.77    0.07
   2  -3  -4    0.74    0.07
   1  -3  -4    0.20    0.04
   1  -3  -4    0.19    0.05
  -1   3   4    0.23    0.04
   0  -3  -4   13.67    1.05
   0  -3  -4   13.31    0.99
   0   3   4   13.36    1.09
   0   3   4   14.79    1.05
   1   3   4    2.49    0.19
   1   3   4    2.14    0.22
   1   3   4    2.62    0.20
  -2  -3  -4   92.17    7.93
   2   3   4   86.75    7.69
   2   3   4   86.83    6.94
  -3  -3  -4    1.84    0.17
   3   3   4    1.82    0.17
  -5  -3  -4    6.40    0.49
   5   3   4    6.82    0.51
   5   3   4    5.98    0.48
   5   3   4    6.26    0.53
   6   3   4   11.37    0.77
   6   3   4    9.90    0.75
   6   3   4   11.23    0.87
   6   3   4    9.10    0.90
   6   3   4   10.10    0.77
   6   3   4    9.81    0.86
   6   3   4   11.28    0.89
   7   3   4   32.95    2.39
   7   3   4   34.08    2.84
   7   3   4   36.24    2.47
   7   3   4   32.60    2.76
   7   3   4   31.52    2.44
   7   3   4   36.82    2.73
   7   3   4   29.43    2.86
   8   3   4   16.86    1.22
   8   3   4   16.85    1.19
   8   3   4   16.25    1.42
   8   3   4   16.42    1.21
   8   3   4   16.14    1.41
   4  -4  -4    1.75    0.13
   3  -4  -4    2.13    0.17
   3  -4  -4    2.30    0.18
   3  -4  -4    2.42    0.20
   2  -4  -4   92.71    6.86
   2  -4  -4   90.93    6.62
   2  -4  -4   97.57    7.06
   2  -4  -4   90.87    6.64
   1  -4  -4  127.00   10.03
   1  -4  -4  157.93   10.66
   1  -4  -4  160.52   10.03
   1  -4  -4  119.52    9.99
   1  -4  -4  137.89   10.36
   0  -4  -4   14.42    1.06
   0   4   4   14.51    1.12
   0   4   4   15.19    1.17
  -1  -4  -4   25.75    1.91
   1   4   4   29.76    2.10
   1   4   4   24.40    2.02
  -2  -4  -4   19.67    1.67
   2   4   4   17.64    1.47
  -3  -4  -4    4.53    0.36
   3   4   4    3.30    0.35
   3   4   4    3.90    0.32
  -4  -4  -4  132.28   10.85
   4   4   4  111.69    8.95
   4   4   4  126.73    9.64
   4   4   4  113.91   10.51
   5   4   4   20.39    1.41
   5   4   4   17.55    1.57
   6   4   4    1.23    0.14
   6   4   4    0.87    0.09
   6   4   4    0.85    0.11
   6   4   4    1.09    0.11
   7   4   4    6.08    0.49
   7   4   4    5.55    0.43
   7   4   4    5.99    0.50
   7   4   4    5.69    0.44
   7   4   4    5.78    0.42
   7   4   4    5.43    0.51
   7   4   4    5.82    0.49
   8   4   4    1.40    0.12
   8   4   4    1.42    0.15
   8   4   4    1.40    0.15
   8   4   4    1.58    0.12
   9   4   4   16.17    1.17
   9   4   4   14.34    1.18
   9   4   4   17.52    1.15
   3  -5  -4    0.26    0.05
   3  -5  -4    0.24    0.04
   2  -5  -4    0.27    0.05
   1  -5  -4   23.37    1.57
   1  -5  -4   21.35    1.58
   1  -5  -4   22.66    1.63
   1  -5  -4   22.95    1.68
   1  -5  -4   19.48    1.57
   0  -5  -4    0.13    0.04
   0  -5  -4    0.18    0.04
  -1  -5  -4    0.37    0.05
  -1  -5  -4    0.46    0.06
   2   5   4   27.01    2.13
  -3  -5  -4    5.87    0.51
   3   5   4    5.44    0.46
   4   5   4    1.16    0.10
   4   5   4    0.98    0.11
  -5  -5  -4   68.93    6.50
  -5  -5  -4   72.75    6.20
   5   5   4   61.84    5.11
   5   5   4   73.05    5.51
  -6  -5  -4  172.90   15.86
   6   5   4  164.76   13.79
  -7  -5  -4    1.62    0.19
   7   5   4    1.35    0.15
   7   5   4    1.60    0.18
   7   5   4    1.64    0.13
   7   5   4    1.80    0.16
   2  -6  -4    2.73    0.24
   2  -6  -4    3.25    0.23
   0  -6  -4    0.18    0.04
   0  -6  -4    0.12    0.05
   0  -6  -4    0.19    0.03
  -1  -6  -4    5.42    0.38
  -1  -6  -4    4.52    0.36
  -1  -6  -4    5.39    0.49
  -1  -6  -4    4.49    0.37
  -2  -6  -4    4.86    0.48
  -3  -6  -4    4.51    0.44
  -4  -6  -4    0.53    0.08
  -4  -6  -4    0.38    0.11
  -5  -6  -4    5.29    0.45
  -5  -6  -4    4.80    0.49
   5   6   4    4.64    0.41
  -6  -6  -4  122.52   10.01
  -6  -6  -4  102.57   10.50
   6   6   4  120.21    8.89
   6   6   4  101.63    9.13
  -7  -6  -4    8.49    0.95
   7   6   4   11.40    0.83
   8   6   4    0.13    0.03
   1  -7  -4    0.07    0.04
   0  -7  -4    1.42    0.15
   0  -7  -4    1.18    0.12
   0  -7  -4    1.25    0.10
   0  -7  -4    1.16    0.11
  -1  -7  -4    0.18    0.05
  -1  -7  -4    0.08    0.05
  -2  -7  -4    0.36    0.10
  -3  -7  -4   45.74    4.31
  -4  -7  -4   14.21    1.35
  -5  -7  -4   19.29    1.57
  -5  -7  -4   16.32    1.65
   5   7   4   16.62    1.40
  -6  -7  -4    0.02    0.04
  -6  -7  -4   -0.01    0.02
  -6  -7  -4    0.05    0.05
   6   7   4   -0.04    0.03
  -7  -7  -4    0.73    0.09
  -7  -7  -4    0.82    0.11
  -8  -7  -4    0.57    0.07
   8   7   4    0.75    0.09
   0  -8  -4    0.94    0.09
   0  -8  -4    0.93    0.11
   0  -8  -4    0.83    0.08
  -1  -8  -4    5.72    0.54
  -1  -8  -4    5.65    0.46
  -1  -8  -4    5.36    0.41
  -2  -8  -4    8.31    0.71
  -2  -8  -4    8.77    0.82
  -3  -8  -4    4.15    0.42
  -3  -8  -4    5.67    0.48
  -4  -8  -4    9.31    0.85
   4   8   4    8.36    0.72
  -6  -8  -4    6.57    0.72
   6   8   4    8.43    0.60
  -7  -8  -4    0.85    0.10
  -7  -8  -4    1.16    0.11
  -2  -9  -4   23.41    2.22
  -2  -9  -4   23.68    1.93
  -3  -9  -4    1.77    0.19
  -3  -9  -4    1.65    0.16
  -4  -9  -4    0.02    0.03
  -4  -9  -4    0.04    0.04
  -5  -9  -4   10.92    1.04
   3   6  -5    0.12    0.03
   3   6  -5    0.14    0.04
  -3  -6   5    0.17    0.05
   2   6  -5    7.37    0.72
  -2  -6   5    9.21    0.72
   1   6  -5    3.49    0.32
  -1  -6   5    3.66    0.32
   0   6  -5    4.85    0.39
   0  -6   5    3.89    0.38
  -1   6  -5    0.79    0.10
   1  -6   5    0.83    0.09
  -2   6  -5    5.60    0.53
   2  -6   5    6.69    0.51
   4   5  -5    3.69    0.35
  -4  -5   5    4.51    0.36
   3   5  -5    4.02    0.35
   3   5  -5    3.89    0.34
   2   5  -5    4.53    0.42
  -2  -5   5    5.33    0.42
  -2  -5   5    4.35    0.44
   1   5  -5    0.34    0.09
  -1  -5   5    0.31    0.07
   0   5  -5   84.87    6.85
   0  -5   5   76.53    6.89
  -1   5  -5    8.07    0.66
   1  -5   5    7.55    0.63
   1  -5   5    6.95    0.65
  -2   5  -5    5.59    0.45
   2  -5   5    4.42    0.44
   2  -5   5    5.16    0.43
  -3   5  -5    3.72    0.35
   3  -5   5    4.02    0.32
  -4   5  -5    2.25    0.19
   4  -5   5    2.12    0.16
   4  -5   5    1.89    0.15
   4   4  -5    1.72    0.18
  -4  -4   5    2.02    0.18
   3   4  -5   14.74    1.36
   3   4  -5   15.06    1.31
  -3  -4   5   17.86    1.37
   2   4  -5    4.13    0.37
  -2  -4   5    4.49    0.36
  -2  -4   5    3.56    0.38
   1   4  -5   -0.01    0.03
  -1  -4   5   -0.01    0.02
  -1  -4   5   -0.02    0.03
   0   4  -5   -0.02    0.03
   0  -4   5   -0.03    0.03
  -1   4  -5   10.62    0.86
   1  -4   5    9.38    0.87
  -2   4  -5   38.73    2.89
   2  -4   5   32.39    2.78
   2  -4   5   30.69    2.91
   3  -4   5    9.33    0.83
   3  -4   5   10.37    0.82
   4  -4   5    3.55    0.27
   4  -4   5    3.40    0.33
   4  -4   5    3.96    0.28
   5  -4   5    1.70    0.13
   5  -4   5    1.74    0.13
   5   3  -5    0.36    0.04
   5   3  -5    0.34    0.05
   5   3  -5    0.36    0.04
  -5  -3   5    0.30    0.06
   4   3  -5    3.28    0.24
   4   3  -5    3.25    0.25
   4   3  -5    3.17    0.27
   3   3  -5   37.21    3.10
   3   3  -5   34.96    3.13
  -3  -3   5   41.27    3.23
   1   3  -5   37.41    3.33
  -1  -3   5   40.98    3.52
   0   3  -5    0.14    0.04
   0  -3   5    0.20    0.03
   0  -3   5    0.17    0.04
  -1   3  -5   19.47    1.92
  -1   3  -5   23.09    1.83
   1  -3   5   21.61    1.84
   2  -3   5    8.45    0.74
   3  -3   5    1.32    0.13
   3  -3   5    0.97    0.15
   3  -3   5    1.01    0.11
   4  -3   5   38.35    2.86
   4  -3   5   42.10    3.18
   4  -3   5   41.45    3.21
   4  -3   5   35.72    2.77
   4  -3   5   36.31    3.32
   5  -3   5    4.86    0.36
   5  -3   5    4.27    0.44
   5  -3   5    5.70    0.43
   5  -3   5    4.97    0.37
   6  -3   5    3.20    0.24
   6  -3   5    3.35    0.25
   5   2  -5    0.45    0.05
   5   2  -5    0.53    0.05
   5   2  -5    0.39    0.06
   4   2  -5    0.70    0.08
   4   2  -5    0.75    0.07
   4   2  -5    0.82    0.07
   4   2  -5    0.64    0.08
   3   2  -5    0.44    0.07
   3   2  -5    0.38    0.06
  -3  -2   5    0.51    0.06
   2   2  -5   56.70    4.84
  -2  -2   5   61.65    5.05
   0  -2   5   19.49    1.97
   0  -2   5   24.42    1.92
  -1   2  -5    6.04    0.52
   1  -2   5    5.71    0.47
   1  -2   5    5.36    0.52
  -2   2  -5    6.84    0.61
   2  -2   5    6.62    0.55
   3  -2   5    0.83    0.11
   3  -2   5    0.71    0.13
   3  -2   5    1.04    0.09
   4  -2   5  105.82    8.07
   4  -2   5  115.69    9.24
   4  -2   5   98.53    9.65
   4  -2   5  118.21    8.34
   4  -2   5  115.22    9.59
   4  -2   5  124.96    9.34
   5  -2   5   62.21    5.78
   5  -2   5   71.95    5.74
   5  -2   5   76.83    4.99
   5  -2   5   60.44    5.59
   5  -2   5   66.63    4.83
   6  -2   5    0.64    0.12
   6  -2   5    0.83    0.07
   6  -2   5    0.86    0.07
   5   1  -5    0.17    0.03
   4   1  -5    0.67    0.06
   4   1  -5    0.63    0.07
   4   1  -5    0.52    0.07
   4   1  -5    0.55    0.06
   3   1  -5    1.05    0.11
   3   1  -5    1.12    0.12
   3   1  -5    1.02    0.10
   3   1  -5    1.15    0.09
   2   1  -5   44.62    3.33
   2   1  -5   47.18    3.86
   2   1  -5   45.19    3.40
  -2  -1   5   49.35    4.08
   0  -1   5   34.88    3.04
  -1   1  -5    2.90    0.32
   1  -1   5    3.97    0.32
  -2   1  -5   24.45    2.08
   2  -1   5   23.73    2.02
   2  -1   5   21.25    1.85
   3  -1   5   20.44    1.86
   3  -1   5   23.97    1.76
   3  -1   5   19.21    1.69
   4  -1   5    6.19    0.52
   4  -1   5    5.96    0.55
   4  -1   5    6.45    0.54
   5  -1   5   22.52    1.86
   5  -1   5   21.50    1.96
   5  -1   5   22.41    1.94
   5  -1   5   23.04    1.68
   5  -1   5   24.00    1.63
   6  -1   5  187.45   12.64
   6  -1   5  167.84   14.63
   6  -1   5  156.66   14.54
   6  -1   5  173.91   12.23
   7  -1   5   12.00    1.03
   7  -1   5   12.54    0.85
   7  -1   5   10.99    1.01
   5   0  -5    2.59    0.20
   4   0  -5   11.65    0.82
   4   0  -5   11.40    0.84
   4   0  -5   11.18    0.85
   3   0  -5    0.56    0.07
   3   0  -5    0.56    0.07
  -3   0   5    0.69    0.07
   2   0  -5    0.46    0.06
   2   0  -5    0.42    0.05
   2   0  -5    0.31    0.05
  -2   0   5    0.40    0.06
   1   0  -5    0.34    0.06
   1   0  -5    0.37    0.05
   0   0  -5    3.33    0.29
   0   0   5    3.05    0.31
   0   0   5    3.86    0.31
  -1   0  -5    0.05    0.01
   1   0   5    0.10    0.04
  -2   0  -5    0.41    0.06
   2   0   5    0.36    0.06
   3   0   5  110.39    8.12
   3   0   5   93.75    8.86
  -4   0  -5   12.09    0.92
   4   0   5   11.91    1.07
   4   0   5   12.26    1.04
   5   0   5    1.66    0.20
   5   0   5    2.11    0.18
   5   0   5    1.68    0.18
   5   0   5    2.06    0.15
   5   0   5    1.91    0.15
   6   0   5    9.61    0.88
   6   0   5   11.27    0.73
   6   0   5    9.75    0.86
   6   0   5    9.47    0.75
   7   0   5    9.78    0.66
   7   0   5    8.24    0.79
   7   0   5    9.27    0.68
   7   0   5    9.24    0.80
   8   0   5    3.43    0.25
   8   0   5    3.24    0.25
   8   0   5    3.49    0.25
   5  -1  -5    2.83    0.22
   5  -1  -5    2.92    0.21
   4  -1  -5   10.12    0.69
   4  -1  -5    9.48    0.71
   4  -1  -5    9.09    0.70
   3  -1  -5   28.82    2.07
   3  -1  -5   25.19    2.13
   3  -1  -5   28.71    2.32
   3  -1  -5   30.83    2.00
   3  -1  -5   30.15    2.05
  -3   1   5   24.27    2.46
   2  -1  -5    0.81    0.08
   2  -1  -5    0.72    0.08
   2  -1  -5    0.77    0.08
   2  -1  -5    0.87    0.09
   2  -1  -5    0.84    0.08
  -2   1   5    0.76    0.09
   1  -1  -5    1.96    0.17
   1  -1  -5    1.87    0.17
  -1   1   5    2.52    0.18
   0   1   5    0.17    0.04
   0   1   5    0.29    0.05
  -1  -1  -5    2.49    0.26
   1   1   5    3.20    0.26
  -2  -1  -5    5.05    0.44
   2   1   5    4.67    0.44
  -3  -1  -5  145.23   12.12
   3   1   5  128.54   10.76
   3   1   5  132.17   11.74
  -4  -1  -5   24.84    1.80
   4   1   5   25.78    1.90
   4   1   5   24.44    1.97
   4   1   5   20.21    2.08
   5   1   5    4.53    0.41
   6   1   5    1.99    0.22
   6   1   5    1.99    0.19
   6   1   5    2.01    0.16
   6   1   5    2.16    0.16
   6   1   5    2.28    0.20
   7   1   5    8.08    0.65
   7   1   5    8.70    0.76
   7   1   5    9.84    0.63
   7   1   5    8.08    0.75
   8   1   5    2.71    0.25
   8   1   5    2.82    0.19
   8   1   5    2.19    0.23
   8   1   5    2.80    0.20
   8   1   5    2.35    0.20
   4  -2  -5    0.92    0.08
   4  -2  -5    0.90    0.08
   3  -2  -5   20.76    1.67
   3  -2  -5   20.22    1.49
   3  -2  -5   19.52    1.47
   3  -2  -5   21.17    1.44
  -3   2   5   19.01    1.77
   2  -2  -5    0.82    0.07
   2  -2  -5    0.75    0.08
   2  -2  -5    0.69    0.08
   2  -2  -5    0.79    0.11
   1  -2  -5    2.84    0.21
   1  -2  -5    2.80    0.22
   1  -2  -5    2.66    0.22
   0  -2  -5   30.99    2.45
   0   2   5   33.34    2.81
   0   2   5   34.55    2.54
   0   2   5   30.08    2.44
   1   2   5   40.03    2.95
   1   2   5   33.23    3.42
   1   2   5   43.91    3.07
  -2  -2  -5   69.41    5.93
   2   2   5   63.01    5.75
  -3  -2  -5  196.79   16.46
   3   2   5  182.16   15.93
   3   2   5  172.02   14.60
   4   2   5   58.97    5.51
   4   2   5   61.96    4.69
   4   2   5   69.23    5.04
   5   2   5    9.47    0.69
   5   2   5    9.10    0.76
   5   2   5    8.64    0.78
   6   2   5    7.67    0.60
   6   2   5    7.30    0.52
   6   2   5    6.82    0.59
   6   2   5    6.96    0.53
   6   2   5    6.33    0.62
   6   2   5    7.48    0.62
   7   2   5    1.29    0.16
   7   2   5    1.26    0.12
   7   2   5    1.40    0.11
   7   2   5    1.21    0.14
   7   2   5    1.43    0.11
   7   2   5    1.25    0.12
   8   2   5    0.01    0.01
   8   2   5   -0.01    0.02
   8   2   5   -0.02    0.03
   8   2   5    0.03    0.04
   8   2   5   -0.02    0.03
   4  -3  -5   10.62    0.77
   4  -3  -5   10.16    0.75
   3  -3  -5    2.06    0.16
   3  -3  -5    2.03    0.16
   2  -3  -5   10.79    0.84
   2  -3  -5   11.38    0.81
   2  -3  -5   10.46    0.80
   2  -3  -5   11.12    0.79
   2  -3  -5   10.70    0.80
   1  -3  -5    3.91    0.28
   1  -3  -5    3.65    0.28
   1  -3  -5    3.40    0.29
   1  -3  -5    3.58    0.28
   0   3   5    0.12    0.04
  -1  -3  -5  105.91    7.99
   1   3   5  107.42    7.96
   1   3   5   96.92    9.15
   1   3   5  108.93    8.26
   1   3   5  107.92    7.79
   2   3   5  173.85   14.49
   2   3   5  160.21   12.34
  -3  -3  -5    0.23    0.05
   3   3   5    0.17    0.04
   3   3   5    0.14    0.04
   3   3   5    0.22    0.06
  -4  -3  -5    0.61    0.07
   4   3   5    0.45    0.08
   4   3   5    0.43    0.07
   5   3   5   26.04    1.82
   5   3   5   20.04    1.89
   5   3   5   22.28    1.70
   6   3   5    4.36    0.32
   6   3   5    4.50    0.39
   6   3   5    4.10    0.39
   6   3   5    4.72    0.37
   6   3   5    4.36    0.33
   6   3   5    3.94    0.39
   6   3   5    4.79    0.33
   7   3   5    0.18    0.04
   7   3   5    0.13    0.04
   7   3   5    0.23    0.04
   8   3   5    8.20    0.56
   8   3   5    7.63    0.67
   8   3   5    7.03    0.67
   8   3   5    8.17    0.57
   8   3   5    7.50    0.58
   3  -4  -5    0.24    0.04
   3  -4  -5    0.25    0.04
   2  -4  -5    7.08    0.53
   2  -4  -5    6.90    0.52
   2  -4  -5    7.45    0.53
   1  -4  -5   65.43    5.38
   1  -4  -5   80.85    5.23
   1  -4  -5   62.72    5.79
   1  -4  -5   72.55    5.05
   1  -4  -5   72.84    5.06
   0  -4  -5    0.06    0.03
   0  -4  -5    0.06    0.02
   0  -4  -5    0.12    0.03
   0  -4  -5    0.10    0.04
  -1  -4  -5    0.19    0.04
   2   4   5   20.18    1.52
   2   4   5   18.16    1.43
  -3  -4  -5    2.14    0.20
  -4  -4  -5   21.19    1.75
   4   4   5   17.95    1.45
   4   4   5   19.29    1.56
  -5  -4  -5    0.48    0.08
   5   4   5    0.35    0.09
   6   4   5    0.01    0.04
   7   4   5    1.21    0.13
   7   4   5    1.27    0.13
   7   4   5    1.22    0.12
   7   4   5    1.16    0.14
   7   4   5    1.23    0.11
   7   4   5    1.02    0.10
   8   4   5   10.94    0.89
   8   4   5   10.83    0.75
   8   4   5   10.35    0.90
   8   4   5    9.99    0.77
   8   4   5    9.93    0.77
   3  -5  -5    1.92    0.15
   3  -5  -5    1.76    0.14
   2  -5  -5   19.63    1.37
   2  -5  -5   19.67    1.41
   2  -5  -5   17.72    1.36
   1  -5  -5  118.56    8.78
   1  -5  -5  112.66    8.81
   1  -5  -5  139.25    9.11
   0  -5  -5    0.76    0.08
   0  -5  -5    0.92    0.08
   0  -5  -5    0.82    0.10
   0  -5  -5    0.86    0.12
  -1  -5  -5    1.61    0.15
  -1  -5  -5    1.56    0.19
  -1  -5  -5    1.69    0.13
  -2  -5  -5   38.86    2.65
   2   5   5   35.30    2.75
  -4  -5  -5    7.65    0.61
  -4  -5  -5    7.21    0.65
   4   5   5    6.04    0.54
   4   5   5    5.81    0.51
  -5  -5  -5   22.95    2.13
  -5  -5  -5   23.76    2.02
   5   5   5   23.57    1.80
   5   5   5   19.58    1.67
  -6  -5  -5   18.57    1.78
   6   5   5   18.93    1.40
  -7  -5  -5    4.49    0.44
   7   5   5    4.33    0.38
  -8  -5  -5    0.81    0.13
   8   5   5    1.10    0.09
   2  -6  -5    8.31    0.62
   2  -6  -5    8.69    0.63
   1  -6  -5   27.03    2.00
   1  -6  -5   27.03    1.94
   0  -6  -5   77.30    5.19
   0  -6  -5   64.05    5.20
   0  -6  -5   81.03    5.37
   0  -6  -5   68.80    5.95
  -1  -6  -5   75.31    5.09
  -1  -6  -5   75.77    5.11
  -1  -6  -5   63.39    5.85
  -2  -6  -5    0.88    0.10
  -2  -6  -5    1.00    0.13
  -2  -6  -5    0.75    0.12
  -3  -6  -5    3.24    0.33
  -4  -6  -5    9.53    0.78
  -4  -6  -5    9.00    0.83
   4   6   5    7.34    0.65
  -5  -6  -5   14.50    1.20
  -5  -6  -5   13.12    1.27
   5   6   5   12.22    1.07
  -6  -6  -5  140.18   12.05
  -6  -6  -5  122.69   12.64
   6   6   5  140.69   10.70
  -7  -6  -5    4.79    0.48
   7   6   5    4.97    0.43
  -8  -6  -5    2.25    0.24
   1  -7  -5    0.23    0.03
   0  -7  -5    1.24    0.12
   0  -7  -5    1.07    0.10
  -1  -7  -5   21.21    1.52
  -1  -7  -5   22.01    2.00
  -1  -7  -5   20.03    1.73
  -1  -7  -5   21.26    1.52
  -2  -7  -5    2.23    0.19
  -2  -7  -5    2.01    0.24
  -2  -7  -5    2.62    0.24
  -3  -7  -5   24.01    2.27
  -4  -7  -5    1.50    0.19
  -5  -7  -5    9.07    0.80
   5   7   5    7.40    0.67
  -6  -7  -5    5.10    0.56
   6   7   5    6.48    0.47
  -7  -7  -5   10.88    1.13
   7   7   5   12.84    0.98
  -8  -7  -5   29.44    2.63
  -1  -8  -5    1.37    0.11
  -1  -8  -5    1.24    0.15
  -2  -8  -5    4.77    0.42
  -2  -8  -5    4.29    0.37
  -2  -8  -5    3.95    0.32
  -3  -8  -5   23.28    2.16
  -3  -8  -5   22.48    1.88
  -4  -8  -5    4.08    0.41
  -5  -8  -5    3.39    0.30
   5   8   5    2.50    0.25
  -6  -8  -5    6.10    0.60
   6   8   5    6.42    0.50
  -7  -8  -5    2.51    0.25
  -4  -9  -5    1.70    0.17
  -4  -9  -5    1.46    0.15
   0   6  -6    0.09    0.03
   0  -6   6    0.11    0.02
   3   5  -6    6.10    0.48
  -3  -5   6    5.42    0.50
   2   5  -6    0.01    0.03
   2   5  -6    0.03    0.02
  -2  -5   6    0.04    0.02
   1   5  -6    0.01    0.03
  -1  -5   6    0.05    0.02
   0  -5   6    0.12    0.03
  -1   5  -6    1.53    0.15
   1  -5   6    1.26    0.15
   1  -5   6    1.69    0.15
  -2   5  -6    6.78    0.58
   2  -5   6    6.27    0.58
   2  -5   6    7.03    0.56
  -3   5  -6    1.01    0.10
   3  -5   6    0.86    0.08
  -4  -4   6    0.32    0.05
   3   4  -6    5.68    0.52
  -3  -4   6    6.84    0.54
   2   4  -6    1.89    0.22
  -2  -4   6    2.52    0.21
   0   4  -6    4.55    0.41
   0  -4   6    4.76    0.41
  -1   4  -6    0.66    0.09
   1  -4   6    0.45    0.09
  -2   4  -6   29.74    2.36
   2  -4   6   25.16    2.37
   2  -4   6   28.03    2.27
  -3   4  -6    4.16    0.35
   3  -4   6    3.52    0.36
   3  -4   6    4.26    0.34
  -4   4  -6    2.58    0.21
   4  -4   6    1.84    0.21
   4   3  -6    0.79    0.07
  -4  -3   6    0.95    0.09
   3   3  -6    3.76    0.34
  -3  -3   6    4.03    0.34
   2   3  -6    2.33    0.26
  -2  -3   6    2.90    0.24
  -2  -3   6    2.46    0.25
  -1  -3   6    0.15    0.03
   0   3  -6   23.55    2.08
   0  -3   6   27.43    2.09
   0  -3   6   22.95    2.19
   0  -3   6   23.50    1.95
  -1   3  -6    4.45    0.40
   1  -3   6    4.54    0.40
  -2   3  -6   13.64    1.12
   2  -3   6   12.34    1.12
   3  -3   6    0.94    0.13
   5  -3   6   12.69    0.93
   5  -3   6   12.83    0.90
   5  -3   6   12.27    1.09
   4   2  -6    2.36    0.19
   4   2  -6    2.21    0.18
   4   2  -6    2.56    0.18
   3   2  -6    2.81    0.25
   3   2  -6    2.65    0.21
   3   2  -6    2.66    0.21
  -3  -2   6    2.98    0.25
   2   2  -6    2.21    0.22
  -2  -2   6    2.53    0.22
  -1  -2   6  232.36   18.11
  -1  -2   6  192.43   19.02
   0  -2   6   36.93    2.94
   0  -2   6   31.77    3.08
  -1   2  -6    0.58    0.08
   1  -2   6    0.34    0.08
   1  -2   6    0.43    0.09
   1  -2   6    0.53    0.07
  -2   2  -6    0.04    0.02
   2  -2   6    0.02    0.04
  -3   2  -6   -0.02    0.02
   3  -2   6   -0.01    0.03
   3  -2   6    0.02    0.04
   3  -2   6   -0.04    0.03
   4  -2   6   14.37    1.19
   4  -2   6   12.92    1.21
   4  -2   6   14.46    1.16
   6  -2   6    1.28    0.10
   6  -2   6    1.38    0.12
   6  -2   6    1.14    0.10
   6  -2   6    1.09    0.14
   4   1  -6   23.02    1.68
   4   1  -6   23.55    1.64
   4   1  -6   22.32    1.70
   3   1  -6    2.33    0.19
   3   1  -6    2.40    0.20
   3   1  -6    2.74    0.19
   3   1  -6    2.50    0.22
   2   1  -6    0.82    0.07
   2   1  -6    0.56    0.08
   2   1  -6    0.75    0.08
   2   1  -6    0.57    0.11
   1   1  -6   51.30    4.41
  -1  -1   6   56.39    4.60
   0   1  -6    9.13    0.76
   0  -1   6   12.06    0.92
  -1   1  -6   20.92    1.49
  -1   1  -6   20.65    1.87
  -2   1  -6    2.08    0.20
   2  -1   6    2.10    0.18
   2  -1   6    2.00    0.20
  -3   1  -6    8.36    0.76
   3  -1   6    8.27    0.74
   3  -1   6    8.54    0.68
   4  -1   6    2.27    0.26
   4  -1   6    3.08    0.25
   5  -1   6    0.29    0.04
   5  -1   6    0.51    0.11
   5  -1   6    0.40    0.08
   5  -1   6    0.33    0.05
   6  -1   6  141.56   10.68
   6  -1   6  142.46   12.78
   6  -1   6  163.97   11.04
   6  -1   6  150.83   12.69
   7  -1   6   36.73    2.64
   7  -1   6   33.98    3.06
   7  -1   6   33.34    2.56
   7  -1   6   38.98    3.04
   4   0  -6   19.97    1.51
   4   0  -6   19.44    1.49
   4   0  -6   21.65    1.46
   3   0  -6    0.25    0.05
   3   0  -6    0.31    0.05
   3   0  -6    0.31    0.05
   2   0  -6    0.21    0.05
   2   0  -6    0.26    0.05
   2   0  -6    0.22    0.05
   1   0  -6    6.01    0.47
   1   0  -6    5.02    0.48
   0   0  -6    0.60    0.09
  -1   0  -6   10.51    0.80
   1   0   6   11.61    0.83
  -2   0  -6    2.01    0.19
  -2   0  -6    1.98    0.16
   2   0   6    1.82    0.16
   2   0   6    1.86    0.17
   3   0   6   -0.01    0.03
   4   0   6   48.67    4.31
   4   0   6   51.28    4.13
   4   0   6   51.97    4.01
   4   0   6   49.51    4.28
   5   0   6    8.18    0.57
   5   0   6    8.43    0.70
   5   0   6    7.07    0.66
   5   0   6    7.08    0.59
   5   0   6    8.77    0.67
   6   0   6   27.80    1.93
   6   0   6   26.38    2.31
   6   0   6   24.90    2.29
   6   0   6   28.08    1.99
   6   0   6   27.21    2.20
   7   0   6    4.24    0.39
   7   0   6    4.78    0.34
   7   0   6    4.42    0.33
   7   0   6    4.40    0.41
   4  -1  -6    1.90    0.14
   4  -1  -6    1.91    0.14
   4  -1  -6    1.68    0.14
   3  -1  -6    8.14    0.58
   3  -1  -6    7.71    0.59
   3  -1  -6    8.16    0.60
   2  -1  -6   28.50    2.24
   2  -1  -6   32.71    2.20
   2  -1  -6   29.57    2.27
   2  -1  -6   31.34    2.54
   2  -1  -6   28.94    2.51
  -2   1   6   33.03    2.69
   1  -1  -6    7.75    0.57
   1  -1  -6    7.77    0.65
   1  -1  -6    8.00    0.58
   1  -1  -6    7.81    0.58
  -1   1   6    7.67    0.69
   0  -1  -6    4.73    0.36
  -1  -1  -6    0.62    0.09
   1   1   6    0.81    0.09
  -2  -1  -6    0.03    0.01
   2   1   6    0.03    0.03
  -3  -1  -6   42.09    3.15
  -3  -1  -6   50.19    3.96
   3   1   6   42.38    3.28
   3   1   6   42.11    3.52
  -4  -1  -6    2.71    0.25
   4   1   6    2.35    0.22
   4   1   6    2.76    0.22
  -5  -1  -6   19.45    1.22
   5   1   6   16.52    1.41
   5   1   6   15.91    1.47
   5   1   6   16.23    1.45
   6   1   6   19.03    1.58
   6   1   6   16.11    1.35
   6   1   6   18.46    1.31
   6   1   6   17.47    1.56
   6   1   6   19.87    1.52
   6   1   6   18.74    1.51
   7   1   6    1.37    0.15
   7   1   6    1.45    0.17
   7   1   6    1.64    0.12
   8   1   6   39.46    3.59
   8   1   6   42.99    3.06
   8   1   6   44.17    3.00
   8   1   6   41.23    3.10
   4  -2  -6    0.57    0.05
   3  -2  -6    0.66    0.06
   3  -2  -6    0.60    0.06
   3  -2  -6    0.57    0.06
   2  -2  -6    0.22    0.05
   2  -2  -6    0.18    0.03
   2  -2  -6    0.19    0.04
  -2   2   6    0.26    0.05
   1  -2  -6    1.06    0.09
   1  -2  -6    0.86    0.15
   1  -2  -6    0.98    0.09
   1  -2  -6    0.85    0.08
   1  -2  -6    0.80    0.11
   0  -2  -6   58.39    4.50
   0  -2  -6   60.36    4.23
  -1  -2  -6   10.81    0.81
   1   2   6   11.69    0.85
  -2  -2  -6    2.99    0.28
   2   2   6    3.02    0.24
  -3  -2  -6    0.67    0.09
  -3  -2  -6    0.86    0.09
   3   2   6    0.68    0.08
   3   2   6    0.78    0.10
  -4  -2  -6    0.11    0.02
  -4  -2  -6    0.18    0.04
   4   2   6    0.14    0.05
   5   2   6   47.80    4.55
   5   2   6   60.25    3.95
   5   2   6   51.76    4.36
   6   2   6    1.63    0.15
   6   2   6    1.57    0.15
   6   2   6    1.16    0.16
   6   2   6    1.54    0.14
   7   2   6    0.90    0.11
   7   2   6    0.95    0.09
   7   2   6    1.02    0.11
   7   2   6    1.04    0.13
   7   2   6    1.23    0.10
   8   2   6    2.52    0.21
   8   2   6    2.90    0.22
   8   2   6    2.90    0.26
   8   2   6    2.86    0.21
   3  -3  -6    4.86    0.37
   3  -3  -6    4.89    0.36
   2  -3  -6    8.26    0.61
   2  -3  -6    8.22    0.60
   2  -3  -6    8.41    0.59
   2  -3  -6    7.21    0.61
  -2   3   6    8.87    0.62
   1  -3  -6    2.21    0.20
   1  -3  -6    2.54    0.19
   1  -3  -6    2.25    0.18
   1  -3  -6    2.40    0.19
  -1   3   6    2.36    0.22
   0  -3  -6    0.14    0.05
   0  -3  -6    0.17    0.04
  -1  -3  -6    6.94    0.52
   1   3   6    7.19    0.54
  -2  -3  -6   93.09    6.49
   2   3   6   89.41    6.75
  -3  -3  -6   30.98    2.45
  -3  -3  -6   25.96    1.95
   3   3   6   24.82    2.03
  -4  -3  -6   23.59    1.96
  -4  -3  -6   22.53    1.56
   4   3   6   20.21    1.62
   4   3   6   20.70    1.74
   6   3   6    0.00    0.05
   6   3   6    0.04    0.04
   7   3   6    4.00    0.37
   7   3   6    4.43    0.32
   7   3   6    4.09    0.31
   7   3   6    3.99    0.36
   8   3   6    4.22    0.35
   8   3   6    4.10    0.40
   8   3   6    4.80    0.41
   8   3   6    5.18    0.34
   8   3   6    4.79    0.35
   3  -4  -6   11.70    0.84
   2  -4  -6    0.73    0.10
   2  -4  -6    0.85    0.07
   2  -4  -6    0.82    0.08
   1  -4  -6    0.84    0.08
   1  -4  -6    0.89    0.09
   0  -4  -6   25.46    2.15
   0  -4  -6   29.92    1.88
   0  -4  -6   27.96    2.00
   0  -4  -6   22.87    1.92
   0  -4  -6   25.74    1.88
   0   4   6   25.55    1.95
  -1  -4  -6    1.84    0.16
  -1  -4  -6    1.64    0.18
   1   4   6    1.72    0.16
  -2  -4  -6    4.95    0.40
   2   4   6    5.76    0.42
  -3  -4  -6    1.40    0.15
  -3  -4  -6    1.75    0.14
  -4  -4  -6    1.06    0.12
  -5  -4  -6   21.44    1.84
   5   4   6   21.18    1.64
   5   4   6   18.76    1.53
  -6  -4  -6    2.08    0.20
   6   4   6    1.92    0.19
   7   4   6    1.36    0.15
   2  -5  -6    4.28    0.31
   2  -5  -6    3.99    0.30
   2  -5  -6    4.12    0.31
   1  -5  -6    1.73    0.16
   1  -5  -6    1.91    0.14
   1  -5  -6    1.63    0.14
   0  -5  -6    5.47    0.40
   0  -5  -6    4.90    0.45
   0  -5  -6    5.65    0.40
  -1  -5  -6   14.27    0.96
  -1  -5  -6   12.11    1.10
  -2  -5  -6    3.28    0.32
  -2  -5  -6    4.09    0.28
   2   5   6    3.41    0.29
  -3  -5  -6   27.93    2.47
  -3  -5  -6   26.52    1.87
   3   5   6   23.95    1.94
  -4  -5  -6  105.89    9.33
   4   5   6   91.69    7.34
   4   5   6  100.18    7.90
  -5  -5  -6    0.34    0.07
   5   5   6    0.28    0.07
  -6  -5  -6    0.44    0.10
   6   5   6    0.30    0.06
  -7  -5  -6    5.37    0.48
   7   5   6    4.33    0.43
  -8  -5  -6    1.16    0.16
   8   5   6    1.52    0.13
   1  -6  -6    2.04    0.16
   1  -6  -6    1.96    0.16
   0  -6  -6   48.07    3.70
   0  -6  -6   55.66    3.83
  -1  -6  -6  139.26   12.16
  -1  -6  -6  158.34   10.58
  -2  -6  -6    0.10    0.04
  -3  -6  -6    0.37    0.09
   3   6   6    0.36    0.08
  -4  -6  -6    6.25    0.58
   4   6   6    5.77    0.48
   4   6   6    5.66    0.46
   5   6   6    0.24    0.06
  -6  -6  -6   14.24    1.38
  -6  -6  -6   15.26    1.31
   6   6   6   13.47    1.09
   6   6   6   15.29    1.17
  -7  -6  -6   16.05    1.50
   7   6   6   15.66    1.31
  -8  -6  -6    0.11    0.04
  -1  -7  -6   13.45    0.97
  -2  -7  -6    7.26    0.59
  -2  -7  -6    6.55    0.51
  -4  -7  -6    0.58    0.11
  -5  -7  -6    6.37    0.57
   5   7   6    5.42    0.48
  -6  -7  -6    2.64    0.27
   6   7   6    2.65    0.22
  -7  -7  -6    3.22    0.36
   7   7   6    4.15    0.33
  -2  -8  -6   18.89    1.55
  -3  -8  -6   27.35    2.49
  -3  -8  -6   25.38    2.16
  -4  -8  -6    0.62    0.10
  -5  -8  -6    4.66    0.43
   5   8   6    4.10    0.36
  -6  -8  -6    0.10    0.04
   2   4  -7    5.99    0.50
  -2  -4   7    6.02    0.52
  -1  -4   7   12.54    1.08
   0  -4   7    5.59    0.49
  -1   4  -7    0.42    0.07
   1  -4   7    0.57    0.08
  -2   4  -7    0.07    0.03
   2  -4   7    0.07    0.03
  -3   4  -7    3.58    0.29
  -3   4  -7    3.99    0.34
   3  -4   7    4.35    0.33
   3  -4   7    3.64    0.34
  -3  -3   7   40.48    3.46
   2   3  -7    5.94    0.51
  -2  -3   7    6.10    0.52
   1   3  -7    9.32    0.81
  -1  -3   7    9.92    0.83
   0  -3   7    0.01    0.02
   1  -3   7    2.95    0.27
  -2   3  -7   59.27    4.19
  -2   3  -7   58.35    4.99
   2  -3   7   58.80    5.02
  -3   3  -7   19.15    1.60
   3  -3   7   17.84    1.61
   3  -3   7   19.36    1.54
  -4   3  -7   10.18    0.85
   4  -3   7   10.42    0.82
   4  -3   7    9.27    0.86
   2   2  -7    0.71    0.11
  -2  -2   7    0.63    0.07
   1   2  -7    6.77    0.56
  -1  -2   7    6.80    0.57
  -1  -2   7    5.92    0.59
   0  -2   7    6.55    0.56
   0  -2   7    6.34    0.59
  -1   2  -7    4.78    0.34
   1  -2   7    4.63    0.38
   1  -2   7    4.89    0.40
   1  -2   7    3.83    0.41
  -2   2  -7    7.55    0.57
   2  -2   7    8.16    0.69
  -3   2  -7    0.67    0.09
  -3   2  -7    0.60    0.08
  -3   2  -7    0.53    0.08
   3  -2   7    0.43    0.10
   3  -2   7    0.48    0.09
   4  -2   7   20.30    1.82
   4  -2   7   21.98    1.74
   5  -2   7    0.71    0.08
   3   1  -7    0.06    0.02
   3   1  -7    0.03    0.02
   3   1  -7    0.05    0.02
   2   1  -7    0.16    0.04
   1   1  -7   10.63    0.89
   0  -1   7    1.00    0.12
  -1   1  -7   40.41    2.72
   1  -1   7   37.33    3.26
   1  -1   7   36.66    3.42
  -2   1  -7    0.62    0.10
   2  -1   7    0.74    0.10
   2  -1   7    0.83    0.09
  -3   1  -7   15.39    1.11
  -3   1  -7   15.16    1.39
   3  -1   7   15.03    1.23
   3  -1   7   16.08    1.33
  -4   1  -7    2.19    0.22
   4  -1   7    2.57    0.23
   4  -1   7    2.15    0.25
   5  -1   7    1.83    0.21
   5  -1   7    2.36    0.19
   5  -1   7    2.03    0.19
  -6   1  -7    0.50    0.07
   6  -1   7    0.39    0.10
   6  -1   7    0.64    0.07
   3   0  -7    5.68    0.46
   3   0  -7    6.45    0.45
   3   0  -7    6.42    0.46
   2   0  -7    2.95    0.25
   2   0  -7    3.20    0.28
   2   0  -7    3.46    0.25
   2   0  -7    3.37    0.24
   1   0  -7   -0.03    0.04
   0   0  -7   58.95    4.54
   0   0  -7   67.23    5.23
   0   0   7   65.22    4.72
  -1   0  -7  355.14   26.48
   1   0   7  390.10   27.52
  -2   0  -7   45.57    4.41
  -2   0  -7   53.58    3.51
   2   0   7   44.49    4.21
   2   0   7   53.25    3.92
  -3   0  -7   14.87    1.00
  -3   0  -7   13.40    1.25
   3   0   7   14.64    1.11
   3   0   7   12.63    1.20
  -4   0  -7    3.53    0.32
  -4   0  -7    3.81    0.27
   4   0   7    3.32    0.32
   4   0   7    2.98    0.32
  -5   0  -7    1.87    0.16
   5   0   7    1.78    0.19
   5   0   7    1.74    0.19
   5   0   7    2.02    0.17
   6   0   7   15.65    1.27
   6   0   7   14.76    1.22
   6   0   7   14.09    1.28
   7   0   7   21.14    1.95
   7   0   7   24.26    1.63
   7   0   7   22.45    1.68
   7   0   7   22.67    1.94
   7   0   7   23.32    1.67
   3  -1  -7    0.92    0.08
   3  -1  -7    0.78    0.07
   3  -1  -7    0.79    0.07
   2  -1  -7    7.43    0.55
   2  -1  -7    7.85    0.57
   2  -1  -7    7.55    0.56
   1  -1  -7    2.44    0.18
   1  -1  -7    2.48    0.24
   1  -1  -7    2.05    0.21
   0  -1  -7   10.98    1.01
   0  -1  -7   12.71    0.88
   0   1   7   12.62    0.91
  -1  -1  -7    1.31    0.14
   1   1   7    1.73    0.14
  -2  -1  -7    5.38    0.39
   2   1   7    5.11    0.41
  -3  -1  -7    0.07    0.04
   3   1   7    0.15    0.04
  -4  -1  -7    0.75    0.10
  -4  -1  -7    0.88    0.10
   4   1   7    0.68    0.08
  -5  -1  -7    2.49    0.20
   5   1   7    2.31    0.26
   5   1   7    2.38    0.24
   6   1   7    4.61    0.41
   6   1   7    4.51    0.40
   7   1   7    3.19    0.31
   7   1   7    3.57    0.25
   7   1   7    2.93    0.29
   7   1   7    3.69    0.26
   3  -2  -7    4.22    0.31
   3  -2  -7    4.26    0.32
   2  -2  -7    7.86    0.57
   2  -2  -7    7.19    0.55
   2  -2  -7    6.78    0.56
  -2   2   7    8.65    0.58
   1  -2  -7    1.63    0.15
   1  -2  -7    1.83    0.14
   1  -2  -7    1.59    0.14
   1  -2  -7    1.71    0.14
   0  -2  -7    7.43    0.61
   0  -2  -7    8.20    0.71
   0   2   7    9.46    0.64
  -1  -2  -7    4.97    0.40
   1   2   7    5.53    0.41
  -2  -2  -7    1.70    0.16
   2   2   7    1.75    0.16
  -3  -2  -7    1.97    0.19
   3   2   7    2.37    0.18
   3   2   7    1.82    0.18
  -4  -2  -7    2.79    0.25
  -4  -2  -7    2.50    0.21
   4   2   7    2.45    0.23
   4   2   7    2.93    0.23
  -5  -2  -7   11.24    1.06
  -5  -2  -7   11.98    0.85
   5   2   7   12.01    0.89
   5   2   7   12.40    0.94
   5   2   7   11.32    0.99
   6   2   7    2.02    0.20
   6   2   7    1.92    0.20
   7   2   7    7.80    0.70
   7   2   7    8.15    0.66
   2  -3  -7   11.92    0.88
   2  -3  -7   11.43    0.85
  -2   3   7   12.15    0.88
   1  -3  -7   30.89    2.14
   1  -3  -7   27.95    2.19
   1  -3  -7   29.48    2.21
   1  -3  -7   30.28    2.14
  -1   3   7   30.89    2.22
   0  -3  -7   21.78    1.75
   0  -3  -7   18.61    1.56
   0  -3  -7   21.29    1.53
   0   3   7   23.34    1.58
  -1  -3  -7   26.90    2.39
  -1  -3  -7   29.44    2.08
   1   3   7   30.88    2.16
  -2  -3  -7   32.02    2.28
   2   3   7   31.71    2.37
  -3  -3  -7   12.96    0.93
   3   3   7   12.66    0.97
  -4  -3  -7    6.31    0.55
  -4  -3  -7    5.91    0.45
   4   3   7    5.91    0.49
   4   3   7    6.06    0.47
  -5  -3  -7   79.85    7.59
   5   3   7   81.47    6.27
   5   3   7   92.87    6.74
  -6  -3  -7    9.68    0.82
   6   3   7    8.14    0.77
   6   3   7    9.35    0.69
   7   3   7    0.33    0.08
   8   3   7    0.00    0.03
   2  -4  -7    0.28    0.03
   2  -4  -7    0.25    0.04
   1  -4  -7   15.51    1.13
   1  -4  -7   15.35    1.17
   1  -4  -7   16.45    1.14
   0  -4  -7    2.83    0.27
   0  -4  -7    3.16    0.25
   0  -4  -7    3.08    0.24
   0   4   7    3.41    0.25
  -1  -4  -7    0.14    0.05
   1   4   7    0.15    0.04
  -2  -4  -7    3.95    0.30
   2   4   7    3.74    0.31
  -3  -4  -7    0.15    0.04
   3   4   7    0.15    0.05
  -4  -4  -7    0.63    0.08
  -4  -4  -7    0.48    0.09
   4   4   7    0.50    0.08
  -5  -4  -7   12.50    1.11
   5   4   7   12.13    0.93
  -6  -4  -7    5.53    0.56
  -6  -4  -7    6.03    0.53
   6   4   7    5.68    0.45
  -7  -4  -7    9.33    0.84
   7   4   7    8.12    0.73
  -8  -4  -7    1.12    0.14
   1  -5  -7    1.75    0.14
   1  -5  -7    1.63    0.13
   0  -5  -7    1.24    0.13
   0  -5  -7    1.36    0.11
   0  -5  -7    1.25    0.11
  -1  -5  -7   11.06    0.96
  -1  -5  -7   12.32    0.84
   1   5   7   11.27    0.86
  -2  -5  -7    6.14    0.44
  -2  -5  -7    5.56    0.51
   2   5   7    5.85    0.45
  -3  -5  -7   17.76    1.33
   3   5   7   19.16    1.38
   4   5   7   50.77    4.58
   4   5   7   64.20    4.26
  -5  -5  -7    4.27    0.35
  -5  -5  -7    3.31    0.38
   5   5   7    4.07    0.32
   5   5   7    3.70    0.31
  -6  -5  -7    6.41    0.58
   6   5   7    6.14    0.47
   6   5   7    5.40    0.52
  -7  -5  -7    0.95    0.13
   0  -6  -7    4.43    0.32
   0  -6  -7    4.08    0.32
  -1  -6  -7    1.38    0.13
  -1  -6  -7    1.55    0.14
  -2  -6  -7   14.01    0.98
  -2  -6  -7   13.22    1.13
  -3  -6  -7    2.14    0.24
  -3  -6  -7    2.55    0.19
   3   6   7    2.31    0.20
   4   6   7    0.32    0.07
  -5  -6  -7    8.96    0.82
   5   6   7    8.46    0.70
   5   6   7    8.38    0.65
  -6  -6  -7   26.91    2.63
   6   6   7   28.80    2.07
  -7  -6  -7    0.11    0.04
   7   6   7    0.02    0.04
  -2  -7  -7    6.10    0.45
  -2  -7  -7    6.06    0.51
  -3  -7  -7   10.07    0.84
  -4  -7  -7    2.27    0.23
  -6  -7  -7    8.47    0.81
   0  -3   8    4.86    0.42
   1  -3   8    2.68    0.24
  -2   3  -8    7.85    0.57
   2  -3   8    7.95    0.68
  -3   3  -8    0.07    0.03
   3  -3   8    0.07    0.02
   3  -3   8    0.05    0.02
   1   2  -8    0.04    0.03
   0   2  -8    0.91    0.14
   0  -2   8    0.96    0.10
   1  -2   8    1.76    0.17
  -2   2  -8    4.01    0.32
   2  -2   8    4.53    0.38
  -3   2  -8    5.03    0.37
   3  -2   8    5.38    0.43
   3  -2   8    4.63    0.44
  -4   2  -8   35.78    2.54
   4  -2   8   33.67    3.04
   4  -2   8   37.28    2.91
   1   1  -8    5.18    0.44
   0   1  -8    4.14    0.37
  -1   1  -8    1.29    0.11
   1  -1   8    1.08    0.11
   1  -1   8    1.31    0.13
  -2   1  -8    7.52    0.52
   2  -1   8    6.80    0.62
   2  -1   8    7.04    0.58
  -3   1  -8    6.30    0.44
   3  -1   8    5.78    0.53
  -4   1  -8   51.35    3.52
   4  -1   8   50.67    4.04
   4  -1   8   46.00    4.22
  -5   1  -8    8.14    0.57
   5  -1   8    7.89    0.65
   5  -1   8    7.43    0.68
   2   0  -8   10.29    0.76
   1   0  -8    6.67    0.56
  -1   0   8    6.82    0.51
   0   0  -8    7.78    0.61
   0   0  -8    7.08    0.53
   0   0   8    6.93    0.55
  -1   0  -8   37.14    2.66
   1   0   8   37.45    2.76
  -2   0  -8    0.32    0.08
   2   0   8    0.27    0.06
   2   0   8    0.40    0.06
  -3   0  -8    0.83    0.10
   3   0   8    0.82    0.10
   3   0   8    0.82    0.08
  -4   0  -8    0.33    0.05
   4   0   8    0.24    0.07
  -5   0  -8    0.13    0.04
   5   0   8    0.08    0.03
   5   0   8    0.07    0.04
  -6   0  -8   18.96    1.29
   6   0   8   17.30    1.55
   6   0   8   17.92    1.48
   2  -1  -8    8.56    0.61
   2  -1  -8    8.32    0.63
  -1   1   8    5.46    0.42
   0  -1  -8    1.57    0.15
   0  -1  -8    1.79    0.18
   0   1   8    1.96    0.15
  -1  -1  -8    7.94    0.73
  -1  -1  -8    8.69    0.63
   1   1   8    9.37    0.66
  -2  -1  -8   39.61    2.63
   2   1   8   33.97    2.73
  -3  -1  -8  129.31    8.43
   3   1   8  109.14    9.42
   3   1   8  116.92    8.75
  -4  -1  -8    2.04    0.16
  -4  -1  -8    1.67    0.18
   4   1   8    2.04    0.16
  -5  -1  -8    0.54    0.08
   5   1   8    0.44    0.09
   5   1   8    0.50    0.09
  -6  -1  -8    0.75    0.08
   6   1   8    0.88    0.10
   6   1   8    0.75    0.10
   1  -2  -8    0.00    0.02
  -1   2   8    0.05    0.03
  -1  -2  -8    1.92    0.21
  -1  -2  -8    2.19    0.18
   1   2   8    2.37    0.18
  -2  -2  -8   18.69    1.37
   2   2   8   19.45    1.42
  -3  -2  -8  105.89    7.20
   3   2   8  100.86    7.48
   3   2   8   96.88    8.05
  -4  -2  -8    8.81    0.93
  -4  -2  -8   11.40    0.75
   4   2   8   10.32    0.78
   4   2   8   10.62    0.83
  -5  -2  -8    6.97    0.52
   5   2   8    8.02    0.55
   5   2   8    6.48    0.60
   6   2   8    1.33    0.16
   7   2   8    0.74    0.09
   1  -3  -8    1.06    0.09
   1  -3  -8    1.01    0.09
   1  -3  -8    0.99    0.08
   0  -3  -8    7.21    0.58
   0   3   8    8.69    0.60
  -1  -3  -8    5.49    0.51
  -1  -3  -8    6.04    0.44
   1   3   8    6.24    0.45
  -2  -3  -8   25.60    2.39
  -2  -3  -8   30.99    2.08
   2   3   8   30.68    2.16
  -3  -3  -8    5.59    0.42
   3   3   8    5.53    0.43
  -4  -3  -8    1.78    0.16
   4   3   8    1.74    0.16
   4   3   8    1.90    0.17
  -5  -3  -8    1.07    0.11
   5   3   8    1.02    0.13
   5   3   8    1.35    0.11
  -7  -3  -8    2.85    0.29
   7   3   8    2.97    0.25
   0  -4  -8    0.34    0.07
   0   4   8    0.33    0.06
  -1  -4  -8    9.07    0.62
  -1  -4  -8    7.84    0.71
   1   4   8    8.60    0.64
   2   4   8    0.59    0.08
  -3  -4  -8    2.22    0.19
   3   4   8    2.36    0.20
  -4  -4  -8    0.61    0.09
   4   4   8    0.59    0.08
   4   4   8    0.66    0.09
   5   4   8    2.56    0.23
   5   4   8    2.91    0.23
  -6  -4  -8    1.39    0.15
   6   4   8    1.23    0.16
   6   4   8    1.21    0.13
  -7  -4  -8   44.30    4.19
   7   4   8   44.83    3.65
  -1  -5  -8    1.06    0.11
  -1  -5  -8    0.97    0.10
   1   5   8    1.02    0.09
  -2  -5  -8    2.73    0.26
  -2  -5  -8    3.18    0.24
   2   5   8    3.08    0.24
  -3  -5  -8    5.08    0.49
  -3  -5  -8    5.82    0.42
   3   5   8    6.01    0.43
  -4  -5  -8    0.20    0.04
   4   5   8    0.20    0.05
   4   5   8    0.21    0.05
   5   5   8    0.47    0.08
   5   5   8    0.52    0.06
  -6  -5  -8    0.13    0.04
   6   5   8    0.04    0.04
  -3  -6  -8    6.51    0.46
  -3  -6  -8    6.26    0.53
   3   6   8    5.93    0.47
   4   6   8    2.71    0.23
   4   6   8    2.70    0.22
   5   6   8    0.16    0.04
  -4  -7  -8    0.64    0.09
  -1   1  -9    0.00    0.03
  -2   1  -9    4.00    0.29
  -3   1  -9    4.24    0.30
   3  -1   9    3.85    0.35
   0   0  -9    0.10    0.03
  -1   0  -9    0.09    0.04
  -2   0  -9    6.18    0.44
   2   0   9    5.93    0.49
  -3   0  -9    0.11    0.04
   4   0   9    0.14    0.03
   0  -1  -9    6.64    0.55
  -1  -1  -9    4.93    0.42
  -1  -1  -9    6.43    0.50
   1   1   9    6.14    0.44
  -2  -1  -9    4.71    0.35
   2   1   9    4.64    0.36
   2   1   9    4.70    0.38
  -3  -1  -9    4.91    0.36
   3   1   9    4.68    0.39
  -4  -1  -9    5.36    0.40
  -5  -1  -9    2.18    0.18
   5   1   9    2.33    0.20
  -1  -2  -9    6.99    0.54
  -1  -2  -9    7.81    0.63
   1   2   9    7.66    0.56
  -2  -2  -9    2.62    0.21
  -2  -2  -9    2.80    0.26
   2   2   9    2.57    0.21
  -3  -2  -9  130.19    8.92
   3   2   9  122.62    9.98
   3   2   9  123.55    9.27
  -4  -2  -9    2.52    0.19
   4   2   9    2.28    0.19
   4   2   9    2.26    0.19
  -5  -2  -9    0.57    0.08
   5   2   9    0.82    0.09
  -1  -3  -9    0.58    0.07
   1   3   9    0.65    0.07
  -2  -3  -9    0.55    0.08
  -2  -3  -9    0.70    0.12
   3   3   9    0.39    0.06
   3   3   9    0.32    0.06
  -4  -3  -9   19.78    1.44
   4   3   9   20.42    1.61
   4   3   9   20.32    1.50
  -5  -3  -9   29.44    2.11
   5   3   9   29.73    2.19
  -2  -4  -9    0.40    0.05
  -2  -4  -9    0.52    0.07
   2   4   9    0.50    0.07
  -4  -4  -9    3.02    0.26
   4   4   9    3.67    0.28
   4   4   9    3.39    0.26
  -5  -4  -9    5.72    0.43
   5   4   9    6.12    0.45
  -3  -5  -9    0.03    0.03
  -3  -5  -9    0.05    0.03
  -4  -5  -9    0.64    0.07
   0   0   0    0.00    0.00
;
_shelx_hkl_checksum              52992
loop_
_space_group_symop_operation_xyz
'x, y, z'
'-x, -y, -z'
loop_
_atom_site_label
_atom_site_type_symbol
_atom_site_fract_x
_atom_site_fract_y
_atom_site_fract_z
_atom_site_U_iso_or_equiv
_atom_site_adp_type
_atom_site_occupancy
_atom_site_site_symmetry_order
_atom_site_calc_flag
_atom_site_refinement_flags_posn
_atom_site_refinement_flags_adp
C6' C 0.1693(2) 0.4453(2) 0.17643(17) 0.0151(5) Uani 1 1 d . .
H6' H 0.070318 0.462103 0.283789 0.025(4) Uiso 1 1 calc R .
O4' O 0.25698(14) 0.67787(13) -0.24006(11) 0.0184(4) Uani 1 1 d . .
H13 H 0.350120 0.652408 -0.330605 0.045(6) Uiso 1 1 calc R .
O2' O 0.63910(14) 0.11486(13) -0.02954(12) 0.0167(4) Uani 1 1 d . .
H12 H 0.640249 0.050016 0.062775 0.063(7) Uiso 1 1 calc R .
O8' O 0.52767(14) 0.31450(13) -0.42965(10) 0.0199(4) Uani 1 1 d . .
H11 H 0.524508 0.210970 -0.402410 0.028(5) Uiso 1 1 calc R .
O2 O 0.49941(14) 0.00982(13) 0.28422(11) 0.0178(4) Uani 1 1 d . .
C7' C -0.0235(2) 0.7502(2) 0.07026(18) 0.0190(5) Uani 1 1 d . .
H7 H -0.125321 0.738836 0.177083 0.028 Uiso 1 1 calc R U
H1 H -0.077505 0.779851 -0.026492 0.028 Uiso 1 1 calc R U
H8 H 0.021246 0.844711 0.075304 0.028 Uiso 1 1 calc R U
C5' C 0.1470(2) 0.5770(2) 0.04702(19) 0.0153(5) Uani 1 1 d . .
C1' C 0.3319(2) 0.2851(2) 0.15896(17) 0.0138(5) Uani 1 1 d . .
C2 C 0.3489(2) 0.1448(2) 0.29629(18) 0.0163(5) Uani 1 1 d . .
C1 C 0.1784(2) 0.1575(2) 0.45766(18) 0.0272(5) Uani 1 1 d . .
H2 H 0.212114 0.050502 0.535618 0.041 Uiso 1 1 calc R U
H6 H 0.062508 0.167925 0.428175 0.041 Uiso 1 1 calc R U
H5 H 0.149969 0.262422 0.513743 0.041 Uiso 1 1 calc R U
C4' C 0.2916(2) 0.5457(2) -0.11553(18) 0.0152(5) Uani 1 1 d . .
C2' C 0.4774(2) 0.26187(19) -0.00240(18) 0.0141(5) Uani 1 1 d . .
C3' C 0.4543(2) 0.39016(19) -0.14091(17) 0.0143(5) Uani 1 1 d . .
C8' C 0.6037(2) 0.3560(2) -0.31452(17) 0.0171(5) Uani 1 1 d . .
H3 H 0.640702 0.462564 -0.363747 0.021 Uiso 1 1 calc R U
H4 H 0.723215 0.255715 -0.301806 0.021 Uiso 1 1 calc R U
loop_
_atom_site_aniso_label
_atom_site_aniso_U_11
_atom_site_aniso_U_22
_atom_site_aniso_U_33
_atom_site_aniso_U_23
_atom_site_aniso_U_13
_atom_site_aniso_U_12
C6' 0.0115(9) 0.0189(9) 0.0159(8) -0.0061(6) -0.0027(6) -0.0054(7)
O4' 0.0171(7) 0.0158(7) 0.0168(7) 0.0003(5) -0.0050(4) -0.0009(5)
O2' 0.0122(7) 0.0142(7) 0.0177(7) -0.0026(4) -0.0032(4) 0.0012(5)
O8' 0.0278(7) 0.0145(7) 0.0152(6) -0.0007(4) -0.0058(5) -0.0060(5)
O2 0.0170(7) 0.0142(7) 0.0196(7) -0.0012(5) -0.0067(5) -0.0019(5)
C7' 0.0131(9) 0.0192(9) 0.0214(8) -0.0053(6) -0.0049(6) -0.0008(7)
C5' 0.0104(8) 0.0151(9) 0.0201(8) -0.0061(6) -0.0052(6) -0.0011(6)
C1' 0.0121(9) 0.0131(9) 0.0167(8) -0.0033(6) -0.0057(6) -0.0026(7)
C2 0.0176(9) 0.0153(8) 0.0178(8) -0.0039(6) -0.0062(6) -0.0054(7)
C1 0.0242(9) 0.0239(10) 0.0182(9) 0.0022(6) 0.0005(6) -0.0009(7)
C4' 0.0137(9) 0.0148(9) 0.0189(8) -0.0022(6) -0.0067(6) -0.0048(6)
C2' 0.0122(9) 0.0122(9) 0.0190(8) -0.0040(6) -0.0062(6) -0.0027(7)
C3' 0.0118(9) 0.0161(9) 0.0162(9) -0.0031(6) -0.0051(6) -0.0044(7)
C8' 0.0150(9) 0.0167(8) 0.0160(8) -0.0024(6) -0.0028(6) -0.0028(6)
loop_
_atom_type_symbol
_atom_type_description
_atom_type_scat_dispersion_real
_atom_type_scat_dispersion_imag
_atom_type_scat_source
C C 0.0181 0.0091 'International Tables Vol C Tables 4.2.6.8 and 6.1.1.4'
H H 0.0000 0.0000 'International Tables Vol C Tables 4.2.6.8 and 6.1.1.4'
O O 0.0492 0.0322 'International Tables Vol C Tables 4.2.6.8 and 6.1.1.4'
loop_
_geom_angle_atom_site_label_1
_geom_angle_atom_site_label_2
_geom_angle_atom_site_label_3
_geom_angle
C5' C6' C1' 123.28(12)
C5' C6' H6' 118.4
C1' C6' H6' 118.4
C4' O4' H13 109.5
C2' O2' H12 109.5
C8' O8' H11 109.5
C5' C7' H7 109.5
C5' C7' H1 109.5
H7 C7' H1 109.5
C5' C7' H8 109.5
H7 C7' H8 109.5
H1 C7' H8 109.5
C6' C5' C4' 117.58(14)
C6' C5' C7' 122.50(12)
C4' C5' C7' 119.92(14)
C6' C1' C2' 117.56(13)
C6' C1' C2 122.25(12)
C2' C1' C2 120.14(14)
O2 C2 C1' 121.74(12)
O2 C2 C1 118.42(13)
C1' C2 C1 119.81(13)
C2 C1 H2 109.5
C2 C1 H6 109.5
H2 C1 H6 109.5
C2 C1 H5 109.5
H2 C1 H5 109.5
H6 C1 H5 109.5
O4' C4' C3' 123.55(12)
O4' C4' C5' 114.73(13)
C3' C4' C5' 121.71(13)
O2' C2' C3' 117.69(12)
O2' C2' C1' 121.57(13)
C3' C2' C1' 120.71(14)
C4' C3' C2' 119.00(13)
C4' C3' C8' 121.34(12)
C2' C3' C8' 119.65(13)
O8' C8' C3' 111.32(10)
O8' C8' H3 109.4
C3' C8' H3 109.4
O8' C8' H4 109.4
C3' C8' H4 109.4
H3 C8' H4 108.0
loop_
_geom_bond_atom_site_label_1
_geom_bond_atom_site_label_2
_geom_bond_distance
C6' C5' 1.362(2)
C6' C1' 1.411(2)
C6' H6' 0.9500
O4' C4' 1.3489(18)
O4' H13 0.8400
O2' C2' 1.3449(18)
O2' H12 0.8400
O8' C8' 1.4428(17)
O8' H11 0.8400
O2 C2 1.2445(19)
C7' C5' 1.507(2)
C7' H7 0.9800
C7' H1 0.9800
C7' H8 0.9800
C5' C4' 1.425(2)
C1' C2' 1.417(2)
C1' C2 1.445(2)
C2 C1 1.5124(19)
C1 H2 0.9800
C1 H6 0.9800
C1 H5 0.9800
C4' C3' 1.389(2)
C2' C3' 1.400(2)
C3' C8' 1.5072(18)
C8' H3 0.9900
C8' H4 0.9900
loop_
_geom_hbond_atom_site_label_D
_geom_hbond_atom_site_label_H
_geom_hbond_atom_site_label_A
_geom_hbond_distance_DH
_geom_hbond_distance_HA
_geom_hbond_distance_DA
_geom_hbond_angle_DHA
_geom_hbond_site_symmetry_A
_geom_hbond_publ_flag
C8' H3 O8' 0.99 2.53 3.1346(17) 119.4 2_664 yes
loop_
_geom_torsion_atom_site_label_1
_geom_torsion_atom_site_label_2
_geom_torsion_atom_site_label_3
_geom_torsion_atom_site_label_4
_geom_torsion
C1' C6' C5' C4' 3.1(2)
C1' C6' C5' C7' -177.41(13)
C5' C6' C1' C2' -0.4(2)
C5' C6' C1' C2 -177.82(12)
C6' C1' C2 O2 -174.51(12)
C2' C1' C2 O2 8.1(2)
C6' C1' C2 C1 7.4(2)
C2' C1' C2 C1 -169.97(12)
C6' C5' C4' O4' 177.32(11)
C7' C5' C4' O4' -2.1(2)
C6' C5' C4' C3' -2.6(2)
C7' C5' C4' C3' 177.93(12)
C6' C1' C2' O2' 178.73(11)
C2 C1' C2' O2' -3.8(2)
C6' C1' C2' C3' -3.1(2)
C2 C1' C2' C3' 174.41(11)
O4' C4' C3' C2' 179.38(12)
C5' C4' C3' C2' -0.7(2)
O4' C4' C3' C8' -1.6(2)
C5' C4' C3' C8' 178.28(12)
O2' C2' C3' C4' -178.17(10)
C1' C2' C3' C4' 3.6(2)
O2' C2' C3' C8' 2.8(2)
C1' C2' C3' C8' -175.41(11)
C4' C3' C8' O8' -73.24(16)
C2' C3' C8' O8' 105.72(14)
