#------------------------------------------------------------------------------
#$Date: 2018-01-12 01:55:11 +0200 (Fri, 12 Jan 2018) $
#$Revision: 205097 $
#$URL: file:///home/coder/svn-repositories/cod/cif/4/12/70/4127024.cif $
#------------------------------------------------------------------------------
#
# This file is available in the Crystallography Open Database (COD),
# http://www.crystallography.net/
#
# All data on this site have been placed in the public domain by the
# contributors.
#
data_4127024
loop_
_publ_author_name
'Porter, Matthew R.'
'Shaker, Rami M.'
'Calcanas, Cristian'
'Topczewski, Joseph J.'
_publ_section_title
;
 Stereoselective Dynamic Cyclization of Allylic Azides: Synthesis of
 Tetralins, Chromanes, and Tetrahydroquinolines.
;
_journal_name_full               'Journal of the American Chemical Society'
_journal_paper_doi               10.1021/jacs.7b11299
_journal_year                    2018
_chemical_formula_moiety         'C13 H14 Br N3'
_chemical_formula_sum            'C13 H14 Br N3'
_chemical_formula_weight         292.18
_chemical_name_common            MRP2046
_chemical_name_systematic        MRP2046
_space_group_crystal_system      triclinic
_space_group_IT_number           2
_space_group_name_Hall           '-P 1'
_space_group_name_H-M_alt        'P -1'
_symmetry_space_group_name_Hall  '-P 1'
_symmetry_space_group_name_H-M   'P -1'
_atom_sites_solution_hydrogens   geom
_audit_creation_method           SHELXL-2016/6
_cell_angle_alpha                104.663(2)
_cell_angle_beta                 94.770(2)
_cell_angle_gamma                91.695(2)
_cell_formula_units_Z            2
_cell_length_a                   7.4813(14)
_cell_length_b                   8.7430(16)
_cell_length_c                   9.9454(18)
_cell_measurement_reflns_used    3489
_cell_measurement_temperature    296(2)
_cell_measurement_theta_max      27.25
_cell_measurement_theta_min      2.74
_cell_volume                     626.3(2)
_computing_cell_refinement       'SAINT, Bruker'
_computing_data_collection       'APEX II, Bruker'
_computing_data_reduction        'SAINT, Bruker'
_computing_molecular_graphics    'Shelxle-(Rev. 825)(Huebschle, C. B., 2011)'
_computing_structure_refinement  'SHELXL-2016/6 (Sheldrick, 2016)'
_diffrn_ambient_temperature      296(2)
_diffrn_measured_fraction_theta_full 0.996
_diffrn_measured_fraction_theta_max 0.984
_diffrn_measurement_device_type  'Bruker APEX II CCD'
_diffrn_measurement_method       '\f and \w scans'
_diffrn_radiation_type           MoK\a
_diffrn_radiation_wavelength     0.71073
_diffrn_reflns_av_R_equivalents  0.0263
_diffrn_reflns_av_unetI/netI     0.0315
_diffrn_reflns_Laue_measured_fraction_full 0.996
_diffrn_reflns_Laue_measured_fraction_max 0.984
_diffrn_reflns_limit_h_max       9
_diffrn_reflns_limit_h_min       -9
_diffrn_reflns_limit_k_max       11
_diffrn_reflns_limit_k_min       -11
_diffrn_reflns_limit_l_max       12
_diffrn_reflns_limit_l_min       -12
_diffrn_reflns_number            7268
_diffrn_reflns_point_group_measured_fraction_full 0.996
_diffrn_reflns_point_group_measured_fraction_max 0.984
_diffrn_reflns_theta_full        25.242
_diffrn_reflns_theta_max         27.431
_diffrn_reflns_theta_min         2.126
_diffrn_source                   normal
_exptl_absorpt_coefficient_mu    3.263
_exptl_absorpt_correction_type   multi-scan
_exptl_absorpt_process_details   'SADABS, R. Blessing, 1995'
_exptl_crystal_colour            Yellow
_exptl_crystal_density_diffrn    1.549
_exptl_crystal_description       Plates
_exptl_crystal_F_000             296
_exptl_crystal_size_max          0.409
_exptl_crystal_size_mid          0.232
_exptl_crystal_size_min          0.100
_exptl_transmission_factor_max   0.7455
_exptl_transmission_factor_min   0.5337
_refine_diff_density_max         0.370
_refine_diff_density_min         -0.259
_refine_diff_density_rms         0.054
_refine_ls_extinction_method     none
_refine_ls_goodness_of_fit_ref   1.025
_refine_ls_hydrogen_treatment    constr
_refine_ls_matrix_type           full
_refine_ls_number_parameters     154
_refine_ls_number_reflns         2817
_refine_ls_number_restraints     0
_refine_ls_restrained_S_all      1.025
_refine_ls_R_factor_all          0.0331
_refine_ls_R_factor_gt           0.0258
_refine_ls_shift/su_max          0.021
_refine_ls_shift/su_mean         0.003
_refine_ls_structure_factor_coef Fsqd
_refine_ls_weighting_details
'w=1/[\s^2^(Fo^2^)+(0.0295P)^2^+0.1053P] where P=(Fo^2^+2Fc^2^)/3'
_refine_ls_weighting_scheme      calc
_refine_ls_wR_factor_gt          0.0583
_refine_ls_wR_factor_ref         0.0607
_reflns_Friedel_coverage         0.000
_reflns_number_gt                2458
_reflns_number_total             2817
_reflns_threshold_expression     'I > 2\s(I)'
_cod_data_source_file            ja7b11299_si_002.cif
_cod_data_source_block           17079_0m
_cod_depositor_comments
;
The following automatic conversions were performed:

'_exptl_absorpt_correction_type' value 'Multi-Scan' changed to
'multi-scan' according to
/home/data/users/saulius/crontab/automatic-downloads/rss-feeds/ACS/lib/dictionaries/cif_core.dic
dictionary named 'cif_core.dic' version 2.4.2 from 2011-04-26.

Automatic conversion script
Id: cif_fix_values 4973 2017-02-22 13:04:09Z antanas 
;
_cod_database_code               4127024
_shelx_shelxl_version_number     2016/6
_shelx_space_group_comment
;
The symmetry employed for this shelxl refinement is uniquely defined
by the following loop, which should always be used as a source of
symmetry information in preference to the above space-group names.
They are only intended as comments.
;
_shelx_res_file
;
TITL 17079_0m in P-1
    17079_0m.res
    created by SHELXL-2016/6 at 08:45:49 on 01-May-2017
CELL 0.71073 7.4813 8.7430 9.9454 104.663 94.770 91.695
ZERR 2.00 0.0014 0.0016 0.0018 0.002 0.002 0.002
LATT 1
SFAC C H N BR
UNIT 26 28 6 2
LIST 4 ! automatically inserted. Change 6 to 4 for CHECKCIF!!
TEMP 23.000
ACTA
L.S. 1
FMAP 2
PLAN -3 0 0.00
HTAB
ACTA
BOND $H
CONF
WGHT    0.029500    0.105300
FVAR       0.23606
BR1   4   -0.372792   -0.292850    0.759746    11.00000    0.03872    0.03246 =
         0.04249    0.01253    0.00519   -0.01144
N1    3    0.113104    0.392198    0.865855    11.00000    0.02572    0.02454 =
         0.02106    0.00187    0.00359   -0.00388
N2    3    0.225233    0.494657    0.934188    11.00000    0.02482    0.02274 =
         0.02270    0.00619    0.00374    0.00329
N3    3    0.317116    0.591764    1.005512    11.00000    0.03271    0.03297 =
         0.03052   -0.00008   -0.00116   -0.00422
C1    1   -0.156820   -0.164639    0.781789    11.00000    0.02797    0.02132 =
         0.02527    0.00296    0.00651   -0.00314
C2    1   -0.153020   -0.040660    0.719503    11.00000    0.02440    0.02419 =
         0.02045    0.00485    0.00102   -0.00123
AFIX  43
H8    2   -0.255204   -0.020112    0.668382    11.00000   -1.20000
AFIX   0
C3    1    0.004823    0.054265    0.733295    11.00000    0.02469    0.01967 =
         0.01742    0.00174    0.00408   -0.00022
C4    1    0.007986    0.186957    0.658790    11.00000    0.02323    0.02256 =
         0.01752    0.00313    0.00133   -0.00159
AFIX  13
H12   2    0.033061    0.138075    0.562613    11.00000   -1.20000
AFIX   0
C5    1    0.161852    0.310867    0.721972    11.00000    0.02515    0.02389 =
         0.01939    0.00384    0.00453   -0.00299
C6    1    0.336211    0.227069    0.732009    11.00000    0.02150    0.03101 =
         0.02788    0.00012    0.00489   -0.00386
AFIX  23
H5    2    0.358287    0.165283    0.639727    11.00000   -1.20000
H4    2    0.434945    0.305566    0.765485    11.00000   -1.20000
AFIX   0
C7    1    0.330554    0.118453    0.829598    11.00000    0.02165    0.02920 =
         0.03940    0.00781   -0.00025    0.00272
AFIX  23
H3    2    0.428965    0.048176    0.814214    11.00000   -1.20000
H6    2    0.348418    0.182217    0.925333    11.00000   -1.20000
AFIX   0
C8    1    0.157342    0.020640    0.810080    11.00000    0.02427    0.02285 =
         0.02180    0.00117    0.00389    0.00354
C9    1    0.146118   -0.103829    0.872853    11.00000    0.02804    0.02722 =
         0.02992    0.00720    0.00058    0.00903
AFIX  43
H7    2    0.246930   -0.124836    0.925202    11.00000   -1.20000
REM #####
AFIX   0
C10   1   -0.008859   -0.197273    0.860402    11.00000    0.03867    0.02235 =
         0.03062    0.00952    0.00786    0.00548
AFIX  43
H2    2   -0.013704   -0.279817    0.903614    11.00000   -1.20000
AFIX   0
C11   1   -0.170754    0.258946    0.649912    11.00000    0.02552    0.02515 =
         0.02464    0.00729    0.00394   -0.00007
AFIX  43
H11   2   -0.218962    0.304888    0.733036    11.00000   -1.20000
AFIX   0
C12   1   -0.263571    0.261397    0.532683    11.00000    0.03325    0.03892 =
         0.03225    0.01447    0.00150    0.00324
AFIX  93
H10   2   -0.219184    0.216482    0.447719    11.00000   -1.20000
H9    2   -0.373761    0.308050    0.534538    11.00000   -1.20000
REM #####
AFIX   0
C13   1    0.178171    0.431611    0.636046    11.00000    0.03809    0.03245 =
         0.02897    0.01142    0.00470   -0.01000
AFIX  33
H13A  2    0.209211    0.379350    0.544553    11.00000   -1.50000
H13B  2    0.065601    0.480088    0.628332    11.00000   -1.50000
H13C  2    0.269973    0.511398    0.681166    11.00000   -1.50000
AFIX   0
HKLF 4 1 1 0 0 0 1 0 0 0 1




REM  17079_0m in P-1
REM R1 =  0.0258 for    2458 Fo > 4sig(Fo)  and  0.0331 for all    2817 data
REM    154 parameters refined using      0 restraints

END

WGHT      0.0295      0.1053

REM Instructions for potential hydrogen bonds
EQIV $1 x+1, y+1, z
HTAB C13 Br1_$1

REM Highest difference peak  0.370,  deepest hole -0.259,  1-sigma level  0.054
Q1    1  -0.3243 -0.3266  0.8393  11.00000  0.05    0.37
Q2    1  -0.0646  0.0002  0.7205  11.00000  0.05    0.34
Q3    1   0.0117  0.1195  0.6987  11.00000  0.05    0.32
;
_shelx_res_checksum              22190
_shelx_hkl_file
;
  -1   0   0   28.22    0.75
  -1   0   0   27.91    0.86
   1   0   0   28.31    0.81
   1   0   0   27.41    0.80
  -2   0   0   81.02    2.15
  -2   0   0   81.77    2.44
   2   0   0   82.35    2.27
   2   0   0   81.41    2.30
  -3   0   0   44.51    1.47
  -3   0   0   43.05    1.26
   3   0   0   46.04    1.35
   3   0   0   46.64    1.40
  -4   0   0  129.60    3.75
  -4   0   0  118.65    3.26
   4   0   0  121.14    3.50
   4   0   0  123.77    3.46
  -5   0   0   51.57    1.54
  -5   0   0   54.84    1.87
   5   0   0   54.64    1.65
   5   0   0   52.69    1.70
  -6   0   0   50.94    1.86
  -6   0   0   47.01    1.44
   6   0   0   46.76    1.53
   6   0   0   46.66    1.61
  -7   0   0   -0.33    0.44
   7   0   0    0.95    0.30
  -8   0   0   17.99    1.19
   8   0   0   16.49    0.92
  -9   0   0    0.12    0.58
   9   0   0    0.93    0.37
   9  -1   0    4.81    0.60
  -9   1   0    2.15    0.73
   8  -1   0    0.49    0.34
  -8   1   0   -0.03    0.48
   7  -1   0    3.24    0.43
  -7   1   0    3.01    0.69
   6  -1   0   74.30    2.29
  -6   1   0   74.35    2.07
  -6   1   0   64.57    2.54
   5  -1   0   57.28    1.65
   5  -1   0   55.76    1.78
  -5   1   0   47.47    1.95
  -5   1   0   56.54    1.60
   4  -1   0    7.51    0.34
   4  -1   0    6.61    0.44
  -4   1   0    6.29    0.52
  -4   1   0    6.84    0.35
   3  -1   0  116.58    3.11
   3  -1   0  116.42    3.18
  -3   1   0  108.01    2.99
  -3   1   0  110.73    3.42
   2  -1   0   34.19    1.03
   2  -1   0   36.36    0.97
  -2   1   0   32.55    1.11
  -2   1   0   33.81    0.97
   1  -1   0  426.53   11.62
  -1   1   0  435.59   12.34
  -1   1   0  439.44   11.03
   0   1   0    0.33    0.04
   0   1   0    0.13    0.04
   0   1   0    0.21    0.05
   0   1   0    0.24    0.05
  -1  -1   0   44.78    1.33
  -1  -1   0   45.50    1.17
   1   1   0   46.55    1.23
   1   1   0   43.16    1.28
  -2  -1   0  270.67    7.71
  -2  -1   0  281.40    6.89
   2   1   0  265.59    7.22
   2   1   0  264.37    7.30
  -3  -1   0  163.14    4.02
  -3  -1   0  160.34    4.56
   3   1   0  140.89    4.24
   3   1   0  155.89    4.30
  -4  -1   0    0.48    0.21
  -4  -1   0    0.93    0.16
   4   1   0    0.46    0.16
   4   1   0    0.40    0.15
  -5  -1   0   63.78    2.11
  -5  -1   0   60.55    1.76
   5   1   0   62.47    1.93
   5   1   0   64.43    1.95
  -6  -1   0   12.26    0.76
   6   1   0   12.88    0.65
   6   1   0   11.94    0.62
  -7  -1   0   23.55    1.19
   7   1   0   23.94    0.98
   7   1   0   23.03    1.00
  -8  -1   0    0.48    0.44
   8   1   0    0.03    0.29
  -9  -1   0    5.68    0.85
   9  -2   0    0.02    0.38
  -9   2   0    0.28    0.71
   8  -2   0    5.19    0.57
  -8   2   0    5.82    0.78
   7  -2   0   31.35    1.26
  -7   2   0   28.92    1.07
  -7   2   0   24.14    1.38
   6  -2   0    8.71    0.63
  -6   2   0    9.23    0.55
  -6   2   0    8.59    0.75
   5  -2   0    3.29    0.37
  -5   2   0    3.43    0.33
  -5   2   0    3.81    0.45
   4  -2   0   89.22    2.42
   4  -2   0   85.80    2.56
  -4   2   0   83.04    2.40
  -4   2   0   90.48    2.74
   3  -2   0  212.90    5.88
   3  -2   0  223.20    5.79
  -3   2   0  217.29    6.24
  -3   2   0  211.22    5.62
   2  -2   0    5.52    0.26
   2  -2   0    5.69    0.20
  -2   2   0    5.56    0.27
  -2   2   0    5.97    0.27
   1  -2   0   37.68    1.11
  -1   2   0   38.60    1.18
  -1   2   0   39.49    1.09
  -1   2   0   40.67    1.08
   0   2   0  177.24    4.71
   0   2   0  176.58    4.54
   0   2   0  177.28    5.04
   0   2   0  177.48    4.76
  -1  -2   0  158.41    3.95
   1   2   0  156.93    4.10
   1   2   0  147.00    4.20
   1   2   0  152.75    4.41
  -2  -2   0    0.96    0.13
  -2  -2   0    1.45    0.11
   2   2   0    1.21    0.11
   2   2   0    1.47    0.18
  -3  -2   0   30.80    1.08
  -3  -2   0   31.65    0.89
   3   2   0   32.18    0.97
   3   2   0   30.04    1.05
  -4  -2   0   18.89    0.60
  -4  -2   0   18.24    0.78
   4   2   0   15.88    0.66
   4   2   0   18.73    0.73
  -5  -2   0   47.07    1.34
  -5  -2   0   44.34    1.64
   5   2   0   49.17    1.54
   5   2   0   43.71    1.47
  -6  -2   0    2.44    0.41
   6   2   0    2.62    0.36
   6   2   0    2.23    0.32
  -7  -2   0    0.41    0.37
   7   2   0    0.56    0.27
   7   2   0    0.72    0.28
  -8  -2   0    9.62    0.85
   8   2   0   11.01    0.70
  -9  -2   0    6.10    0.83
   9  -3   0   10.02    0.87
   8  -3   0    2.91    0.53
  -8   3   0    3.60    0.66
   7  -3   0   -0.30    0.32
  -7   3   0    0.20    0.41
  -7   3   0    0.32    0.29
   6  -3   0   10.77    0.72
  -6   3   0   10.99    0.77
  -6   3   0   11.62    0.63
   5  -3   0   22.03    0.96
  -5   3   0   23.87    0.89
  -5   3   0   25.40    1.00
   4  -3   0  108.92    3.20
  -4   3   0  114.05    3.34
  -4   3   0  109.73    3.04
   3  -3   0   13.55    0.57
   3  -3   0   14.63    0.41
  -3   3   0   13.71    0.56
  -3   3   0   13.80    0.55
   2  -3   0  141.18    3.94
   2  -3   0  148.38    3.86
  -2   3   0  141.94    4.18
  -2   3   0  145.93    3.80
   1  -3   0   67.23    1.94
  -1   3   0   70.74    1.92
  -1   3   0   70.62    2.08
  -1   3   0   70.79    1.90
   0   3   0   39.83    1.13
   0   3   0   39.68    1.16
   0   3   0   40.37    1.24
   0   3   0   39.37    1.11
  -1  -3   0   20.03    0.60
   1   3   0   19.82    0.59
   1   3   0   20.04    0.70
   1   3   0   18.94    0.68
  -2  -3   0  184.50    5.27
  -2  -3   0  186.44    4.69
   2   3   0  181.51    4.87
   2   3   0  175.11    5.03
  -3  -3   0   41.92    1.15
  -3  -3   0   39.23    1.36
   3   3   0   40.96    1.20
  -4  -3   0   31.65    1.22
  -4  -3   0   34.06    0.99
   4   3   0   34.97    1.07
   4   3   0   33.20    1.19
  -5  -3   0    1.97    0.35
   5   3   0    2.42    0.35
   5   3   0    1.34    0.23
  -6  -3   0   16.12    0.92
   6   3   0   18.76    0.84
   6   3   0   15.14    0.73
  -7  -3   0    9.82    0.82
   7   3   0   10.29    0.68
  -8  -3   0    2.59    0.57
   8   3   0    1.86    0.41
  -9  -3   0    0.78    0.54
   9  -4   0    0.16    0.43
   8  -4   0    1.64    0.50
  -8   4   0    1.32    0.38
  -8   4   0    0.60    0.49
   7  -4   0    7.96    0.74
  -7   4   0    8.65    0.76
  -7   4   0    8.74    0.69
   6  -4   0    6.27    0.58
  -6   4   0    8.60    0.72
  -6   4   0    7.27    0.56
   5  -4   0    0.34    0.23
  -5   4   0    0.32    0.24
  -5   4   0    0.23    0.21
   4  -4   0    0.08    0.17
  -4   4   0    0.27    0.16
  -4   4   0    0.10    0.18
   3  -4   0   35.44    1.18
   3  -4   0   38.84    1.04
  -3   4   0   35.05    1.15
  -3   4   0   35.76    1.20
   2  -4   0  126.20    3.38
   2  -4   0  124.26    3.46
  -2   4   0  125.50    3.68
  -2   4   0  124.98    3.36
   1  -4   0    7.86    0.34
  -1   4   0    7.88    0.37
  -1   4   0    7.88    0.37
  -1   4   0    7.69    0.31
   0   4   0   49.04    1.57
   0   4   0   50.98    1.48
   0   4   0   50.50    1.43
   0   4   0   51.27    1.42
  -1  -4   0   79.36    2.17
   1   4   0   83.40    2.34
   1   4   0   81.42    2.45
   1   4   0   78.94    2.21
  -2  -4   0   63.90    1.98
  -2  -4   0   61.41    1.71
   2   4   0   62.63    1.92
   2   4   0   63.14    1.75
  -3  -4   0    8.11    0.48
  -3  -4   0    8.42    0.36
   3   4   0    7.86    0.49
   3   4   0    8.37    0.34
  -4  -4   0    3.09    0.38
  -4  -4   0    3.75    0.26
   4   4   0    3.74    0.27
   4   4   0    3.00    0.37
  -5  -4   0   75.80    2.55
   5   4   0   78.21    2.45
  -6  -4   0   16.12    0.97
   6   4   0   19.11    0.92
  -7  -4   0    0.06    0.40
   7   4   0    0.09    0.29
  -8  -4   0    3.18    0.63
   8   4   0    3.06    0.50
   8  -5   0    2.71    0.59
  -8   5   0    3.20    0.51
   7  -5   0    7.61    0.76
  -7   5   0    6.08    0.60
  -7   5   0    5.48    0.55
   6  -5   0    4.36    0.53
  -6   5   0    5.20    0.49
  -6   5   0    3.91    0.46
   5  -5   0   16.97    0.84
  -5   5   0   16.92    0.81
  -5   5   0   17.37    0.78
   4  -5   0   19.64    0.84
  -4   5   0   19.86    0.82
  -4   5   0   19.88    0.82
   3  -5   0    1.35    0.21
  -3   5   0    1.35    0.22
  -3   5   0    0.55    0.19
   2  -5   0    1.31    0.18
  -2   5   0    1.24    0.20
  -2   5   0    1.08    0.21
   1  -5   0   67.87    1.97
  -1   5   0   68.31    2.13
  -1   5   0   68.35    1.94
  -1   5   0   70.47    1.96
   0   5   0   45.51    1.38
   0   5   0   44.55    1.47
  -1  -5   0   54.89    1.56
   1   5   0   54.02    1.77
   1   5   0   54.82    1.57
   1   5   0   57.62    1.71
  -2  -5   0   18.62    0.62
   2   5   0   17.16    0.75
   2   5   0   17.32    0.58
  -3  -5   0   31.74    0.95
  -3  -5   0   31.99    1.17
   3   5   0   28.12    1.14
  -4  -5   0   43.43    1.59
   4   5   0   44.09    1.57
  -5  -5   0    9.42    0.72
   5   5   0   10.81    0.71
  -6  -5   0    0.50    0.37
   6   5   0    0.81    0.35
  -7  -5   0   18.46    1.17
   7   5   0   19.53    1.01
  -8  -5   0    8.37    0.91
   8   5   0    8.59    0.80
   8  -6   0    1.94    0.59
  -8   6   0    1.20    0.47
   7  -6   0    1.14    0.46
  -7   6   0    1.55    0.43
   6  -6   0   11.67    0.82
  -6   6   0   11.17    0.79
  -6   6   0   12.28    0.72
   5  -6   0   14.10    0.80
  -5   6   0   14.10    0.79
  -5   6   0   14.54    0.74
   4  -6   0   -0.12    0.20
  -4   6   0   -0.37    0.17
  -4   6   0   -0.31    0.21
   3  -6   0   12.38    0.60
  -3   6   0   11.61    0.59
  -3   6   0   11.30    0.62
   2  -6   0   87.43    2.52
  -2   6   0   86.45    2.69
  -2   6   0   86.81    2.47
   1  -6   0    8.11    0.39
  -1   6   0    7.82    0.46
  -1   6   0    7.84    0.38
  -1   6   0    7.18    0.42
   0  -6   0    0.41    0.12
   0  -6   0    0.22    0.15
   0   6   0    0.36    0.16
   0   6   0    0.14    0.16
  -1  -6   0   22.82    0.79
   1   6   0   23.51    0.88
   1   6   0   22.34    0.90
   1   6   0   23.29    0.75
  -2  -6   0   71.44    1.99
   2   6   0   69.54    2.21
  -3  -6   0    8.97    0.60
  -3  -6   0    9.63    0.48
   3   6   0    7.98    0.59
  -4  -6   0    0.94    0.34
   4   6   0    1.20    0.34
  -5  -6   0    4.52    0.57
   5   6   0    5.41    0.59
  -6  -6   0   25.87    1.34
   6   6   0   24.68    1.21
  -7  -6   0    4.74    0.74
   7   6   0    4.97    0.63
   7  -7   0    0.76    0.47
  -7   7   0    0.08    0.42
   6  -7   0    0.83    0.39
  -6   7   0    0.86    0.42
   5  -7   0    0.66    0.32
  -5   7   0    0.54    0.28
  -5   7   0    0.86    0.37
   4  -7   0   53.79    1.81
  -4   7   0   51.23    1.81
  -4   7   0   54.84    1.78
   3  -7   0    3.99    0.39
  -3   7   0    3.98    0.43
  -3   7   0    3.84    0.40
   2  -7   0    0.34    0.18
  -2   7   0    0.41    0.22
  -2   7   0    0.34    0.24
   1  -7   0    0.10    0.14
  -1   7   0    0.42    0.21
   0  -7   0   36.92    1.21
   0  -7   0   37.52    1.19
   0   7   0   36.03    1.35
   0   7   0   39.81    1.26
  -1  -7   0   84.36    2.38
   1   7   0   86.04    2.56
   1   7   0   82.09    2.68
  -2  -7   0    6.41    0.42
   2   7   0    6.80    0.57
  -3  -7   0    2.42    0.40
   3   7   0    2.04    0.38
  -4  -7   0   22.75    1.10
   4   7   0   21.51    1.09
  -5  -7   0   21.20    1.13
   5   7   0   19.64    1.09
  -6  -7   0    0.12    0.45
   6   7   0   -0.13    0.37
   7   7   0    7.59    0.87
   6  -8   0    0.42    0.41
  -6   8   0   -0.22    0.40
   5  -8   0   22.90    1.14
  -5   8   0   23.93    1.15
   4  -8   0    0.83    0.33
  -4   8   0    0.81    0.29
  -4   8   0    0.81    0.35
   3  -8   0    0.62    0.26
  -3   8   0    0.69    0.32
  -3   8   0    0.73    0.28
   2  -8   0    8.38    0.53
  -2   8   0    9.15    0.60
  -2   8   0    9.09    0.60
   1  -8   0   12.58    0.65
  -1   8   0   12.49    0.69
   0  -8   0    7.18    0.51
   0   8   0    8.60    0.57
   0   8   0    7.48    0.51
  -1  -8   0   10.23    0.57
   1   8   0   10.07    0.62
   1   8   0    9.39    0.63
   2   8   0    0.69    0.30
  -3  -8   0   42.91    1.66
   3   8   0   42.03    1.63
  -4  -8   0   10.06    0.81
   4   8   0    8.99    0.79
  -5  -8   0    0.00    0.43
   5   8   0    0.88    0.39
  -6  -8   0   17.07    1.18
   6   8   0   14.46    1.05
   5  -9   0    1.10    0.44
  -5   9   0    0.68    0.45
   4  -9   0    0.20    0.34
  -4   9   0    0.83    0.35
  -4   9   0    0.62    0.36
  -3   9   0    5.21    0.53
  -3   9   0    5.75    0.58
   2  -9   0    3.23    0.43
  -2   9   0    4.06    0.47
   1  -9   0    1.56    0.33
  -1   9   0    2.22    0.38
   0  -9   0   17.13    0.80
   0   9   0   16.03    0.88
  -1  -9   0    6.78    0.52
   1   9   0    7.11    0.58
   1   9   0    6.69    0.60
  -2  -9   0    8.33    0.74
   2   9   0    8.05    0.69
  -3  -9   0    0.47    0.39
   3   9   0    0.02    0.35
  -4  -9   0    1.46    0.48
   4   9   0    2.00    0.49
  -5  -9   0   13.02    1.15
   5   9   0   12.47    1.03
   3 -10   0    1.21    0.35
   2 -10   0    0.84    0.32
  -2  10   0    1.12    0.38
   1 -10   0    1.64    0.37
  -1  10   0    1.41    0.38
   0 -10   0   15.63    0.81
   0  10   0   13.27    0.85
   1  10   0    3.51    0.52
  -2 -10   0    2.50    0.51
   2  10   0    2.99    0.53
  -3 -10   0   13.47    0.98
   3  10   0   13.51    0.97
   1  11  -1    0.95    0.42
   0  11  -1    2.38    0.50
   0 -11   1    3.47    0.49
  -1  11  -1    4.55    0.59
   1 -11   1    3.61    0.50
  -2  11  -1    1.39    0.42
   2 -11   1    1.61    0.42
   3  10  -1    0.47    0.41
  -3 -10   1    0.58    0.46
   1  10  -1   12.22    0.84
  -1 -10   1   11.87    0.73
   0  10  -1    0.16    0.30
   0 -10   1   -0.10    0.26
  -1  10  -1    0.10    0.31
   1 -10   1    0.18    0.29
  -2  10  -1   11.82    0.79
   2 -10   1   11.84    0.75
  -3  10  -1    2.12    0.43
   3 -10   1    1.63    0.40
  -4  10  -1   -0.04    0.33
   4 -10   1    0.85    0.37
   5   9  -1    6.16    0.78
  -5  -9   1    5.70    0.72
   4   9  -1   12.81    0.97
  -4  -9   1   15.64    1.00
   3   9  -1   16.10    0.98
  -3  -9   1   14.95    0.95
   2   9  -1    7.24    0.66
   2   9  -1    7.18    0.65
   1   9  -1    4.01    0.49
   1   9  -1    5.34    0.58
  -1  -9   1    4.28    0.44
   0   9  -1   13.05    0.78
   0  -9   1   13.62    0.72
  -1   9  -1   44.11    1.67
   1  -9   1   46.38    1.54
  -2   9  -1    1.35    0.35
   2  -9   1    0.74    0.29
  -3   9  -1    1.11    0.35
   3  -9   1    0.84    0.31
  -4   9  -1    1.13    0.35
  -4   9  -1    0.61    0.39
   4  -9   1    1.18    0.39
  -5   9  -1   14.25    0.89
  -5   9  -1   16.89    1.01
   5  -9   1   16.39    1.03
   6  -9   1    0.56    0.45
   6   8  -1    0.26    0.39
  -6  -8   1   -0.09    0.49
   5   8  -1   23.69    1.22
  -5  -8   1   22.36    1.22
   4   8  -1   24.40    1.21
  -4  -8   1   24.97    1.19
   3   8  -1   -0.22    0.29
  -3  -8   1    0.01    0.30
   2   8  -1    2.53    0.40
   2   8  -1    2.43    0.41
  -2  -8   1    2.28    0.32
   1   8  -1   43.61    1.59
   1   8  -1   44.60    1.52
  -1  -8   1   41.70    1.40
   0   8  -1   22.18    0.99
   0  -8   1   23.21    0.90
  -1   8  -1   -0.02    0.22
   1  -8   1   -0.02    0.19
  -2   8  -1    8.11    0.59
   2  -8   1    8.76    0.60
   2  -8   1    8.72    0.56
  -3   8  -1   17.23    0.84
  -3   8  -1   16.10    0.83
   3  -8   1   16.51    0.82
  -4   8  -1    8.27    0.63
  -4   8  -1    8.30    0.68
   4  -8   1    9.03    0.68
  -5   8  -1   -0.05    0.36
  -5   8  -1    0.70    0.32
   5  -8   1    0.63    0.37
  -6   8  -1    0.52    0.43
  -6   8  -1    0.54    0.34
   6  -8   1    0.39    0.44
  -7   8  -1    4.95    0.66
   7  -8   1    7.45    0.84
   7   7  -1   16.06    1.05
  -7  -7   1   15.14    1.15
   6   7  -1   21.47    1.16
  -6  -7   1   21.25    1.21
   5   7  -1   15.64    0.91
  -5  -7   1   14.82    0.94
   4   7  -1   10.44    0.75
  -4  -7   1   11.07    0.75
   3   7  -1   35.82    1.45
  -3  -7   1   38.72    1.23
  -3  -7   1   39.96    1.48
   2   7  -1   45.22    1.61
   2   7  -1   45.04    1.58
  -2  -7   1   44.77    1.40
   1   7  -1    4.34    0.42
   1   7  -1    3.61    0.38
  -1  -7   1    3.77    0.35
   0   7  -1    4.77    0.41
   0   7  -1    4.97    0.38
   0  -7   1    4.72    0.38
  -1   7  -1   49.59    1.69
   1  -7   1   48.55    1.53
   1  -7   1   50.19    1.53
  -2   7  -1   21.73    0.89
  -2   7  -1   21.01    0.84
   2  -7   1   19.17    0.80
  -3   7  -1    0.43    0.25
  -3   7  -1    0.13    0.22
   3  -7   1    0.24    0.22
  -4   7  -1   14.55    0.75
  -4   7  -1   15.30    0.79
   4  -7   1   14.99    0.82
  -5   7  -1    0.11    0.27
  -5   7  -1    0.16    0.33
   5  -7   1    0.37    0.33
  -6   7  -1    4.20    0.51
  -6   7  -1    3.22    0.51
   6  -7   1    4.11    0.61
  -7   7  -1    0.60    0.41
  -7   7  -1    0.54    0.40
   7  -7   1    0.16    0.44
   7   6  -1    6.74    0.67
  -7  -6   1    6.98    0.80
   6   6  -1    0.45    0.31
  -6  -6   1    0.11    0.38
   5   6  -1    8.21    0.64
  -5  -6   1    9.54    0.73
   4   6  -1   70.33    2.33
  -4  -6   1   72.00    2.39
   3   6  -1   58.83    1.96
  -3  -6   1   57.48    1.98
  -3  -6   1   60.28    1.72
   2   6  -1   23.62    0.98
   2   6  -1   24.66    0.99
  -2  -6   1   26.03    0.85
   1   6  -1   38.22    1.29
   1   6  -1   38.29    1.34
  -1  -6   1   37.94    1.18
   0   6  -1   53.14    1.55
   0   6  -1   48.50    1.65
   0  -6   1   49.99    1.49
   0  -6   1   48.93    1.45
  -1   6  -1   14.48    0.54
  -1   6  -1   14.67    0.66
   1  -6   1   13.97    0.60
   1  -6   1   14.73    0.56
  -2   6  -1    0.14    0.17
  -2   6  -1    0.18    0.17
   2  -6   1    0.21    0.15
  -3   6  -1   43.80    1.51
  -3   6  -1   43.66    1.41
   3  -6   1   43.10    1.45
  -4   6  -1   19.80    0.85
  -4   6  -1   19.50    0.85
   4  -6   1   18.51    0.86
  -5   6  -1    0.24    0.25
  -5   6  -1    0.08    0.26
   5  -6   1   -0.01    0.28
  -6   6  -1    0.53    0.35
  -6   6  -1    0.30    0.28
   6  -6   1    0.45    0.36
  -7   6  -1    0.51    0.38
  -7   6  -1    0.81    0.40
   7  -6   1    0.98    0.43
  -8   6  -1    2.33    0.48
   8  -6   1    1.71    0.54
   8   5  -1    1.16    0.43
  -8  -5   1    1.89    0.59
   7   5  -1   10.68    0.79
  -7  -5   1   10.88    0.93
   6   5  -1   37.95    1.47
  -6  -5   1   36.58    1.54
   5   5  -1    4.82    0.50
  -5  -5   1    6.49    0.57
   4   5  -1    7.99    0.55
  -4  -5   1    8.33    0.43
  -4  -5   1    8.85    0.59
   3   5  -1    7.79    0.52
  -3  -5   1    7.97    0.50
  -3  -5   1    8.49    0.40
   2   5  -1   98.73    2.97
   2   5  -1   91.22    2.86
   2   5  -1   97.78    2.64
  -2  -5   1   99.91    2.63
   1   5  -1   75.19    2.33
   1   5  -1   75.90    2.24
  -1  -5   1   74.69    2.08
   0   5  -1    0.70    0.17
   0   5  -1    0.78    0.16
   0  -5   1    0.77    0.17
   0  -5   1    0.77    0.11
  -1   5  -1   13.13    0.54
  -1   5  -1   13.77    0.48
  -1   5  -1   13.69    0.58
   1  -5   1   13.10    0.50
  -2   5  -1   40.01    1.24
  -2   5  -1   40.60    1.35
  -2   5  -1   40.40    1.14
   2  -5   1   39.75    1.26
  -3   5  -1   43.95    1.41
  -3   5  -1   46.61    1.52
   3  -5   1   45.89    1.47
  -4   5  -1    2.89    0.33
  -4   5  -1    2.31    0.30
   4  -5   1    2.59    0.34
  -5   5  -1   16.52    0.77
  -5   5  -1   15.49    0.77
   5  -5   1   15.96    0.85
  -6   5  -1    8.03    0.64
  -6   5  -1    8.77    0.67
   6  -5   1    6.55    0.64
  -7   5  -1    5.43    0.61
  -7   5  -1    6.13    0.56
   7  -5   1    5.97    0.64
  -8   5  -1   -0.33    0.32
  -8   5  -1   -0.42    0.43
   8  -5   1   -0.32    0.37
   8   4  -1   11.76    0.81
  -8  -4   1    9.61    0.89
   7   4  -1   45.95    1.69
  -7  -4   1   45.45    1.85
   6   4  -1    0.79    0.31
  -6  -4   1    0.68    0.36
   5   4  -1    5.57    0.50
  -5  -4   1    6.03    0.53
   4   4  -1   49.00    1.65
  -4  -4   1   47.74    1.66
  -4  -4   1   50.16    1.43
   3   4  -1  104.32    3.16
   3   4  -1  109.51    2.91
  -3  -4   1  108.01    3.26
  -3  -4   1  107.46    2.87
   2   4  -1    1.53    0.24
   2   4  -1    1.26    0.19
   2   4  -1    1.38    0.11
  -2  -4   1    1.39    0.17
   1   4  -1   23.17    0.82
   1   4  -1   22.77    0.83
   1   4  -1   24.04    0.68
  -1  -4   1   22.68    0.73
   0   4  -1   25.86    0.83
   0   4  -1   25.48    0.87
   0  -4   1   25.27    0.75
   0  -4   1   24.67    0.78
  -1   4  -1  125.52    3.28
  -1   4  -1  118.61    3.20
  -1   4  -1  120.48    3.54
   1  -4   1  116.42    3.29
  -2   4  -1    1.40    0.19
  -2   4  -1    1.28    0.19
   2  -4   1    1.42    0.19
  -3   4  -1    1.42    0.21
  -3   4  -1    1.92    0.23
   3  -4   1    1.52    0.22
  -4   4  -1   27.06    0.93
  -4   4  -1   25.87    0.98
   4  -4   1   26.22    1.02
  -5   4  -1   36.91    1.23
  -5   4  -1   37.35    1.36
   5  -4   1   34.79    1.37
  -6   4  -1    3.95    0.53
  -6   4  -1    3.06    0.40
   6  -4   1    4.09    0.52
  -7   4  -1    4.84    0.49
  -7   4  -1    5.24    0.64
   7  -4   1    5.44    0.62
  -8   4  -1    2.84    0.62
   8  -4   1    3.16    0.51
  -9   4  -1    1.43    0.66
   9  -4   1    1.89    0.52
   9   3  -1    2.43    0.48
  -9  -3   1    2.08    0.60
   8   3  -1   11.47    0.77
  -8  -3   1   11.99    0.97
   7   3  -1    1.71    0.37
  -7  -3   1    1.58    0.46
   6   3  -1   32.19    1.23
  -6  -3   1   31.35    1.33
   5   3  -1   52.51    1.76
   5   3  -1   63.02    1.93
  -5  -3   1   62.28    1.69
  -5  -3   1   57.56    1.98
   4   3  -1   29.35    1.08
   4   3  -1   28.36    0.93
  -4  -3   1   28.93    1.07
  -4  -3   1   28.71    0.89
   3   3  -1   22.85    0.70
   3   3  -1   22.88    0.87
  -3  -3   1   21.96    0.71
  -3  -3   1   21.87    0.83
   2   3  -1  152.44    4.32
   2   3  -1  157.27    4.11
  -2  -3   1  153.04    4.01
   1   3  -1  267.42    7.77
   1   3  -1  296.18    7.58
   1   3  -1  297.96    8.18
  -1  -3   1  284.34    7.34
   0   3  -1  114.63    3.18
   0   3  -1  114.48    3.35
   0  -3   1  116.36    3.09
  -1   3  -1   70.56    1.93
  -1   3  -1   72.22    2.14
  -1   3  -1   73.40    1.96
   1  -3   1   70.21    2.00
  -2   3  -1  126.98    3.33
  -2   3  -1  124.36    3.68
   2  -3   1  127.07    3.50
  -3   3  -1   46.34    1.49
  -3   3  -1   47.32    1.36
   3  -3   1   45.12    1.46
  -4   3  -1    0.32    0.16
  -4   3  -1    0.49    0.20
   4  -3   1    0.45    0.19
  -5   3  -1    0.43    0.26
  -5   3  -1    0.59    0.21
   5  -3   1    0.42    0.23
  -6   3  -1   13.68    0.87
  -6   3  -1   13.56    0.66
   6  -3   1   12.91    0.79
  -7   3  -1   10.44    0.64
  -7   3  -1   11.24    0.98
   7  -3   1   10.11    0.75
  -8   3  -1    2.97    0.71
   8  -3   1    3.81    0.57
  -9   3  -1    1.61    0.79
   9  -3   1    1.98    0.50
  -9  -2   1    1.18    0.55
   8   2  -1    4.56    0.51
  -8  -2   1    3.31    0.57
   7   2  -1   20.28    0.90
   7   2  -1   19.43    0.88
  -7  -2   1   18.05    1.01
   6   2  -1   41.05    1.37
   6   2  -1   39.51    1.42
  -6  -2   1   40.75    1.33
  -6  -2   1   39.58    1.53
   5   2  -1    4.44    0.41
   5   2  -1    3.16    0.31
  -5  -2   1    2.80    0.36
  -5  -2   1    3.94    0.32
   4   2  -1   15.11    0.64
   4   2  -1   13.25    0.56
  -4  -2   1   14.16    0.52
  -4  -2   1   13.59    0.64
   3   2  -1  308.70    7.95
   3   2  -1  262.15    7.77
  -3  -2   1  292.67    7.45
  -3  -2   1  299.83    8.33
   2   2  -1    5.15    0.20
   2   2  -1    5.00    0.30
  -2  -2   1    4.62    0.22
  -2  -2   1    4.78    0.26
   1   2  -1    8.29    0.33
  -1  -2   1    7.95    0.29
   0   2  -1   17.77    0.56
   0   2  -1   16.97    0.58
   0  -2   1   18.18    0.51
   0  -2   1   17.39    0.52
  -1   2  -1  461.95   11.97
  -1   2  -1  468.79   13.27
  -1   2  -1  435.12   12.40
   1  -2   1  496.45   12.58
  -2   2  -1  296.74    7.49
  -2   2  -1  295.29    8.33
   2  -2   1  285.51    7.88
  -3   2  -1  102.75    3.10
  -3   2  -1   99.78    2.73
   3  -2   1  103.43    2.96
   3  -2   1  104.14    2.76
  -4   2  -1    2.99    0.25
  -4   2  -1    3.15    0.39
   4  -2   1    2.95    0.34
   4  -2   1    2.70    0.17
  -5   2  -1   42.12    1.32
  -5   2  -1   45.44    1.68
   5  -2   1   43.53    1.51
  -6   2  -1   16.27    1.01
  -6   2  -1   17.00    0.69
   6  -2   1   16.63    0.83
  -7   2  -1    2.22    0.64
   7  -2   1    3.29    0.46
  -8   2  -1    1.01    0.55
   8  -2   1    1.57    0.43
  -9   2  -1   -0.16    0.75
   9  -2   1   -0.02    0.38
  -9  -1   1   18.05    1.29
   8   1  -1   14.32    0.82
  -8  -1   1   13.80    1.00
   7   1  -1    2.14    0.35
   7   1  -1    1.94    0.33
  -7  -1   1    2.29    0.46
   6   1  -1    5.42    0.45
   6   1  -1    5.11    0.42
  -6  -1   1    5.28    0.41
  -6  -1   1    4.81    0.51
   5   1  -1   43.98    1.46
   5   1  -1   46.40    1.45
  -5  -1   1   43.92    1.57
  -5  -1   1   44.50    1.35
   4   1  -1  134.90    3.81
   4   1  -1  137.82    3.77
  -4  -1   1  132.47    3.57
  -4  -1   1  132.14    4.02
   3   1  -1    3.40    0.26
   3   1  -1    3.28    0.25
  -3  -1   1    3.23    0.23
  -3  -1   1    3.11    0.26
   2   1  -1  124.87    3.47
   2   1  -1  128.04    3.42
  -2  -1   1  124.28    3.27
  -2  -1   1  126.03    3.63
   1   1  -1  158.81    4.49
   1   1  -1  160.67    4.20
   1   1  -1  160.95    4.27
  -1  -1   1  151.22    4.05
   0   1  -1   12.94    0.42
   0   1  -1   13.06    0.43
   0  -1   1   14.35    0.39
  -1   1  -1   35.52    1.08
  -1   1  -1   37.05    0.97
  -1   1  -1   36.39    0.95
   1  -1   1   32.98    1.04
  -2   1  -1   30.46    1.09
  -2   1  -1   33.48    0.90
   2  -1   1   31.89    1.02
   2  -1   1   33.37    0.91
  -3   1  -1   35.54    1.02
  -3   1  -1   34.85    1.30
   3  -1   1   36.49    1.18
   3  -1   1   36.75    1.05
  -4   1  -1   47.59    1.38
  -4   1  -1   46.26    1.76
   4  -1   1   51.34    1.57
   4  -1   1   49.08    1.43
  -5   1  -1   11.36    0.80
  -5   1  -1   13.16    0.54
   5  -1   1   13.14    0.53
   5  -1   1   13.48    0.66
  -6   1  -1    2.90    0.29
  -6   1  -1    2.19    0.50
   6  -1   1    2.70    0.38
  -7   1  -1    8.92    0.95
   7  -1   1   10.32    0.70
  -8   1  -1    7.77    0.93
   8  -1   1    9.28    0.72
  -9   1  -1    1.49    0.79
   9  -1   1    4.75    0.61
   9   0  -1    9.51    0.80
  -9   0   1    7.70    0.95
   8   0  -1    0.69    0.35
  -8   0   1    0.71    0.47
   7   0  -1   18.73    0.88
  -7   0   1   17.42    1.09
  -7   0   1   17.99    0.78
   6   0  -1   41.69    1.51
   6   0  -1   43.33    1.44
  -6   0   1   45.98    1.70
  -6   0   1   43.24    1.37
   5   0  -1   28.77    1.01
   5   0  -1   27.15    1.06
  -5   0   1   30.50    1.16
  -5   0   1   29.72    0.96
   4   0  -1    9.90    0.46
   4   0  -1   10.16    0.49
  -4   0   1    9.88    0.53
  -4   0   1   10.75    0.46
   3   0  -1   57.49    1.67
   3   0  -1   57.71    1.68
  -3   0   1   58.00    1.80
  -3   0   1   57.30    1.61
   2   0  -1  185.63    5.03
   2   0  -1  187.74    5.06
  -2   0   1  188.08    5.37
  -2   0   1  188.06    4.85
   1   0  -1    4.63    0.20
   1   0  -1    4.56    0.17
  -1   0   1    4.54    0.20
  -1   0   1    4.97    0.19
   0   0  -1   27.71    0.87
   0   0  -1   29.48    0.83
   0   0   1   29.74    0.78
  -1   0  -1   12.75    0.33
   1   0   1   11.73    0.38
  -2   0  -1  146.38    3.70
  -2   0  -1  142.09    4.23
   2   0   1  146.06    3.93
   2   0   1  144.48    3.95
  -3   0  -1   17.32    0.53
  -3   0  -1   18.14    0.73
   3   0   1   16.97    0.66
   3   0   1   16.93    0.60
  -4   0  -1    1.69    0.30
  -4   0  -1    1.77    0.17
   4   0   1    1.81    0.24
   4   0   1    1.89    0.21
  -5   0  -1    8.75    0.60
  -5   0  -1    6.84    0.35
   5   0   1    7.77    0.49
   5   0   1    6.96    0.41
  -6   0  -1   30.18    1.34
   6   0   1   28.88    1.04
   6   0   1   28.16    1.12
  -7   0  -1    8.66    0.85
   7   0   1    9.15    0.65
  -8   0  -1   -0.03    0.47
   8   0   1    0.27    0.30
  -9   0  -1   -0.50    0.62
   9   0   1   -0.02    0.38
   9  -1  -1    0.55    0.40
   8  -1  -1   13.33    0.85
  -8   1   1   15.18    1.12
   7  -1  -1    7.89    0.66
  -7   1   1    8.21    0.56
  -7   1   1    6.78    0.84
   6  -1  -1    0.77    0.29
   6  -1  -1    0.48    0.19
  -6   1   1    1.07    0.25
  -6   1   1    0.59    0.36
   5  -1  -1    4.41    0.33
   5  -1  -1    4.37    0.39
  -5   1   1    4.44    0.35
  -5   1   1    4.08    0.49
   4  -1  -1   18.25    0.62
   4  -1  -1   17.03    0.68
  -4   1   1   15.01    0.80
  -4   1   1   18.73    0.67
   3  -1  -1  112.09    2.98
   3  -1  -1  108.93    3.01
  -3   1   1  103.59    2.90
  -3   1   1  108.92    3.26
   2  -1  -1   53.14    1.51
   2  -1  -1   54.03    1.52
  -2   1   1   53.37    1.49
  -2   1   1   54.16    1.61
   1  -1  -1  174.39    4.52
  -1   1   1  174.46    4.77
  -1   1   1  161.46    4.35
  -1   1   1  164.25    4.51
   0   1   1   51.46    1.37
   0   1   1   51.02    1.51
   0   1   1   54.13    1.45
   0   1   1   52.92    1.44
  -1  -1  -1   57.60    1.71
  -1  -1  -1   58.04    1.47
   1   1   1   57.50    1.59
  -2  -1  -1   78.38    1.97
  -2  -1  -1   76.05    2.32
   2   1   1   74.92    2.16
   2   1   1   77.00    2.14
  -3  -1  -1   40.12    1.05
  -3  -1  -1   39.16    1.33
   3   1   1   37.92    1.20
   3   1   1   37.33    1.20
  -4  -1  -1   73.15    2.31
  -4  -1  -1   74.23    1.90
   4   1   1   65.49    2.11
   4   1   1   71.45    2.11
  -5  -1  -1   33.20    1.31
   5   1   1   34.47    1.17
   5   1   1   33.03    1.19
  -6  -1  -1   13.50    0.82
   6   1   1   13.25    0.65
   6   1   1   13.74    0.73
  -7  -1  -1   19.12    1.08
   7   1   1   18.87    0.91
   7   1   1   18.80    0.84
  -8  -1  -1   18.76    1.18
   8   1   1   18.81    0.97
  -9  -1  -1    2.71    0.73
   9   1   1    2.73    0.50
   9  -2  -1    1.71    0.49
   8  -2  -1    0.71    0.38
  -8   2   1    0.00    0.46
  -8   2   1    0.40    0.34
   7  -2  -1    0.84    0.36
  -7   2   1    1.46    0.33
  -7   2   1   -0.03    0.45
   6  -2  -1   20.70    0.97
  -6   2   1   23.20    0.88
  -6   2   1   21.97    1.07
   5  -2  -1   30.69    0.98
   5  -2  -1   29.71    1.10
  -5   2   1   29.87    1.04
  -5   2   1   30.90    1.20
   4  -2  -1    5.46    0.35
   4  -2  -1    5.67    0.27
  -4   2   1    5.37    0.37
  -4   2   1    5.67    0.40
   3  -2  -1    9.43    0.36
   3  -2  -1    8.63    0.39
  -3   2   1    8.36    0.41
   2  -2  -1    0.96    0.13
   2  -2  -1    1.17    0.10
  -2   2   1    1.30    0.13
  -2   2   1    1.13    0.16
   1  -2  -1  335.37    9.00
  -1   2   1  337.74    9.52
  -1   2   1  335.87    8.95
   0   2   1   65.45    1.71
   0   2   1   63.49    1.79
   0   2   1   66.85    1.90
   0   2   1   63.99    1.81
  -1  -2  -1    0.44    0.10
  -1  -2  -1    0.59    0.07
   1   2   1    0.63    0.09
   1   2   1    0.60    0.11
  -2  -2  -1   31.20    1.05
  -2  -2  -1   32.38    0.85
   2   2   1   30.83    0.93
  -3  -2  -1  292.86    8.54
  -3  -2  -1  299.79    7.54
   3   2   1  301.69    7.97
   3   2   1  291.34    8.07
  -4  -2  -1    6.75    0.28
  -4  -2  -1    6.25    0.47
   4   2   1    6.26    0.38
   4   2   1    5.52    0.39
  -5  -2  -1    2.04    0.34
   5   2   1    2.06    0.29
   5   2   1    1.97    0.28
  -6  -2  -1   22.95    1.10
   6   2   1   22.83    0.96
   6   2   1   24.04    0.98
  -7  -2  -1   40.93    1.71
   7   2   1   43.20    1.52
   7   2   1   41.59    1.52
  -8  -2  -1    3.71    0.63
   8   2   1    4.16    0.49
  -9  -2  -1    6.61    0.86
   9  -3  -1    1.39    0.51
   8  -3  -1    0.46    0.41
  -8   3   1   -0.02    0.32
   7  -3  -1   15.38    0.94
  -7   3   1   16.02    0.97
  -7   3   1   16.86    0.84
   6  -3  -1   17.67    0.86
  -6   3   1   16.77    0.86
  -6   3   1   16.65    0.81
   5  -3  -1    0.33    0.18
  -5   3   1    0.05    0.21
  -5   3   1   -0.01    0.19
   4  -3  -1    6.13    0.27
   4  -3  -1    5.70    0.38
  -4   3   1    5.89    0.36
  -4   3   1    6.29    0.42
   3  -3  -1  140.30    3.94
   3  -3  -1  145.78    3.88
  -3   3   1  139.10    4.13
  -3   3   1  144.75    3.82
   2  -3  -1   29.67    0.85
   2  -3  -1   29.06    0.92
  -2   3   1   28.83    0.91
  -2   3   1   29.72    0.95
  -1   3   1    5.95    0.28
  -1   3   1    5.78    0.25
  -1   3   1    5.93    0.27
  -1   3   1    5.73    0.28
   0   3   1   44.90    1.28
   0   3   1   45.64    1.31
   0   3   1   44.04    1.37
   0   3   1   44.22    1.24
  -1  -3  -1   36.04    0.99
   1   3   1   35.95    1.11
   1   3   1   35.42    1.04
  -2  -3  -1  233.48    6.78
  -2  -3  -1  241.04    6.02
   2   3   1  228.95    6.31
   2   3   1  238.47    6.46
  -3  -3  -1    8.50    0.48
  -3  -3  -1    8.68    0.31
   3   3   1    8.41    0.37
   3   3   1    8.22    0.47
  -4  -3  -1   58.91    1.99
   4   3   1   61.82    1.77
   4   3   1   57.09    1.87
  -5  -3  -1   23.92    1.11
   5   3   1   25.42    1.01
   5   3   1   26.74    0.95
  -6  -3  -1   20.04    1.05
   6   3   1   21.79    0.94
   6   3   1   17.72    0.83
  -7  -3  -1    0.17    0.42
   7   3   1    0.54    0.31
  -8  -3  -1   22.14    1.27
   8   3   1   23.63    1.10
   9  -4  -1    1.64    0.54
   8  -4  -1    2.84    0.57
  -8   4   1    1.84    0.43
   7  -4  -1    1.67    0.44
  -7   4   1    1.72    0.40
   6  -4  -1    2.06    0.37
  -6   4   1    4.08    0.51
  -6   4   1    2.11    0.38
   5  -4  -1    5.82    0.49
  -5   4   1    5.04    0.45
  -5   4   1    7.08    0.44
   4  -4  -1   73.29    2.24
  -4   4   1   75.52    2.29
   3  -4  -1    6.92    0.28
   3  -4  -1    6.85    0.38
  -3   4   1    7.15    0.41
  -3   4   1    6.83    0.36
   2  -4  -1    5.16    0.31
   2  -4  -1    5.78    0.25
  -2   4   1    5.02    0.31
  -2   4   1    5.58    0.34
  -1   4   1  160.20    4.60
  -1   4   1  158.47    4.17
  -1   4   1  157.39    4.32
   0   4   1  118.05    3.32
   0   4   1  120.48    3.27
   0   4   1  119.06    3.16
   0   4   1  119.80    3.51
  -1  -4  -1    1.11    0.13
   1   4   1    0.99    0.18
   1   4   1    0.87    0.17
   1   4   1    1.00    0.13
  -2  -4  -1   54.04    1.77
  -2  -4  -1   56.47    1.51
   2   4   1   55.90    1.72
   2   4   1   54.25    1.58
  -3  -4  -1   84.68    2.21
  -3  -4  -1   81.99    2.60
   3   4   1   86.72    2.34
   3   4   1   77.26    2.49
  -4  -4  -1   56.88    1.94
   4   4   1   52.90    1.85
   4   4   1   59.58    1.70
  -5  -4  -1    5.79    0.57
   5   4   1    4.75    0.49
   5   4   1    5.20    0.39
  -6  -4  -1    6.54    0.66
   6   4   1    7.86    0.63
  -7  -4  -1   12.81    0.98
   7   4   1   12.16    0.81
  -8  -4  -1    7.04    0.83
   8   4   1    6.63    0.69
   8  -5  -1    0.23    0.44
  -8   5   1    0.33    0.40
   7  -5  -1   10.10    0.83
  -7   5   1    7.79    0.67
   6  -5  -1    3.74    0.48
  -6   5   1    4.44    0.51
   5  -5  -1    7.31    0.56
  -5   5   1    7.87    0.59
  -5   5   1    7.93    0.49
   4  -5  -1    0.11    0.20
  -4   5   1    0.11    0.17
  -4   5   1    0.01    0.21
   3  -5  -1   36.23    1.22
  -3   5   1   38.07    1.25
  -3   5   1   36.37    1.22
   2  -5  -1   66.41    1.93
   2  -5  -1   64.87    1.86
  -2   5   1   65.21    2.03
  -2   5   1   64.85    1.89
   1  -5  -1    2.33    0.21
  -1   5   1    2.60    0.26
  -1   5   1    2.76    0.26
  -1   5   1    2.42    0.22
   0   5   1    0.33    0.12
   0   5   1    0.14    0.12
   0   5   1    0.31    0.14
   0   5   1    0.21    0.14
  -1  -5  -1   55.56    1.58
   1   5   1   55.08    1.80
   1   5   1   57.55    1.73
   1   5   1   55.86    1.62
  -2  -5  -1   61.34    2.03
  -2  -5  -1   62.06    1.74
   2   5   1   64.34    1.98
   2   5   1   63.93    1.81
  -3  -5  -1   24.69    1.00
   3   5   1   24.63    0.81
   3   5   1   23.62    0.98
  -4  -5  -1    6.88    0.59
   4   5   1    5.86    0.50
  -5  -5  -1   37.44    1.53
   5   5   1   37.61    1.46
  -6  -5  -1   27.20    1.36
   6   5   1   29.69    1.27
  -7  -5  -1    0.25    0.50
   7   5   1    0.34    0.36
  -8  -5  -1    4.29    0.73
   8   5   1    4.35    0.62
   8  -6  -1    4.78    0.73
  -8   6   1    4.69    0.64
   7  -6  -1    3.44    0.59
  -7   6   1    3.81    0.58
   6  -6  -1    1.72    0.41
  -6   6   1    0.75    0.36
   5  -6  -1    5.03    0.50
  -5   6   1    6.51    0.49
  -5   6   1    5.43    0.54
   4  -6  -1    8.48    0.57
  -4   6   1    9.30    0.62
  -4   6   1   10.22    0.55
   3  -6  -1   23.02    0.89
  -3   6   1   23.52    0.93
  -3   6   1   23.98    0.91
   2  -6  -1    1.25    0.21
  -2   6   1    1.56    0.24
  -2   6   1    1.47    0.27
   1  -6  -1   13.53    0.56
  -1   6   1   13.21    0.61
  -1   6   1   13.29    0.58
  -1   6   1   13.39    0.55
   0   6   1   61.10    1.82
   0   6   1   60.47    1.78
   0   6   1   63.86    1.87
   0   6   1   61.53    1.99
  -1  -6  -1   17.77    0.65
   1   6   1   17.01    0.73
   1   6   1   16.70    0.75
   1   6   1   17.10    0.63
  -2  -6  -1    2.96    0.26
  -2  -6  -1    3.02    0.37
   2   6   1    3.27    0.29
   2   6   1    2.60    0.34
  -3  -6  -1    9.24    0.62
   3   6   1    8.39    0.62
  -4  -6  -1   22.90    1.06
   4   6   1   20.21    1.02
  -5  -6  -1   24.35    1.20
   5   6   1   23.91    1.13
  -6  -6  -1   -0.06    0.41
   6   6   1    0.15    0.35
  -7  -6  -1    6.68    0.85
   7   6   1    7.67    0.79
   7  -7  -1    0.16    0.42
  -7   7   1   -0.11    0.39
   6  -7  -1    9.60    0.79
  -6   7   1    6.99    0.68
   5  -7  -1    6.53    0.60
  -5   7   1    4.99    0.55
   4  -7  -1    2.54    0.38
  -4   7   1    2.79    0.36
  -4   7   1    2.50    0.43
   3  -7  -1    7.23    0.50
  -3   7   1    6.76    0.49
  -3   7   1    6.65    0.56
   2  -7  -1   17.29    0.72
  -2   7   1   15.43    0.74
  -2   7   1   16.24    0.74
   1  -7  -1   21.73    0.81
  -1   7   1   21.34    0.84
  -1   7   1   21.73    0.84
  -1   7   1   21.71    0.90
   0  -7  -1    8.66    0.49
   0   7   1    8.22    0.53
   0   7   1    8.14    0.49
  -1  -7  -1    9.61    0.51
   1   7   1    9.96    0.60
   1   7   1   10.34    0.59
  -2  -7  -1   65.56    2.25
   2   7   1   68.40    2.19
  -3  -7  -1   10.97    0.71
   3   7   1    8.46    0.68
  -4  -7  -1    1.11    0.39
   4   7   1    1.24    0.40
  -5  -7  -1    7.29    0.74
   5   7   1    7.30    0.73
  -6  -7  -1   11.85    1.04
   6   7   1   12.50    0.95
   6  -8  -1    0.82    0.44
  -6   8   1    0.95    0.48
   5  -8  -1   -0.25    0.31
  -5   8   1   -0.07    0.37
   4  -8  -1    1.23    0.33
  -4   8   1    1.76    0.42
   3  -8  -1   14.97    0.76
  -3   8   1   14.78    0.81
  -3   8   1   14.42    0.74
   2  -8  -1   13.10    0.64
  -2   8   1   11.65    0.68
  -2   8   1   12.39    0.69
   1  -8  -1    4.02    0.39
  -1   8   1    4.05    0.43
   0  -8  -1    7.37    0.49
   0   8   1    7.39    0.52
   0   8   1    7.00    0.54
  -1  -8  -1   41.47    1.35
   1   8   1   40.30    1.46
   1   8   1   41.42    1.54
  -2  -8  -1   10.71    0.73
   2   8   1    9.81    0.70
  -3  -8  -1    5.71    0.61
   3   8   1    5.84    0.61
  -4  -8  -1   24.71    1.25
   4   8   1   24.56    1.24
  -5  -8  -1   11.38    0.97
   5   8   1    9.80    0.90
   5  -9  -1   10.16    0.84
  -5   9   1   10.27    0.87
   4  -9  -1    1.52    0.39
  -4   9   1    1.00    0.42
   3  -9  -1   -0.16    0.26
  -3   9   1   -0.27    0.30
  -2   9   1    4.65    0.50
   1  -9  -1   13.78    0.73
  -1   9   1   14.58    0.81
   0  -9  -1    7.46    0.54
   0   9   1    5.51    0.56
   1   9   1    0.14    0.29
  -2  -9  -1    5.37    0.60
   2   9   1    3.61    0.51
  -3  -9  -1   23.38    1.20
   3   9   1   23.07    1.20
  -4  -9  -1    6.04    0.72
   4   9   1    7.06    0.78
   2 -10  -1   25.72    1.13
   1 -10  -1    1.69    0.37
  -1  10   1    1.53    0.39
   0  10   1   13.56    0.85
  -1 -10  -1    0.33    0.37
  -2 -10  -1    7.17    0.74
   2  10   1    7.36    0.72
   1  11  -2    6.69    0.73
  -1 -11   2    7.15    0.64
   0  11  -2    0.22    0.35
   0 -11   2    0.05    0.31
  -1  11  -2    2.66    0.51
   1 -11   2    2.79    0.46
  -2  11  -2    8.78    0.77
   2 -11   2    8.75    0.76
   4  10  -2    9.13    0.89
  -4 -10   2   11.42    1.00
   3  10  -2   15.35    1.00
  -3 -10   2   14.81    1.02
   2  10  -2   -0.10    0.33
   1  10  -2    2.59    0.45
  -1 -10   2    4.25    0.48
   0  10  -2   10.48    0.76
   0 -10   2    9.47    0.69
  -1  10  -2    7.27    0.65
   1 -10   2    7.11    0.62
  -2  10  -2    0.58    0.34
   2 -10   2    0.13    0.29
  -3  10  -2    2.18    0.45
   3 -10   2    1.60    0.37
  -4  10  -2    3.40    0.51
   4 -10   2    2.27    0.45
   5   9  -2   16.63    1.09
  -5  -9   2   16.20    1.08
   4   9  -2   12.28    0.92
  -4  -9   2   13.17    0.92
   3   9  -2    2.75    0.51
  -3  -9   2    3.19    0.52
   2   9  -2   26.62    1.22
   2   9  -2   28.25    1.24
  -2  -9   2   28.60    1.08
   1   9  -2   15.27    0.84
  -1  -9   2   15.09    0.75
   0   9  -2    0.86    0.31
   0  -9   2    0.52    0.26
  -1   9  -2    0.26    0.27
   1  -9   2    0.01    0.24
  -2   9  -2    9.71    0.68
   2  -9   2    8.87    0.62
  -3   9  -2    4.63    0.52
   3  -9   2    5.72    0.53
  -4   9  -2    1.44    0.38
   4  -9   2    1.71    0.39
  -5   9  -2    0.94    0.40
   5  -9   2    0.78    0.43
  -6   9  -2    0.58    0.39
   6  -9   2    0.72    0.48
   6   8  -2    7.20    0.74
  -6  -8   2    6.69    0.76
   5   8  -2    1.62    0.47
  -5  -8   2    0.98    0.44
   4   8  -2    1.24    0.41
  -4  -8   2    1.66    0.42
   3   8  -2   24.95    1.16
  -3  -8   2   26.53    0.99
   2   8  -2   25.06    1.14
   2   8  -2   28.16    1.15
  -2  -8   2   27.04    1.00
   1   8  -2   -0.18    0.21
   1   8  -2    0.06    0.22
  -1  -8   2    0.23    0.21
   0   8  -2   18.73    0.89
   0  -8   2   19.43    0.81
  -1   8  -2   10.75    0.66
   1  -8   2   10.15    0.59
  -2   8  -2   10.51    0.65
   2  -8   2   10.27    0.58
  -3   8  -2   -0.11    0.24
   3  -8   2   -0.09    0.25
   3  -8   2    0.01    0.23
  -4   8  -2   -0.03    0.27
   4  -8   2   -0.03    0.29
  -5   8  -2   14.00    0.86
  -5   8  -2   12.93    0.81
   5  -8   2   12.28    0.93
  -6   8  -2    1.44    0.47
  -6   8  -2    0.80    0.42
   6  -8   2    0.93    0.47
  -7   8  -2   -0.06    0.41
  -7   8  -2   -0.15    0.41
   7  -8   2    0.20    0.47
   7   7  -2    5.21    0.66
  -7  -7   2    5.56    0.75
   6   7  -2    3.71    0.56
  -6  -7   2    4.55    0.61
   5   7  -2   42.74    1.66
  -5  -7   2   40.84    1.66
   4   7  -2   12.51    0.80
  -4  -7   2   12.00    0.77
   3   7  -2    6.33    0.59
  -3  -7   2    5.65    0.44
   2   7  -2   13.98    0.70
   2   7  -2   12.00    0.71
  -2  -7   2   13.38    0.62
   1   7  -2   59.17    1.99
   1   7  -2   59.97    1.92
  -1  -7   2   60.69    1.79
   0   7  -2   27.73    0.97
   0   7  -2   25.95    1.04
   0  -7   2   25.48    0.94
  -1   7  -2    2.65    0.33
   1  -7   2    3.12    0.32
  -2   7  -2    4.14    0.41
   2  -7   2    3.00    0.32
   2  -7   2    3.58    0.36
  -3   7  -2    0.30    0.24
   3  -7   2    0.62    0.26
  -4   7  -2   56.45    1.83
  -4   7  -2   53.97    1.95
   4  -7   2   59.58    1.98
  -5   7  -2    0.54    0.33
  -5   7  -2   -0.21    0.27
   5  -7   2    0.08    0.31
  -6   7  -2    0.47    0.38
  -6   7  -2    1.07    0.38
   6  -7   2    0.85    0.42
  -7   7  -2    2.00    0.52
  -7   7  -2    2.36    0.49
   7  -7   2    3.40    0.60
   8   6  -2    0.98    0.44
  -8  -6   2    0.41    0.55
   7   6  -2    3.83    0.57
  -7  -6   2    4.69    0.68
   6   6  -2   38.69    1.54
  -6  -6   2   37.50    1.59
   5   6  -2   15.48    0.86
  -5  -6   2   13.82    0.83
   4   6  -2   16.13    0.86
  -4  -6   2   16.29    0.83
  -4  -6   2   16.71    0.68
   3   6  -2    0.31    0.24
  -3  -6   2    0.77    0.21
   2   6  -2  130.62    3.97
   2   6  -2  137.26    4.11
  -2  -6   2  140.70    3.68
   1   6  -2   20.08    0.83
   1   6  -2   20.71    0.84
  -1  -6   2   21.09    0.75
   0   6  -2   16.20    0.70
   0   6  -2   17.43    0.66
   0  -6   2   15.94    0.57
   0  -6   2   15.31    0.63
  -1   6  -2   11.53    0.59
  -1   6  -2   12.79    0.49
   1  -6   2   12.90    0.54
   1  -6   2   12.15    0.55
  -2   6  -2   33.59    1.21
   2  -6   2   33.05    1.11
   2  -6   2   33.56    1.15
  -3   6  -2   33.35    1.24
  -3   6  -2   32.73    1.14
   3  -6   2   33.92    1.23
  -4   6  -2   11.26    0.64
  -4   6  -2   11.89    0.65
   4  -6   2   11.39    0.71
  -5   6  -2    0.54    0.30
  -5   6  -2    0.50    0.28
   5  -6   2    0.48    0.32
  -6   6  -2    9.65    0.71
  -6   6  -2   10.08    0.74
   6  -6   2   10.66    0.82
  -7   6  -2   10.78    0.87
  -7   6  -2    9.09    0.74
   7  -6   2   10.76    0.88
  -8   6  -2    1.71    0.57
   8  -6   2    0.19    0.44
   8   5  -2    5.76    0.67
  -8  -5   2    5.77    0.78
   7   5  -2    7.30    0.67
  -7  -5   2    7.92    0.77
   6   5  -2    6.50    0.62
  -6  -5   2    7.23    0.68
   5   5  -2    9.25    0.67
  -5  -5   2   11.01    0.54
  -5  -5   2   11.48    0.70
   4   5  -2   62.42    2.07
  -4  -5   2   64.84    1.84
  -4  -5   2   61.43    2.08
   3   5  -2   31.62    1.21
  -3  -5   2   32.41    1.03
  -3  -5   2   32.66    1.18
   2   5  -2   12.96    0.60
   2   5  -2   14.52    0.67
  -2  -5   2   13.39    0.54
   1   5  -2   16.31    0.68
   1   5  -2   15.76    0.70
  -1  -5   2   17.33    0.52
  -1  -5   2   17.83    0.62
   0   5  -2   81.38    2.37
   0   5  -2   81.75    2.50
   0  -5   2   80.47    2.25
   0  -5   2   82.86    2.28
  -1   5  -2  145.34    3.85
  -1   5  -2  140.91    4.15
   1  -5   2  137.52    3.87
   1  -5   2  136.59    3.74
  -2   5  -2    0.91    0.20
  -2   5  -2    0.57    0.17
   2  -5   2    0.62    0.18
  -3   5  -2   50.25    1.52
  -3   5  -2   49.66    1.65
   3  -5   2   49.74    1.64
  -4   5  -2   42.05    1.36
  -4   5  -2   41.36    1.47
   4  -5   2   42.25    1.51
  -5   5  -2    4.57    0.46
  -5   5  -2    4.33    0.42
   5  -5   2    3.64    0.46
  -6   5  -2    0.69    0.34
  -6   5  -2    0.58    0.31
   6  -5   2    0.11    0.32
  -7   5  -2    9.93    0.82
  -7   5  -2    7.39    0.61
   7  -5   2    7.73    0.69
  -8   5  -2    0.01    0.50
   8  -5   2    0.07    0.40
   8   4  -2    1.35    0.39
  -8  -4   2    0.63    0.48
   7   4  -2    8.98    0.66
  -7  -4   2    9.80    0.80
   6   4  -2    1.55    0.35
  -6  -4   2    1.66    0.38
   5   4  -2   74.40    2.39
  -5  -4   2   74.17    2.44
  -5  -4   2   75.23    2.13
   4   4  -2   20.82    0.88
  -4  -4   2   20.33    0.73
  -4  -4   2   19.25    0.84
   3   4  -2   17.98    0.80
  -3  -4   2   18.55    0.76
  -3  -4   2   19.22    0.66
   2   4  -2  117.76    3.49
   2   4  -2  118.67    3.41
  -2  -4   2  115.87    3.13
   1   4  -2   50.42    1.57
   1   4  -2   50.14    1.57
  -1  -4   2   51.31    1.42
  -1  -4   2   48.08    1.35
   0   4  -2   61.70    1.89
   0   4  -2   57.89    1.81
   0  -4   2   63.62    1.71
   0  -4   2   62.60    1.73
  -1   4  -2   32.93    0.98
  -1   4  -2   32.52    1.08
   1  -4   2   31.03    0.97
   1  -4   2   32.06    1.02
  -2   4  -2   26.11    0.86
  -2   4  -2   27.53    0.75
  -2   4  -2   26.91    0.94
   2  -4   2   25.79    0.93
  -3   4  -2  131.78    3.95
  -3   4  -2  133.34    3.58
   3  -4   2  134.30    3.83
  -4   4  -2    1.85    0.28
  -4   4  -2    2.07    0.27
   4  -4   2    1.61    0.31
  -5   4  -2    3.26    0.35
  -5   4  -2    3.26    0.41
   5  -4   2    3.86    0.46
  -6   4  -2   28.31    1.08
  -6   4  -2   32.83    1.43
   6  -4   2   28.63    1.25
  -7   4  -2    4.32    0.47
  -7   4  -2    4.92    0.66
   7  -4   2    4.63    0.55
  -8   4  -2    0.38    0.55
   8  -4   2    0.31    0.39
  -9   4  -2    0.40    0.66
   9   3  -2    0.55    0.36
  -9  -3   2    0.57    0.52
   8   3  -2   13.76    0.84
  -8  -3   2   13.83    0.97
   7   3  -2   21.89    1.02
  -7  -3   2   21.66    1.10
   6   3  -2   18.69    0.90
  -6  -3   2   19.12    0.78
  -6  -3   2   19.91    0.95
   5   3  -2    2.81    0.37
  -5  -3   2    2.40    0.33
  -5  -3   2    2.79    0.30
   4   3  -2   48.91    1.60
   4   3  -2   43.35    1.40
  -4  -3   2   50.65    1.40
  -4  -3   2   48.09    1.58
   3   3  -2   97.05    2.79
   3   3  -2   92.70    2.56
  -3  -3   2   93.34    2.54
  -3  -3   2   92.74    2.82
   2   3  -2   41.10    1.31
   2   3  -2   41.93    1.32
  -2  -3   2   40.08    1.18
   1   3  -2    3.10    0.21
   1   3  -2    3.12    0.24
  -1  -3   2    3.02    0.20
   0   3  -2  309.37    8.14
   0   3  -2  309.99    8.60
   0  -3   2  301.76    7.75
   0  -3   2  289.00    8.04
  -1   3  -2   60.37    1.62
  -1   3  -2   59.33    1.77
   1  -3   2   56.90    1.59
   1  -3   2   55.03    1.68
  -2   3  -2   14.31    0.56
  -2   3  -2   13.86    0.41
  -2   3  -2   14.47    0.51
   2  -3   2   14.46    0.60
  -3   3  -2    1.20    0.21
  -3   3  -2    1.44    0.18
   3  -3   2    1.66    0.26
  -4   3  -2   36.84    1.31
  -4   3  -2   36.19    1.12
   4  -3   2   34.02    1.27
  -5   3  -2   26.64    0.96
  -5   3  -2   29.50    1.21
   5  -3   2   28.97    1.13
  -6   3  -2    4.41    0.59
  -6   3  -2    3.96    0.38
   6  -3   2    4.28    0.49
  -7   3  -2    0.23    0.47
   7  -3   2   -0.32    0.27
  -8   3  -2    2.87    0.72
   8  -3   2    2.34    0.47
  -9   3  -2    6.20    0.98
   9  -3   2    5.38    0.67
  -9  -2   2    2.14    0.61
   8   2  -2   16.50    0.89
  -8  -2   2   16.62    1.03
   7   2  -2    0.16    0.26
  -7  -2   2    0.54    0.34
   6   2  -2    5.95    0.50
   6   2  -2    7.18    0.48
  -6  -2   2    5.64    0.53
  -6  -2   2    6.51    0.46
   5   2  -2   47.23    1.60
   5   2  -2   48.65    1.50
  -5  -2   2   46.22    1.64
  -5  -2   2   48.78    1.46
   4   2  -2   86.88    2.44
   4   2  -2   86.20    2.54
  -4  -2   2   82.92    2.61
  -4  -2   2   84.27    2.34
   3   2  -2    6.28    0.32
   3   2  -2    6.34    0.37
  -3  -2   2    5.54    0.34
  -3  -2   2    5.85    0.31
   2   2  -2  108.50    2.87
   2   2  -2  106.15    2.99
  -2  -2   2  105.11    2.82
   1   2  -2  123.21    3.54
   1   2  -2  123.40    3.38
  -1  -2   2  121.82    3.20
   0   2  -2  224.97    6.56
   0   2  -2  230.38    6.21
   0  -2   2  224.25    5.91
   0  -2   2  244.20    6.20
  -1   2  -2   11.12    0.37
  -1   2  -2   11.24    0.42
   1  -2   2   11.04    0.38
   1  -2   2   10.75    0.42
  -2   2  -2   29.74    0.87
  -2   2  -2   30.06    1.00
  -2   2  -2   29.98    0.84
  -3   2  -2  116.10    3.05
  -3   2  -2  116.28    3.51
   3  -2   2  113.57    3.29
  -4   2  -2   31.51    0.97
  -4   2  -2   32.96    1.27
   4  -2   2   31.88    0.94
   4  -2   2   30.76    1.14
  -5   2  -2    0.70    0.34
  -5   2  -2    0.53    0.18
   5  -2   2    0.45    0.24
  -6   2  -2    9.88    0.87
  -6   2  -2   10.55    0.54
   6  -2   2   12.63    0.72
  -7   2  -2   13.67    1.15
   7  -2   2   16.39    0.89
  -8   2  -2    5.48    0.87
   8  -2   2    6.58    0.65
  -9   2  -2   -0.04    0.73
   9  -2   2    1.46    0.45
   8   1  -2    0.58    0.34
  -8  -1   2    0.60    0.41
   7   1  -2   16.96    0.83
   7   1  -2   16.20    0.81
  -7  -1   2   17.78    0.78
  -7  -1   2   17.20    0.95
   6   1  -2   31.16    1.21
   6   1  -2   32.54    1.21
  -6  -1   2   35.46    1.32
  -6  -1   2   33.02    1.13
   5   1  -2    0.33    0.19
   5   1  -2    0.80    0.21
  -5  -1   2    0.61    0.20
  -5  -1   2    0.62    0.24
   4   1  -2    0.98    0.19
   4   1  -2    0.83    0.16
  -4  -1   2    0.55    0.20
  -4  -1   2    1.19    0.21
   3   1  -2   72.21    2.10
   3   1  -2   72.29    2.04
  -3  -1   2   73.48    2.19
  -3  -1   2   72.61    2.00
   2   1  -2  107.65    2.92
   2   1  -2  108.24    3.01
  -2  -1   2  109.25    2.86
  -2  -1   2  108.59    3.13
   1   1  -2  211.41    6.07
   1   1  -2  232.32    6.34
  -1  -1   2  231.68    5.95
  -1  -1   2  221.68    5.75
   0   1  -2    8.41    0.30
   0   1  -2    8.13    0.29
   0  -1   2    7.70    0.28
   0  -1   2    8.29    0.27
  -1   1  -2  229.50    6.07
  -1   1  -2  217.29    6.47
   1  -1   2  234.60    6.08
   1  -1   2  225.96    5.78
  -2   1  -2  225.03    7.00
  -2   1  -2  249.30    6.17
   2  -1   2  243.84    6.54
   2  -1   2  249.37    6.48
  -3   1  -2   17.02    0.52
  -3   1  -2   15.69    0.78
   3  -1   2   16.33    0.66
   3  -1   2   16.80    0.55
  -4   1  -2   13.68    0.82
  -4   1  -2   15.50    0.52
   4  -1   2   14.80    0.68
   4  -1   2   15.65    0.55
  -5   1  -2   50.94    2.07
  -5   1  -2   55.79    1.57
   5  -1   2   54.79    1.66
   5  -1   2   61.03    1.85
  -6   1  -2   16.26    1.11
   6  -1   2   20.96    0.92
  -7   1  -2    3.57    0.71
   7  -1   2    3.70    0.45
  -8   1  -2    3.37    0.75
   8  -1   2    4.93    0.57
  -9   1  -2    8.86    1.12
   9  -1   2   13.42    0.92
   9   0  -2    3.94    0.55
   8   0  -2   10.60    0.77
  -8   0   2   10.91    0.94
   7   0  -2    4.59    0.45
   7   0  -2    4.15    0.49
  -7   0   2    4.34    0.43
  -7   0   2    3.94    0.59
   6   0  -2    7.52    0.56
   6   0  -2    7.20    0.50
  -6   0   2    8.16    0.61
  -6   0   2    6.96    0.49
   5   0  -2   31.87    1.13
   5   0  -2   34.24    1.16
  -5   0   2   34.76    1.25
  -5   0   2   33.98    1.12
   4   0  -2  191.23    5.30
   4   0  -2  188.76    5.32
  -4   0   2  198.27    5.67
  -4   0   2  197.87    5.13
   3   0  -2   16.75    0.58
   3   0  -2   16.13    0.56
  -3   0   2   15.27    0.60
  -3   0   2   16.42    0.62
   2   0  -2   61.87    1.74
   2   0  -2   61.92    1.81
  -2   0   2   63.22    1.85
  -2   0   2   63.64    1.74
   1   0  -2   15.48    0.50
  -1   0   2   15.71    0.48
  -1   0   2   15.42    0.51
   0   0  -2  591.90   15.60
   0   0  -2  551.72   16.44
   0   0   2  576.69   15.50
   0   0   2  594.99   14.94
  -1   0  -2   84.10    2.38
   1   0   2   76.56    2.20
   1   0   2   79.99    2.06
  -2   0  -2    3.68    0.29
   2   0   2    3.90    0.24
   2   0   2    3.74    0.13
   2   0   2    3.34    0.20
  -3   0  -2   29.41    0.80
  -3   0  -2   29.50    1.10
   3   0   2   28.58    0.92
   3   0   2   30.18    0.99
  -4   0  -2  116.02    3.49
  -4   0  -2  111.30    2.90
   4   0   2  103.91    3.20
   4   0   2  113.72    3.14
  -5   0  -2   52.47    1.89
   5   0   2   50.69    1.69
   5   0   2   50.93    1.60
  -6   0  -2   42.27    1.79
   6   0   2   43.51    1.46
   6   0   2   48.40    1.61
  -7   0  -2    1.07    0.50
   7   0   2    0.86    0.33
  -8   0  -2   10.17    1.05
   8   0   2   13.70    0.85
  -9   0  -2    1.88    0.76
   9   0   2    3.35    0.55
   9  -1  -2    6.22    0.67
   8  -1  -2    1.45    0.40
  -8   1   2    1.84    0.39
   7  -1  -2    8.30    0.68
  -7   1   2    7.24    0.56
  -7   1   2    7.57    0.78
   6  -1  -2   69.80    2.15
   6  -1  -2   69.70    2.06
  -6   1   2   57.69    2.32
  -6   1   2   69.76    2.02
   5  -1  -2   40.60    1.32
   5  -1  -2   40.06    1.25
  -5   1   2   34.39    1.44
  -5   1   2   41.03    1.28
   4  -1  -2   13.37    0.55
   4  -1  -2   13.31    0.51
  -4   1   2   12.26    0.64
  -4   1   2   13.40    0.58
   3  -1  -2   35.78    1.10
   3  -1  -2   36.93    1.13
  -3   1   2   37.19    1.13
  -3   1   2   34.63    1.18
   2  -1  -2  165.44    4.42
   2  -1  -2  165.20    4.39
  -2   1   2  162.54    4.60
  -2   1   2  155.33    4.26
   1  -1  -2  977.03   25.97
  -1   1   2 1000.00   27.17
  -1   1   2  979.93   25.88
  -1   1   2  904.64   24.85
   0  -1  -2  296.61    8.20
   0   1   2  285.46    7.39
   0   1   2  281.52    7.66
  -1  -1  -2  131.05    3.75
   1   1   2  129.71    3.28
   1   1   2  124.89    3.49
   1   1   2  130.53    3.53
  -2  -1  -2  110.49    3.40
   2   1   2  116.37    3.18
   2   1   2  115.78    3.15
  -3  -1  -2   44.69    1.50
   3   1   2   44.39    1.35
   3   1   2   42.81    1.35
   4   1   2    8.74    0.47
   4   1   2    8.09    0.44
  -5  -1  -2  135.76    3.99
   5   1   2  128.51    3.65
   5   1   2  116.41    3.65
  -6  -1  -2    0.45    0.34
   6   1   2    0.77    0.24
   6   1   2    0.50    0.27
  -7  -1  -2    9.23    0.84
   7   1   2    8.88    0.58
   7   1   2    9.50    0.68
  -8  -1  -2    1.60    0.56
   8   1   2    0.87    0.36
  -9  -1  -2    3.24    0.80
   9   1   2    4.60    0.58
   9  -2  -2    3.41    0.61
   8  -2  -2   -0.15    0.36
  -8   2   2    0.55    0.34
   7  -2  -2   40.62    1.55
  -7   2   2   38.91    1.39
   6  -2  -2    6.00    0.52
  -6   2   2    6.58    0.53
  -6   2   2    6.91    0.60
   5  -2  -2    6.51    0.35
   5  -2  -2    6.15    0.44
  -5   2   2    7.47    0.48
  -5   2   2    6.07    0.46
   4  -2  -2   44.24    1.40
   4  -2  -2   45.52    1.36
  -4   2   2   45.20    1.44
  -4   2   2   43.76    1.40
   3  -2  -2   70.75    1.98
   3  -2  -2   69.31    1.98
  -3   2   2   65.02    1.95
  -3   2   2   69.02    2.03
   2  -2  -2  158.24    4.35
   2  -2  -2  160.28    4.34
  -2   2   2  160.94    4.22
  -2   2   2  160.34    4.55
   1  -2  -2  174.68    4.81
  -1   2   2  181.04    4.63
  -1   2   2  174.21    4.80
  -1   2   2  182.29    5.05
   0  -2  -2   80.98    2.32
   0   2   2   81.88    2.23
   0   2   2   78.99    2.10
   0   2   2   76.53    2.20
  -1  -2  -2  224.30    6.52
   1   2   2  232.70    5.80
   1   2   2  219.61    6.10
   1   2   2  235.33    6.18
  -2  -2  -2    4.43    0.15
  -2  -2  -2    4.64    0.32
   2   2   2    4.10    0.29
   2   2   2    4.20    0.24
  -3  -2  -2   22.17    0.90
   3   2   2   22.62    0.83
   3   2   2   22.78    0.78
  -4  -2  -2   78.38    2.55
   4   2   2   80.80    2.32
   4   2   2   76.31    2.36
  -5  -2  -2   32.49    1.30
   5   2   2   31.20    1.16
   5   2   2   30.50    1.13
  -6  -2  -2    0.40    0.35
   6   2   2    0.18    0.24
   6   2   2    0.75    0.26
  -7  -2  -2   17.73    1.04
   7   2   2   16.34    0.88
   7   2   2   17.07    0.87
  -8  -2  -2    1.23    0.50
   8   2   2    0.98    0.36
  -9  -2  -2    0.97    0.58
   9  -3  -2    6.16    0.76
  -9   3   2    5.33    0.59
   8  -3  -2    9.02    0.81
  -8   3   2    9.67    0.76
   7  -3  -2    1.92    0.42
  -7   3   2    1.97    0.42
   6  -3  -2   20.77    0.94
  -6   3   2   20.68    0.91
   5  -3  -2   28.29    1.05
  -5   3   2   29.14    1.02
  -5   3   2   26.18    1.03
   4  -3  -2   18.46    0.73
   4  -3  -2   19.41    0.70
  -4   3   2   19.68    0.69
  -4   3   2   17.47    0.75
   3  -3  -2    4.78    0.26
   3  -3  -2    4.05    0.30
  -3   3   2    4.62    0.33
  -3   3   2    4.67    0.26
   2  -3  -2   78.31    2.17
   2  -3  -2   77.99    2.22
  -2   3   2   77.49    2.28
  -2   3   2   76.49    2.16
   1  -3  -2   66.21    1.91
  -1   3   2   67.49    1.92
  -1   3   2   68.47    1.99
  -1   3   2   66.73    1.85
   0   3   2   21.86    0.73
   0   3   2   21.17    0.67
   0   3   2   22.26    0.74
   0   3   2   22.54    0.71
  -1  -3  -2    0.24    0.12
   1   3   2    0.08    0.11
   1   3   2    0.11    0.09
   1   3   2   -0.12    0.06
  -2  -3  -2  130.42    3.35
  -2  -3  -2  129.03    3.86
   2   3   2  130.19    3.57
   2   3   2  130.90    3.68
  -3  -3  -2    7.38    0.47
   3   3   2    6.63    0.35
   3   3   2    6.70    0.42
  -4  -3  -2   13.71    0.74
   4   3   2   15.35    0.62
   4   3   2   14.47    0.70
  -5  -3  -2    4.29    0.50
   5   3   2    5.28    0.43
   5   3   2    5.18    0.48
  -6  -3  -2   19.51    1.05
   6   3   2   19.73    0.93
   6   3   2   18.39    0.86
  -7  -3  -2   23.78    1.25
   7   3   2   23.01    1.05
   7   3   2   24.61    1.11
  -8  -3  -2    0.46    0.49
   8   3   2    0.12    0.35
   9  -4  -2    0.64    0.51
   8  -4  -2    3.44    0.61
  -8   4   2    3.65    0.53
   7  -4  -2    6.80    0.65
  -7   4   2    7.89    0.66
   6  -4  -2   18.27    0.89
  -6   4   2   18.13    0.90
   5  -4  -2    5.00    0.45
  -5   4   2    4.73    0.48
   4  -4  -2   85.46    2.53
  -4   4   2   84.87    2.49
  -4   4   2   85.74    2.57
   3  -4  -2   20.59    0.77
   3  -4  -2   20.74    0.68
  -3   4   2   20.57    0.79
  -3   4   2   21.24    0.74
   2  -4  -2   23.30    0.75
   2  -4  -2   23.02    0.81
  -2   4   2   23.38    0.81
  -2   4   2   23.37    0.80
   1  -4  -2    1.64    0.19
  -1   4   2    0.90    0.16
  -1   4   2    1.39    0.17
  -1   4   2    1.30    0.18
   0   4   2   17.00    0.64
   0   4   2   16.98    0.63
   0   4   2   16.34    0.57
   0   4   2   16.89    0.60
  -1  -4  -2  125.71    3.76
   1   4   2  125.16    3.50
   1   4   2  128.00    3.33
   1   4   2  129.33    3.59
  -2  -4  -2   15.12    0.67
  -2  -4  -2   15.40    0.50
   2   4   2   15.79    0.67
   2   4   2   15.63    0.57
  -3  -4  -2    0.46    0.22
   3   4   2    0.12    0.12
   3   4   2    0.19    0.18
  -4  -4  -2    8.38    0.61
   4   4   2    8.87    0.46
   4   4   2    7.31    0.53
  -5  -4  -2   13.38    0.83
   5   4   2   13.10    0.63
   5   4   2   11.50    0.73
  -6  -4  -2   16.51    1.04
   6   4   2   18.89    0.95
  -7  -4  -2    0.30    0.46
   7   4   2    0.13    0.33
  -8  -4  -2   -0.12    0.48
   8   4   2    0.48    0.40
   8  -5  -2    1.42    0.50
  -8   5   2    1.58    0.46
   7  -5  -2    0.02    0.36
  -7   5   2    0.30    0.38
   6  -5  -2   -0.21    0.26
  -6   5   2    0.13    0.34
   5  -5  -2    8.66    0.59
  -5   5   2    8.11    0.64
   4  -5  -2   36.92    1.27
  -4   5   2   36.04    1.28
  -4   5   2   35.65    1.23
   3  -5  -2    6.05    0.41
  -3   5   2    5.51    0.44
  -3   5   2    5.62    0.35
   2  -5  -2    6.86    0.41
   2  -5  -2    7.32    0.36
  -2   5   2    7.82    0.44
  -2   5   2    7.57    0.39
  -1   5   2   48.73    1.47
  -1   5   2   51.33    1.59
  -1   5   2   49.07    1.51
   0   5   2   34.05    1.11
   0   5   2   32.93    1.15
   0   5   2   33.79    1.04
   0   5   2   33.95    1.08
  -1  -5  -2   19.59    0.78
   1   5   2   18.55    0.75
   1   5   2   19.07    0.69
  -2  -5  -2    4.12    0.27
  -2  -5  -2    4.29    0.39
   2   5   2    4.24    0.29
   2   5   2    3.69    0.36
  -3  -5  -2   59.78    2.03
   3   5   2   60.43    1.98
   3   5   2   60.85    1.79
  -4  -5  -2   24.26    1.09
   4   5   2   22.31    1.04
   4   5   2   24.77    0.88
  -5  -5  -2    1.89    0.44
   5   5   2    1.89    0.42
  -6  -5  -2    0.75    0.47
   6   5   2    0.85    0.38
  -7  -5  -2   12.57    1.07
   7   5   2   14.82    0.96
  -8   6   2    0.33    0.46
   7  -6  -2    4.35    0.60
  -7   6   2    3.67    0.59
   6  -6  -2    1.35    0.40
  -6   6   2    0.98    0.42
   5  -6  -2    8.21    0.61
  -5   6   2    5.84    0.57
   4  -6  -2    1.60    0.32
  -4   6   2    2.08    0.39
   3  -6  -2    2.65    0.31
  -3   6   2    1.62    0.31
  -3   6   2    2.92    0.30
   2  -6  -2   34.83    1.15
   2  -6  -2   34.14    1.11
  -2   6   2   32.15    1.17
  -2   6   2   34.20    1.15
  -1   6   2   15.41    0.67
  -1   6   2   14.66    0.64
   0   6   2   -0.01    0.17
   0   6   2   -0.04    0.16
   0   6   2    0.05    0.14
   0   6   2    0.09    0.15
  -1  -6  -2   19.82    0.70
  -1  -6  -2   19.72    0.84
   1   6   2   19.19    0.72
   1   6   2   18.41    0.80
  -2  -6  -2   26.84    1.09
   2   6   2   27.67    0.94
   2   6   2   27.29    1.08
  -3  -6  -2   43.29    1.61
   3   6   2   43.86    1.59
  -4  -6  -2    4.93    0.58
   4   6   2    4.53    0.55
  -5  -6  -2   13.24    0.96
   5   6   2   12.50    0.87
  -6  -6  -2   18.62    1.18
   6   6   2   18.02    1.07
  -7  -6  -2    2.37    0.67
   7   6   2    2.25    0.54
   7  -7  -2    0.61    0.45
  -7   7   2    0.09    0.45
   6  -7  -2   -0.51    0.32
  -6   7   2   -0.03    0.37
   5  -7  -2    0.16    0.28
  -5   7   2    0.22    0.36
   4  -7  -2   17.72    0.86
  -4   7   2   17.98    0.91
   3  -7  -2   18.68    0.82
  -3   7   2   18.59    0.86
   2  -7  -2    2.41    0.31
  -2   7   2    2.78    0.33
  -2   7   2    2.47    0.35
   1  -7  -2    3.63    0.34
  -1   7   2    4.50    0.41
  -1   7   2    3.94    0.38
   0   7   2   28.62    1.03
   0   7   2   29.22    1.08
   0   7   2   29.70    1.13
  -1  -7  -2   11.20    0.66
   1   7   2   11.73    0.66
   1   7   2   11.47    0.56
  -2  -7  -2    0.26    0.27
   2   7   2    0.14    0.26
  -3  -7  -2    2.37    0.44
   3   7   2    1.60    0.40
  -4  -7  -2   12.15    0.86
   4   7   2   10.80    0.82
  -5  -7  -2   18.58    1.18
   5   7   2   18.34    1.09
  -6  -7  -2    0.62    0.55
   6   7   2    0.23    0.42
   6  -8  -2   -0.03    0.40
  -6   8   2    0.26    0.45
   5  -8  -2   14.16    0.90
  -5   8   2   14.39    0.95
   4  -8  -2   -0.21    0.26
  -4   8   2    0.24    0.35
   3  -8  -2    1.62    0.32
  -3   8   2    1.62    0.37
   2  -8  -2    1.19    0.28
  -2   8   2    1.33    0.33
   1  -8  -2   25.66    0.98
  -1   8   2   26.64    1.09
  -1   8   2   26.06    1.00
   0  -8  -2   17.32    0.76
   0   8   2   16.57    0.84
   0   8   2   16.70    0.79
  -1  -8  -2   46.08    1.69
   1   8   2   44.77    1.60
  -2  -8  -2    0.99    0.34
   2   8   2    1.12    0.36
  -3  -8  -2    9.07    0.78
   3   8   2    9.08    0.76
  -4  -8  -2    5.80    0.70
   4   8   2    5.61    0.69
  -5  -8  -2    4.37    0.70
   5   8   2    3.69    0.66
   5  -9  -2    3.44    0.53
  -5   9   2    2.49    0.56
   4  -9  -2    1.45    0.41
  -4   9   2    1.15    0.47
   3  -9  -2    3.81    0.46
  -3   9   2    4.61    0.55
  -2   9   2    0.41    0.32
  -1  -9  -2    4.33    0.52
   1   9   2    4.30    0.51
  -2  -9  -2   11.34    0.81
   2   9   2   10.78    0.81
  -3  -9  -2    0.12    0.40
   3   9   2    0.34    0.39
  -4  -9  -2    3.95    0.66
   4   9   2    2.21    0.55
  -3  10   2    0.21    0.40
  -1 -10  -2    5.38    0.61
   1  11  -3    6.89    0.72
  -1 -11   3    6.39    0.62
   0  11  -3    8.29    0.77
   0 -11   3    6.97    0.64
  -1  11  -3    1.94    0.48
   1 -11   3    2.25    0.46
  -2  11  -3   -0.09    0.36
   2 -11   3    0.37    0.37
   4  10  -3    0.11    0.42
  -4 -10   3   -0.31    0.42
   3  10  -3    1.44    0.47
   2  10  -3    3.34    0.54
  -2 -10   3    4.33    0.49
   1  10  -3   18.60    0.99
  -1 -10   3   16.85    0.89
   0  10  -3    2.00    0.44
   0 -10   3    1.20    0.35
  -1  10  -3    1.85    0.43
   1 -10   3    1.59    0.38
  -2  10  -3    8.17    0.71
   2 -10   3    8.11    0.67
  -3  10  -3    4.61    0.59
   3 -10   3    4.97    0.54
  -4  10  -3    0.32    0.36
   4 -10   3    0.41    0.36
   5   9  -3    2.57    0.58
  -5  -9   3    2.00    0.53
   4   9  -3   28.65    1.36
  -4  -9   3   28.26    1.34
   3   9  -3   20.78    1.11
   3   9  -3   19.91    1.04
  -3  -9   3   21.97    0.95
   2   9  -3    0.54    0.31
   2   9  -3    0.54    0.34
  -2  -9   3    0.71    0.31
   1   9  -3    0.32    0.28
  -1  -9   3   -0.05    0.23
   0   9  -3    5.57    0.56
   0  -9   3    5.48    0.49
  -1   9  -3   37.12    1.46
   1  -9   3   35.62    1.31
  -2   9  -3    0.15    0.28
   2  -9   3    0.52    0.29
  -3   9  -3   -0.20    0.28
   3  -9   3    0.47    0.27
  -4   9  -3    1.29    0.38
   4  -9   3    1.56    0.39
  -5   9  -3    4.95    0.60
   5  -9   3    5.95    0.63
  -6   9  -3    3.82    0.58
   6  -9   3    4.64    0.65
   6  -9   3    3.18    0.54
   6   8  -3    0.77    0.43
  -6  -8   3    0.24    0.44
   5   8  -3   31.90    1.40
  -5  -8   3   30.89    1.40
   4   8  -3   31.14    1.35
  -4  -8   3   29.64    1.30
  -4  -8   3   28.91    1.16
   3   8  -3    0.43    0.32
   3   8  -3    0.28    0.28
  -3  -8   3    0.73    0.28
   2   8  -3    7.30    0.63
   2   8  -3    6.47    0.54
  -2  -8   3    7.33    0.53
   1   8  -3   30.41    1.24
   1   8  -3   32.00    1.21
  -1  -8   3   31.13    1.12
   0   8  -3   51.22    1.80
   0  -8   3   50.44    1.62
  -1   8  -3    4.71    0.50
   1  -8   3    3.76    0.38
  -2   8  -3   12.71    0.74
   2  -8   3   13.34    0.66
  -3   8  -3   13.58    0.78
   3  -8   3   14.48    0.74
  -4   8  -3   13.92    0.79
   4  -8   3   12.81    0.86
   4  -8   3   12.86    0.74
  -5   8  -3    4.54    0.55
   5  -8   3    5.64    0.64
   5  -8   3    5.61    0.58
  -6   8  -3    4.16    0.59
   6  -8   3    3.54    0.58
   7   7  -3    5.05    0.64
  -7  -7   3    8.12    0.82
   6   7  -3   18.60    1.05
  -6  -7   3   18.18    1.06
   5   7  -3   12.79    0.84
  -5  -7   3   11.63    0.81
   4   7  -3    3.78    0.49
  -4  -7   3    4.49    0.40
  -4  -7   3    3.81    0.46
   3   7  -3   48.61    1.77
   3   7  -3   48.98    1.75
  -3  -7   3   49.76    1.55
   2   7  -3   50.03    1.76
   2   7  -3   51.13    1.76
  -2  -7   3   51.42    1.58
   1   7  -3    3.54    0.37
   1   7  -3    2.13    0.34
  -1  -7   3    3.83    0.36
   0   7  -3    9.82    0.53
   0   7  -3    9.07    0.55
   0  -7   3    8.66    0.51
  -1   7  -3   48.57    1.67
   1  -7   3   48.02    1.52
  -2   7  -3   20.01    0.88
   2  -7   3   18.03    0.78
   2  -7   3   18.77    0.85
  -3   7  -3    6.42    0.52
   3  -7   3    5.89    0.45
   3  -7   3    6.19    0.55
  -4   7  -3   17.14    0.87
   4  -7   3   17.05    0.92
   4  -7   3   17.78    0.82
  -5   7  -3   13.41    0.80
   5  -7   3   13.04    0.88
  -6   7  -3    3.52    0.50
  -6   7  -3    3.23    0.52
   6  -7   3    4.28    0.58
  -7   7  -3    1.14    0.44
  -7   7  -3    1.01    0.48
   7  -7   3    0.47    0.42
   8   6  -3   29.34    1.40
  -8  -6   3   28.62    1.53
   7   6  -3   11.40    0.84
  -7  -6   3   10.99    0.91
   6   6  -3    8.29    0.74
  -6  -6   3    8.62    0.75
   5   6  -3   20.30    1.03
  -5  -6   3   21.09    1.01
  -5  -6   3   20.70    0.86
   4   6  -3   29.05    1.19
  -4  -6   3   26.41    1.14
  -4  -6   3   29.01    1.01
   3   6  -3   71.15    2.37
   3   6  -3   77.46    2.40
  -3  -6   3   72.04    2.12
   2   6  -3   30.86    1.17
   2   6  -3   27.94    1.09
  -2  -6   3   29.72    1.00
   1   6  -3   48.65    1.61
   1   6  -3   46.13    1.60
  -1  -6   3   49.11    1.46
   0   6  -3   49.19    1.59
   0   6  -3   50.48    1.67
   0  -6   3   50.39    1.51
  -1   6  -3   10.80    0.57
  -1   6  -3   11.42    0.48
   1  -6   3   10.29    0.52
   1  -6   3   10.77    0.51
  -2   6  -3    9.77    0.55
   2  -6   3    9.19    0.49
   2  -6   3    9.09    0.54
  -3   6  -3   32.55    1.23
   3  -6   3   33.03    1.14
   3  -6   3   33.27    1.25
  -4   6  -3    1.30    0.30
   4  -6   3    1.33    0.33
  -5   6  -3    8.94    0.67
  -5   6  -3    6.42    0.54
   5  -6   3    8.87    0.69
  -6   6  -3    0.33    0.31
  -6   6  -3    1.01    0.38
   6  -6   3    0.74    0.37
  -7   6  -3    3.31    0.58
  -7   6  -3    2.87    0.46
   7  -6   3    3.51    0.58
  -8   6  -3    2.49    0.61
   8  -6   3    2.76    0.57
   8   5  -3    1.18    0.44
  -8  -5   3    0.82    0.55
   7   5  -3    6.37    0.64
  -7  -5   3    6.64    0.71
   6   5  -3   61.68    2.16
  -6  -5   3   63.34    2.21
   5   5  -3   21.96    1.04
  -5  -5   3   23.33    0.87
  -5  -5   3   22.88    1.01
   4   5  -3    1.38    0.33
  -4  -5   3    1.83    0.27
  -4  -5   3    1.85    0.31
   3   5  -3   91.21    2.81
   3   5  -3   91.01    2.83
  -3  -5   3   90.83    2.54
   2   5  -3   77.56    2.49
   2   5  -3   84.82    2.51
  -2  -5   3   80.93    2.26
   1   5  -3   16.66    0.72
   1   5  -3   16.22    0.67
  -1  -5   3   16.53    0.62
   0   5  -3    0.25    0.14
   0   5  -3    0.24    0.16
   0  -5   3    0.55    0.16
   0  -5   3    0.33    0.10
  -1   5  -3   38.02    1.24
  -1   5  -3   42.01    1.36
   1  -5   3   41.75    1.24
   1  -5   3   39.32    1.27
  -2   5  -3   84.31    2.60
   2  -5   3   84.09    2.50
   2  -5   3   83.98    2.36
  -3   5  -3    0.51    0.21
   3  -5   3    0.63    0.22
  -4   5  -3    0.66    0.23
  -4   5  -3    0.43    0.24
   4  -5   3    0.52    0.26
  -5   5  -3    4.66    0.49
  -5   5  -3    4.52    0.42
   5  -5   3    4.91    0.52
  -6   5  -3    8.43    0.72
  -6   5  -3    6.84    0.55
   6  -5   3    6.85    0.64
  -7   5  -3    2.58    0.58
   7  -5   3    1.64    0.45
  -8   5  -3    0.56    0.62
   8  -5   3    0.05    0.39
   8   4  -3    9.02    0.78
  -8  -4   3    8.99    0.83
   7   4  -3   30.19    1.31
  -7  -4   3   30.05    1.38
   6   4  -3   -0.06    0.27
  -6  -4   3    0.48    0.32
  -6  -4   3    0.64    0.27
   5   4  -3    7.86    0.59
  -5  -4   3    8.41    0.56
  -5  -4   3    7.87    0.49
   4   4  -3   26.89    1.10
  -4  -4   3   29.36    0.96
  -4  -4   3   27.78    1.05
   3   4  -3  113.74    3.40
  -3  -4   3  118.17    3.15
   2   4  -3   10.91    0.50
   2   4  -3   11.77    0.57
  -2  -4   3   11.24    0.47
   1   4  -3   91.89    2.76
   1   4  -3   93.54    2.67
  -1  -4   3   91.61    2.51
   0   4  -3    9.00    0.42
   0   4  -3    8.14    0.40
   0  -4   3    7.81    0.38
   0  -4   3    9.03    0.33
  -1   4  -3  140.32    3.86
  -1   4  -3  144.69    4.15
   1  -4   3  142.19    3.74
   1  -4   3  136.93    3.88
  -2   4  -3    9.36    0.47
  -2   4  -3    8.87    0.33
   2  -4   3    9.83    0.42
   2  -4   3    7.80    0.45
  -3   4  -3   54.61    1.81
   3  -4   3   57.64    1.79
  -4   4  -3   15.11    0.75
  -4   4  -3   16.93    0.66
   4  -4   3   17.68    0.79
  -5   4  -3    8.01    0.62
  -5   4  -3    6.75    0.48
   5  -4   3    7.33    0.59
  -6   4  -3    6.08    0.67
  -6   4  -3    5.85    0.47
   6  -4   3    7.68    0.65
  -7   4  -3    2.41    0.60
   7  -4   3    2.45    0.47
  -8   4  -3    5.49    0.85
   8  -4   3    5.70    0.67
   9   3  -3   10.97    0.86
   8   3  -3    4.45    0.55
  -8  -3   3    3.28    0.57
   7   3  -3    1.49    0.37
  -7  -3   3    1.31    0.40
   6   3  -3   25.54    1.09
  -6  -3   3   25.44    0.96
  -6  -3   3   23.94    1.09
   5   3  -3   59.42    1.97
  -5  -3   3   59.31    1.98
  -5  -3   3   61.05    1.79
   4   3  -3    5.74    0.44
   4   3  -3    6.14    0.32
  -4  -3   3    6.35    0.40
  -4  -3   3    5.98    0.38
   3   3  -3    3.78    0.32
   3   3  -3    4.19    0.22
  -3  -3   3    3.78    0.30
  -3  -3   3    4.12    0.32
   2   3  -3   67.94    2.01
   2   3  -3   65.97    1.96
  -2  -3   3   64.47    1.84
   1   3  -3   23.08    0.81
   1   3  -3   25.04    0.82
  -1  -3   3   25.04    0.77
  -1  -3   3   25.02    0.67
   0   3  -3   18.75    0.63
   0   3  -3   18.12    0.65
   0  -3   3   18.17    0.60
   0  -3   3   18.46    0.56
  -1   3  -3   14.14    0.52
  -1   3  -3   15.17    0.57
   1  -3   3   14.65    0.53
   1  -3   3   14.70    0.51
  -2   3  -3   35.99    1.22
  -2   3  -3   37.92    1.07
   2  -3   3   37.35    1.08
   2  -3   3   35.07    1.18
  -3   3  -3  106.60    2.77
  -3   3  -3  102.79    3.11
   3  -3   3   95.83    2.96
  -4   3  -3   15.78    0.60
  -4   3  -3   14.93    0.75
   4  -3   3   16.60    0.75
  -5   3  -3    2.66    0.29
  -5   3  -3    2.08    0.47
   5  -3   3    2.57    0.39
  -6   3  -3   19.04    1.18
   6  -3   3   22.16    1.02
  -7   3  -3    4.24    0.73
   7  -3   3    4.00    0.51
  -8   3  -3    2.44    0.70
   8  -3   3    2.54    0.50
  -9   3  -3   -0.05    0.65
   9  -3   3    0.16    0.40
   8   2  -3   11.75    0.78
  -8  -2   3   11.84    0.89
   7   2  -3   19.27    0.96
  -7  -2   3   20.81    0.89
  -7  -2   3   21.47    1.04
   6   2  -3   19.10    0.81
   6   2  -3   19.09    0.89
  -6  -2   3   17.85    0.89
  -6  -2   3   18.70    0.81
   5   2  -3    1.15    0.23
   5   2  -3    0.68    0.23
  -5  -2   3    1.15    0.26
  -5  -2   3    0.63    0.22
   4   2  -3    8.37    0.47
   4   2  -3    8.23    0.39
  -4  -2   3    8.31    0.44
  -4  -2   3    9.28    0.45
   3   2  -3  193.58    5.37
   3   2  -3  198.59    5.23
  -3  -2   3  189.67    5.09
  -3  -2   3  197.22    5.61
   2   2  -3  145.68    4.07
   2   2  -3  147.36    3.93
   2   2  -3  148.05    4.24
  -2  -2   3  147.06    3.87
   1   2  -3   24.43    0.78
   1   2  -3   24.09    0.82
  -1  -2   3   24.40    0.69
  -1  -2   3   24.07    0.74
   0   2  -3  146.64    4.04
   0   2  -3  150.03    4.22
   0  -2   3  145.74    3.94
   0  -2   3  146.24    3.82
  -1   2  -3   21.11    0.73
  -1   2  -3   21.47    0.67
   1  -2   3   21.82    0.69
   1  -2   3   21.36    0.65
  -2   2  -3   83.16    2.52
  -2   2  -3   83.09    2.28
   2  -2   3   81.71    2.21
   2  -2   3   85.05    2.39
  -3   2  -3   10.16    0.56
  -3   2  -3    8.67    0.34
   3  -2   3    8.69    0.47
  -4   2  -3    4.18    0.48
  -4   2  -3    4.44    0.27
   4  -2   3    4.19    0.41
  -5   2  -3   23.86    0.81
  -5   2  -3   25.32    1.21
   5  -2   3   24.53    1.01
  -6   2  -3   22.21    1.28
   6  -2   3   25.92    1.09
  -7   2  -3    0.22    0.49
   7  -2   3    0.36    0.32
  -8   2  -3    4.99    0.86
   8  -2   3    5.42    0.62
  -9   2  -3    0.10    0.73
   9  -2   3   -0.17    0.40
   7   1  -3    3.26    0.44
   7   1  -3    3.34    0.44
  -7  -1   3    4.24    0.52
  -7  -1   3    3.69    0.42
   6   1  -3    4.43    0.42
   6   1  -3    4.79    0.45
  -6  -1   3    4.92    0.47
  -6  -1   3    5.12    0.45
   5   1  -3   34.47    1.21
   5   1  -3   35.02    1.17
  -5  -1   3   35.97    1.18
  -5  -1   3   35.14    1.27
   4   1  -3  106.54    3.05
   4   1  -3  106.02    2.98
  -4  -1   3  106.77    2.94
  -4  -1   3  107.02    3.20
   3   1  -3    0.97    0.22
   3   1  -3    0.78    0.13
  -3  -1   3    0.94    0.19
  -3  -1   3    0.96    0.15
   2   1  -3    1.75    0.21
  -2  -1   3    1.66    0.14
  -2  -1   3    1.87    0.14
   1   1  -3  223.67    6.07
   1   1  -3  223.66    6.31
  -1  -1   3  222.25    5.94
  -1  -1   3  223.44    5.76
   0   1  -3  303.61    8.38
   0   1  -3  296.65    7.95
   0  -1   3  299.18    7.57
   0  -1   3  286.39    7.88
  -1   1  -3    6.89    0.27
  -1   1  -3    6.66    0.33
   1  -1   3    6.65    0.26
   1  -1   3    7.14    0.30
  -2   1  -3  105.51    2.90
   2  -1   3  108.18    2.96
   2  -1   3  103.19    2.74
  -3   1  -3   35.53    1.40
   3  -1   3   38.61    1.04
   3  -1   3   37.33    1.12
   3  -1   3   37.25    1.23
  -4   1  -3   49.71    1.89
  -4   1  -3   51.28    1.39
   4  -1   3   47.86    1.63
   4  -1   3   52.28    1.50
  -5   1  -3    1.32    0.42
   5  -1   3    2.02    0.23
   5  -1   3    2.19    0.36
  -6   1  -3   12.81    1.04
   6  -1   3   16.18    0.84
  -7   1  -3    8.64    0.99
   7  -1   3   10.33    0.74
  -8   1  -3   -0.10    0.55
   8  -1   3    0.14    0.35
  -9   1  -3    3.33    0.82
   9  -1   3    3.50    0.59
   8   0  -3    1.76    0.41
  -8   0   3    1.12    0.36
   7   0  -3   16.53    0.83
   7   0  -3   15.84    0.88
  -7   0   3   16.22    0.81
   6   0  -3   18.13    0.82
   6   0  -3   16.71    0.77
  -6   0   3   18.53    0.90
  -6   0   3   18.46    0.80
   5   0  -3   42.04    1.35
   5   0  -3   40.17    1.35
  -5   0   3   40.51    1.35
  -5   0   3   43.75    1.46
   4   0  -3   29.41    0.94
   4   0  -3   27.83    0.96
  -4   0   3   27.70    1.00
  -4   0   3   29.45    0.99
   3   0  -3   47.47    1.38
   3   0  -3   46.49    1.49
  -3   0   3   47.58    1.43
  -3   0   3   47.45    1.47
   2   0  -3   20.09    0.72
  -2   0   3   21.15    0.65
  -2   0   3   20.75    0.66
  -2   0   3   20.74    0.71
   1   0  -3  117.56    3.21
  -1   0   3  115.67    3.16
  -1   0   3  116.64    3.08
   0   0  -3    3.21    0.18
   0   0  -3    3.62    0.19
   0   0   3    3.65    0.18
   0   0   3    3.42    0.19
  -1   0  -3  165.90    4.85
  -1   0  -3  166.27    4.54
   1   0   3  164.43    4.51
   1   0   3  172.07    4.28
  -2   0  -3   42.59    1.43
   2   0   3   41.38    1.25
   2   0   3   43.13    1.12
  -3   0  -3   31.11    1.23
   3   0   3   34.44    0.89
   3   0   3   33.23    1.05
   3   0   3   33.97    1.10
  -4   0  -3    1.63    0.32
   4   0   3    1.62    0.21
   4   0   3    1.91    0.27
  -5   0  -3   12.92    0.85
   5   0   3   14.29    0.62
   5   0   3   13.12    0.70
  -6   0  -3   35.82    1.63
   6   0   3   36.92    1.40
   6   0   3   36.27    1.26
  -7   0  -3    9.20    0.96
   7   0   3   10.43    0.75
  -8   0  -3    3.54    0.76
   8   0   3    2.68    0.48
  -9   0  -3    2.73    0.76
   9   0   3    3.52    0.56
   9  -1  -3    1.27    0.46
   8  -1  -3   11.17    0.84
  -8   1   3   11.49    0.75
   7  -1  -3   20.03    0.97
  -7   1   3   19.94    0.91
   6  -1  -3    0.67    0.25
   6  -1  -3    0.42    0.21
  -6   1   3    0.44    0.27
   5  -1  -3   34.84    1.13
   5  -1  -3   34.95    1.16
  -5   1   3   34.12    1.17
  -5   1   3   31.28    1.25
   4  -1  -3   60.34    1.77
   4  -1  -3   57.38    1.71
  -4   1   3   55.13    1.81
  -4   1   3   56.49    1.73
   3  -1  -3   17.52    0.69
   3  -1  -3   17.88    0.63
  -3   1   3   17.83    0.69
  -3   1   3   18.48    0.61
   2  -1  -3    1.15    0.15
  -2   1   3    0.78    0.13
  -2   1   3    0.57    0.16
   1  -1  -3   42.77    1.24
  -1   1   3   43.00    1.23
  -1   1   3   40.18    1.22
   0  -1  -3   32.07    0.98
   0  -1  -3   31.73    1.01
   0   1   3   32.43    0.96
   0   1   3   32.78    0.93
  -1  -1  -3   55.06    1.76
   1   1   3   59.30    1.50
   1   1   3   56.18    1.65
  -2  -1  -3   13.07    0.62
   2   1   3   14.18    0.54
   2   1   3   14.02    0.53
  -3  -1  -3   52.30    1.79
   3   1   3   53.00    1.61
   3   1   3   53.67    1.62
  -4  -1  -3   46.53    1.63
   4   1   3   44.66    1.46
   4   1   3   43.74    1.44
  -5  -1  -3    2.62    0.43
   5   1   3    2.64    0.32
   5   1   3    2.40    0.34
  -6  -1  -3   15.25    0.93
   6   1   3   13.14    0.76
   6   1   3   14.57    0.73
  -7  -1  -3    1.42    0.49
   7   1   3    2.71    0.40
   7   1   3    2.00    0.40
  -8  -1  -3   22.36    1.40
   8   1   3   21.50    1.10
   9  -2  -3    1.56    0.56
  -9   2   3    1.24    0.43
   8  -2  -3    0.93    0.40
  -8   2   3    1.17    0.39
   7  -2  -3    6.57    0.58
  -7   2   3    4.73    0.51
   6  -2  -3    3.90    0.44
  -6   2   3    4.94    0.50
   5  -2  -3   26.05    0.99
   5  -2  -3   27.00    0.94
  -5   2   3   27.23    1.03
   4  -2  -3   41.74    1.35
   4  -2  -3   41.58    1.31
  -4   2   3   40.44    1.35
  -4   2   3   41.45    1.29
   3  -2  -3   33.03    1.05
   3  -2  -3   33.05    1.05
  -3   2   3   31.57    1.09
  -3   2   3   32.70    1.00
   2  -2  -3  121.57    3.43
  -2   2   3  125.08    3.54
  -2   2   3  125.47    3.36
  -2   2   3  125.01    3.44
   1  -2  -3   11.31    0.44
  -1   2   3   12.41    0.46
  -1   2   3   12.63    0.47
   0  -2  -3   27.69    0.86
   0  -2  -3   24.94    0.85
   0   2   3   27.33    0.79
   0   2   3   27.20    0.85
  -1  -2  -3    4.44    0.29
   1   2   3    4.58    0.19
   1   2   3    4.19    0.25
   1   2   3    4.08    0.28
  -2  -2  -3   63.68    2.03
   2   2   3   62.10    1.89
   2   2   3   64.91    1.84
  -3  -2  -3   82.92    2.60
   3   2   3   79.55    2.35
   3   2   3   82.04    2.41
  -4  -2  -3    3.56    0.41
   4   2   3    3.37    0.36
   4   2   3    3.45    0.33
  -5  -2  -3    4.99    0.54
   5   2   3    4.85    0.44
   5   2   3    4.20    0.40
  -6  -2  -3   20.77    1.08
   6   2   3   21.55    0.95
   6   2   3   17.71    0.90
  -7  -2  -3   16.34    1.05
   7   2   3   15.00    0.83
   7   2   3   14.41    0.86
  -8  -2  -3    1.32    0.55
   8   2   3    1.56    0.40
   9  -3  -3    0.46    0.48
  -9   3   3    0.06    0.42
   8  -3  -3    1.25    0.43
  -8   3   3    1.64    0.43
   7  -3  -3   10.64    0.76
  -7   3   3   12.46    0.78
   6  -3  -3    0.11    0.24
  -6   3   3    0.57    0.32
   5  -3  -3    2.63    0.33
  -5   3   3    1.72    0.33
   4  -3  -3    5.73    0.37
   4  -3  -3    4.93    0.37
  -4   3   3    5.16    0.45
   3  -3  -3   72.87    2.12
   3  -3  -3   74.29    2.17
  -3   3   3   74.10    2.15
  -3   3   3   73.92    2.17
   2  -3  -3   81.32    2.35
  -2   3   3   83.76    2.32
  -2   3   3   82.83    2.38
  -2   3   3   84.39    2.42
   1  -3  -3    5.31    0.29
  -1   3   3    5.08    0.30
  -1   3   3    5.13    0.25
   0  -3  -3   38.49    1.20
   0   3   3   37.12    1.16
   0   3   3   38.51    1.09
  -1  -3  -3   57.81    1.89
   1   3   3   62.63    1.78
   1   3   3   62.31    1.84
   1   3   3   62.45    1.64
  -2  -3  -3  115.78    2.98
  -2  -3  -3  118.95    3.50
   2   3   3  115.26    3.32
   2   3   3  113.78    3.23
  -3  -3  -3    2.56    0.33
   3   3   3    2.63    0.26
   3   3   3    2.92    0.33
  -4  -3  -3   66.06    2.27
   4   3   3   65.39    2.12
   4   3   3   67.90    2.02
  -5  -3  -3   35.64    1.45
   5   3   3   33.34    1.30
   5   3   3   34.09    1.23
  -6  -3  -3    4.98    0.63
   6   3   3    4.65    0.47
   6   3   3    4.47    0.51
  -7  -3  -3    0.26    0.41
   7   3   3    0.19    0.33
   7   3   3    0.16    0.30
  -8  -3  -3   21.01    1.35
   8   3   3   22.26    1.13
   8  -4  -3    4.90    0.66
  -8   4   3    5.40    0.64
   7  -4  -3    1.38    0.40
  -7   4   3    1.92    0.47
   6  -4  -3   16.03    0.84
  -6   4   3   15.38    0.88
   5  -4  -3    2.19    0.33
  -5   4   3    1.74    0.35
   4  -4  -3   24.92    0.94
  -4   4   3   24.06    0.97
   3  -4  -3    6.26    0.33
   3  -4  -3    6.10    0.39
  -3   4   3    5.96    0.45
  -3   4   3    5.68    0.31
   2  -4  -3   27.10    0.89
  -2   4   3   27.60    0.94
  -2   4   3   26.88    0.89
  -2   4   3   26.62    0.93
   1  -4  -3   35.36    1.12
  -1   4   3   34.99    1.13
  -1   4   3   35.43    1.14
  -1   4   3   35.16    1.09
   0  -4  -3   32.32    1.11
   0   4   3   34.87    1.02
   0   4   3   34.02    1.11
   0   4   3   34.04    1.08
  -1  -4  -3   17.17    0.69
   1   4   3   16.41    0.68
   1   4   3   16.87    0.64
   1   4   3   17.40    0.56
  -2  -4  -3   43.65    1.49
   2   4   3   42.84    1.34
   2   4   3   44.16    1.45
  -3  -4  -3   31.07    1.21
   3   4   3   31.75    1.05
   3   4   3   30.93    1.17
  -4  -4  -3   47.12    1.76
   4   4   3   45.06    1.65
   4   4   3   49.58    1.53
  -5  -4  -3    1.00    0.41
   5   4   3    0.92    0.31
   5   4   3    0.83    0.26
  -6  -4  -3   16.56    1.04
   6   4   3   16.94    0.83
   6   4   3   17.00    0.91
  -7  -4  -3   19.70    1.21
   7   4   3   20.00    1.09
   8   4   3    1.23    0.45
   8  -5  -3    1.03    0.50
  -8   5   3    0.78    0.47
   7  -5  -3    6.32    0.64
  -7   5   3    5.84    0.66
   6  -5  -3    9.88    0.69
  -6   5   3    8.65    0.72
   5  -5  -3    3.71    0.43
  -5   5   3    2.56    0.42
   4  -5  -3    0.46    0.23
  -4   5   3    0.40    0.28
   3  -5  -3   17.93    0.71
   3  -5  -3   18.68    0.76
  -3   5   3   17.91    0.79
   2  -5  -3   77.58    2.23
  -2   5   3   75.38    2.33
  -2   5   3   76.96    2.21
   1  -5  -3    2.36    0.26
  -1   5   3    2.50    0.26
  -1   5   3    2.81    0.28
  -1   5   3    2.82    0.26
   0  -5  -3    6.88    0.42
   0   5   3    6.94    0.42
   0   5   3    7.55    0.41
   0   5   3    6.86    0.36
  -1  -5  -3   86.14    2.69
   1   5   3   89.47    2.37
   1   5   3   85.97    2.59
   1   5   3   86.53    2.51
  -2  -5  -3   25.23    1.01
   2   5   3   24.62    0.99
   2   5   3   24.19    0.88
  -3  -5  -3    0.56    0.27
   3   5   3    0.13    0.17
   3   5   3    0.18    0.26
  -4  -5  -3    8.63    0.69
   4   5   3    7.82    0.50
   4   5   3    8.52    0.65
  -5  -5  -3   11.22    0.86
   5   5   3    9.98    0.75
  -6  -5  -3   11.43    0.95
   6   5   3   10.43    0.83
  -7  -5  -3    0.54    0.52
   7   5   3    0.35    0.44
   7  -6  -3    3.64    0.59
  -7   6   3    2.63    0.56
   6  -6  -3    1.51    0.39
  -6   6   3    1.46    0.44
   5  -6  -3   14.36    0.79
  -5   6   3   14.08    0.87
   4  -6  -3   11.74    0.66
  -4   6   3   12.03    0.74
   3  -6  -3   11.85    0.64
  -3   6   3   12.98    0.70
   2  -6  -3    1.85    0.25
   2  -6  -3    1.25    0.25
  -2   6   3    1.42    0.29
   1  -6  -3    8.84    0.49
  -1   6   3    8.37    0.47
  -1   6   3    8.12    0.48
  -1   6   3    8.70    0.47
   0  -6  -3   40.91    1.40
   0   6   3   40.38    1.36
   0   6   3   40.98    1.26
   0   6   3   39.92    1.32
  -1  -6  -3   25.61    1.03
   1   6   3   26.87    0.94
   1   6   3   26.02    1.02
  -2  -6  -3    2.46    0.36
   2   6   3    2.19    0.28
   2   6   3    2.32    0.36
  -3  -6  -3   36.52    1.45
   3   6   3   38.31    1.44
   3   6   3   36.41    1.25
  -4  -6  -3   14.63    0.94
   4   6   3   15.85    0.91
  -5  -6  -3    6.00    0.74
   5   6   3    5.32    0.61
  -6  -6  -3    4.39    0.73
   6   6   3    4.28    0.64
   7  -7  -3   -0.51    0.41
   6  -7  -3    2.34    0.48
  -6   7   3    1.93    0.53
   5  -7  -3    2.86    0.44
  -5   7   3    3.11    0.52
   4  -7  -3    2.13    0.36
  -4   7   3    1.62    0.42
   3  -7  -3    7.47    0.55
  -3   7   3    9.32    0.65
   2  -7  -3   13.65    0.69
  -2   7   3   14.71    0.71
   1  -7  -3    7.44    0.50
  -1   7   3    7.67    0.49
  -1   7   3    8.04    0.54
   0  -7  -3    0.22    0.22
   0   7   3    0.94    0.29
   0   7   3   -0.17    0.17
   0   7   3    0.21    0.22
  -1  -7  -3    1.56    0.33
   1   7   3    1.42    0.32
   1   7   3    1.47    0.27
  -2  -7  -3   30.97    1.29
   2   7   3   32.51    1.28
  -3  -7  -3    8.91    0.74
   3   7   3    9.00    0.73
  -4  -7  -3    0.44    0.42
   4   7   3    0.91    0.41
  -5  -7  -3    4.39    0.68
   5   7   3    5.48    0.71
   6  -8  -3    0.69    0.44
   5  -8  -3    0.68    0.38
  -5   8   3    0.96    0.48
   4  -8  -3    5.52    0.53
  -4   8   3    6.61    0.65
   3  -8  -3    2.79    0.40
  -3   8   3    2.74    0.44
   2  -8  -3    7.90    0.56
  -2   8   3    8.70    0.61
   1  -8  -3    6.72    0.50
  -1   8   3    6.87    0.52
  -1  -8  -3    6.95    0.61
   1   8   3    6.19    0.57
  -2  -8  -3    3.58    0.49
   2   8   3    3.15    0.47
  -3  -8  -3    1.58    0.46
   3   8   3    1.68    0.45
  -4  -8  -3   14.89    1.05
   4   8   3   13.47    1.01
   4  -9  -3    2.72    0.47
  -4   9   3    2.74    0.53
   3  -9  -3    1.14    0.35
  -3   9   3    1.82    0.44
   2  -9  -3    7.40    0.58
  -2   9   3    7.40    0.63
   1   9   3    0.50    0.35
  -2  -9  -3    5.33    0.63
   2   9   3    6.87    0.70
  -3  -9  -3   14.07    0.99
   3   9   3   14.12    1.00
  -2 -11   4    6.26    0.62
   1  11  -4    5.28    0.65
  -1 -11   4    6.02    0.62
   0  11  -4    0.70    0.39
   0 -11   4    0.83    0.38
  -1  11  -4    1.50    0.45
   1 -11   4    1.72    0.44
  -2  11  -4    8.82    0.81
   2 -11   4    5.64    0.61
   4  10  -4   13.65    1.00
  -4 -10   4   14.46    1.00
   3  10  -4    6.05    0.70
   3  10  -4    5.97    0.65
  -3 -10   4    6.74    0.59
   2  10  -4    5.51    0.62
  -2 -10   4    6.57    0.60
   1  10  -4   10.40    0.79
  -1 -10   4    9.87    0.72
   0  10  -4   10.30    0.76
   0 -10   4    8.25    0.66
  -1  10  -4    9.06    0.74
   1 -10   4    9.59    0.70
  -2  10  -4    0.07    0.32
   2 -10   4   -0.13    0.26
  -3  10  -4    0.50    0.37
   3 -10   4    0.60    0.36
  -4  10  -4    6.46    0.68
   4 -10   4    6.60    0.66
   5   9  -4   10.88    0.90
  -5  -9   4   12.42    0.95
   4   9  -4    2.63    0.52
  -4  -9   4    3.12    0.43
  -4  -9   4    3.22    0.53
   3   9  -4    0.47    0.32
   3   9  -4    0.32    0.34
  -3  -9   4    0.77    0.32
   2   9  -4   17.09    0.91
   2   9  -4   16.79    0.93
  -2  -9   4   17.06    0.85
   1   9  -4   21.31    1.04
  -1  -9   4   22.84    0.97
   0   9  -4    1.72    0.37
   0  -9   4    2.90    0.40
  -1   9  -4    1.17    0.34
   1  -9   4    1.74    0.36
  -2   9  -4   13.12    0.80
   2  -9   4   13.02    0.75
  -3   9  -4    3.36    0.48
   3  -9   4    3.32    0.47
  -4   9  -4    0.59    0.37
   4  -9   4    0.77    0.34
  -5   9  -4   -0.08    0.35
   5  -9   4   -0.07    0.30
   6   8  -4   16.31    1.04
  -6  -8   4   16.14    1.04
   5   8  -4    1.09    0.42
  -5  -8   4    0.96    0.42
   4   8  -4   30.56    1.37
  -4  -8   4   30.46    1.31
  -4  -8   4   30.22    1.16
   3   8  -4   13.88    0.85
   3   8  -4   13.06    0.76
  -3  -8   4   11.85    0.67
   2   8  -4   15.25    0.86
   2   8  -4   14.23    0.77
  -2  -8   4   14.09    0.71
   1   8  -4    1.23    0.34
   1   8  -4    1.31    0.32
  -1  -8   4    1.52    0.31
   0   8  -4   14.77    0.78
   0  -8   4   14.70    0.72
  -1   8  -4   13.27    0.74
   1  -8   4   12.10    0.66
  -2   8  -4    7.30    0.60
   2  -8   4    7.58    0.55
  -3   8  -4   -0.12    0.26
   3  -8   4   -0.04    0.23
  -4   8  -4    7.15    0.66
   4  -8   4    8.08    0.64
   4  -8   4    7.65    0.64
  -5   8  -4    0.07    0.35
   5  -8   4    0.05    0.34
   5  -8   4    0.01    0.27
  -6   8  -4    1.71    0.47
   6  -8   4    1.69    0.49
   6  -8   4    1.22    0.40
   7   7  -4    0.53    0.39
  -7  -7   4    0.74    0.50
   6   7  -4    2.09    0.49
  -6  -7   4    1.47    0.47
   5   7  -4   26.31    1.24
  -5  -7   4   26.35    1.05
  -5  -7   4   26.35    1.19
   4   7  -4   35.87    1.42
  -4  -7   4   30.66    1.30
  -4  -7   4   33.13    1.20
   3   7  -4    0.13    0.23
   3   7  -4    0.44    0.29
  -3  -7   4    0.26    0.22
   2   7  -4    6.27    0.48
   2   7  -4    6.03    0.56
  -2  -7   4    6.58    0.47
   1   7  -4   48.06    1.64
   1   7  -4   45.86    1.63
  -1  -7   4   47.03    1.49
   0   7  -4   16.49    0.77
   0   7  -4   16.39    0.77
   0  -7   4   17.11    0.72
  -1   7  -4    1.33    0.29
   1  -7   4    1.39    0.26
  -2   7  -4    6.19    0.51
   2  -7   4    5.97    0.47
  -3   7  -4   11.30    0.70
   3  -7   4   12.09    0.65
   3  -7   4   11.40    0.68
  -4   7  -4   10.01    0.71
   4  -7   4   11.08    0.65
   4  -7   4   11.33    0.72
  -5   7  -4    0.17    0.31
   5  -7   4   -0.11    0.30
   5  -7   4   -0.08    0.26
  -6   7  -4    0.22    0.38
   6  -7   4   -0.12    0.34
   6  -7   4    0.37    0.28
  -7   7  -4    2.97    0.62
   7  -7   4    3.64    0.61
   7  -7   4    3.23    0.50
   8   6  -4   -0.06    0.42
  -8  -6   4    0.28    0.49
   7   6  -4   11.69    0.88
  -7  -6   4   12.15    0.92
   6   6  -4   18.68    1.02
  -6  -6   4   18.48    1.02
   5   6  -4    5.48    0.57
  -5  -6   4    5.62    0.48
  -5  -6   4    6.02    0.55
   4   6  -4   21.69    1.04
  -4  -6   4   22.54    0.97
  -4  -6   4   21.30    0.87
   3   6  -4    1.09    0.33
   3   6  -4    0.78    0.24
  -3  -6   4    0.87    0.25
   2   6  -4   81.43    2.52
   2   6  -4   78.00    2.50
  -2  -6   4   78.88    2.28
   1   6  -4   16.81    0.74
   1   6  -4   18.35    0.80
  -1  -6   4   16.81    0.69
   0   6  -4    6.80    0.44
   0   6  -4    5.66    0.44
   0  -6   4    6.27    0.40
  -1   6  -4   10.68    0.57
  -1   6  -4    8.49    0.48
   1  -6   4    9.45    0.46
   1  -6   4   10.29    0.49
  -2   6  -4   11.41    0.63
   2  -6   4   11.02    0.56
   2  -6   4   12.01    0.60
  -3   6  -4  105.33    3.28
   3  -6   4  104.02    2.97
   3  -6   4  106.32    3.14
  -4   6  -4   28.65    1.18
   4  -6   4   28.45    1.07
   4  -6   4   29.10    1.18
  -5   6  -4   11.03    0.75
   5  -6   4   11.09    0.75
   5  -6   4   11.56    0.65
  -6   6  -4    2.05    0.49
   6  -6   4    1.99    0.46
   6  -6   4    2.18    0.38
  -7   6  -4    3.70    0.63
   7  -6   4    4.33    0.61
   8   5  -4   13.35    0.94
  -8  -5   4   11.75    0.99
   7   5  -4    6.90    0.68
  -7  -5   4    8.46    0.75
   6   5  -4   -0.39    0.29
  -6  -5   4    0.22    0.27
  -6  -5   4    0.02    0.29
   5   5  -4   19.92    1.00
  -5  -5   4   23.05    1.00
  -5  -5   4   21.61    0.87
   4   5  -4   15.06    0.79
  -4  -5   4   14.76    0.67
  -4  -5   4   16.11    0.75
   3   5  -4   77.49    2.41
   3   5  -4   74.91    2.40
  -3  -5   4   77.05    2.20
   2   5  -4    0.27    0.15
   2   5  -4    0.15    0.19
  -2  -5   4    0.13    0.16
   1   5  -4   40.51    1.37
   1   5  -4   42.71    1.37
  -1  -5   4   40.85    1.27
   0   5  -4   70.89    2.06
   0   5  -4   67.27    2.15
   0  -5   4   66.13    1.96
   0  -5   4   71.67    1.92
  -1   5  -4    2.88    0.30
  -1   5  -4    3.18    0.26
   1  -5   4    3.41    0.30
   1  -5   4    3.43    0.26
  -2   5  -4   18.33    0.77
   2  -5   4   18.09    0.70
   2  -5   4   18.50    0.74
  -3   5  -4   13.44    0.67
   3  -5   4   14.02    0.61
   3  -5   4   15.27    0.71
  -4   5  -4   25.57    1.09
   4  -5   4   27.24    0.97
   4  -5   4   27.19    1.10
  -5   5  -4   24.96    1.17
   5  -5   4   24.28    1.10
   5  -5   4   23.40    0.94
  -6   5  -4    0.14    0.37
   6  -5   4    0.20    0.31
  -7   5  -4   10.88    0.99
   7  -5   4   11.99    0.88
  -8   5  -4    7.60    0.98
   8   4  -4    6.71    0.71
   7   4  -4    5.00    0.60
  -7  -4   4    5.00    0.54
  -7  -4   4    5.08    0.60
   6   4  -4   22.99    1.11
  -6  -4   4   24.88    1.09
  -6  -4   4   23.17    0.98
   5   4  -4   25.73    1.12
  -5  -4   4   27.47    1.07
  -5  -4   4   26.16    0.98
   4   4  -4   19.86    0.87
  -4  -4   4   20.11    0.78
  -4  -4   4   20.04    0.83
   3   4  -4   11.13    0.58
   3   4  -4   11.39    0.53
  -3  -4   4   10.53    0.51
   2   4  -4   67.00    2.04
   2   4  -4   67.70    2.08
  -2  -4   4   67.58    1.92
   1   4  -4  126.58    3.76
   1   4  -4  130.55    3.61
  -1  -4   4  127.17    3.43
  -1  -4   4  128.07    3.41
   0   4  -4   72.79    2.04
   0   4  -4   70.11    2.14
   0  -4   4   69.56    1.93
   0  -4   4   66.16    1.94
  -1   4  -4  112.46    3.31
  -1   4  -4  108.87    3.11
   1  -4   4  107.05    2.98
   1  -4   4  114.98    3.09
  -2   4  -4   67.14    1.96
  -2   4  -4   67.07    2.13
   2  -4   4   69.30    2.03
   2  -4   4   68.32    1.92
  -3   4  -4   25.53    0.97
   3  -4   4   24.88    0.85
   3  -4   4   24.54    0.96
  -4   4  -4    1.18    0.31
   4  -4   4    1.40    0.23
   4  -4   4    0.89    0.27
  -5   4  -4    7.51    0.68
   5  -4   4    7.97    0.49
   5  -4   4    8.05    0.62
  -6   4  -4   18.42    1.11
   6  -4   4   17.62    0.95
  -7   4  -4    1.37    0.59
   7  -4   4    1.47    0.40
  -8   4  -4    1.89    0.82
   8  -4   4    0.29    0.42
   9   3  -4    1.02    0.43
   8   3  -4    5.50    0.63
   7   3  -4    5.31    0.59
  -7  -3   4    5.79    0.59
  -7  -3   4    4.69    0.52
   6   3  -4   38.98    1.49
  -6  -3   4   38.86    1.47
  -6  -3   4   38.81    1.35
   5   3  -4    0.88    0.28
  -5  -3   4    0.33    0.24
  -5  -3   4    0.66    0.25
   4   3  -4   63.22    2.01
  -4  -3   4   66.81    2.04
  -4  -3   4   63.16    1.88
   3   3  -4   87.39    2.33
   3   3  -4   84.54    2.52
  -3  -3   4   83.25    2.37
   2   3  -4    5.22    0.30
  -2  -3   4    5.60    0.33
   1   3  -4   59.82    1.85
   1   3  -4   62.88    1.85
  -1  -3   4   60.47    1.66
  -1  -3   4   61.93    1.72
   0   3  -4  281.44    7.93
   0   3  -4  269.58    7.56
   0  -3   4  282.25    7.40
  -1   3  -4  167.08    4.80
  -1   3  -4  164.09    4.54
   1  -3   4  164.32    4.33
   1  -3   4  164.95    4.49
  -2   3  -4    8.26    0.46
  -2   3  -4    9.94    0.40
   2  -3   4    9.52    0.45
   2  -3   4    8.77    0.39
  -3   3  -4    9.07    0.53
  -3   3  -4    9.18    0.37
   3  -3   4    9.79    0.42
   3  -3   4    8.88    0.51
  -4   3  -4   25.03    1.08
   4  -3   4   24.00    1.01
   4  -3   4   26.96    0.86
  -5   3  -4   61.76    2.21
   5  -3   4   60.55    1.79
   5  -3   4   61.37    2.04
  -6   3  -4    0.95    0.54
   6  -3   4    0.74    0.33
  -7   3  -4   -0.02    0.52
   7  -3   4    0.99    0.40
  -8   3  -4    5.35    0.91
   8  -3   4    5.94    0.66
   8   2  -4    4.35    0.58
  -8  -2   4    4.37    0.53
   7   2  -4    2.04    0.40
  -7  -2   4    2.39    0.40
   6   2  -4   26.34    1.10
  -6  -2   4   26.26    1.04
  -6  -2   4   27.04    1.10
   5   2  -4   37.51    1.21
   5   2  -4   36.29    1.31
  -5  -2   4   37.47    1.32
  -5  -2   4   37.09    1.25
   4   2  -4   56.00    1.60
   4   2  -4   54.87    1.72
  -4  -2   4   53.71    1.72
  -4  -2   4   53.87    1.64
   3   2  -4    2.33    0.17
   3   2  -4    2.51    0.28
  -3  -2   4    2.15    0.21
  -3  -2   4    1.73    0.22
   2   2  -4   69.47    2.04
   2   2  -4   66.30    2.08
  -2  -2   4   71.18    1.89
  -2  -2   4   66.91    1.92
   1   2  -4   86.92    2.59
   1   2  -4   88.67    2.60
  -1  -2   4   89.39    2.43
  -1  -2   4   92.72    2.43
   0   2  -4   62.03    1.82
   0   2  -4   60.58    1.78
   0  -2   4   59.73    1.67
   0  -2   4   60.57    1.69
  -1   2  -4   14.55    0.52
  -1   2  -4   14.72    0.55
   1  -2   4   13.35    0.50
   1  -2   4   14.46    0.49
  -2   2  -4  112.59    3.37
  -2   2  -4  111.57    3.10
   2  -2   4  116.44    3.17
   2  -2   4  109.73    2.97
  -3   2  -4   54.20    1.84
  -3   2  -4   53.48    1.57
   3  -2   4   54.92    1.70
   3  -2   4   54.50    1.51
  -4   2  -4   18.27    0.64
  -4   2  -4   18.67    0.93
   4  -2   4   15.59    0.76
   4  -2   4   18.39    0.62
  -5   2  -4    0.61    0.42
   5  -2   4    0.69    0.29
  -6   2  -4    0.35    0.68
   6  -2   4    2.66    0.44
  -7   2  -4   10.19    1.04
   7  -2   4    9.73    0.78
  -8   2  -4    7.78    0.99
   8  -2   4    9.62    0.80
   8   1  -4    1.43    0.40
  -8  -1   4    1.99    0.41
   7   1  -4    8.40    0.63
   7   1  -4    9.36    0.67
  -7  -1   4    9.45    0.66
   6   1  -4   45.90    1.53
   6   1  -4   45.27    1.57
  -6  -1   4   46.87    1.54
   5   1  -4    9.29    0.52
   5   1  -4    9.40    0.48
  -5  -1   4    9.01    0.52
  -5  -1   4    8.78    0.55
   4   1  -4   17.76    0.74
   4   1  -4   18.69    0.65
  -4  -1   4   18.50    0.71
  -4  -1   4   17.97    0.74
   3   1  -4  159.37    4.51
   3   1  -4  159.37    4.33
  -3  -1   4  161.22    4.27
  -3  -1   4  158.31    4.58
   2   1  -4   80.41    2.47
   2   1  -4   87.45    2.43
  -2  -1   4   84.21    2.32
  -2  -1   4   83.61    2.32
   1   1  -4    2.41    0.14
   1   1  -4    2.69    0.24
  -1  -1   4    2.57    0.16
  -1  -1   4    2.06    0.19
   0   1  -4   46.27    1.36
   0   1  -4   45.26    1.34
   0  -1   4   45.48    1.28
   0  -1   4   44.09    1.30
  -1   1  -4   49.46    1.56
  -1   1  -4   49.77    1.46
   1  -1   4   49.76    1.45
   1  -1   4   51.27    1.38
  -2   1  -4   59.78    1.75
   2  -1   4   61.48    1.64
   2  -1   4   61.36    1.79
  -3   1  -4    4.25    0.27
  -3   1  -4    3.95    0.44
   3  -1   4    4.60    0.35
   3  -1   4    4.01    0.21
  -4   1  -4    6.04    0.62
   4  -1   4    6.78    0.48
  -5   1  -4   45.44    2.05
   5  -1   4   53.69    1.59
   5  -1   4   52.29    1.76
  -6   1  -4    1.08    0.67
   6  -1   4    2.63    0.42
  -7   1  -4   -0.45    0.46
   7  -1   4    0.40    0.36
  -8   1  -4    0.25    0.57
   8  -1   4    0.76    0.40
  -9   0   4    5.78    0.65
   8   0  -4    8.28    0.72
  -8   0   4    8.87    0.70
   7   0  -4    3.10    0.41
   7   0  -4    3.17    0.43
  -7   0   4    2.66    0.41
   6   0  -4    2.66    0.35
   6   0  -4    2.06    0.30
  -6   0   4    1.91    0.34
   5   0  -4    6.37    0.43
   5   0  -4    6.83    0.42
  -5   0   4    6.84    0.51
   4   0  -4   52.25    1.65
   4   0  -4   51.33    1.53
  -4   0   4   51.40    1.59
  -4   0   4   48.88    1.60
   3   0  -4   89.96    2.49
   3   0  -4   90.28    2.63
  -3   0   4   89.00    2.50
  -3   0   4   84.47    2.57
   2   0  -4    0.12    0.13
  -2   0   4    0.16    0.16
  -2   0   4    0.21    0.11
   1   0  -4  222.56    5.89
   1   0  -4  218.67    6.09
  -1   0   4  218.02    5.64
  -1   0   4  205.95    5.81
   0   0  -4  110.35    3.20
   0   0  -4  111.62    3.07
   0   0   4  109.34    2.92
   0   0   4  109.74    3.03
  -1   0  -4   66.94    1.92
  -1   0  -4   65.62    2.09
   1   0   4   69.15    1.91
   1   0   4   65.44    1.79
  -2   0  -4   32.98    1.02
  -2   0  -4   31.35    1.18
   2   0   4   29.78    0.87
   2   0   4   32.73    1.02
  -3   0  -4   47.41    1.76
   3   0   4   52.14    1.53
   3   0   4   50.19    1.56
  -4   0  -4   37.49    1.54
   4   0   4   37.95    1.25
   4   0   4   40.86    1.34
  -5   0  -4   12.77    0.89
   5   0   4   11.46    0.67
   5   0   4   12.32    0.59
  -6   0  -4    5.41    0.79
   6   0   4    6.78    0.49
   6   0   4    6.53    0.58
  -7   0  -4   11.03    1.06
   7   0   4   11.11    0.80
  -8   0  -4    2.93    0.76
   8   0   4    2.90    0.51
   9  -1  -4    4.33    0.66
  -9   1   4    3.43    0.54
   8  -1  -4   -0.01    0.34
  -8   1   4    0.46    0.38
   7  -1  -4    0.50    0.30
  -7   1   4    0.02    0.32
   6  -1  -4   47.59    1.53
   6  -1  -4   45.91    1.56
  -6   1   4   45.08    1.56
   5  -1  -4   27.94    1.04
   5  -1  -4   28.01    1.02
  -5   1   4   29.94    1.09
   4  -1  -4   16.45    0.66
   4  -1  -4   17.77    0.77
  -4   1   4   17.13    0.75
   3  -1  -4    3.02    0.30
  -3   1   4    3.24    0.14
  -3   1   4    3.88    0.37
   2  -1  -4   15.53    0.60
  -2   1   4   16.07    0.65
  -2   1   4   16.17    0.58
   1  -1  -4  338.24    8.86
  -1   1   4  336.68    8.80
  -1   1   4  311.02    8.48
   0  -1  -4   13.90    0.50
   0  -1  -4   12.72    0.50
   0   1   4   13.04    0.49
   0   1   4   12.71    0.49
  -1  -1  -4   41.57    1.37
  -1  -1  -4   42.73    1.29
   1   1   4   40.27    1.26
   1   1   4   43.11    1.16
  -2  -1  -4   60.51    1.93
   2   1   4   59.77    1.78
   2   1   4   58.12    1.75
  -3  -1  -4   57.95    1.96
   3   1   4   58.01    1.76
   3   1   4   57.72    1.77
  -4  -1  -4    7.20    0.58
   4   1   4    6.45    0.45
   4   1   4    6.97    0.44
  -5  -1  -4   81.68    2.71
   5   1   4   75.96    2.39
   5   1   4   76.39    2.42
  -6  -1  -4   11.41    0.88
   6   1   4    8.87    0.61
   6   1   4    8.41    0.65
  -7  -1  -4    3.06    0.66
   7   1   4    3.35    0.50
  -8  -1  -4   -0.59    0.52
   8   1   4    0.53    0.38
   9  -2  -4    3.48    0.64
  -9   2   4    3.54    0.54
   8  -2  -4    0.09    0.36
  -8   2   4    0.03    0.38
   7  -2  -4   28.53    1.21
  -7   2   4   27.90    1.19
   6  -2  -4   11.32    0.68
  -6   2   4   10.41    0.71
   5  -2  -4   12.86    0.62
   5  -2  -4   12.12    0.65
  -5   2   4   12.85    0.72
   4  -2  -4   78.57    2.37
   4  -2  -4   80.48    2.31
  -4   2   4   75.33    2.31
   3  -2  -4    5.90    0.35
  -3   2   4    5.51    0.42
   2  -2  -4  124.07    3.42
  -2   2   4  121.97    3.40
  -2   2   4  120.18    3.33
   1  -2  -4  185.51    5.10
   1  -2  -4  188.37    5.29
  -1   2   4  185.39    4.89
  -1   2   4  184.53    5.07
   0  -2  -4   85.59    2.46
   0  -2  -4   86.51    2.55
   0   2   4   84.47    2.43
   0   2   4   86.93    2.31
  -1  -2  -4   34.38    1.20
  -1  -2  -4   35.87    1.15
   1   2   4   34.88    1.11
   1   2   4   36.01    0.98
  -2  -2  -4    0.47    0.20
   2   2   4    0.07    0.13
   2   2   4    0.20    0.16
  -3  -2  -4   12.26    0.67
   3   2   4   11.74    0.57
   3   2   4   11.95    0.54
  -4  -2  -4   63.65    2.18
   4   2   4   63.93    1.95
   4   2   4   60.96    1.99
  -5  -2  -4    0.63    0.33
   5   2   4    0.26    0.24
   5   2   4    0.37    0.25
  -6  -2  -4   14.48    0.94
   6   2   4   11.37    0.73
   6   2   4   11.97    0.75
  -7  -2  -4    4.52    0.68
   7   2   4    5.66    0.58
   7   2   4    5.84    0.59
  -8  -2  -4    3.94    0.76
   8   2   4    5.89    0.63
   8  -3  -4   12.12    0.91
  -8   3   4   12.86    0.88
   7  -3  -4    0.04    0.31
  -7   3   4    0.52    0.37
   6  -3  -4    7.05    0.58
  -6   3   4    6.03    0.57
   5  -3  -4   53.78    1.73
  -5   3   4   53.41    1.78
   4  -3  -4    7.84    0.46
   4  -3  -4    6.90    0.44
  -4   3   4    7.62    0.55
   3  -3  -4    0.15    0.12
   3  -3  -4    0.14    0.14
  -3   3   4   -0.12    0.20
   2  -3  -4  104.73    2.99
  -2   3   4  104.03    3.00
  -2   3   4  108.61    2.94
   1  -3  -4   41.09    1.28
   1  -3  -4   43.15    1.31
  -1   3   4   42.40    1.26
  -1   3   4   40.12    1.29
   0  -3  -4   27.18    0.93
   0  -3  -4   26.69    0.92
   0   3   4   27.76    0.84
   0   3   4   26.79    0.91
  -1  -3  -4    8.67    0.46
   1   3   4    8.22    0.33
   1   3   4    8.49    0.42
   1   3   4    9.75    0.48
  -2  -3  -4   57.88    1.96
   2   3   4   61.16    1.87
   2   3   4   60.27    1.79
  -3  -3  -4   69.36    2.38
   3   3   4   73.66    2.16
   3   3   4   73.95    2.25
  -4  -3  -4    2.41    0.41
   4   3   4    2.45    0.31
   4   3   4    3.11    0.41
  -5  -3  -4    1.43    0.42
   5   3   4    2.09    0.33
   5   3   4    2.23    0.39
  -6  -3  -4    9.13    0.82
   6   3   4    9.16    0.68
   6   3   4    8.77    0.71
  -7  -3  -4    2.08    0.55
   7   3   4    1.24    0.39
   7   3   4    2.20    0.45
  -8  -3  -4    0.04    0.57
   8   3   4    0.10    0.39
   8  -4  -4   15.75    1.05
  -8   4   4   15.56    1.06
   7  -4  -4    1.81    0.42
  -7   4   4    2.01    0.48
   6  -4  -4    1.33    0.34
  -6   4   4    1.07    0.38
   5  -4  -4   14.37    0.72
  -5   4   4   12.40    0.74
   4  -4  -4   39.11    1.31
   4  -4  -4   35.76    1.25
  -4   4   4   37.70    1.34
   3  -4  -4   51.22    1.60
   3  -4  -4   52.09    1.66
  -3   4   4   53.85    1.66
   2  -4  -4    1.43    0.21
  -2   4   4    1.46    0.24
  -2   4   4    1.18    0.25
   1  -4  -4    1.99    0.24
   1  -4  -4    2.03    0.21
  -1   4   4    2.27    0.25
  -1   4   4    2.34    0.26
   0  -4  -4   15.80    0.66
   0  -4  -4   15.50    0.64
   0   4   4   16.23    0.65
   0   4   4   16.58    0.58
  -1  -4  -4   71.30    2.16
   1   4   4   67.12    2.08
   1   4   4   66.38    2.02
  -2  -4  -4    2.43    0.33
   2   4   4    1.92    0.24
   2   4   4    1.62    0.27
  -3  -4  -4    3.13    0.42
   3   4   4    3.33    0.32
   3   4   4    3.08    0.39
  -4  -4  -4    7.00    0.65
   4   4   4    7.40    0.50
   4   4   4    6.47    0.59
  -5  -4  -4   27.56    1.31
   5   4   4   27.61    1.09
   5   4   4   27.06    1.20
  -6  -4  -4    9.47    0.87
   6   4   4    8.08    0.74
   6   4   4    8.14    0.63
  -7  -4  -4    2.86    0.64
   7   4   4    3.24    0.55
   8  -5  -4    7.67    0.83
  -8   5   4    6.63    0.75
   7  -5  -4    0.35    0.37
  -7   5   4   -0.24    0.40
   6  -5  -4    2.31    0.42
  -6   5   4    1.70    0.47
   5  -5  -4   18.96    0.86
  -5   5   4   18.62    0.99
   4  -5  -4    4.31    0.42
  -4   5   4    3.79    0.48
   3  -5  -4    0.19    0.19
   3  -5  -4    0.39    0.16
  -3   5   4   -0.02    0.24
   2  -5  -4    6.58    0.41
  -2   5   4    6.12    0.45
  -2   5   4    6.68    0.46
   1  -5  -4   17.76    0.72
  -1   5   4   16.71    0.72
  -1   5   4   18.61    0.71
   0  -5  -4   38.10    1.31
   0  -5  -4   39.36    1.31
   0   5   4   38.73    1.18
   0   5   4   37.95    1.27
  -1  -5  -4    3.72    0.37
   1   5   4    3.74    0.38
   1   5   4    3.87    0.35
  -2  -5  -4    0.20    0.24
   2   5   4    0.24    0.22
   2   5   4    0.43    0.19
  -3  -5  -4   13.00    0.79
   3   5   4   12.76    0.64
   3   5   4   13.38    0.76
  -4  -5  -4   16.60    0.96
   4   5   4   17.41    0.93
   4   5   4   16.02    0.76
  -5  -5  -4    2.89    0.54
   5   5   4    2.65    0.48
   5   5   4    2.78    0.39
  -6  -5  -4    1.22    0.51
   6   5   4    2.19    0.52
  -7  -5  -4    3.62    0.70
   7   5   4    3.77    0.65
   7  -6  -4    1.83    0.49
  -7   6   4    1.61    0.53
   6  -6  -4    3.22    0.49
  -6   6   4    2.20    0.50
   5  -6  -4    3.44    0.45
  -5   6   4    3.16    0.51
   4  -6  -4    0.26    0.25
  -4   6   4   -0.04    0.31
   3  -6  -4   16.55    0.78
  -3   6   4   17.48    0.83
   2  -6  -4    7.41    0.46
  -2   6   4    7.53    0.54
   1  -6  -4   10.36    0.57
  -1   6   4    9.64    0.53
  -1   6   4    9.97    0.57
   0  -6  -4    0.52    0.23
   0  -6  -4    0.42    0.22
   0   6   4    0.18    0.22
  -1  -6  -4   32.16    1.20
   1   6   4   29.92    1.17
   1   6   4   30.11    1.10
  -2  -6  -4    7.52    0.62
   2   6   4    8.44    0.52
   2   6   4    7.21    0.60
  -3  -6  -4    3.88    0.50
   3   6   4    4.13    0.41
   3   6   4    3.51    0.49
  -4  -6  -4   -0.59    0.33
   4   6   4    0.43    0.38
  -5  -6  -4    7.59    0.82
   5   6   4    6.88    0.75
  -6  -6  -4    9.79    0.98
   6   6   4    9.09    0.89
   6  -7  -4   -0.41    0.35
  -6   7   4   -0.38    0.45
   5  -7  -4    1.01    0.37
  -5   7   4    1.78    0.49
   4  -7  -4    1.18    0.34
  -4   7   4    1.72    0.45
   3  -7  -4   10.54    0.66
  -3   7   4   11.72    0.76
   2  -7  -4    0.27    0.23
  -2   7   4   -0.02    0.24
   1  -7  -4    0.34    0.22
  -1   7   4    0.32    0.24
  -1   7   4    0.10    0.23
   0  -7  -4   24.78    1.03
   0   7   4   24.47    0.99
  -1  -7  -4   16.39    0.85
   1   7   4   16.12    0.77
   1   7   4   16.97    0.84
  -2  -7  -4   -0.01    0.29
   2   7   4    0.17    0.30
   2   7   4   -0.13    0.24
  -3  -7  -4   13.86    0.91
   3   7   4   12.24    0.82
  -4  -7  -4    7.37    0.77
   4   7   4    7.52    0.75
  -5  -7  -4    5.86    0.78
   5   7   4    5.17    0.70
   5  -8  -4    3.64    0.56
  -5   8   4    5.25    0.69
   4  -8  -4    1.62    0.39
  -4   8   4    1.59    0.46
   3  -8  -4    7.66    0.64
  -3   8   4    8.75    0.69
   2  -8  -4    1.02    0.30
  -2   8   4    1.42    0.36
   0  -8  -4    6.61    0.58
   0   8   4    5.76    0.52
   2   8   4    7.04    0.70
  -3  -8  -4    4.01    0.61
   3   8   4    5.27    0.65
  -4  -8  -4    7.37    0.81
   4   8   4    7.37    0.84
   3  -9  -4    3.17    0.46
  -3   9   4    3.86    0.55
   2  -9  -4    2.24    0.38
   2   9   4    2.20    0.50
   1  11  -5    2.95    0.58
  -1 -11   5    2.31    0.47
   0  11  -5    7.26    0.71
   0 -11   5    7.92    0.68
  -1  11  -5    4.22    0.61
   1 -11   5    5.28    0.61
   4  10  -5    4.01    0.65
  -4 -10   5    3.08    0.51
  -4 -10   5    3.29    0.60
   3  10  -5   11.32    0.84
   3  10  -5   10.73    0.88
  -3 -10   5   11.23    0.80
   2  10  -5   17.30    0.99
  -2 -10   5   17.61    0.95
   1  10  -5    3.98    0.54
  -1 -10   5    5.17    0.56
   0  10  -5    0.79    0.36
   0 -10   5    0.61    0.33
  -1  10  -5    6.04    0.62
   1 -10   5    8.08    0.69
  -2  10  -5    4.61    0.60
   2 -10   5    3.89    0.51
  -3  10  -5    1.63    0.43
   3 -10   5    1.73    0.44
  -4  10  -5   -0.11    0.35
   4 -10   5    0.37    0.38
   5   9  -5    0.38    0.39
  -5  -9   5    0.59    0.41
   4   9  -5    6.94    0.73
  -4  -9   5    7.30    0.71
  -4  -9   5    7.49    0.63
   3   9  -5   27.32    1.25
   3   9  -5   27.96    1.31
  -3  -9   5   27.70    1.13
   2   9  -5    4.14    0.50
   2   9  -5    4.13    0.54
  -2  -9   5    4.04    0.48
   1   9  -5    3.40    0.46
  -1  -9   5    3.69    0.44
   0   9  -5    8.36    0.66
   0  -9   5    8.74    0.63
  -1   9  -5   20.22    1.03
   1  -9   5   21.72    0.96
  -2   9  -5    1.78    0.39
   2  -9   5    1.90    0.38
  -3   9  -5    1.21    0.38
   3  -9   5    1.65    0.41
  -4   9  -5    6.05    0.63
   4  -9   5    6.24    0.60
  -5   9  -5    2.24    0.49
   5  -9   5    1.55    0.43
   6   8  -5    3.33    0.56
  -6  -8   5    4.89    0.66
   5   8  -5   26.24    1.29
  -5  -8   5   25.55    1.09
  -5  -8   5   23.86    1.18
   4   8  -5    8.93    0.79
  -4  -8   5    8.55    0.68
  -4  -8   5    6.82    0.58
   3   8  -5    0.15    0.26
   3   8  -5    0.06    0.31
  -3  -8   5    0.02    0.28
   2   8  -5   15.31    0.81
   2   8  -5   15.13    0.88
  -2  -8   5   15.14    0.76
   1   8  -5   17.71    0.86
   1   8  -5   16.12    0.88
  -1  -8   5   17.52    0.81
   0   8  -5   24.78    1.07
   0  -8   5   23.80    0.97
  -1   8  -5    4.69    0.50
   1  -8   5    4.85    0.48
  -2   8  -5    4.69    0.50
   2  -8   5    5.66    0.53
  -3   8  -5    3.78    0.48
   3  -8   5    3.21    0.42
  -4   8  -5   18.12    0.98
   4  -8   5   17.85    0.90
  -5   8  -5    0.39    0.38
   5  -8   5    0.06    0.34
   5  -8   5    0.68    0.35
  -6   8  -5   19.02    1.14
   6  -8   5   17.89    0.99
   6  -8   5   18.36    1.11
   7   7  -5    6.46    0.73
  -7  -7   5    6.48    0.74
   6   7  -5   29.40    1.39
  -6  -7   5   32.60    1.40
   5   7  -5    1.16    0.41
  -5  -7   5    0.60    0.35
  -5  -7   5    1.15    0.33
   4   7  -5   11.33    0.80
  -4  -7   5   12.02    0.72
  -4  -7   5   11.90    0.69
   3   7  -5   24.61    1.14
   3   7  -5   23.89    1.02
  -3  -7   5   24.72    0.98
   2   7  -5   35.22    1.38
   2   7  -5   33.40    1.28
  -2  -7   5   33.84    1.20
   1   7  -5    8.40    0.61
   1   7  -5    8.47    0.54
  -1  -7   5    8.34    0.53
   0   7  -5   25.54    1.03
   0   7  -5   23.71    1.01
   0  -7   5   24.76    0.94
  -1   7  -5   48.07    1.70
   1  -7   5   48.69    1.55
  -2   7  -5    7.52    0.58
   2  -7   5    8.93    0.55
  -3   7  -5    0.13    0.26
   3  -7   5    0.07    0.23
   3  -7   5    0.06    0.23
  -4   7  -5    3.76    0.49
   4  -7   5    3.69    0.47
   4  -7   5    4.48    0.48
  -5   7  -5    6.27    0.62
   5  -7   5    6.83    0.64
   5  -7   5    7.05    0.59
  -6   7  -5    1.45    0.46
   6  -7   5    1.20    0.45
   6  -7   5    1.45    0.39
  -7   7  -5    0.44    0.51
   7  -7   5   -0.23    0.40
   7   6  -5   17.37    1.07
  -7  -6   5   17.23    1.08
   6   6  -5    0.11    0.33
  -6  -6   5   -0.15    0.30
  -6  -6   5    0.48    0.34
   5   6  -5   45.85    1.78
  -5  -6   5   45.33    1.55
  -5  -6   5   47.31    1.70
   4   6  -5   27.02    1.22
  -4  -6   5   27.55    1.12
  -4  -6   5   28.91    1.07
   3   6  -5   26.46    1.13
   3   6  -5   26.41    1.04
  -3  -6   5   26.80    1.00
   2   6  -5    8.18    0.57
   2   6  -5    9.07    0.53
  -2  -6   5    9.11    0.52
   1   6  -5   57.54    1.87
   1   6  -5   57.21    1.85
  -1  -6   5   56.44    1.72
   0   6  -5   37.66    1.32
   0   6  -5   37.14    1.26
   0  -6   5   35.50    1.20
  -1   6  -5   16.14    0.75
   1  -6   5   15.64    0.68
  -2   6  -5    5.89    0.49
   2  -6   5    7.28    0.46
   2  -6   5    6.90    0.47
  -3   6  -5   70.83    2.36
   3  -6   5   72.11    2.14
   3  -6   5   73.20    2.26
  -4   6  -5    1.59    0.36
   4  -6   5    2.28    0.34
   4  -6   5    1.25    0.34
  -5   6  -5    0.93    0.36
   5  -6   5    0.66    0.32
   5  -6   5    0.24    0.26
  -6   6  -5    2.31    0.52
   6  -6   5    2.88    0.48
  -7   6  -5    3.99    0.70
   7  -6   5    2.64    0.53
   8   5  -5    0.77    0.43
   7   5  -5   13.81    0.94
  -7  -5   5   12.91    0.92
  -7  -5   5   14.15    0.84
   6   5  -5   18.02    0.99
  -6  -5   5   18.24    0.88
  -6  -5   5   18.63    0.94
   5   5  -5   16.61    0.90
  -5  -5   5   17.95    0.83
  -5  -5   5   16.86    0.84
   4   5  -5    8.10    0.60
  -4  -5   5    8.54    0.55
  -4  -5   5    7.61    0.53
   3   5  -5  101.82    3.05
   3   5  -5   97.84    3.00
  -3  -5   5   98.18    2.80
   2   5  -5   56.45    1.80
   2   5  -5   56.17    1.81
  -2  -5   5   55.91    1.69
   1   5  -5    7.15    0.44
   1   5  -5    6.65    0.40
  -1  -5   5    6.88    0.40
   0   5  -5    0.64    0.18
   0   5  -5    0.64    0.18
   0  -5   5    0.57    0.19
   0  -5   5    0.77    0.12
  -1   5  -5   21.44    0.86
  -1   5  -5   22.28    0.79
   1  -5   5   22.38    0.75
   1  -5   5   20.99    0.79
  -2   5  -5  118.87    3.67
   2  -5   5  126.73    3.46
   2  -5   5  117.57    3.31
  -3   5  -5    2.31    0.33
   3  -5   5    2.40    0.28
   3  -5   5    2.42    0.33
  -4   5  -5   -0.12    0.24
   4  -5   5    0.13    0.19
   4  -5   5   -0.23    0.22
  -5   5  -5    2.38    0.48
   5  -5   5    2.23    0.40
   5  -5   5    2.46    0.34
  -6   5  -5   11.86    0.91
   6  -5   5   11.94    0.85
  -7   5  -5    1.48    0.57
   7  -5   5    0.73    0.40
  -8   5  -5    1.59    0.68
   8  -5   5    1.56    0.55
   8   4  -5   24.11    1.28
   7   4  -5   20.56    1.14
  -7  -4   5   23.67    1.07
   6   4  -5    0.00    0.27
  -6  -4   5   -0.05    0.26
  -6  -4   5    0.25    0.31
   5   4  -5    8.84    0.65
  -5  -4   5   10.47    0.61
  -5  -4   5   10.42    0.62
   4   4  -5   90.07    2.82
  -4  -4   5   92.61    2.65
  -4  -4   5   95.69    2.86
   3   4  -5   33.03    1.13
   3   4  -5   31.21    1.15
  -3  -4   5   32.71    1.09
   2   4  -5    0.19    0.13
   2   4  -5    0.58    0.19
  -2  -4   5    0.45    0.17
   1   4  -5   82.27    2.52
   1   4  -5   84.56    2.47
  -1  -4   5   81.79    2.32
  -1  -4   5   84.81    2.26
   0   4  -5   14.19    0.63
   0   4  -5   13.83    0.58
   0  -4   5   14.51    0.49
   0  -4   5   13.96    0.57
  -1   4  -5   18.03    0.72
  -1   4  -5   18.22    0.72
   1  -4   5   17.81    0.66
   1  -4   5   17.36    0.63
  -2   4  -5    2.52    0.26
  -2   4  -5    2.60    0.29
   2  -4   5    2.27    0.25
   2  -4   5    2.39    0.27
  -3   4  -5    8.40    0.54
   3  -4   5    9.95    0.48
   3  -4   5    9.35    0.54
  -4   4  -5   28.85    1.16
   4  -4   5   26.46    1.11
   4  -4   5   27.46    0.96
  -5   4  -5    4.70    0.63
   5  -4   5    2.80    0.46
  -6   4  -5    1.00    0.49
   6  -4   5    1.66    0.42
  -7   4  -5    1.18    0.61
   7  -4   5    2.21    0.49
  -8   4  -5    1.09    0.80
   8  -4   5   -0.09    0.42
   8   3  -5    7.13    0.74
  -8  -3   5    6.06    0.62
   7   3  -5   11.99    0.83
  -7  -3   5   13.19    0.79
   6   3  -5   11.91    0.75
  -6  -3   5   13.39    0.75
   5   3  -5   30.62    1.19
  -5  -3   5   31.18    1.14
  -5  -3   5   29.79    1.11
   4   3  -5   24.28    0.96
  -4  -3   5   24.72    0.89
  -4  -3   5   23.26    0.90
   3   3  -5    6.61    0.36
   3   3  -5    6.62    0.27
   3   3  -5    5.55    0.42
  -3  -3   5    6.55    0.42
   2   3  -5  102.87    3.14
   2   3  -5  108.88    3.18
  -2  -3   5  111.88    2.93
   1   3  -5   60.76    1.88
   1   3  -5   58.98    1.81
  -1  -3   5   58.73    1.71
  -1  -3   5   59.89    1.65
   0   3  -5    5.75    0.33
   0   3  -5    6.04    0.40
   0  -3   5    5.86    0.27
   0  -3   5    5.50    0.33
  -1   3  -5   29.13    0.96
  -1   3  -5   29.02    0.98
   1  -3   5   27.11    0.90
   1  -3   5   27.89    0.90
  -2   3  -5   38.92    1.19
  -2   3  -5   37.18    1.30
   2  -3   5   38.12    1.15
   2  -3   5   38.86    1.23
  -3   3  -5   15.49    0.57
  -3   3  -5   14.39    0.72
   3  -3   5   16.10    0.59
   3  -3   5   15.54    0.70
   4  -3   5    1.65    0.30
   4  -3   5    1.99    0.24
  -5   3  -5    1.01    0.39
   5  -3   5    0.96    0.32
  -6   3  -5   11.87    0.99
   6  -3   5   13.18    0.84
  -7   3  -5    8.58    0.98
   7  -3   5    9.80    0.81
  -8   3  -5   -1.67    0.69
   8  -3   5   -0.23    0.39
   8   2  -5    7.64    0.74
  -8  -2   5    7.13    0.65
   7   2  -5   28.58    1.24
  -7  -2   5   28.72    1.18
   6   2  -5    5.11    0.52
  -6  -2   5    4.49    0.48
   5   2  -5    2.71    0.36
  -5  -2   5    1.99    0.33
   4   2  -5   18.11    0.79
   4   2  -5   18.80    0.65
  -4  -2   5   18.73    0.71
   3   2  -5   25.31    1.02
   3   2  -5   27.44    0.85
  -3  -2   5   28.12    0.95
  -3  -2   5   28.15    0.91
   2   2  -5   28.99    0.89
   2   2  -5   26.55    1.03
  -2  -2   5   26.88    0.91
  -2  -2   5   26.80    0.83
   1   2  -5   16.24    0.67
   1   2  -5   15.99    0.55
  -1  -2   5   15.48    0.52
   0   2  -5   36.68    1.16
   0   2  -5   36.76    1.17
   0  -2   5   36.22    1.09
   0  -2   5   37.26    1.10
  -1   2  -5   65.02    1.98
  -1   2  -5   65.20    1.89
   1  -2   5   63.43    1.85
   1  -2   5   64.47    1.79
  -2   2  -5   64.58    1.86
  -2   2  -5   65.36    2.03
   2  -2   5   63.17    1.77
   2  -2   5   62.73    1.89
  -3   2  -5    0.25    0.22
  -3   2  -5    0.32    0.14
   3  -2   5    0.24    0.17
   3  -2   5    0.32    0.12
  -4   2  -5   35.42    1.42
  -4   2  -5   33.93    1.10
   4  -2   5   32.76    1.24
  -5   2  -5   13.33    0.94
   5  -2   5   12.98    0.76
  -6   2  -5    6.80    0.81
   6  -2   5    7.05    0.66
  -7   2  -5    0.24    0.53
   7  -2   5    0.46    0.38
  -8   2  -5    4.51    0.93
   8  -2   5    9.16    0.82
  -9  -1   5    4.18    0.59
   8   1  -5    6.10    0.65
  -8  -1   5    6.28    0.62
   7   1  -5    0.67    0.33
  -7  -1   5    1.02    0.37
   6   1  -5    6.57    0.55
   6   1  -5    5.74    0.49
  -6  -1   5    7.15    0.59
   5   1  -5   30.10    1.02
   5   1  -5   30.05    1.11
  -5  -1   5   26.88    1.09
   4   1  -5   78.86    2.22
   4   1  -5   78.62    2.40
  -4  -1   5   74.47    2.27
   3   1  -5    6.44    0.48
  -3  -1   5    5.76    0.41
  -3  -1   5    5.66    0.27
  -3  -1   5    6.02    0.32
   2   1  -5   16.13    0.70
   2   1  -5   17.52    0.55
  -2  -1   5   16.17    0.58
  -2  -1   5   18.21    0.68
   1   1  -5   43.35    1.30
   1   1  -5   43.88    1.38
  -1  -1   5   46.01    1.31
  -1  -1   5   42.98    1.28
   0   1  -5   59.18    1.77
   0   1  -5   61.80    1.79
   0  -1   5   59.58    1.68
   0  -1   5   59.20    1.72
  -1   1  -5    5.25    0.32
  -1   1  -5    5.81    0.31
   1  -1   5    5.23    0.30
   1  -1   5    5.55    0.29
  -2   1  -5   30.24    1.12
  -2   1  -5   29.98    0.97
   2  -1   5   28.93    0.98
   2  -1   5   29.90    0.88
  -3   1  -5   14.95    0.82
  -3   1  -5   15.59    0.61
   3  -1   5   16.34    0.68
  -4   1  -5   31.63    1.45
  -4   1  -5   33.67    1.12
   4  -1   5   34.32    1.22
  -5   1  -5    2.89    0.55
  -5   1  -5    4.67    0.40
   5  -1   5    3.69    0.45
  -6   1  -5    3.36    0.68
   6  -1   5    4.15    0.49
  -7   1  -5   13.62    1.22
   7  -1   5   16.51    0.98
  -8   1  -5    0.15    0.67
   8  -1   5    2.69    0.54
  -9   0   5    1.07    0.44
  -8   0   5    0.37    0.37
   7   0  -5   18.07    0.90
   7   0  -5   17.26    0.86
  -7   0   5   17.09    0.92
   6   0  -5   10.50    0.62
   6   0  -5   10.31    0.62
  -6   0   5   10.88    0.71
   5   0  -5   30.39    1.04
   5   0  -5   30.54    1.14
  -5   0   5   27.84    1.11
   4   0  -5    5.99    0.52
   4   0  -5    5.69    0.36
  -4   0   5    7.06    0.53
   3   0  -5   76.52    2.37
  -3   0   5   80.05    2.23
  -3   0   5   76.67    2.26
   2   0  -5   57.60    1.77
  -2   0   5   56.11    1.67
  -2   0   5   58.69    1.72
   1   0  -5   11.11    0.36
   1   0  -5   10.92    0.48
  -1   0   5   11.36    0.45
  -1   0   5   11.58    0.51
   0   0  -5    0.50    0.13
   0   0  -5    0.38    0.11
   0   0   5    0.36    0.12
   0   0   5    0.39    0.14
  -1   0  -5  140.77    4.38
  -1   0  -5  155.94    4.11
   1   0   5  141.56    3.87
   1   0   5  153.44    4.08
  -2   0  -5   24.41    1.02
  -2   0  -5   25.99    0.85
   2   0   5   24.63    0.84
   2   0   5   22.68    0.72
  -3   0  -5   15.83    0.64
  -3   0  -5   14.13    0.83
   3   0   5   14.38    0.64
  -4   0  -5   11.49    0.84
   4   0   5   13.16    0.65
  -5   0  -5   20.93    1.21
   5   0   5   20.31    0.94
   5   0   5   20.67    0.85
  -6   0  -5    3.34    0.67
   6   0   5    2.52    0.37
   6   0   5    2.09    0.41
  -7   0  -5    1.38    0.58
   7   0   5    1.11    0.40
  -8   0  -5    0.90    0.69
   8   0   5    1.21    0.45
   9  -1  -5    3.06    0.63
  -9   1   5    2.95    0.54
   8  -1  -5    2.88    0.49
  -8   1   5    3.14    0.51
   7  -1  -5    4.21    0.47
  -7   1   5    4.20    0.53
   6  -1  -5    1.62    0.34
   6  -1  -5    1.41    0.31
  -6   1   5    1.44    0.37
   5  -1  -5   18.12    0.74
   5  -1  -5   16.87    0.82
  -5   1   5   16.36    0.82
   4  -1  -5   26.21    0.91
   4  -1  -5   24.59    1.01
  -4   1   5   25.61    1.01
   3  -1  -5   39.51    1.33
  -3   1   5   41.71    1.27
  -3   1   5   38.81    1.33
   2  -1  -5    0.04    0.13
  -2   1   5    0.28    0.13
  -2   1   5    0.13    0.18
   1  -1  -5   40.39    1.26
  -1   1   5   41.04    1.24
  -1   1   5   38.82    1.25
   0  -1  -5   78.56    2.28
   0  -1  -5   75.07    2.20
   0   1   5   74.59    2.10
   0   1   5   74.08    2.17
  -1  -1  -5    9.92    0.50
  -1  -1  -5    9.58    0.46
   1   1   5    9.14    0.43
   1   1   5   10.22    0.39
  -2  -1  -5    1.30    0.23
  -2  -1  -5    1.47    0.27
   2   1   5    1.25    0.20
  -3  -1  -5   15.27    0.78
   3   1   5   13.73    0.63
  -4  -1  -5   63.34    2.25
   4   1   5   62.70    1.99
   4   1   5   63.41    1.98
  -5  -1  -5    9.75    0.85
   5   1   5    9.39    0.62
   5   1   5    8.17    0.57
  -6  -1  -5    3.21    0.62
   6   1   5    2.91    0.42
   6   1   5    2.02    0.41
  -7  -1  -5    2.39    0.65
   7   1   5    2.71    0.46
  -8  -1  -5    3.41    0.88
   8   1   5    5.27    0.63
   8  -2  -5    2.77    0.52
  -8   2   5    2.80    0.53
   7  -2  -5   13.27    0.80
  -7   2   5   14.35    0.88
   6  -2  -5   24.04    1.00
  -6   2   5   21.32    1.04
   5  -2  -5    0.18    0.27
   5  -2  -5    0.73    0.23
  -5   2   5    0.91    0.31
   4  -2  -5    6.95    0.50
   4  -2  -5    7.29    0.45
  -4   2   5    6.66    0.54
   3  -2  -5    0.80    0.19
  -3   2   5    0.75    0.26
  -3   2   5    0.94    0.21
   2  -2  -5  102.52    2.91
  -2   2   5  101.11    2.88
  -2   2   5  100.07    2.85
   1  -2  -5    1.57    0.15
   1  -2  -5    1.33    0.19
  -1   2   5    1.01    0.20
  -1   2   5    1.07    0.18
   0  -2  -5   12.18    0.54
   0  -2  -5   13.04    0.54
   0   2   5   13.29    0.55
   0   2   5   14.31    0.52
  -1  -2  -5    1.83    0.26
  -1  -2  -5    2.23    0.27
   1   2   5    2.07    0.17
   1   2   5    1.78    0.22
  -2  -2  -5   69.96    2.11
  -2  -2  -5   70.05    2.26
   2   2   5   67.97    2.05
  -3  -2  -5   13.18    0.74
   3   2   5   12.49    0.65
   3   2   5   13.42    0.61
  -4  -2  -5    1.03    0.34
   4   2   5    1.27    0.27
   4   2   5    1.50    0.30
  -5  -2  -5    0.48    0.36
   5   2   5    1.05    0.34
   5   2   5    0.60    0.28
  -6  -2  -5   27.29    1.35
   6   2   5   23.59    1.10
   6   2   5   23.91    1.11
  -7  -2  -5   14.18    1.12
   7   2   5   12.25    0.83
   7   2   5   14.78    0.90
   8  -3  -5    1.04    0.46
  -8   3   5    1.84    0.49
   7  -3  -5    7.47    0.65
  -7   3   5    9.24    0.77
   6  -3  -5    6.01    0.54
  -6   3   5    5.39    0.60
   5  -3  -5    5.60    0.48
  -5   3   5    4.87    0.54
   4  -3  -5    8.63    0.51
   4  -3  -5    8.79    0.52
  -4   3   5    8.33    0.62
   3  -3  -5   33.85    1.17
  -3   3   5   36.16    1.25
   2  -3  -5    2.64    0.27
  -2   3   5    2.44    0.31
  -2   3   5    2.59    0.29
   1  -3  -5    1.58    0.22
  -1   3   5    1.45    0.23
  -1   3   5    1.64    0.24
   0  -3  -5   14.95    0.64
   0  -3  -5   13.96    0.62
   0   3   5   15.14    0.55
   0   3   5   15.15    0.62
  -1  -3  -5   43.27    1.50
  -1  -3  -5   44.65    1.45
   1   3   5   44.50    1.40
  -2  -3  -5   16.36    0.77
   2   3   5   13.65    0.63
  -3  -3  -5    8.38    0.62
   3   3   5    7.34    0.51
   3   3   5    7.89    0.50
  -4  -3  -5    5.18    0.57
   4   3   5    4.97    0.44
   4   3   5    5.52    0.54
  -5  -3  -5   24.98    1.25
   5   3   5   24.94    1.13
   5   3   5   27.53    1.11
  -6  -3  -5    7.63    0.77
   6   3   5    5.04    0.59
   6   3   5    4.78    0.54
  -7  -3  -5    0.10    0.48
   7   3   5    0.43    0.37
   7   3   5   -0.15    0.36
   8  -4  -5    0.33    0.43
  -8   4   5    0.59    0.48
   7  -4  -5    0.01    0.33
  -7   4   5    0.61    0.44
   6  -4  -5    3.98    0.48
  -6   4   5    2.75    0.51
   5  -4  -5    1.36    0.32
  -5   4   5    1.00    0.39
   4  -4  -5   16.19    0.75
   4  -4  -5   16.16    0.72
  -4   4   5   16.91    0.85
   3  -4  -5    8.02    0.46
  -3   4   5    7.39    0.57
   2  -4  -5   21.82    0.83
  -2   4   5   22.48    0.85
  -2   4   5   20.40    0.84
   1  -4  -5   35.05    1.19
  -1   4   5   34.20    1.19
  -1   4   5   35.49    1.14
   0  -4  -5   14.73    0.68
   0   4   5   14.64    0.66
   0   4   5   15.97    0.59
  -1  -4  -5   22.67    0.91
  -1  -4  -5   21.99    0.89
   1   4   5   21.00    0.84
  -2  -4  -5   63.22    2.17
   2   4   5   64.85    1.99
   2   4   5   65.68    2.08
  -3  -4  -5   42.86    1.62
   3   4   5   41.28    1.40
   3   4   5   41.11    1.51
  -4  -4  -5    1.55    0.41
   4   4   5    1.38    0.30
   4   4   5    2.16    0.42
  -5  -4  -5   -0.21    0.36
   5   4   5    0.24    0.33
   5   4   5    0.34    0.28
  -6  -4  -5    4.53    0.68
   6   4   5    4.16    0.51
   6   4   5    3.99    0.59
  -7  -4  -5   18.63    1.26
   7   4   5   18.68    1.11
   7  -5  -5    3.03    0.52
  -7   5   5    2.23    0.57
   6  -5  -5    1.68    0.40
  -6   5   5    1.70    0.51
   5  -5  -5    2.29    0.39
  -5   5   5    1.85    0.46
   4  -5  -5    0.90    0.29
  -4   5   5    0.59    0.37
   3  -5  -5   10.15    0.55
  -3   5   5   10.36    0.68
   2  -5  -5   26.92    0.99
  -2   5   5   26.63    1.00
  -2   5   5   25.84    1.02
   1  -5  -5    0.41    0.21
  -1   5   5    0.44    0.20
  -1   5   5    0.88    0.24
   0  -5  -5    0.30    0.19
   0   5   5    0.35    0.21
  -1  -5  -5   20.72    0.91
  -1  -5  -5   21.35    0.92
   1   5   5   20.83    0.86
  -2  -5  -5   46.31    1.70
   2   5   5   47.79    1.54
   2   5   5   44.41    1.62
  -3  -5  -5    3.92    0.51
   3   5   5    4.37    0.42
   3   5   5    4.38    0.52
  -4  -5  -5   16.31    1.02
   4   5   5   17.42    0.81
   4   5   5   15.59    0.90
  -5  -5  -5   14.20    1.02
   5   5   5   14.12    0.96
   5   5   5   15.87    0.85
  -6  -5  -5    6.34    0.78
   6   5   5    6.27    0.77
   6  -6  -5    0.71    0.38
  -6   6   5    0.80    0.50
   5  -6  -5    4.38    0.53
  -5   6   5    4.43    0.61
   4  -6  -5   10.53    0.69
  -4   6   5   10.89    0.79
   3  -6  -5    9.89    0.64
  -3   6   5   10.11    0.70
   2  -6  -5    1.64    0.30
  -2   6   5    1.71    0.33
  -2   6   5    1.07    0.30
   1  -6  -5   25.52    0.99
  -1   6   5   23.36    0.92
  -1   6   5   24.71    1.00
   0  -6  -5   16.73    0.81
   0   6   5   18.08    0.80
  -1  -6  -5    0.75    0.31
   1   6   5    0.05    0.23
  -2  -6  -5    0.11    0.29
   2   6   5   -0.32    0.22
   2   6   5    0.35    0.31
  -3  -6  -5   14.87    0.95
   3   6   5   15.67    0.78
   3   6   5   16.60    0.93
  -4  -6  -5    7.38    0.77
   4   6   5    8.08    0.78
  -5  -6  -5    2.71    0.58
   5   6   5    2.23    0.54
   5  -7  -5    1.54    0.43
  -5   7   5    1.87    0.52
   4  -7  -5    0.32    0.30
  -4   7   5    0.06    0.38
   3  -7  -5    2.72    0.41
  -3   7   5    2.28    0.45
  -2   7   5   12.00    0.71
   1  -7  -5   17.92    0.85
  -1   7   5   18.66    0.89
   0  -7  -5    3.63    0.45
   0   7   5    3.13    0.40
  -1  -7  -5    6.61    0.61
   1   7   5    9.03    0.63
   2   7   5   12.38    0.73
  -3  -7  -5    2.84    0.56
   3   7   5    3.75    0.59
  -4  -7  -5    1.15    0.50
   4   7   5    1.66    0.51
   4  -8  -5    6.56    0.63
  -4   8   5    6.50    0.70
   3  -8  -5    0.01    0.31
  -3   8   5    0.28    0.37
   2  -8  -5    2.35    0.41
  -1   8   5    0.22    0.31
   0  -8  -5   12.25    0.76
   0   8   5   12.74    0.75
  -1  -8  -5    4.91    0.55
   3   8   5    0.04    0.41
   0 -11   6    1.19    0.47
   3  10  -6    0.31    0.40
   3  10  -6    0.16    0.36
  -3 -10   6    0.62    0.39
   2  10  -6    4.49    0.58
  -2 -10   6    4.80    0.57
   1  10  -6    5.40    0.59
  -1 -10   6    5.81    0.58
   0  10  -6   11.97    0.84
   0 -10   6   10.46    0.75
  -1  10  -6    4.16    0.56
   1 -10   6    5.47    0.59
  -2  10  -6    0.71    0.39
   2 -10   6    0.59    0.37
  -3  10  -6    0.05    0.37
   3 -10   6    0.03    0.36
   5   9  -6   25.55    1.35
  -5  -9   6   24.68    1.27
  -5  -9   6   25.68    1.16
   4   9  -6    0.38    0.39
  -4  -9   6    0.02    0.34
   3   9  -6    0.69    0.41
   3   9  -6    1.11    0.36
  -3  -9   6    1.61    0.39
   2   9  -6   16.86    0.93
   2   9  -6   19.17    1.05
  -2  -9   6   18.19    0.91
   1   9  -6    9.64    0.70
  -1  -9   6   10.69    0.70
   0   9  -6    3.44    0.48
   0  -9   6    3.76    0.48
  -1   9  -6    3.08    0.48
   1  -9   6    3.54    0.48
  -2   9  -6    5.64    0.60
   2  -9   6    7.52    0.64
  -3   9  -6   15.28    0.94
   3  -9   6   16.64    0.90
  -4   9  -6    1.68    0.45
   4  -9   6    1.25    0.41
  -5   9  -6    0.58    0.43
   5  -9   6    0.72    0.40
   6   8  -6    5.79    0.73
  -6  -8   6    5.37    0.66
   5   8  -6    0.54    0.41
  -5  -8   6    0.62    0.38
  -5  -8   6    0.53    0.38
   4   8  -6   19.29    1.08
  -4  -8   6   18.30    0.92
   3   8  -6   22.51    1.05
   3   8  -6   23.18    1.16
  -3  -8   6   23.68    1.01
   2   8  -6    7.41    0.70
   2   8  -6    7.24    0.58
  -2  -8   6    8.28    0.60
   1   8  -6   -0.03    0.23
   1   8  -6   -0.02    0.27
  -1  -8   6   -0.10    0.25
   0   8  -6   24.73    1.08
   0  -8   6   24.16    1.01
  -1   8  -6   14.66    0.82
   1  -8   6   14.28    0.76
  -2   8  -6    2.35    0.40
   2  -8   6    2.52    0.41
  -3   8  -6    0.45    0.32
   3  -8   6    0.24    0.30
  -4   8  -6    8.91    0.76
   4  -8   6    9.55    0.69
  -5   8  -6    4.59    0.62
   5  -8   6    4.40    0.54
  -6   8  -6    0.39    0.51
   6  -8   6   -0.13    0.34
   6  -8   6   -0.26    0.39
   6   7  -6   10.69    0.89
  -6  -7   6   12.01    0.82
  -6  -7   6    9.70    0.83
   5   7  -6   16.52    1.02
  -5  -7   6   18.07    0.92
  -5  -7   6   14.88    0.84
   4   7  -6   12.29    0.86
  -4  -7   6   12.58    0.73
   3   7  -6    1.25    0.35
   3   7  -6    0.77    0.27
  -3  -7   6    0.78    0.28
   2   7  -6   20.19    0.97
   2   7  -6   20.15    0.89
  -2  -7   6   19.06    0.86
   1   7  -6   23.50    1.01
   1   7  -6   23.12    0.98
  -1  -7   6   22.99    0.94
   0   7  -6   11.55    0.65
   0   7  -6   10.46    0.64
   0  -7   6   10.32    0.61
  -1   7  -6    0.03    0.25
   1  -7   6    0.09    0.22
  -2   7  -6    1.46    0.33
   2  -7   6    1.29    0.30
  -3   7  -6   20.69    1.00
   3  -7   6   22.92    0.96
  -4   7  -6    3.67    0.49
   4  -7   6    3.99    0.50
   4  -7   6    4.48    0.49
  -5   7  -6   -0.07    0.37
   5  -7   6    0.25    0.34
   5  -7   6    0.05    0.29
  -6   7  -6    0.47    0.47
   6  -7   6    0.18    0.40
   7   6  -6   13.86    1.00
  -7  -6   6   13.86    0.92
   6   6  -6   20.17    1.15
  -6  -6   6   19.54    0.98
  -6  -6   6   21.40    1.06
   5   6  -6    1.77    0.44
  -5  -6   6    2.52    0.41
  -5  -6   6    3.03    0.43
   4   6  -6    6.40    0.63
  -4  -6   6    7.19    0.58
   3   6  -6   24.07    1.04
   3   6  -6   22.51    0.95
  -3  -6   6   22.55    0.93
   2   6  -6   44.45    1.52
   2   6  -6   42.42    1.49
  -2  -6   6   42.27    1.41
   1   6  -6    6.53    0.46
   1   6  -6    5.97    0.47
  -1  -6   6    5.91    0.46
   0   6  -6   17.60    0.76
   0   6  -6   17.63    0.78
   0  -6   6   17.21    0.74
  -1   6  -6   32.42    1.21
   1  -6   6   31.25    1.11
  -2   6  -6    1.30    0.30
   2  -6   6    1.13    0.24
   2  -6   6    0.95    0.26
  -3   6  -6   12.55    0.74
   3  -6   6   11.83    0.66
   3  -6   6   12.81    0.69
  -4   6  -6    0.51    0.33
   4  -6   6    0.67    0.27
   4  -6   6    0.55    0.31
  -5   6  -6    8.24    0.73
   5  -6   6    6.69    0.65
   5  -6   6    7.38    0.57
  -6   6  -6    4.11    0.60
   6  -6   6    3.61    0.56
  -7   6  -6    1.82    0.62
   7  -6   6    1.23    0.48
   8   5  -6    7.38    0.82
   7   5  -6    8.94    0.84
  -7  -5   6    9.81    0.77
   6   5  -6    0.81    0.36
  -6  -5   6    1.73    0.39
   5   5  -6   28.42    1.26
  -5  -5   6   31.38    1.19
  -5  -5   6   27.87    1.13
   4   5  -6    1.45    0.35
  -4  -5   6    1.62    0.29
  -4  -5   6    1.79    0.34
   3   5  -6   50.46    1.66
   3   5  -6   49.91    1.69
  -3  -5   6   47.97    1.57
   2   5  -6    0.35    0.16
   2   5  -6    0.00    0.20
  -2  -5   6    0.26    0.20
   1   5  -6   15.44    0.69
   1   5  -6   14.32    0.64
  -1  -5   6   15.44    0.66
   0   5  -6   60.56    1.89
   0   5  -6   61.51    1.95
   0  -5   6   59.82    1.80
  -1   5  -6   19.47    0.81
  -1   5  -6   20.06    0.83
   1  -5   6   20.01    0.77
   1  -5   6   20.07    0.71
  -2   5  -6    4.93    0.44
   2  -5   6    3.86    0.36
   2  -5   6    4.09    0.35
  -3   5  -6   60.07    2.06
   3  -5   6   62.17    1.97
   3  -5   6   62.11    1.85
  -4   5  -6    9.16    0.70
   4  -5   6    8.34    0.64
   4  -5   6    9.08    0.55
  -5   5  -6    1.31    0.40
   5  -5   6    2.89    0.46
  -6   5  -6    0.63    0.46
   6  -5   6   -0.24    0.33
  -7   5  -6    1.29    0.71
   7  -5   6    0.61    0.44
   8   4  -6   -0.11    0.42
  -8  -4   6   -0.17    0.41
   7   4  -6    0.31    0.37
  -7  -4   6    0.03    0.37
   6   4  -6   37.10    1.52
  -6  -4   6   39.56    1.43
   5   4  -6    5.83    0.57
  -5  -4   6    4.37    0.49
   4   4  -6    9.88    0.61
  -4  -4   6   11.89    0.58
  -4  -4   6   10.71    0.61
   3   4  -6   20.40    0.87
   3   4  -6   20.98    0.80
  -3  -4   6   20.30    0.83
   2   4  -6   48.32    1.60
   2   4  -6   48.68    1.55
  -2  -4   6   48.12    1.50
   1   4  -6   21.49    0.79
   1   4  -6   22.12    0.90
  -1  -4   6   21.59    0.80
  -1  -4   6   21.17    0.67
   0   4  -6    3.05    0.28
   0   4  -6    2.89    0.35
   0  -4   6    3.06    0.22
   0  -4   6    3.77    0.33
  -1   4  -6    0.48    0.17
  -1   4  -6    0.28    0.19
   1  -4   6    0.21    0.12
   1  -4   6    0.30    0.16
  -2   4  -6   80.86    2.34
  -2   4  -6   77.56    2.47
   2  -4   6   78.20    2.23
   2  -4   6   77.21    2.31
  -3   4  -6   20.05    0.89
   3  -4   6   20.94    0.86
   3  -4   6   20.25    0.78
  -4   4  -6    6.14    0.56
   4  -4   6    6.97    0.45
   4  -4   6    5.91    0.53
  -5   4  -6   14.13    0.92
   5  -4   6   12.21    0.81
  -6   4  -6   15.51    1.08
   6  -4   6   14.55    0.94
  -7   4  -6    3.91    0.79
   7  -4   6    2.69    0.55
   8   3  -6    8.16    0.80
  -8  -3   6    8.00    0.74
   7   3  -6    3.78    0.54
  -7  -3   6    4.12    0.54
   6   3  -6   12.24    0.77
  -6  -3   6   10.71    0.74
   5   3  -6    0.38    0.27
  -5  -3   6    0.05    0.27
   4   3  -6   49.88    1.70
  -4  -3   6   51.03    1.61
   3   3  -6   65.21    2.11
   3   3  -6   69.68    2.05
  -3  -3   6   64.16    1.96
   2   3  -6    8.11    0.38
   2   3  -6    8.10    0.55
  -2  -3   6    8.31    0.47
  -2  -3   6    8.22    0.33
   1   3  -6    0.31    0.22
   1   3  -6    0.88    0.15
  -1  -3   6    0.65    0.12
  -1  -3   6    0.98    0.20
   0   3  -6   96.71    2.81
   0   3  -6   96.06    2.85
   0  -3   6   92.38    2.65
   0  -3   6   95.82    2.63
  -1   3  -6   72.94    2.19
  -1   3  -6   74.52    2.27
   1  -3   6   73.69    2.11
   1  -3   6   72.49    2.07
  -2   3  -6    1.45    0.21
  -2   3  -6    1.21    0.24
   2  -3   6    1.04    0.19
   2  -3   6    1.26    0.21
  -3   3  -6    6.85    0.52
  -3   3  -6    6.87    0.42
   3  -3   6    5.91    0.45
   3  -3   6    5.75    0.37
  -4   3  -6   15.25    0.86
   4  -3   6   14.36    0.76
  -5   3  -6   32.98    1.47
   5  -3   6   29.40    1.27
  -6   3  -6    0.59    0.52
   6  -3   6    1.48    0.42
  -7   3  -6    0.54    0.60
   7  -3   6    0.28    0.36
  -8   3  -6    0.71    0.73
   8  -3   6    1.66    0.54
   8   2  -6   -0.19    0.35
  -8  -2   6    0.46    0.40
   7   2  -6   11.12    0.77
  -7  -2   6    9.83    0.77
   6   2  -6   11.60    0.75
  -6  -2   6   12.38    0.76
   5   2  -6   50.45    1.71
  -5  -2   6   49.86    1.66
   4   2  -6   18.59    0.88
   4   2  -6   19.05    0.67
  -4  -2   6   17.36    0.80
   3   2  -6    0.14    0.24
  -3  -2   6    0.46    0.13
  -3  -2   6    0.10    0.19
   2   2  -6   14.51    0.52
   2   2  -6   13.92    0.71
  -2  -2   6   13.77    0.61
  -2  -2   6   14.18    0.51
   1   2  -6  262.15    7.37
   1   2  -6  264.38    7.61
  -1  -2   6  267.59    7.18
  -1  -2   6  275.79    6.99
   0   2  -6    4.29    0.27
   0   2  -6    4.17    0.33
   0  -2   6    4.53    0.32
   0  -2   6    4.35    0.27
  -1   2  -6    2.46    0.25
  -1   2  -6    2.28    0.25
   1  -2   6    2.52    0.23
   1  -2   6    2.06    0.22
  -2   2  -6   39.77    1.36
  -2   2  -6   39.53    1.25
   2  -2   6   38.60    1.26
   2  -2   6   39.84    1.18
  -3   2  -6   37.00    1.40
  -3   2  -6   37.74    1.21
   3  -2   6   37.30    1.28
  -4   2  -6   23.38    0.87
  -4   2  -6   24.30    1.15
   4  -2   6   22.46    0.97
  -5   2  -6   13.92    1.11
   5  -2   6   14.47    0.81
  -6   2  -6    7.27    0.83
   6  -2   6    7.97    0.69
  -7   2  -6    1.96    0.70
   7  -2   6    2.62    0.50
  -8   2  -6   -0.35    0.69
   8  -2   6    0.26    0.43
   8   1  -6    1.60    0.45
  -8  -1   6    3.14    0.53
   7   1  -6   12.56    0.79
  -7  -1   6   11.67    0.81
   6   1  -6   12.11    0.73
   6   1  -6   13.29    0.71
  -6  -1   6   13.22    0.80
   5   1  -6    3.84    0.43
   5   1  -6    4.49    0.35
  -5  -1   6    4.33    0.47
   4   1  -6   23.75    1.04
   4   1  -6   23.98    0.84
  -4  -1   6   24.79    0.98
   3   1  -6   19.19    0.89
  -3  -1   6   18.92    0.80
  -3  -1   6   20.01    0.70
   2   1  -6   84.41    2.55
  -2  -1   6   85.65    2.41
  -2  -1   6   83.48    2.38
   1   1  -6    4.26    0.35
   1   1  -6    5.29    0.23
  -1  -1   6    5.20    0.36
  -1  -1   6    4.83    0.30
   0   1  -6   30.59    1.07
   0   1  -6   32.90    1.04
   0  -1   6   33.89    1.03
   0  -1   6   31.89    1.02
  -1   1  -6  102.93    2.95
  -1   1  -6  104.70    3.10
   1  -1   6  104.65    2.80
   1  -1   6  102.22    2.92
  -2   1  -6   14.52    0.61
  -2   1  -6   15.68    0.73
   2  -1   6   16.32    0.64
   2  -1   6   14.98    0.55
  -3   1  -6   -0.02    0.15
  -3   1  -6    0.30    0.24
   3  -1   6    0.12    0.17
  -4   1  -6    6.06    0.67
  -4   1  -6    6.00    0.44
   4  -1   6    5.48    0.47
  -5   1  -6   14.08    1.17
  -5   1  -6   12.58    0.70
   5  -1   6   13.37    0.78
  -6   1  -6   13.09    1.11
   6  -1   6   14.46    0.87
  -7   1  -6    1.37    0.63
   7  -1   6    0.48    0.39
  -8   1  -6    0.65    0.67
   8  -1   6    1.90    0.50
  -8   0   6    8.04    0.70
   7   0  -6    6.37    0.56
   7   0  -6    7.20    0.62
  -7   0   6    6.34    0.60
   6   0  -6    1.28    0.30
   6   0  -6    1.54    0.37
  -6   0   6    1.25    0.38
   5   0  -6   53.02    1.81
   5   0  -6   52.28    1.64
  -5   0   6   50.92    1.74
   4   0  -6   31.49    1.28
   4   0  -6   33.41    1.10
  -4   0   6   32.60    1.22
   3   0  -6    0.18    0.22
  -3   0   6    0.05    0.13
  -3   0   6    0.22    0.21
   2   0  -6    1.03    0.22
  -2   0   6    0.91    0.23
  -2   0   6    1.22    0.17
   1   0  -6   58.94    1.83
  -1   0   6   61.39    1.77
  -1   0   6   59.48    1.78
   0   0  -6   29.14    0.92
   0   0  -6   27.76    0.96
   0   0   6   28.77    0.93
   0   0   6   26.73    0.92
  -1   0  -6    9.56    0.49
  -1   0  -6    8.71    0.44
   1   0   6    8.02    0.40
   1   0   6    8.72    0.43
  -2   0  -6    2.20    0.26
  -2   0  -6    1.72    0.32
   2   0   6    2.02    0.25
  -3   0  -6   34.92    1.50
  -3   0  -6   37.89    1.24
   3   0   6   36.05    1.24
  -4   0  -6   12.47    0.94
  -4   0  -6   16.33    0.73
   4   0   6   15.91    0.76
  -5   0  -6   -0.02    0.41
  -5   0  -6    0.48    0.27
   5   0   6    0.33    0.28
  -6   0  -6    0.37    0.51
   6   0   6   -0.07    0.31
  -7   0  -6    7.53    1.02
   7   0   6    7.34    0.71
   8   0   6    4.44    0.64
   8  -1  -6    0.47    0.38
  -8   1   6    0.20    0.41
   7  -1  -6    1.82    0.36
  -7   1   6    1.17    0.40
   6  -1  -6    6.27    0.51
   6  -1  -6    5.89    0.55
  -6   1   6    7.11    0.64
   5  -1  -6   48.13    1.54
   5  -1  -6   43.36    1.67
  -5   1   6   49.19    1.66
   4  -1  -6    1.76    0.35
   4  -1  -6    1.36    0.23
  -4   1   6    2.16    0.38
   3  -1  -6   35.71    1.24
  -3   1   6   34.21    1.15
  -3   1   6   34.92    1.25
   2  -1  -6   48.42    1.52
  -2   1   6   46.75    1.45
  -2   1   6   45.99    1.51
   1  -1  -6   40.26    1.31
  -1   1   6   40.58    1.28
  -1   1   6   40.96    1.31
   0  -1  -6    3.26    0.30
   0  -1  -6    3.22    0.27
   0   1   6    3.29    0.29
   0   1   6    2.85    0.28
  -1  -1  -6   52.69    1.67
  -1  -1  -6   53.80    1.79
   1   1   6   55.46    1.54
   1   1   6   53.54    1.65
  -2  -1  -6   28.24    1.16
  -2  -1  -6   28.01    1.01
   2   1   6   28.29    0.99
  -3  -1  -6   14.33    0.68
  -3  -1  -6   14.69    0.88
   3   1   6   15.01    0.68
  -4  -1  -6    2.43    0.49
  -4  -1  -6    3.05    0.40
   4   1   6    2.44    0.35
  -5  -1  -6   11.36    0.95
   5   1   6   11.55    0.72
  -6  -1  -6    6.04    0.82
   6   1   6    5.31    0.58
  -7  -1  -6    1.09    0.64
   7   1   6    1.38    0.44
   8  -2  -6    2.34    0.49
  -8   2   6    1.79    0.48
   7  -2  -6    5.81    0.57
  -7   2   6    5.45    0.61
   6  -2  -6    1.30    0.31
  -6   2   6    0.95    0.41
   5  -2  -6    3.92    0.53
   5  -2  -6    3.68    0.40
  -5   2   6    3.39    0.46
   4  -2  -6   23.03    0.97
   4  -2  -6   23.98    0.91
  -4   2   6   22.39    1.00
   3  -2  -6    8.65    0.52
  -3   2   6    9.91    0.52
  -3   2   6    9.44    0.61
   2  -2  -6   35.58    1.19
  -2   2   6   33.37    1.15
  -2   2   6   35.16    1.21
   1  -2  -6   33.09    1.14
  -1   2   6   33.99    1.12
  -1   2   6   33.82    1.13
   0  -2  -6   55.86    1.79
   0   2   6   55.26    1.75
   0   2   6   61.69    1.67
  -1  -2  -6   17.51    0.76
  -1  -2  -6   16.91    0.73
   1   2   6   17.66    0.70
  -2  -2  -6   12.51    0.70
  -2  -2  -6   12.18    0.62
   2   2   6   10.81    0.56
  -3  -2  -6    7.63    0.66
  -3  -2  -6    7.58    0.55
   3   2   6    8.27    0.51
  -4  -2  -6  106.47    3.45
   4   2   6  102.26    3.11
  -5  -2  -6    0.94    0.45
   5   2   6    0.16    0.30
   5   2   6    0.58    0.33
  -6  -2  -6    0.02    0.46
   6   2   6   -0.10    0.32
   6   2   6    0.03    0.32
  -7  -2  -6    1.07    0.61
   7   2   6    0.50    0.41
   7   2   6    0.59    0.42
   8  -3  -6    6.49    0.70
  -8   3   6    6.61    0.70
   7  -3  -6    1.67    0.42
  -7   3   6    1.55    0.47
   6  -3  -6    7.53    0.59
  -6   3   6    6.75    0.64
   5  -3  -6   16.96    0.90
   5  -3  -6   17.31    0.82
  -5   3   6   16.97    0.94
   4  -3  -6    0.20    0.22
   4  -3  -6    0.25    0.23
  -4   3   6   -0.24    0.28
   3  -3  -6    2.22    0.30
  -3   3   6    2.06    0.30
  -3   3   6    1.55    0.33
   2  -3  -6   79.43    2.40
  -2   3   6   81.44    2.36
  -2   3   6   78.44    2.38
   1  -3  -6   22.55    0.87
  -1   3   6   23.25    0.85
  -1   3   6   20.63    0.85
   0  -3  -6    2.92    0.34
   0   3   6    2.13    0.29
   0   3   6    2.15    0.24
  -1  -3  -6   19.81    0.83
  -1  -3  -6   20.47    0.89
   1   3   6   20.71    0.82
  -2  -3  -6    0.81    0.29
  -2  -3  -6    1.05    0.26
   2   3   6    1.08    0.25
  -3  -3  -6   43.30    1.64
  -3  -3  -6   41.45    1.52
   3   3   6   43.30    1.46
  -4  -3  -6    0.80    0.38
   4   3   6    0.56    0.33
   4   3   6   -0.11    0.23
  -5  -3  -6    0.21    0.37
   5   3   6    0.24    0.30
   5   3   6    0.17    0.33
  -6  -3  -6   14.45    1.07
   6   3   6   12.02    0.85
   6   3   6   11.42    0.86
  -7  -3  -6    2.12    0.64
   7   3   6    2.71    0.53
   7   3   6    2.98    0.56
   7  -4  -6   10.75    0.82
  -7   4   6    9.87    0.85
   6  -4  -6    2.88    0.44
  -6   4   6    1.60    0.47
   5  -4  -6   -0.06    0.26
  -5   4   6    0.53    0.37
   4  -4  -6    3.56    0.40
   4  -4  -6    3.89    0.44
  -4   4   6    3.96    0.51
   3  -4  -6   60.96    1.94
  -3   4   6   60.59    1.95
  -3   4   6   62.25    1.97
   2  -4  -6    0.04    0.18
  -2   4   6    0.42    0.23
  -2   4   6    0.20    0.23
   1  -4  -6    1.43    0.28
  -1   4   6    1.58    0.26
  -1   4   6    1.30    0.26
   0  -4  -6   28.11    1.06
   0   4   6   28.69    1.06
  -1  -4  -6   43.68    1.51
   1   4   6   43.15    1.45
  -2  -4  -6   -0.01    0.27
  -2  -4  -6    0.30    0.28
   2   4   6    0.17    0.22
  -3  -4  -6    7.38    0.66
   3   4   6    6.66    0.52
  -4  -4  -6    0.14    0.37
   4   4   6   -0.10    0.30
   4   4   6   -0.23    0.25
  -5  -4  -6   12.11    0.95
   5   4   6   13.86    0.79
   5   4   6   11.35    0.86
  -6  -4  -6    0.40    0.48
   6   4   6    0.57    0.38
   6   4   6    0.55    0.45
   7  -5  -6    1.48    0.45
   6  -5  -6   -0.02    0.32
  -6   5   6   -0.20    0.45
   5  -5  -6   19.66    0.98
  -5   5   6   22.49    1.16
   4  -5  -6    6.79    0.58
  -4   5   6    7.03    0.65
   3  -5  -6    4.10    0.41
  -3   5   6    3.82    0.48
  -3   5   6    3.54    0.43
   2  -5  -6    0.59    0.25
  -2   5   6    0.78    0.28
  -2   5   6    0.67    0.29
   1  -5  -6    6.73    0.52
  -1   5   6    6.81    0.53
  -1   5   6    7.77    0.49
   0  -5  -6   42.45    1.50
   0   5   6   42.91    1.47
  -1  -5  -6    4.41    0.47
   1   5   6    5.04    0.46
  -2  -5  -6    6.34    0.60
   2   5   6    6.25    0.51
  -3  -5  -6    1.28    0.41
   3   5   6    2.73    0.39
  -4  -5  -6   10.42    0.90
   4   5   6   12.62    0.84
   4   5   6   13.52    0.79
  -5  -5  -6    0.28    0.45
   5   5   6    0.19    0.41
   5   5   6    0.27    0.32
   6  -6  -6    4.20    0.54
  -6   6   6    5.46    0.72
   5  -6  -6    0.31    0.32
  -5   6   6    0.31    0.44
   4  -6  -6    0.76    0.33
  -4   6   6    1.09    0.41
   3  -6  -6    9.16    0.66
  -3   6   6    9.48    0.70
   2  -6  -6    0.31    0.25
  -2   6   6    0.54    0.30
  -2   6   6    0.36    0.30
   1  -6  -6    2.76    0.39
  -1   6   6    2.48    0.40
   0  -6  -6    0.03    0.25
   0   6   6    0.07    0.27
  -1  -6  -6    4.65    0.52
   1   6   6    4.32    0.45
  -2  -6  -6   12.28    0.81
   2   6   6   13.38    0.77
   3   6   6    0.10    0.29
  -4  -6  -6    0.64    0.50
   4   6   6    0.70    0.36
   4   6   6    0.13    0.40
   5  -7  -6    1.13    0.43
  -5   7   6    1.37    0.55
   4  -7  -6    4.03    0.53
  -4   7   6    4.00    0.58
   3  -7  -6    1.43    0.37
  -3   7   6    1.70    0.43
  -2   7   6    0.59    0.32
   1  -7  -6    4.99    0.53
  -1   7   6    4.89    0.52
   0  -7  -6    1.43    0.37
   0   7   6    1.11    0.35
  -1  -7  -6    2.33    0.45
   1   7   6    3.62    0.45
  -2  -7  -6    0.02    0.35
   2   7   6    0.93    0.34
  -3  -7  -6    1.27    0.47
   3  -8  -6   -0.19    0.30
   2  -8  -6    2.99    0.44
  -1   8   6    7.18    0.65
   0  -8  -6    0.17    0.35
   0   8   6    0.02    0.34
  -1  -8  -6    0.13    0.35
   1   8   6    1.33    0.41
   3  10  -7    5.54    0.64
  -3 -10   7    5.91    0.63
   2  10  -7   13.07    0.87
  -2 -10   7   13.21    0.89
   1  10  -7    5.04    0.61
  -1 -10   7    5.95    0.63
   0  10  -7    0.52    0.36
   0 -10   7    1.31    0.42
  -1  10  -7    6.67    0.69
   1 -10   7    7.31    0.69
  -2  10  -7    8.47    0.78
   2 -10   7    9.71    0.78
   3 -10   7    0.71    0.42
   4   9  -7   12.07    0.96
  -4  -9   7   10.91    0.81
   3   9  -7   18.81    1.12
   3   9  -7   20.22    1.03
  -3  -9   7   19.48    0.98
   2   9  -7   -0.08    0.36
   2   9  -7   -0.01    0.29
  -2  -9   7    0.63    0.36
   1   9  -7    6.82    0.64
  -1  -9   7    6.77    0.63
   0   9  -7   11.11    0.78
   0  -9   7   11.67    0.75
  -1   9  -7    5.15    0.55
   1  -9   7    5.25    0.55
  -2   9  -7    0.10    0.34
   2  -9   7    0.88    0.37
  -3   9  -7    1.95    0.45
   3  -9   7    2.84    0.48
  -4   9  -7    0.36    0.40
   4  -9   7    1.44    0.45
   5   8  -7   17.68    1.13
  -5  -8   7   19.41    1.01
  -5  -8   7   19.35    1.03
   4   8  -7    6.70    0.73
   4   8  -7    6.42    0.61
  -4  -8   7    7.07    0.65
   3   8  -7    1.05    0.33
   3   8  -7    0.64    0.40
  -3  -8   7    0.84    0.33
   2   8  -7   15.50    0.92
   2   8  -7   14.92    0.81
  -2  -8   7   15.72    0.82
   1   8  -7   17.13    0.87
   1   8  -7   16.76    1.02
  -1  -8   7   16.37    0.85
   0   8  -7   10.64    0.70
   0  -8   7    9.57    0.65
  -1   8  -7    1.34    0.36
   1  -8   7    1.61    0.34
  -2   8  -7   20.66    1.04
   2  -8   7   21.19    0.97
  -3   8  -7    3.30    0.49
   3  -8   7    5.49    0.56
  -4   8  -7   -0.10    0.35
   4  -8   7    0.15    0.34
  -5   8  -7    0.72    0.44
   5  -8   7    0.61    0.40
   6   7  -7   16.30    1.11
  -6  -7   7   16.12    0.97
   5   7  -7   -0.23    0.32
  -5  -7   7    0.23    0.33
  -5  -7   7    0.18    0.34
   4   7  -7   11.41    0.84
   4   7  -7   11.41    0.72
  -4  -7   7   12.30    0.76
   3   7  -7   23.66    1.12
   3   7  -7   24.19    1.01
  -3  -7   7   22.10    1.00
   2   7  -7   10.81    0.64
   2   7  -7   11.08    0.73
  -2  -7   7   10.67    0.64
   1   7  -7    0.82    0.27
   1   7  -7    0.58    0.28
  -1  -7   7    0.52    0.28
   0   7  -7   14.04    0.73
   0  -7   7   11.41    0.68
  -1   7  -7    7.72    0.63
   1  -7   7    7.79    0.58
  -2   7  -7   20.63    0.99
   2  -7   7   21.29    0.93
  -3   7  -7    1.02    0.35
   3  -7   7    1.02    0.33
  -4   7  -7    8.41    0.73
   4  -7   7    7.99    0.65
   4  -7   7    9.35    0.71
  -5   7  -7   12.93    0.92
   5  -7   7   11.78    0.86
  -6   7  -7    0.48    0.48
   6  -7   7    0.04    0.39
   7   6  -7    3.70    0.67
  -7  -6   7    3.20    0.58
   6   6  -7    0.96    0.45
  -6  -6   7    1.26    0.42
   5   6  -7   26.96    1.26
  -5  -6   7   25.40    1.12
   4   6  -7   19.88    1.01
  -4  -6   7   19.83    0.93
   3   6  -7    3.50    0.38
   3   6  -7    2.71    0.41
  -3  -6   7    3.82    0.45
   2   6  -7    0.85    0.23
   2   6  -7    1.54    0.31
  -2  -6   7    0.93    0.26
   1   6  -7   66.81    2.16
   1   6  -7   67.34    2.12
  -1  -6   7   65.43    2.02
   0   6  -7   15.18    0.72
   0   6  -7   15.14    0.73
   0  -6   7   13.63    0.70
  -1   6  -7    0.40    0.24
   1  -6   7    0.56    0.25
  -2   6  -7   -0.06    0.27
   2  -6   7    0.26    0.24
  -3   6  -7   16.47    0.88
   3  -6   7   17.87    0.81
   3  -6   7   17.79    0.82
  -4   6  -7    9.91    0.73
   4  -6   7    9.17    0.70
   4  -6   7   10.77    0.65
  -5   6  -7   -0.11    0.37
   5  -6   7   -0.13    0.32
  -6   6  -7    1.00    0.53
   6  -6   7    0.59    0.42
   7   5  -7   18.93    1.18
  -7  -5   7   20.87    1.10
   6   5  -7   18.12    1.02
  -6  -5   7   18.58    1.00
   5   5  -7    5.86    0.60
  -5  -5   7    7.02    0.60
   4   5  -7    2.64    0.42
  -4  -5   7    2.98    0.42
   3   5  -7   51.49    1.69
   3   5  -7   49.36    1.73
  -3  -5   7   50.85    1.65
   2   5  -7   52.48    1.73
   2   5  -7   52.45    1.69
  -2  -5   7   49.07    1.62
   1   5  -7    7.62    0.46
   1   5  -7    7.47    0.56
  -1  -5   7    8.62    0.53
   0   5  -7    4.91    0.39
   0   5  -7    4.31    0.45
   0  -5   7    5.32    0.43
  -1   5  -7   19.11    0.87
  -1   5  -7   17.55    0.79
   1  -5   7   18.13    0.76
   1  -5   7   17.97    0.68
  -2   5  -7   53.57    1.84
   2  -5   7   53.79    1.68
   2  -5   7   55.01    1.69
  -3   5  -7    0.71    0.32
   3  -5   7    0.71    0.25
   3  -5   7    0.77    0.26
  -4   5  -7    1.77    0.38
   4  -5   7    1.86    0.36
  -5   5  -7    2.15    0.47
   5  -5   7    2.84    0.48
  -6   5  -7    8.13    0.83
   6  -5   7    7.36    0.74
  -7   5  -7    0.42    0.58
   7  -5   7    0.52    0.45
   8   4  -7   14.38    1.08
  -8  -4   7   15.97    1.07
   7   4  -7    6.08    0.67
  -7  -4   7    5.18    0.62
   6   4  -7    0.29    0.34
  -6  -4   7   -0.28    0.33
   5   4  -7    0.34    0.31
  -5  -4   7   -0.07    0.29
   4   4  -7   92.80    2.88
  -4  -4   7   93.67    2.74
   3   4  -7    9.28    0.48
   3   4  -7    8.92    0.61
  -3  -4   7    9.43    0.57
   2   4  -7    0.39    0.33
   2   4  -7    0.10    0.14
  -2  -4   7    0.00    0.23
   1   4  -7    5.29    0.50
   1   4  -7    7.04    0.40
  -1  -4   7    6.61    0.45
   0   4  -7   81.64    2.53
   0   4  -7   81.64    2.50
   0  -4   7   81.85    2.30
   0  -4   7   78.68    2.32
  -1   4  -7   41.56    1.43
  -1   4  -7   42.15    1.46
   1  -4   7   42.71    1.31
   1  -4   7   40.81    1.33
  -2   4  -7   29.08    1.09
  -2   4  -7   29.00    1.11
   2  -4   7   29.72    1.02
   2  -4   7   28.57    1.02
  -3   4  -7    0.58    0.27
   3  -4   7    0.81    0.23
   3  -4   7    0.97    0.26
  -4   4  -7   11.12    0.77
   4  -4   7   10.08    0.67
  -5   4  -7    5.74    0.64
   5  -4   7    6.58    0.63
  -6   4  -7    0.39    0.50
   6  -4   7    0.21    0.37
  -7   4  -7    5.60    0.91
   7  -4   7    5.74    0.69
   8   3  -7    5.68    0.71
  -8  -3   7    5.28    0.66
   7   3  -7   12.53    0.88
  -7  -3   7   13.66    0.95
   6   3  -7   13.44    0.84
  -6  -3   7   12.03    0.85
   5   3  -7   32.16    1.29
  -5  -3   7   31.83    1.24
   4   3  -7    1.10    0.33
  -4  -3   7    1.26    0.32
   3   3  -7   31.61    1.24
  -3  -3   7   26.90    1.04
   2   3  -7   28.17    1.20
   2   3  -7   30.77    1.00
  -2  -3   7   29.77    1.06
  -2  -3   7   30.03    0.93
   1   3  -7    1.88    0.34
   1   3  -7    1.76    0.20
  -1  -3   7    1.97    0.29
  -1  -3   7    1.84    0.19
   0   3  -7   27.67    1.05
   0   3  -7   28.01    0.97
   0  -3   7   27.44    0.90
   0  -3   7   27.94    0.96
  -1   3  -7   10.78    0.55
  -1   3  -7    9.87    0.51
   1  -3   7   10.01    0.50
   1  -3   7   10.10    0.47
  -2   3  -7   27.21    1.08
  -2   3  -7   30.26    1.08
   2  -3   7   27.94    1.00
   2  -3   7   29.29    0.98
  -3   3  -7   18.21    0.75
  -3   3  -7   16.82    0.84
   3  -3   7   18.29    0.79
  -4   3  -7    1.43    0.49
   4  -3   7    0.27    0.27
  -5   3  -7   -0.42    0.39
   5  -3   7    0.14    0.32
  -6   3  -7    2.81    0.67
   6  -3   7    2.77    0.52
  -7   3  -7    2.32    0.82
   7  -3   7    4.00    0.61
   8   2  -7    6.92    0.73
  -8  -2   7    6.04    0.70
   7   2  -7   12.50    0.85
  -7  -2   7   11.80    0.87
   6   2  -7    5.09    0.56
  -6  -2   7    4.40    0.56
   5   2  -7   -0.02    0.30
  -5  -2   7   -0.17    0.31
   4   2  -7   24.71    1.13
  -4  -2   7   26.69    1.04
   3   2  -7   81.05    2.69
  -3  -2   7   82.30    2.44
  -3  -2   7   85.74    2.37
   2   2  -7    0.10    0.23
  -2  -2   7    0.37    0.20
  -2  -2   7    0.41    0.13
   1   2  -7   10.21    0.42
  -1  -2   7   10.34    0.45
  -1  -2   7   10.56    0.53
   0   2  -7   15.67    0.60
   0   2  -7   15.79    0.69
   0  -2   7   14.88    0.65
   0  -2   7   15.36    0.59
  -1   2  -7   25.44    0.90
  -1   2  -7   24.30    0.91
   1  -2   7   24.70    0.86
   1  -2   7   23.22    0.85
  -2   2  -7    4.69    0.38
  -2   2  -7    4.40    0.40
   2  -2   7    4.80    0.36
   2  -2   7    4.53    0.36
  -3   2  -7   -0.06    0.17
  -3   2  -7    0.07    0.24
   3  -2   7    0.20    0.21
  -4   2  -7    7.21    0.69
  -4   2  -7    6.22    0.53
   4  -2   7    7.36    0.56
  -5   2  -7   11.65    0.99
   5  -2   7   11.12    0.76
  -6   2  -7    1.35    0.61
   6  -2   7    2.00    0.44
  -7   2  -7    0.17    0.74
   7  -2   7    1.15    0.45
   8   1  -7    5.54    0.67
  -8  -1   7    6.44    0.70
   7   1  -7    1.17    0.38
  -7  -1   7    1.17    0.45
   6   1  -7    8.62    0.67
  -6  -1   7    6.96    0.65
   5   1  -7    3.15    0.49
   5   1  -7    2.54    0.30
  -5  -1   7    3.25    0.45
   4   1  -7   22.35    1.07
   4   1  -7   23.25    0.84
  -4  -1   7   23.96    1.02
   3   1  -7    7.16    0.62
  -3  -1   7    7.29    0.41
  -3  -1   7    6.82    0.54
   2   1  -7   27.21    1.06
  -2  -1   7   26.17    1.00
  -2  -1   7   27.11    0.90
   1   1  -7   28.04    1.05
  -1  -1   7   29.36    0.96
  -1  -1   7   29.29    1.02
   0   1  -7   30.96    1.00
   0   1  -7   29.35    1.06
   0  -1   7   30.42    1.01
   0  -1   7   30.15    1.02
  -1   1  -7    6.59    0.40
  -1   1  -7    7.03    0.42
   1  -1   7    7.01    0.40
   1  -1   7    6.38    0.40
  -2   1  -7   24.60    0.91
  -2   1  -7   25.09    1.00
   2  -1   7   23.64    0.90
  -3   1  -7   29.07    1.05
  -3   1  -7   28.85    1.24
   3  -1   7   28.97    1.08
  -4   1  -7   11.44    0.92
  -4   1  -7   11.48    0.66
   4  -1   7   11.86    0.69
  -5   1  -7    0.08    0.41
   5  -1   7    0.10    0.29
  -6   1  -7    3.40    0.71
   6  -1   7    3.84    0.54
  -7   1  -7    3.31    0.89
   7  -1   7    2.96    0.54
  -8   0   7   -0.42    0.39
   7   0  -7   10.42    0.74
  -7   0   7   10.74    0.85
   6   0  -7    9.60    0.60
   6   0  -7    8.54    0.70
  -6   0   7    9.22    0.76
   5   0  -7   -0.03    0.17
   5   0  -7    0.66    0.40
  -5   0   7   -0.23    0.32
   4   0  -7    0.81    0.34
  -4   0   7    1.43    0.38
   3   0  -7    9.98    0.68
  -3   0   7   10.14    0.50
  -3   0   7   10.35    0.65
   2   0  -7   49.62    1.64
  -2   0   7   49.20    1.61
  -2   0   7   50.28    1.54
   1   0  -7    0.80    0.22
  -1   0   7    0.90    0.24
  -1   0   7    0.89    0.18
   0   0  -7    1.37    0.23
   0   0   7    1.28    0.24
   0   0   7    1.45    0.21
  -1   0  -7   32.84    1.14
  -1   0  -7   30.99    1.10
   1   0   7   30.78    1.07
   1   0   7   31.01    1.03
  -2   0  -7   16.08    0.81
  -2   0  -7   14.84    0.69
   2   0   7   15.56    0.68
  -3   0  -7   12.28    0.84
  -3   0  -7   12.89    0.64
   3   0   7   11.57    0.63
  -4   0  -7    0.20    0.24
  -4   0  -7   -0.32    0.38
   4   0   7    0.14    0.25
  -5   0  -7   24.33    1.05
  -5   0  -7   21.63    1.35
   5   0   7   24.80    1.10
  -6   0  -7    9.95    1.06
   6   0   7   13.08    0.87
  -7   0  -7   -0.47    0.63
   7   0   7    0.11    0.38
   8  -1  -7    4.82    0.63
  -8   1   7    4.65    0.67
   7  -1  -7    2.21    0.41
  -7   1   7    2.72    0.53
   6  -1  -7    0.07    0.33
   6  -1  -7    0.64    0.25
  -6   1   7    0.49    0.39
   5  -1  -7   27.35    1.27
   5  -1  -7   28.11    1.06
  -5   1   7   28.29    1.22
   4  -1  -7    7.77    0.62
  -4   1   7    8.43    0.66
   3  -1  -7    9.18    0.59
  -3   1   7    9.24    0.50
  -3   1   7    9.96    0.66
   2  -1  -7   -0.05    0.18
  -2   1   7    0.13    0.24
  -2   1   7    0.17    0.18
   1  -1  -7   14.48    0.65
  -1   1   7   13.53    0.62
  -1   1   7   14.30    0.68
   0  -1  -7   66.08    2.10
   0   1   7   71.65    2.02
   0   1   7   68.61    2.07
  -1  -1  -7    2.91    0.31
   1   1   7    2.42    0.27
  -2  -1  -7    3.69    0.38
  -2  -1  -7    3.39    0.45
   2   1   7    2.40    0.30
  -3  -1  -7   11.90    0.87
  -3  -1  -7   12.66    0.67
   3   1   7   13.01    0.66
  -4  -1  -7    7.23    0.59
  -4  -1  -7    5.80    0.72
   4   1   7    5.95    0.52
  -5  -1  -7    7.28    0.64
  -5  -1  -7    7.07    0.84
   5   1   7    8.33    0.66
  -6  -1  -7   -0.26    0.35
  -6  -1  -7    0.84    0.58
   6   1   7    0.73    0.38
  -7  -1  -7    1.01    0.67
   7   1   7    0.82    0.44
   8  -2  -7    0.09    0.35
   7  -2  -7    0.40    0.33
  -7   2   7   -0.39    0.40
   6  -2  -7   25.85    1.29
   6  -2  -7   23.70    1.04
  -6   2   7   24.85    1.21
   5  -2  -7    4.76    0.57
   5  -2  -7    4.78    0.45
  -5   2   7    5.28    0.59
   4  -2  -7   -0.15    0.33
  -4   2   7    0.13    0.30
   3  -2  -7    2.17    0.33
  -3   2   7    2.13    0.40
  -3   2   7    2.29    0.32
   2  -2  -7   41.67    1.44
  -2   2   7   42.54    1.40
  -2   2   7   42.51    1.44
   1  -2  -7   13.03    0.64
  -1   2   7   13.93    0.65
  -1   2   7   12.40    0.62
   0  -2  -7    1.00    0.24
   0   2   7    0.66    0.22
  -1  -2  -7   -0.10    0.19
   1   2   7   -0.05    0.18
  -2  -2  -7   54.73    1.80
  -2  -2  -7   54.86    1.94
   2   2   7   54.28    1.76
  -3  -2  -7   11.90    0.67
  -3  -2  -7   11.16    0.82
   3   2   7   11.84    0.64
  -4  -2  -7    4.61    0.53
  -4  -2  -7    5.16    0.64
   4   2   7    4.13    0.46
  -5  -2  -7    0.55    0.47
  -5  -2  -7    0.27    0.35
   5   2   7    0.94    0.38
  -6  -2  -7    2.74    0.51
  -6  -2  -7    3.13    0.70
   6   2   7    4.17    0.57
   7  -3  -7    0.46    0.36
  -7   3   7    0.12    0.47
   6  -3  -7   -0.07    0.27
  -6   3   7    0.53    0.43
   5  -3  -7    0.52    0.29
   5  -3  -7    0.36    0.32
  -5   3   7    0.48    0.38
   4  -3  -7    7.85    0.61
  -4   3   7    7.17    0.66
   3  -3  -7   22.67    0.98
  -3   3   7   24.00    1.03
  -3   3   7   22.73    0.93
   2  -3  -7    0.21    0.21
  -2   3   7   -0.23    0.21
  -2   3   7    0.49    0.25
   1  -3  -7    0.52    0.21
  -1   3   7    0.31    0.22
  -1   3   7    0.69    0.24
   0  -3  -7    5.16    0.46
   0   3   7    4.44    0.41
  -1  -3  -7   34.26    1.27
   1   3   7   35.08    1.24
  -2  -3  -7    7.69    0.58
   2   3   7    7.21    0.53
  -3  -3  -7   11.85    0.82
  -3  -3  -7   11.17    0.73
   3   3   7   12.02    0.68
  -4  -3  -7    1.25    0.41
  -4  -3  -7    1.85    0.48
   4   3   7    1.87    0.37
  -5  -3  -7   13.26    1.05
  -5  -3  -7   12.66    0.87
   5   3   7   14.68    0.86
  -6  -3  -7    2.14    0.64
  -6  -3  -7    2.16    0.53
   6   3   7    2.97    0.52
   7  -4  -7    0.96    0.42
   6  -4  -7    1.27    0.37
  -6   4   7    1.77    0.53
   5  -4  -7    1.70    0.36
  -5   4   7    2.37    0.53
   4  -4  -7    8.74    0.63
   4  -4  -7    8.34    0.61
  -4   4   7    6.33    0.63
   3  -4  -7    1.81    0.33
  -3   4   7    1.12    0.29
  -3   4   7    1.27    0.37
   2  -4  -7    6.01    0.50
  -2   4   7    5.39    0.47
  -2   4   7    6.74    0.55
   1  -4  -7   12.03    0.68
  -1   4   7   12.23    0.68
   0  -4  -7    0.77    0.29
   0   4   7    0.44    0.26
  -1  -4  -7    4.77    0.48
   1   4   7    5.91    0.49
  -2  -4  -7    7.31    0.62
   2   4   7    8.02    0.58
  -3  -4  -7   14.66    0.83
   3   4   7   14.65    0.81
  -4  -4  -7    4.94    0.63
  -4  -4  -7    6.61    0.70
   4   4   7    5.66    0.55
  -5  -4  -7   -0.30    0.41
  -5  -4  -7   -0.32    0.41
   5   4   7    0.42    0.34
   6  -5  -7    0.41    0.35
  -6   5   7    0.00    0.48
   5  -5  -7    2.80    0.43
  -5   5   7    3.27    0.58
   4  -5  -7    0.41    0.30
  -4   5   7    0.60    0.41
   3  -5  -7    7.68    0.57
  -3   5   7    7.99    0.66
  -3   5   7    6.79    0.59
   2  -5  -7   18.43    0.86
  -2   5   7   17.48    0.87
  -2   5   7   18.38    0.85
   1  -5  -7    0.67    0.28
  -1   5   7    0.60    0.29
   0  -5  -7    6.13    0.54
   0   5   7    5.34    0.49
  -1  -5  -7   18.10    0.88
   1   5   7   17.55    0.88
  -2  -5  -7    3.24    0.48
   2   5   7    4.79    0.50
  -3  -5  -7    0.95    0.41
   3   5   7    0.09    0.31
  -4  -5  -7    5.13    0.60
   4   5   7    4.51    0.54
   5  -6  -7    0.41    0.33
  -5   6   7    0.20    0.45
   4  -6  -7    5.12    0.55
  -4   6   7    5.43    0.64
  -3   6   7    3.40    0.51
   2  -6  -7    0.16    0.27
  -2   6   7    0.07    0.31
   1  -6  -7    3.05    0.45
  -1   6   7    3.15    0.45
   0  -6  -7   21.61    1.02
   0   6   7   22.35    1.02
  -1  -6  -7    3.41    0.49
   1   6   7    2.37    0.41
  -2  -6  -7    1.67    0.42
   2   6   7    1.03    0.36
  -3  -6  -7   15.83    1.01
   3   6   7   17.76    0.97
   3  -7  -7    1.97    0.42
  -2   7   7    2.50    0.47
   1  -7  -7    4.13    0.51
  -1   7   7    3.58    0.50
   0  -7  -7    0.18    0.33
   0   7   7    0.76    0.37
  -1  -7  -7    2.74    0.49
   1   7   7    3.88    0.51
  -2  -7  -7    4.23    0.58
   2   7   7    3.59    0.51
   2  10  -8    0.00    0.35
  -2 -10   8   -0.06    0.39
   1  10  -8    2.50    0.49
  -1 -10   8    3.34    0.53
   0  10  -8    5.24    0.61
   0 -10   8    4.50    0.59
  -1  10  -8    1.54    0.47
   1 -10   8    2.07    0.48
   2 -10   8   -0.02    0.40
   4   9  -8    0.66    0.39
   4   9  -8    1.10    0.48
  -4  -9   8    0.95    0.43
   3   9  -8    0.30    0.44
   3   9  -8    1.05    0.38
  -3  -9   8    0.48    0.38
   2   9  -8   14.24    0.86
  -2  -9   8   14.31    0.88
   1   9  -8   11.13    0.76
  -1  -9   8    9.73    0.75
   0   9  -8    0.24    0.33
   0  -9   8    0.26    0.33
  -1   9  -8    6.26    0.65
   1  -9   8    5.08    0.55
  -2   9  -8    0.94    0.41
   2  -9   8    0.42    0.34
  -3   9  -8   13.03    0.93
   3  -9   8   13.75    0.93
   5   8  -8    3.46    0.63
  -5  -8   8    4.42    0.60
   4   8  -8    4.14    0.53
   4   8  -8    5.52    0.70
  -4  -8   8    5.55    0.62
   3   8  -8   17.17    0.92
   3   8  -8   18.69    1.06
  -3  -8   8   18.55    0.97
   2   8  -8    1.15    0.34
   2   8  -8    1.72    0.42
  -2  -8   8    0.76    0.35
   1   8  -8    0.76    0.31
  -1  -8   8    0.36    0.31
   0   8  -8   19.07    0.95
   0  -8   8   17.93    0.92
  -1   8  -8   10.16    0.74
   1  -8   8   10.10    0.70
  -2   8  -8    1.75    0.43
   2  -8   8    1.33    0.39
  -3   8  -8    1.78    0.44
   3  -8   8    1.58    0.42
  -4   8  -8    1.05    0.43
   4  -8   8    0.58    0.37
   6   7  -8    5.86    0.75
  -6  -7   8    8.36    0.79
   5   7  -8   17.10    1.08
  -5  -7   8   16.47    0.96
   4   7  -8    7.72    0.72
  -4  -7   8    8.73    0.72
   3   7  -8    1.36    0.40
   3   7  -8    0.63    0.28
  -3  -7   8    0.88    0.35
   2   7  -8    7.63    0.57
   2   7  -8    7.65    0.64
  -2  -7   8    8.08    0.63
   1   7  -8   31.11    1.24
   1   7  -8   32.32    1.27
  -1  -7   8   29.94    1.19
   0   7  -8   10.91    0.68
   0  -7   8    9.98    0.67
  -1   7  -8    0.51    0.29
   1  -7   8    0.42    0.29
  -2   7  -8    6.49    0.60
   2  -7   8    6.49    0.58
  -3   7  -8    8.33    0.69
   3  -7   8    9.46    0.67
  -4   7  -8    2.36    0.48
   4  -7   8    3.13    0.47
  -5   7  -8    0.52    0.44
   5  -7   8    0.09    0.39
   6   6  -8   14.73    1.04
  -6  -6   8   14.62    0.95
   5   6  -8    0.13    0.36
  -5  -6   8    0.12    0.35
   4   6  -8    3.18    0.50
  -4  -6   8    3.45    0.48
   3   6  -8   21.61    1.03
   3   6  -8   21.43    0.93
  -3  -6   8   22.01    0.98
   2   6  -8   11.61    0.63
   2   6  -8   12.03    0.73
  -2  -6   8   12.39    0.70
   1   6  -8    1.80    0.36
   1   6  -8    1.39    0.28
  -1  -6   8    1.53    0.31
   0   6  -8    0.41    0.28
   0   6  -8    0.45    0.25
   0  -6   8    0.18    0.25
  -1   6  -8   20.02    0.92
   1  -6   8   20.41    0.90
  -2   6  -8   27.10    1.14
   2  -6   8   27.15    1.08
  -3   6  -8    0.56    0.32
   3  -6   8    1.15    0.29
   3  -6   8    0.54    0.30
  -4   6  -8    1.23    0.41
   4  -6   8    1.95    0.39
  -5   6  -8    2.17    0.52
   5  -6   8    2.03    0.47
  -6   6  -8    1.70    0.55
   6  -6   8    1.81    0.51
   7   5  -8    4.73    0.71
  -7  -5   8    4.20    0.62
   6   5  -8    0.86    0.44
  -6  -5   8    0.78    0.43
   5   5  -8   16.94    0.97
  -5  -5   8   16.15    0.91
   4   5  -8   12.97    0.80
  -4  -5   8   13.71    0.79
   3   5  -8   19.49    0.94
  -3  -5   8   18.57    0.89
   2   5  -8   10.15    0.54
   2   5  -8    9.90    0.69
  -2  -5   8    9.84    0.62
   1   5  -8   34.16    1.35
   1   5  -8   35.42    1.24
  -1  -5   8   34.54    1.24
   0   5  -8    2.97    0.43
   0   5  -8    3.84    0.37
   0  -5   8    3.48    0.40
  -1   5  -8    3.43    0.47
  -1   5  -8    2.65    0.34
   1  -5   8    3.11    0.38
  -2   5  -8    4.14    0.43
   2  -5   8    4.77    0.46
   2  -5   8    3.82    0.36
  -3   5  -8   15.50    0.86
   3  -5   8   17.85    0.80
   3  -5   8   17.38    0.81
  -4   5  -8    8.32    0.69
   4  -5   8    9.37    0.68
  -5   5  -8    1.27    0.44
   5  -5   8    1.03    0.39
  -6   5  -8   -0.27    0.51
   6  -5   8    0.52    0.41
   7   4  -8    2.34    0.56
  -7  -4   8    1.70    0.53
   6   4  -8   19.46    1.05
  -6  -4   8   19.75    1.04
   5   4  -8    0.68    0.35
  -5  -4   8    0.66    0.36
   4   4  -8    5.82    0.56
  -4  -4   8    4.94    0.51
   3   4  -8    5.36    0.55
  -3  -4   8    4.54    0.46
   2   4  -8   48.12    1.76
  -2  -4   8   47.51    1.57
   1   4  -8   33.73    1.39
   1   4  -8   35.19    1.20
  -1  -4   8   35.03    1.22
   0   4  -8    6.74    0.43
   0   4  -8    5.58    0.55
   0  -4   8    6.65    0.49
   0  -4   8    6.73    0.37
  -1   4  -8    1.50    0.26
  -1   4  -8    1.22    0.33
   1  -4   8    1.04    0.26
   1  -4   8    1.44    0.22
  -2   4  -8   48.90    1.65
  -2   4  -8   48.99    1.67
   2  -4   8   47.85    1.53
   2  -4   8   45.91    1.53
  -3   4  -8    3.67    0.44
   3  -4   8    3.54    0.39
  -4   4  -8   -0.32    0.28
   4  -4   8   -0.04    0.27
  -5   4  -8    3.39    0.59
   5  -4   8    4.53    0.55
  -6   4  -8    3.71    0.70
   6  -4   8    3.07    0.55
   7   3  -8   10.66    0.88
  -7  -3   8    8.70    0.77
   6   3  -8   -0.21    0.28
  -6  -3   8   -0.32    0.37
   5   3  -8    0.52    0.33
  -5  -3   8    0.13    0.32
   4   3  -8   20.48    1.05
  -4  -3   8   21.35    0.96
   3   3  -8   12.11    0.84
  -3  -3   8   13.28    0.72
   2   3  -8   17.59    0.93
  -2  -3   8   19.06    0.82
   1   3  -8    7.86    0.62
  -1  -3   8    7.38    0.51
  -1  -3   8    6.98    0.39
   0   3  -8   22.63    0.99
   0   3  -8   23.43    0.87
   0  -3   8   22.95    0.82
   0  -3   8   22.36    0.89
  -1   3  -8   43.71    1.45
  -1   3  -8   43.87    1.48
   1  -3   8   41.55    1.36
   1  -3   8   42.08    1.38
  -2   3  -8    1.97    0.32
  -2   3  -8    2.13    0.31
   2  -3   8    3.03    0.33
   2  -3   8    2.13    0.28
  -3   3  -8    2.58    0.45
  -3   3  -8    2.59    0.41
   3  -3   8    2.52    0.35
  -4   3  -8   20.27    1.05
   4  -3   8   20.00    0.95
  -5   3  -8   12.19    1.00
   5  -3   8   12.72    0.83
  -6   3  -8    0.50    0.55
   6  -3   8   -0.37    0.36
  -7   3  -8    6.21    0.93
   8   2  -8   -0.33    0.39
  -8  -2   8    0.28    0.48
   7   2  -8   -0.06    0.35
  -7  -2   8    0.59    0.43
   6   2  -8    3.27    0.51
  -6  -2   8    2.45    0.48
   5   2  -8   56.07    1.96
  -5  -2   8   50.95    1.81
   4   2  -8    1.91    0.53
  -4  -2   8    0.65    0.31
   3   2  -8    3.11    0.47
  -3  -2   8    2.76    0.39
  -3  -2   8    3.15    0.29
   2   2  -8    0.57    0.32
  -2  -2   8    0.54    0.27
  -2  -2   8    0.59    0.17
   1   2  -8  114.04    3.52
  -1  -2   8  121.34    3.33
  -1  -2   8  118.33    3.31
   0   2  -8   13.30    0.73
   0  -2   8   14.11    0.65
   0  -2   8   14.32    0.60
  -1   2  -8   18.24    0.80
  -1   2  -8   19.04    0.76
   1  -2   8   19.39    0.76
   1  -2   8   17.17    0.72
  -2   2  -8    7.97    0.54
  -2   2  -8    9.75    0.55
   2  -2   8    8.30    0.51
  -3   2  -8   17.25    0.90
  -3   2  -8   14.77    0.77
   3  -2   8   15.56    0.76
  -4   2  -8   11.80    0.86
   4  -2   8   10.45    0.70
  -5   2  -8    5.83    0.74
   5  -2   8    6.19    0.61
  -6   2  -8    0.62    0.61
   6  -2   8    1.39    0.44
  -7   2  -8    3.49    0.85
   8   1  -8   -0.42    0.39
  -8  -1   8    0.15    0.49
   7   1  -8    8.03    0.72
  -7  -1   8    6.85    0.70
   6   1  -8   18.08    1.02
  -6  -1   8   18.15    1.02
   5   1  -8    4.64    0.57
  -5  -1   8    4.09    0.52
   4   1  -8   39.46    1.61
  -4  -1   8   35.25    1.40
   3   1  -8   16.31    0.89
  -3  -1   8   15.67    0.66
  -3  -1   8   15.06    0.81
   2   1  -8   37.29    1.40
  -2  -1   8   37.58    1.22
  -2  -1   8   36.47    1.31
   1   1  -8    0.33    0.28
  -1  -1   8    0.82    0.21
  -1  -1   8    0.29    0.24
   0   1  -8   17.53    0.80
   0  -1   8   19.34    0.79
   0  -1   8   20.06    0.75
  -1   1  -8   37.91    1.33
   1  -1   8   40.61    1.31
  -2   1  -8    9.01    0.58
  -2   1  -8    8.76    0.53
   2  -1   8    8.83    0.52
  -3   1  -8   -0.27    0.22
  -3   1  -8    0.74    0.37
   3  -1   8    0.31    0.23
  -4   1  -8   34.22    1.52
  -4   1  -8   33.09    1.27
   4  -1   8   33.57    1.31
  -5   1  -8    0.60    0.47
   5  -1   8    0.95    0.38
  -6   1  -8    0.92    0.60
   6  -1   8    0.81    0.41
   7   0  -8   -0.27    0.33
  -7   0   8    0.21    0.43
   6   0  -8    0.57    0.39
   6   0  -8    0.25    0.23
  -6   0   8    0.30    0.39
   5   0  -8   17.57    1.06
   5   0  -8   19.18    0.80
  -5   0   8   19.42    1.01
   4   0  -8   21.79    1.15
  -4   0   8   24.16    1.09
  -4   0   8   22.95    0.90
   3   0  -8    4.75    0.49
  -3   0   8    5.26    0.54
  -3   0   8    4.76    0.39
   2   0  -8    8.88    0.56
  -2   0   8    8.94    0.51
  -2   0   8    9.06    0.62
   1   0  -8   31.33    1.16
  -1   0   8   28.63    1.13
  -1   0   8   33.01    1.10
   0   0  -8   43.58    1.47
   0   0   8   45.15    1.42
   0   0   8   40.94    1.40
  -1   0  -8    2.75    0.32
   1   0   8    2.00    0.28
  -2   0  -8    0.98    0.25
  -2   0  -8    1.79    0.33
   2   0   8    1.45    0.27
  -3   0  -8   19.05    0.87
  -3   0  -8   19.42    1.03
   3   0   8   18.67    0.85
  -4   0  -8   12.25    0.94
  -4   0  -8   13.44    0.75
   4   0   8   13.57    0.77
  -5   0  -8    0.33    0.46
  -5   0  -8    0.16    0.33
   5   0   8    0.20    0.31
  -6   0  -8    1.26    0.62
   6   0   8    2.48    0.51
   7  -1  -8    9.50    0.74
  -7   1   8    8.25    0.81
   6  -1  -8    5.11    0.64
   6  -1  -8    6.53    0.54
  -6   1   8    6.12    0.69
   5  -1  -8    3.61    0.40
   5  -1  -8    2.66    0.53
  -5   1   8    3.87    0.57
   4  -1  -8    0.61    0.40
  -4   1   8    0.67    0.26
  -4   1   8    0.88    0.37
   3  -1  -8   19.59    0.94
  -3   1   8   19.04    0.97
  -3   1   8   18.72    0.81
   2  -1  -8   15.99    0.77
  -2   1   8   13.00    0.75
  -2   1   8   14.83    0.68
   1  -1  -8    4.03    0.42
  -1   1   8    4.09    0.42
  -1   1   8    3.70    0.35
   0  -1  -8    0.16    0.20
   0   1   8   -0.03    0.19
  -1  -1  -8   16.79    0.78
   1   1   8   16.44    0.74
  -2  -1  -8    9.45    0.61
   2   1   8    9.40    0.55
  -3  -1  -8    7.27    0.59
  -3  -1  -8    7.15    0.75
   3   1   8    8.45    0.58
  -4  -1  -8    0.30    0.41
  -4  -1  -8    0.55    0.33
   4   1   8    0.42    0.30
  -5  -1  -8    5.37    0.58
  -5  -1  -8    5.02    0.77
   5   1   8    6.66    0.64
  -6  -1  -8    3.06    0.77
  -6  -1  -8    3.92    0.58
   6   1   8    4.64    0.61
   7  -2  -8    5.61    0.59
  -7   2   8    4.63    0.66
   6  -2  -8    0.30    0.29
   6  -2  -8    0.08    0.38
  -6   2   8    0.66    0.47
   5  -2  -8    7.54    0.74
   5  -2  -8    9.84    0.65
  -5   2   8    9.25    0.79
   4  -2  -8    7.63    0.67
  -4   2   8    7.50    0.56
  -4   2   8    9.67    0.74
   3  -2  -8   13.03    0.74
  -3   2   8   11.40    0.76
  -3   2   8   12.56    0.67
   2  -2  -8   -0.03    0.25
  -2   2   8   -0.12    0.27
  -2   2   8    0.03    0.22
   1  -2  -8   15.30    0.75
  -1   2   8   14.91    0.72
  -1   2   8   14.62    0.72
   0  -2  -8   30.29    1.16
   0   2   8   30.13    1.12
  -1  -2  -8    0.42    0.26
   1   2   8    0.30    0.24
  -2  -2  -8    0.10    0.26
   2   2   8    0.05    0.23
  -3  -2  -8    0.62    0.31
   3   2   8    0.35    0.27
  -4  -2  -8    9.74    0.92
  -4  -2  -8    9.43    0.73
   4   2   8   10.57    0.74
  -5  -2  -8    2.84    0.66
  -5  -2  -8    2.87    0.48
   5   2   8    2.11    0.45
  -6  -2  -8    0.28    0.55
  -6  -2  -8   -0.09    0.41
   6   2   8   -0.37    0.37
   7  -3  -8   -0.12    0.34
   6  -3  -8    8.25    0.68
  -6   3   8    8.12    0.80
   5  -3  -8    5.02    0.49
   5  -3  -8    5.38    0.63
  -5   3   8    4.62    0.64
   4  -3  -8    0.28    0.30
  -4   3   8    0.24    0.36
   3  -3  -8    0.14    0.27
  -3   3   8    0.44    0.33
  -3   3   8   -0.09    0.25
   2  -3  -8   18.54    0.90
  -2   3   8   20.83    0.92
  -2   3   8   19.22    0.88
   1  -3  -8   12.94    0.71
  -1   3   8   13.03    0.71
   0  -3  -8    6.15    0.50
   0   3   8    5.52    0.48
  -1  -3  -8    7.85    0.60
   1   3   8    7.57    0.57
  -2  -3  -8   16.68    0.88
   2   3   8   17.16    0.84
  -3  -3  -8   11.38    0.74
   3   3   8   12.70    0.75
  -4  -3  -8    1.47    0.44
   4   3   8    1.00    0.36
  -5  -3  -8    0.59    0.38
   5   3   8    0.84    0.39
   6  -4  -8    2.82    0.46
  -6   4   8    3.13    0.63
   5  -4  -8    3.89    0.49
  -5   4   8    2.65    0.55
   4  -4  -8    0.00    0.30
  -4   4   8   -0.07    0.37
   3  -4  -8   30.45    1.22
  -3   4   8   30.75    1.25
  -3   4   8   27.15    1.18
   2  -4  -8    0.37    0.28
  -2   4   8    0.14    0.28
  -2   4   8    0.55    0.30
   1  -4  -8    1.00    0.33
  -1   4   8    0.67    0.32
   0  -4  -8    4.24    0.49
   0   4   8    3.29    0.43
  -1  -4  -8    4.67    0.52
   1   4   8    5.33    0.50
  -2  -4  -8   16.07    0.89
   2   4   8   15.02    0.83
  -3  -4  -8    6.05    0.63
   3   4   8    6.41    0.59
  -4  -4  -8    0.28    0.42
   4   4   8    0.67    0.37
   5  -5  -8    4.67    0.55
  -5   5   8    3.60    0.65
   4  -5  -8    9.71    0.74
  -4   5   8    9.31    0.81
   3  -5  -8    5.83    0.59
  -3   5   8    6.23    0.64
  -3   5   8    6.21    0.60
   2  -5  -8    0.85    0.33
  -2   5   8    0.08    0.31
   1  -5  -8    8.44    0.65
  -1   5   8    7.93    0.66
   0  -5  -8    4.18    0.50
   0   5   8    4.27    0.49
  -1  -5  -8    0.56    0.35
   1   5   8    0.85    0.33
  -2  -5  -8    7.90    0.72
   2   5   8    7.35    0.64
  -3  -5  -8   -0.21    0.37
   3   5   8    0.20    0.36
  -4   6   8    3.73    0.60
   2  -6  -8    4.38    0.54
  -2   6   8    5.43    0.59
   1  -6  -8    1.40    0.42
  -1   6   8    1.60    0.44
   0  -6  -8   10.48    0.78
   0   6   8   10.74    0.78
  -1  -6  -8    0.57    0.39
   1   6   8    0.86    0.37
  -2  -6  -8    1.06    0.44
   2   6   8    1.70    0.42
   3   9  -9    7.10    0.81
   3   9  -9    6.65    0.67
  -3  -9   9    6.87    0.71
   2   9  -9    1.25    0.39
  -2  -9   9    0.70    0.39
   1   9  -9    2.41    0.46
  -1  -9   9    2.29    0.48
   0   9  -9   11.66    0.82
   0  -9   9   10.41    0.80
  -1   9  -9    6.66    0.66
   1  -9   9    6.54    0.65
  -2   9  -9    0.09    0.37
   2  -9   9    0.31    0.38
   4   8  -9    8.19    0.82
  -4  -8   9    8.32    0.75
   3   8  -9    8.56    0.81
  -3  -8   9    8.50    0.75
   2   8  -9   14.07    0.91
   2   8  -9   12.96    0.78
  -2  -8   9   14.61    0.89
   1   8  -9    6.02    0.57
  -1  -8   9    6.32    0.60
   0   8  -9   -0.23    0.29
   0  -8   9   -0.39    0.32
  -1   8  -9    0.09    0.32
   1  -8   9    0.13    0.35
  -2   8  -9    7.26    0.68
   2  -8   9    7.58    0.66
  -3   8  -9    3.66    0.56
   3  -8   9    4.58    0.58
  -4   8  -9    0.41    0.42
   5   7  -9    0.19    0.43
  -5  -7   9    0.33    0.43
   4   7  -9    8.02    0.78
  -4  -7   9    8.19    0.72
   3   7  -9   17.93    1.00
  -3  -7   9   18.17    0.98
   2   7  -9    9.98    0.74
  -2  -7   9   10.14    0.74
   1   7  -9    0.02    0.29
   1   7  -9    0.12    0.25
  -1  -7   9    0.62    0.34
   0   7  -9   20.97    1.00
   0  -7   9   21.73    1.00
  -1   7  -9    7.51    0.64
   1  -7   9    8.23    0.66
  -2   7  -9    0.50    0.33
   2  -7   9    0.22    0.31
  -3   7  -9    0.12    0.31
   3  -7   9    0.51    0.34
  -4   7  -9    0.92    0.44
   6   6  -9    4.91    0.69
  -6  -6   9    4.04    0.63
   5   6  -9    9.93    0.86
  -5  -6   9   12.63    0.87
   4   6  -9   13.78    0.90
  -4  -6   9   13.40    0.86
   3   6  -9    0.29    0.32
  -3  -6   9    0.44    0.35
   2   6  -9    1.21    0.38
  -2  -6   9    0.98    0.35
   1   6  -9   20.55    1.02
   1   6  -9   20.07    0.90
  -1  -6   9   20.40    0.95
   0   6  -9   16.85    0.92
   0   6  -9   15.72    0.80
   0  -6   9   15.06    0.83
  -1   6  -9    0.65    0.29
   1  -6   9    0.44    0.30
  -2   6  -9    4.40    0.49
   2  -6   9    5.16    0.53
  -3   6  -9    6.54    0.61
  -4   6  -9    7.09    0.67
   4  -6   9    8.00    0.65
  -5   6  -9    0.62    0.49
   5  -6   9    0.50    0.38
   6   5  -9   13.17    0.98
  -6  -5   9   11.71    0.95
   5   5  -9    0.84    0.41
  -5  -5   9    1.33    0.43
   4   5  -9    0.08    0.30
  -4  -5   9    0.34    0.35
   3   5  -9   10.71    0.77
  -3  -5   9   11.27    0.74
   2   5  -9   29.54    1.28
  -2  -5   9   27.98    1.15
   1   5  -9    0.73    0.43
  -1  -5   9    1.31    0.35
   0   5  -9    1.25    0.28
   0   5  -9    1.52    0.50
   0  -5   9    1.24    0.34
  -1   5  -9    9.93    0.62
  -1   5  -9   11.01    0.83
   1  -5   9   10.87    0.68
  -2   5  -9   15.66    0.80
   2  -5   9   15.00    0.71
   2  -5   9   15.48    0.81
  -3   5  -9    1.51    0.37
   3  -5   9    2.48    0.37
  -4   5  -9    2.79    0.50
   4  -5   9    3.32    0.47
  -5   5  -9    1.01    0.48
   5  -5   9    0.52    0.39
   7   4  -9    3.69    0.61
  -7  -4   9    4.21    0.66
   6   4  -9    0.82    0.44
  -6  -4   9    0.60    0.46
   5   4  -9    0.96    0.39
  -5  -4   9    0.75    0.42
   4   4  -9   55.46    1.97
  -4  -4   9   52.37    1.82
   3   4  -9    9.88    0.82
  -3  -4   9    9.80    0.69
   2   4  -9   12.31    0.86
  -2  -4   9   13.32    0.74
   1   4  -9    1.49    0.51
  -1  -4   9    2.41    0.39
   0   4  -9   14.46    0.97
   0  -4   9   14.66    0.75
  -1   4  -9   42.38    1.57
  -1   4  -9   41.33    1.45
   1  -4   9   41.82    1.40
   1  -4   9   38.31    1.33
  -2   4  -9   17.88    0.86
  -2   4  -9   19.01    0.95
   2  -4   9   17.57    0.78
  -3   4  -9    2.82    0.42
   3  -4   9    3.14    0.40
  -4   4  -9    2.77    0.47
   4  -4   9    2.83    0.44
  -5   4  -9    3.42    0.59
   5  -4   9    4.52    0.57
  -6   4  -9    0.49    0.57
   6  -4   9    0.70    0.44
   7   3  -9    3.90    0.64
  -7  -3   9    5.52    0.73
   6   3  -9    2.32    0.47
  -6  -3   9    1.85    0.53
   5   3  -9   28.03    1.29
  -5  -3   9   26.58    1.24
   4   3  -9    1.28    0.39
  -4  -3   9    2.85    0.46
   3   3  -9   11.09    0.91
  -3  -3   9    9.99    0.70
   2   3  -9   40.92    1.71
  -2  -3   9   41.65    1.45
   1   3  -9    5.41    0.57
  -1  -3   9    5.15    0.39
  -1  -3   9    6.01    0.52
   0   3  -9    5.28    0.55
   0  -3   9    4.68    0.36
   0  -3   9    4.03    0.43
  -1   3  -9   32.15    1.32
   1  -3   9   32.57    1.13
   1  -3   9   32.34    1.18
  -2   3  -9    2.94    0.45
  -2   3  -9    3.77    0.40
   2  -3   9    4.09    0.39
  -3   3  -9    5.14    0.52
   3  -3   9    6.21    0.52
  -4   3  -9    0.63    0.39
   4  -3   9    0.49    0.33
  -5   3  -9    1.08    0.52
   5  -3   9    2.11    0.47
  -6   3  -9    4.59    0.81
   6  -3   9    6.61    0.73
   7   2  -9    2.35    0.51
  -7  -2   9    3.79    0.64
   6   2  -9    3.33    0.54
  -6  -2   9    2.98    0.56
   5   2  -9    7.12    0.74
  -5  -2   9    6.46    0.65
   4   2  -9    4.07    0.60
  -4  -2   9    5.11    0.56
   3   2  -9   17.69    1.08
  -3  -2   9   18.85    0.93
   2   2  -9    0.38    0.35
  -2  -2   9    0.70    0.20
  -2  -2   9    0.69    0.32
   1   2  -9   -0.17    0.28
  -1  -2   9    0.19    0.27
  -1  -2   9   -0.05    0.17
   0   2  -9   17.03    0.83
   0  -2   9   16.64    0.77
   0  -2   9   16.15    0.70
  -1   2  -9   13.56    0.77
   1  -2   9   14.91    0.67
  -2   2  -9    2.93    0.39
  -2   2  -9    2.57    0.40
   2  -2   9    2.53    0.33
  -3   2  -9    3.26    0.43
  -3   2  -9    2.98    0.45
   3  -2   9    3.12    0.40
  -4   2  -9   -0.07    0.37
   4  -2   9    0.42    0.32
  -5   2  -9   11.81    1.04
   5  -2   9   11.54    0.84
  -6   2  -9    0.80    0.71
   6  -2   9    0.77    0.44
   7   1  -9   -0.36    0.40
  -7  -1   9    0.32    0.47
   6   1  -9   11.06    0.87
  -6  -1   9   11.02    0.89
   5   1  -9    6.83    0.76
  -5  -1   9    7.49    0.73
   4   1  -9    6.04    0.72
  -4  -1   9    6.79    0.66
  -4  -1   9    5.39    0.46
   3   1  -9    0.18    0.34
  -3  -1   9    0.31    0.35
  -3  -1   9    0.13    0.20
   2   1  -9   17.77    0.99
  -2  -1   9   19.73    0.94
  -2  -1   9   19.13    0.77
   1   1  -9    7.14    0.57
  -1  -1   9    6.93    0.57
  -1  -1   9    7.01    0.47
   0   1  -9    0.36    0.26
   0  -1   9    0.64    0.23
   0  -1   9    0.65    0.30
  -1   1  -9    2.10    0.36
   1  -1   9    2.52    0.32
  -2   1  -9    7.94    0.58
   2  -1   9    7.42    0.53
  -3   1  -9    4.01    0.44
  -3   1  -9    5.53    0.56
   3  -1   9    6.35    0.54
  -4   1  -9    1.15    0.36
  -4   1  -9    1.58    0.49
   4  -1   9    1.34    0.37
  -5   1  -9    4.74    0.73
   5  -1   9    4.11    0.55
  -6   1  -9    0.71    0.68
   6  -1   9    1.29    0.49
   7   0  -9    2.14    0.51
  -7   0   9    1.72    0.51
   6   0  -9    3.84    0.63
  -6   0   9    6.65    0.73
   5   0  -9   -0.29    0.42
   5   0  -9    0.85    0.26
  -5   0   9    0.15    0.43
   4   0  -9    2.97    0.55
  -4   0   9    2.71    0.48
  -4   0   9    2.81    0.35
   3   0  -9    6.72    0.66
  -3   0   9    6.03    0.49
  -3   0   9    6.21    0.61
   2   0  -9   13.34    0.81
  -2   0   9   11.96    0.78
  -2   0   9   13.40    0.66
   1   0  -9    2.19    0.38
  -1   0   9    2.62    0.40
  -1   0   9    3.12    0.36
   0   0  -9    2.40    0.39
   0   0   9    3.48    0.37
  -1   0  -9   16.78    0.80
   1   0   9   16.94    0.77
  -2   0  -9   18.17    0.87
   2   0   9   18.24    0.84
  -3   0  -9    0.50    0.28
   3   0   9   -0.15    0.26
  -4   0  -9    2.43    0.53
  -4   0  -9    1.22    0.38
   4   0   9    1.76    0.40
  -5   0  -9    1.44    0.57
  -5   0  -9    1.36    0.44
   5   0   9    1.44    0.42
  -6   0  -9    3.89    0.77
   6  -1  -9    0.25    0.29
   6  -1  -9   -0.58    0.42
  -6   1   9   -0.10    0.42
   5  -1  -9    2.86    0.60
   5  -1  -9    2.03    0.35
  -5   1   9    1.36    0.48
   4  -1  -9    8.67    0.76
  -4   1   9    8.41    0.58
  -4   1   9    8.05    0.72
   3  -1  -9    5.07    0.57
  -3   1   9    6.21    0.64
  -3   1   9    5.92    0.50
   2  -1  -9    0.16    0.30
  -2   1   9    0.96    0.28
  -2   1   9    0.65    0.34
   1  -1  -9    6.54    0.56
  -1   1   9    6.20    0.50
  -1   1   9    5.74    0.52
   0  -1  -9    7.35    0.57
   0   1   9    8.12    0.56
  -1  -1  -9   10.71    0.67
   1   1   9   10.44    0.63
  -2  -1  -9    0.89    0.32
   2   1   9    1.52    0.33
  -3  -1  -9   21.42    1.01
   3   1   9   21.09    0.98
  -4  -1  -9    8.94    0.73
   4   1   9    9.20    0.72
  -5  -1  -9    1.11    0.44
   5   1   9    1.27    0.43
   6  -2  -9    4.36    0.52
   6  -2  -9    4.00    0.68
  -6   2   9    5.75    0.71
   5  -2  -9    0.83    0.33
   5  -2  -9    1.16    0.49
  -5   2   9    1.10    0.48
   4  -2  -9    0.27    0.36
  -4   2   9    0.01    0.38
  -4   2   9    0.07    0.28
   3  -2  -9    1.09    0.36
  -3   2   9    0.75    0.29
  -3   2   9    1.02    0.39
   2  -2  -9   10.99    0.72
  -2   2   9   10.10    0.65
  -2   2   9   10.45    0.72
   1  -2  -9   21.55    0.95
  -1   2   9   18.39    0.88
   0  -2  -9    6.71    0.56
   0   2   9    5.74    0.50
  -1  -2  -9    0.31    0.29
   1   2   9    0.62    0.30
  -2  -2  -9    6.67    0.61
   2   2   9    7.48    0.60
  -3  -2  -9   12.20    0.80
   3   2   9   11.86    0.77
  -4  -2  -9    0.20    0.36
   4   2   9   -0.36    0.32
  -5  -2  -9    2.93    0.55
   5   2   9    3.41    0.55
   6  -3  -9    0.39    0.37
  -6   3   9    1.00    0.52
   5  -3  -9    0.56    0.42
   5  -3  -9   -0.13    0.32
  -5   3   9    0.07    0.43
   4  -3  -9    6.70    0.68
  -4   3   9    5.80    0.55
  -4   3   9    5.55    0.66
   3  -3  -9   13.24    0.83
  -3   3   9   14.20    0.87
  -3   3   9   13.90    0.79
   2  -3  -9    0.25    0.29
  -2   3   9    0.01    0.29
   1  -3  -9    5.39    0.54
  -1   3   9    4.86    0.49
   0  -3  -9    3.63    0.46
   0   3   9    4.49    0.49
  -1  -3  -9   11.96    0.77
   1   3   9   11.28    0.72
  -2  -3  -9    0.11    0.30
   2   3   9    0.33    0.32
  -3  -3  -9    4.25    0.53
   3   3   9    4.35    0.52
  -4  -3  -9    0.76    0.44
   4   3   9    1.19    0.40
   5  -4  -9    1.05    0.39
  -5   4   9    1.81    0.55
   4  -4  -9    6.19    0.66
  -4   4   9    5.55    0.66
   3  -4  -9    1.22    0.38
  -3   4   9    1.09    0.38
  -3   4   9    0.88    0.40
   2  -4  -9    1.17    0.38
  -2   4   9    0.95    0.36
   1  -4  -9    8.22    0.66
  -1   4   9    7.51    0.63
   0  -4  -9   10.56    0.74
   0   4   9    8.90    0.69
  -1  -4  -9    2.49    0.45
   1   4   9    2.10    0.42
  -2  -4  -9    9.29    0.78
   2   4   9    9.61    0.75
  -3  -4  -9    0.70    0.41
   3   4   9    0.69    0.39
   3  -5  -9    1.50    0.43
  -3   5   9    1.42    0.42
   2  -5  -9    0.50    0.35
  -2   5   9    0.13    0.37
   1  -5  -9    0.91    0.39
  -1   5   9    1.21    0.41
   0  -5  -9   -0.30    0.33
   0   5   9    0.85    0.38
  -1  -5  -9   15.55    0.96
   1   5   9   16.71    0.95
  -2  -5  -9    1.35    0.41
   2   5   9    1.40    0.42
   1   9 -10    6.03    0.65
  -1  -9  10    6.21    0.77
   0   9 -10    0.52    0.38
   0  -9  10    0.25    0.38
   3   8 -10   11.63    0.92
  -3  -8  10   11.08    0.88
   2   8 -10    1.69    0.49
  -2  -8  10    1.65    0.48
  -1  -8  10    1.40    0.47
   0   8 -10    4.42    0.56
   0  -8  10    6.41    0.66
  -1   8 -10    1.72    0.42
   1  -8  10    1.32    0.45
  -2   8 -10   10.26    0.83
   2  -8  10   11.28    0.85
   3  -8  10    3.68    0.60
   4   7 -10    2.15    0.52
  -4  -7  10    2.16    0.52
   3   7 -10    0.01    0.37
  -3  -7  10   -0.10    0.37
   2   7 -10    1.25    0.41
  -2  -7  10    1.33    0.43
   1   7 -10   18.55    1.02
  -1  -7  10   18.58    0.98
   0   7 -10    0.77    0.33
   0  -7  10    1.28    0.41
  -1   7 -10    0.36    0.33
   1  -7  10    0.84    0.39
  -2   7 -10    5.21    0.59
   2  -7  10    6.01    0.62
  -3   7 -10    4.43    0.59
   5   6 -10    1.12    0.50
  -5  -6  10    1.52    0.51
   4   6 -10    2.85    0.53
  -4  -6  10    2.76    0.53
   3   6 -10   10.70    0.81
  -3  -6  10   11.39    0.82
   2   6 -10   22.17    1.12
  -2  -6  10   21.90    1.07
   1   6 -10    0.68    0.39
  -1  -6  10    0.22    0.33
   0   6 -10    6.83    0.70
   0  -6  10    7.52    0.63
  -1   6 -10    3.54    0.46
   1  -6  10    4.19    0.53
  -2   6 -10    7.66    0.68
   2  -6  10    8.32    0.68
  -3   6 -10   -0.24    0.31
  -4   6 -10    2.46    0.53
   5   5 -10    7.77    0.80
  -5  -5  10    8.01    0.79
   4   5 -10    5.09    0.65
  -4  -5  10    6.62    0.68
   3   5 -10    3.59    0.56
  -3  -5  10    2.97    0.50
   2   5 -10    0.15    0.38
  -2  -5  10   -0.16    0.32
   1   5 -10   21.48    1.18
  -1  -5  10   21.81    1.03
   0   5 -10   16.47    1.04
   0  -5  10   16.72    0.87
  -1   5 -10    1.53    0.48
   1  -5  10    1.49    0.38
  -2   5 -10    2.09    0.39
  -3   5 -10    6.58    0.61
   3  -5  10    7.47    0.61
  -4   5 -10    1.97    0.48
   4  -5  10    2.55    0.45
  -5   5 -10    0.36    0.45
   5  -5  10    0.83    0.42
   6   4 -10    7.75    0.80
  -6  -4  10    5.99    0.73
   5   4 -10    4.45    0.62
  -5  -4  10    4.23    0.59
   4   4 -10    0.39    0.42
  -4  -4  10   -0.10    0.37
   3   4 -10   12.67    0.95
  -3  -4  10   12.93    0.84
   2   4 -10    6.91    0.77
  -2  -4  10    6.53    0.62
   1   4 -10    4.71    0.61
  -1  -4  10    5.77    0.56
   0   4 -10    0.26    0.37
   0  -4  10    0.13    0.30
  -1   4 -10    2.00    0.44
   1  -4  10    1.77    0.38
   1  -4  10    2.23    0.30
   2  -4  10   15.33    0.76
  -3   4 -10    2.60    0.43
   3  -4  10    3.15    0.42
  -4   4 -10   -0.10    0.35
   4  -4  10   -0.20    0.30
  -5   4 -10    1.13    0.48
   5  -4  10    1.25    0.44
   6   3 -10   -0.10    0.41
  -6  -3  10    0.06    0.47
   5   3 -10    0.21    0.37
  -5  -3  10   -0.29    0.42
   4   3 -10   15.35    1.01
  -4  -3  10   16.49    0.96
   3   3 -10    9.18    0.88
  -3  -3  10    9.88    0.75
   2   3 -10    2.96    0.56
  -2  -3  10    3.45    0.48
   1   3 -10   12.67    0.89
  -1  -3  10   13.32    0.77
   0   3 -10    6.58    0.63
   0  -3  10    7.69    0.49
   0  -3  10    7.74    0.62
  -1   3 -10   13.64    0.82
   1  -3  10   12.99    0.67
  -2   3 -10    0.11    0.33
   2  -3  10    0.22    0.24
   3  -3  10    2.15    0.37
  -4   3 -10    7.90    0.73
   4  -3  10    9.84    0.73
  -5   3 -10    0.32    0.54
   5  -3  10    0.18    0.40
   6   2 -10   -0.06    0.44
  -6  -2  10    0.59    0.47
   5   2 -10   19.77    1.20
  -5  -2  10   18.88    1.11
   4   2 -10    4.46    0.70
  -4  -2  10    5.18    0.64
   3   2 -10    1.26    0.44
  -3  -2  10    1.90    0.46
   2   2 -10    6.68    0.68
  -2  -2  10    8.08    0.67
  -2  -2  10    8.20    0.52
   1   2 -10   12.99    0.81
  -1  -2  10   13.17    0.64
  -1  -2  10   11.72    0.76
   0   2 -10   16.15    0.87
   0  -2  10   15.44    0.73
   0  -2  10   15.02    0.88
  -1   2 -10    7.84    0.63
   1  -2  10    6.50    0.51
  -2   2 -10    3.80    0.48
   2  -2  10    4.13    0.44
  -3   2 -10   17.69    0.94
   3  -2  10   18.62    0.90
   4  -2  10    3.15    0.47
  -5   2 -10    7.92    0.89
   5  -2  10    8.21    0.75
   6   1 -10    5.41    0.71
  -6  -1  10    5.27    0.67
   5   1 -10    0.10    0.48
  -5  -1  10    0.40    0.45
   4   1 -10    1.49    0.48
  -4  -1  10    2.09    0.52
   3   1 -10    4.47    0.61
  -3  -1  10    4.82    0.42
  -3  -1  10    4.00    0.55
   2   1 -10   31.99    1.38
  -2  -1  10   34.07    1.21
  -2  -1  10   32.99    1.36
   1   1 -10    0.57    0.30
  -1  -1  10    0.32    0.32
  -1  -1  10    0.01    0.22
   0   1 -10   26.39    1.14
   0  -1  10   25.95    1.03
  -1   1 -10    4.29    0.51
   1  -1  10    5.00    0.45
  -2   1 -10    1.62    0.37
   2  -1  10    2.07    0.36
  -3   1 -10    5.06    0.54
   3  -1  10    5.21    0.51
  -4   1 -10   18.43    0.99
   4  -1  10   19.05    1.03
   5  -1  10    3.65    0.57
   6   0 -10    2.92    0.66
  -6   0  10    2.56    0.62
   5   0 -10   17.34    0.88
   5   0 -10   20.75    1.26
  -5   0  10   19.81    1.14
   4   0 -10    0.77    0.49
  -4   0  10    1.21    0.45
  -4   0  10    0.90    0.29
   3   0 -10    4.84    0.64
  -3   0  10    4.37    0.57
  -3   0  10    4.81    0.45
   2   0 -10    8.50    0.72
  -2   0  10    8.30    0.59
  -2   0  10    7.26    0.65
   1   0 -10   11.04    0.75
  -1   0  10   11.84    0.66
   0   0 -10   19.14    0.96
   0   0  10   20.94    0.91
  -1   0 -10    2.68    0.41
   1   0  10    3.03    0.40
  -2   0 -10    2.24    0.39
   2   0  10    2.71    0.41
  -3   0 -10    7.58    0.66
   3   0  10    7.53    0.64
  -4   0 -10    1.17    0.42
   4   0  10    0.52    0.39
   6  -1 -10   13.00    0.81
   6  -1 -10   10.66    1.01
  -6   1  10   14.56    1.06
   5  -1 -10    0.14    0.51
   5  -1 -10    0.25    0.28
  -5   1  10    0.20    0.44
   4  -1 -10    0.06    0.42
  -4   1  10    0.28    0.42
  -4   1  10    0.05    0.29
   3  -1 -10   13.77    0.93
  -3   1  10   16.14    0.80
  -3   1  10   13.75    0.94
   2  -1 -10   10.17    0.75
  -2   1  10    8.29    0.70
  -2   1  10    9.95    0.64
   1  -1 -10    2.07    0.40
  -1   1  10    2.39    0.37
   0  -1 -10    4.87    0.52
   0   1  10    5.49    0.50
  -1  -1 -10   10.96    0.73
   1   1  10    9.99    0.68
  -2  -1 -10    5.76    0.58
   2   1  10    5.92    0.54
  -3  -1 -10    0.82    0.36
   3   1  10    0.75    0.36
  -4  -1 -10    0.26    0.40
   4   1  10    0.09    0.36
   5  -2 -10    5.66    0.81
   5  -2 -10    6.53    0.61
  -5   2  10    7.58    0.80
   4  -2 -10    4.11    0.64
  -4   2  10    3.45    0.58
  -4   2  10    4.28    0.50
   3  -2 -10    1.00    0.40
  -3   2  10    0.84    0.41
  -3   2  10    0.18    0.30
   2  -2 -10   -0.08    0.27
  -2   2  10   -0.04    0.29
   1  -2 -10    1.06    0.35
  -1   2  10    1.89    0.37
   0  -2 -10    6.60    0.60
   0   2  10    7.97    0.63
  -1  -2 -10    5.01    0.56
   1   2  10    6.39    0.58
  -2  -2 -10    0.08    0.31
   2   2  10    0.46    0.33
  -3  -2 -10    3.14    0.49
   3   2  10    4.05    0.53
  -4  -2 -10    2.19    0.52
   4  -3 -10    0.19    0.44
  -4   3  10    0.39    0.35
  -4   3  10   -0.76    0.42
   3  -3 -10    2.27    0.50
  -3   3  10    2.29    0.45
   2  -3 -10   10.96    0.80
  -2   3  10    9.48    0.72
   1  -3 -10    0.68    0.36
  -1   3  10    0.88    0.35
   0  -3 -10    0.55    0.36
   0   3  10    0.78    0.36
  -1  -3 -10    0.31    0.34
   1   3  10    0.26    0.33
  -2  -3 -10    3.38    0.53
   2   3  10    3.39    0.52
  -3  -3 -10    2.56    0.53
   3  -4 -10    4.84    0.65
  -3   4  10    4.34    0.56
   2  -4 -10    3.90    0.58
  -2   4  10    2.93    0.50
   1  -4 -10    1.36    0.41
  -1   4  10    2.19    0.47
   0  -4 -10    7.46    0.71
   0   4  10    8.30    0.71
  -1  -4 -10    0.48    0.40
   1   4  10    0.70    0.38
  -1  -8  11    7.05    0.73
   0  -8  11    1.50    0.51
   3   7 -11    8.24    0.80
  -3  -7  11    7.85    0.78
   2   7 -11    0.49    0.43
  -2  -7  11    0.01    0.42
   1   7 -11    0.40    0.43
  -1  -7  11   -0.04    0.37
   0  -7  11    2.32    0.49
   1  -7  11   17.90    1.04
   4   6 -11    8.43    0.83
  -4  -6  11   10.48    0.89
   3   6 -11    0.41    0.41
  -3  -6  11   -0.30    0.37
   2   6 -11   15.49    1.02
  -2  -6  11   15.87    0.96
   1   6 -11    4.22    0.65
  -1  -6  11    4.41    0.59
   0  -6  11    1.48    0.44
   1  -6  11   -0.28    0.36
  -3   6 -11    1.17    0.43
   4   5 -11    1.43    0.52
  -4  -5  11    1.11    0.48
   3   5 -11    6.41    0.73
  -3  -5  11    6.43    0.68
   2   5 -11   16.21    1.10
  -2  -5  11   15.79    0.95
   1   5 -11   -0.21    0.46
  -1  -5  11   -0.31    0.33
   0   5 -11    1.17    0.51
   0  -5  11    1.04    0.41
   5   4 -11    0.88    0.49
  -5  -4  11    1.37    0.53
   4   4 -11    4.64    0.71
  -4  -4  11    4.04    0.63
   3   4 -11   15.66    1.13
  -3  -4  11   16.63    0.98
   2   4 -11    4.29    0.66
  -2  -4  11    4.10    0.56
   1   4 -11    7.37    0.84
  -1  -4  11    9.63    0.77
   0   4 -11    2.04    0.55
   0  -4  11    3.64    0.50
  -1   4 -11    8.39    0.81
   2  -4  11    1.33    0.33
   3  -4  11    4.34    0.50
   4  -4  11    0.47    0.37
   5   3 -11    9.27    0.92
  -5  -3  11    9.49    0.89
   4   3 -11    2.28    0.60
  -4  -3  11    2.08    0.54
   3   3 -11    2.95    0.65
  -3  -3  11    5.01    0.63
   2   3 -11    2.21    0.60
  -2  -3  11    3.25    0.52
   1   3 -11    6.84    0.72
  -1  -3  11    7.56    0.67
   0   3 -11    3.82    0.59
   0  -3  11    4.26    0.42
  -1   3 -11   19.11    1.10
   1  -3  11   20.53    0.90
  -2   3 -11    2.73    0.52
   2  -3  11    2.67    0.39
   3  -3  11    0.22    0.32
   4  -3  11    0.71    0.40
   5   2 -11    3.08    0.69
  -5  -2  11    2.76    0.63
   4   2 -11   14.44    1.17
  -4  -2  11   17.76    1.07
   3   2 -11    5.05    0.70
  -3  -2  11    5.20    0.65
   2   2 -11    0.34    0.45
  -2  -2  11    0.71    0.41
   1   2 -11    0.19    0.38
  -1  -2  11    0.10    0.34
  -1  -2  11    0.01    0.24
   0   2 -11   22.63    1.15
   0  -2  11   22.83    0.96
  -1   2 -11    0.89    0.40
   1  -2  11    0.88    0.30
  -2   2 -11    0.64    0.40
   2  -2  11    0.89    0.31
  -3   2 -11    2.93    0.54
   3  -2  11    2.58    0.42
   4  -2  11   -0.47    0.34
   5   1 -11    1.93    0.70
  -5  -1  11    2.05    0.56
   4   1 -11    3.82    0.70
  -4  -1  11    3.34    0.59
   3   1 -11    0.44    0.49
  -3  -1  11    0.54    0.44
  -3  -1  11    1.09    0.30
   2   1 -11    1.02    0.46
  -2  -1  11    1.57    0.33
  -2  -1  11    0.21    0.38
   1   1 -11   11.29    0.86
  -1  -1  11   13.28    0.71
   0   1 -11   -0.17    0.34
   0  -1  11    0.33    0.29
  -1   1 -11    0.98    0.38
   1  -1  11    1.08    0.32
  -2   1 -11    9.02    0.72
   2  -1  11    7.46    0.63
  -3   1 -11    4.30    0.60
   3  -1  11    6.06    0.58
   4  -1  11    0.47    0.41
   5   0 -11    2.12    0.65
  -5   0  11    1.04    0.52
   4   0 -11    2.38    0.68
  -4   0  11    3.25    0.62
  -4   0  11    3.14    0.44
   3   0 -11    7.71    0.78
  -3   0  11    8.32    0.78
  -3   0  11    8.24    0.62
   2   0 -11   -0.30    0.32
  -2   0  11   -0.28    0.27
   1   0 -11    0.26    0.33
  -1   0  11   -0.04    0.28
   0   0 -11    0.02    0.33
   0   0  11    0.13    0.29
  -1   0 -11    2.92    0.49
   1   0  11    3.07    0.44
  -2   0 -11    4.62    0.57
   2   0  11    4.36    0.50
  -3   0 -11    0.91    0.42
   3   0  11    1.14    0.38
   4  -1 -11    2.72    0.67
  -4   1  11    3.09    0.59
  -4   1  11    2.35    0.44
   3  -1 -11    2.20    0.56
  -3   1  11    2.51    0.55
  -3   1  11    2.50    0.43
   2  -1 -11    0.16    0.38
  -2   1  11    0.60    0.33
   1  -1 -11    5.91    0.64
  -1   1  11    6.22    0.57
   0  -1 -11    2.94    0.47
   0   1  11    4.14    0.50
  -1  -1 -11    0.25    0.32
   1   1  11    0.61    0.35
  -2  -1 -11    0.03    0.35
   2   1  11   -0.05    0.34
  -3  -1 -11    1.49    0.46
   4  -2 -11    0.01    0.48
  -4   2  11    0.35    0.35
  -4   2  11    0.71    0.48
   3  -2 -11    1.92    0.55
  -3   2  11    2.19    0.44
   2  -2 -11    1.24    0.42
  -2   2  11    1.27    0.40
   1  -2 -11    4.92    0.60
  -1   2  11    6.14    0.59
   0  -2 -11    0.59    0.38
   0   2  11    0.26    0.34
  -1  -2 -11    3.74    0.53
   1   2  11    5.05    0.56
  -2  -2 -11    3.79    0.58
   2  -3 -11    0.98    0.43
  -2   3  11    0.92    0.42
   1  -3 -11    1.16    0.44
  -1   3  11    1.79    0.45
   0  -3 -11   -0.05    0.38
   2   6 -12    9.42    0.91
  -2  -6  12   10.50    0.86
   1   6 -12    0.08    0.48
  -1  -6  12   -0.45    0.38
   0  -6  12    3.21    0.59
   3   5 -12   -0.14    0.44
  -3  -5  12    0.38    0.44
   2   5 -12    0.95    0.59
  -2  -5  12    2.20    0.54
   1   5 -12    3.48    0.74
  -1  -5  12    3.43    0.58
   0   5 -12    5.98    0.83
  -4  -4  12    0.34    0.52
   3   4 -12    7.51    0.91
  -3  -4  12    9.56    0.85
   2   4 -12    9.57    1.06
  -2  -4  12    8.78    0.80
   1   4 -12    1.44    0.65
  -1  -4  12    1.46    0.48
   0   4 -12   -0.69    0.55
  -1   4 -12    8.58    0.93
   4   3 -12    5.77    0.93
  -4  -3  12    4.66    0.70
   3   3 -12    1.83    0.65
  -3  -3  12    3.43    0.63
   2   3 -12   -0.07    0.55
  -2  -3  12    0.00    0.41
   1   3 -12    1.26    0.55
   0   3 -12    5.27    0.73
  -1   3 -12    3.30    0.71
   1  -3  12    2.88    0.41
  -2   3 -12    0.73    0.57
   2  -3  12   -0.09    0.27
   4   2 -12    0.23    0.64
  -4  -2  12    0.93    0.52
   3   2 -12    0.02    0.57
  -3  -2  12   -0.32    0.42
   2   2 -12   10.35    0.98
  -2  -2  12   13.63    1.00
   1   2 -12    0.47    0.46
   0   2 -12    1.00    0.48
   0  -2  12    2.56    0.41
  -1   2 -12    2.64    0.64
   1  -2  12    3.74    0.46
  -2   2 -12    1.42    0.55
   2  -2  12    1.35    0.38
  -4  -1  12    2.15    0.62
   3   1 -12    1.31    0.65
  -3  -1  12    2.27    0.58
   2   1 -12    3.05    0.66
  -2  -1  12    5.57    0.53
   1   1 -12    0.59    0.48
  -1  -1  12    0.18    0.31
   0   1 -12   10.10    0.91
   0  -1  12   11.98    0.75
  -1   1 -12    1.92    0.48
   1  -1  12    2.52    0.43
  -2   1 -12    1.00    0.47
   2  -1  12    1.71    0.40
   3   0 -12    3.14    0.65
  -3   0  12    3.41    0.47
  -3   0  12    3.13    0.62
   2   0 -12    2.50    0.58
  -2   0  12    3.42    0.47
   1   0 -12    7.84    0.80
  -1   0  12   10.07    0.73
   0   0 -12    0.01    0.42
   0   0  12    1.03    0.38
  -1   0 -12   -0.33    0.36
   1   0  12    0.11    0.32
   2  -1 -12    3.54    0.66
  -2   1  12    3.97    0.53
   1  -1 -12    0.02    0.40
  -1   1  12    1.03    0.38
   0  -1 -12    3.75    0.66
   0   1  12    3.50    0.50
   0   0   0    0.00    0.00
;
_shelx_hkl_checksum              56006
loop_
_space_group_symop_operation_xyz
'x, y, z'
'-x, -y, -z'
loop_
_atom_site_label
_atom_site_type_symbol
_atom_site_fract_x
_atom_site_fract_y
_atom_site_fract_z
_atom_site_U_iso_or_equiv
_atom_site_adp_type
_atom_site_occupancy
_atom_site_site_symmetry_order
_atom_site_calc_flag
_atom_site_refinement_flags_posn
_atom_site_refinement_flags_adp
Br1 Br -0.37279(3) -0.29285(2) 0.75975(2) 0.03755(8) Uani 1 1 d . .
N1 N 0.1131(2) 0.39220(17) 0.86585(14) 0.0245(3) Uani 1 1 d . .
N2 N 0.22523(19) 0.49466(16) 0.93419(15) 0.0232(3) Uani 1 1 d . .
N3 N 0.3171(2) 0.59176(19) 1.00551(16) 0.0339(4) Uani 1 1 d . .
C1 C -0.1568(2) -0.1646(2) 0.78179(18) 0.0253(4) Uani 1 1 d . .
C2 C -0.1530(2) -0.0407(2) 0.71950(17) 0.0233(4) Uani 1 1 d . .
H8 H -0.255204 -0.020112 0.668382 0.028 Uiso 1 1 calc R U
C3 C 0.0048(2) 0.05426(19) 0.73330(16) 0.0210(3) Uani 1 1 d . .
C4 C 0.0080(2) 0.18696(19) 0.65879(17) 0.0216(3) Uani 1 1 d . .
H12 H 0.033061 0.138075 0.562613 0.026 Uiso 1 1 calc R U
C5 C 0.1619(2) 0.3109(2) 0.72197(17) 0.0231(4) Uani 1 1 d . .
C6 C 0.3362(2) 0.2271(2) 0.73201(19) 0.0281(4) Uani 1 1 d . .
H5 H 0.358287 0.165283 0.639727 0.034 Uiso 1 1 calc R U
H4 H 0.434945 0.305566 0.765485 0.034 Uiso 1 1 calc R U
C7 C 0.3306(2) 0.1185(2) 0.8296(2) 0.0304(4) Uani 1 1 d . .
H3 H 0.428965 0.048176 0.814214 0.036 Uiso 1 1 calc R U
H6 H 0.348418 0.182217 0.925333 0.036 Uiso 1 1 calc R U
C8 C 0.1573(2) 0.0206(2) 0.81008(17) 0.0237(4) Uani 1 1 d . .
C9 C 0.1461(3) -0.1038(2) 0.87285(19) 0.0284(4) Uani 1 1 d . .
H7 H 0.246930 -0.124836 0.925202 0.034 Uiso 1 1 calc R U
C10 C -0.0089(3) -0.1973(2) 0.86040(19) 0.0297(4) Uani 1 1 d . .
H2 H -0.013704 -0.279817 0.903614 0.036 Uiso 1 1 calc R U
C11 C -0.1708(2) 0.2589(2) 0.64991(18) 0.0249(4) Uani 1 1 d . .
H11 H -0.218962 0.304888 0.733036 0.030 Uiso 1 1 calc R U
C12 C -0.2636(3) 0.2614(2) 0.5327(2) 0.0339(4) Uani 1 1 d . .
H10 H -0.219184 0.216482 0.447719 0.041 Uiso 1 1 calc R U
H9 H -0.373761 0.308050 0.534538 0.041 Uiso 1 1 calc R U
C13 C 0.1782(3) 0.4316(2) 0.6360(2) 0.0327(4) Uani 1 1 d . .
H13A H 0.209211 0.379350 0.544553 0.049 Uiso 1 1 calc R U
H13B H 0.065601 0.480088 0.628332 0.049 Uiso 1 1 calc R U
H13C H 0.269973 0.511398 0.681166 0.049 Uiso 1 1 calc R U
loop_
_atom_site_aniso_label
_atom_site_aniso_U_11
_atom_site_aniso_U_22
_atom_site_aniso_U_33
_atom_site_aniso_U_23
_atom_site_aniso_U_13
_atom_site_aniso_U_12
Br1 0.03872(13) 0.03246(12) 0.04249(13) 0.01253(9) 0.00519(9) -0.01144(8)
N1 0.0257(8) 0.0245(7) 0.0211(7) 0.0019(6) 0.0036(6) -0.0039(6)
N2 0.0248(8) 0.0227(7) 0.0227(7) 0.0062(6) 0.0037(6) 0.0033(6)
N3 0.0327(9) 0.0330(9) 0.0305(8) -0.0001(7) -0.0012(7) -0.0042(7)
C1 0.0280(10) 0.0213(8) 0.0253(9) 0.0030(7) 0.0065(7) -0.0031(7)
C2 0.0244(9) 0.0242(8) 0.0204(8) 0.0048(7) 0.0010(7) -0.0012(7)
C3 0.0247(9) 0.0197(8) 0.0174(8) 0.0017(6) 0.0041(7) -0.0002(7)
C4 0.0232(9) 0.0226(8) 0.0175(8) 0.0031(6) 0.0013(7) -0.0016(7)
C5 0.0252(9) 0.0239(8) 0.0194(8) 0.0038(7) 0.0045(7) -0.0030(7)
C6 0.0215(9) 0.0310(9) 0.0279(9) 0.0001(7) 0.0049(7) -0.0039(7)
C7 0.0216(9) 0.0292(10) 0.0394(11) 0.0078(8) -0.0003(8) 0.0027(7)
C8 0.0243(9) 0.0228(8) 0.0218(8) 0.0012(7) 0.0039(7) 0.0035(7)
C9 0.0280(10) 0.0272(9) 0.0299(9) 0.0072(7) 0.0006(8) 0.0090(7)
C10 0.0387(11) 0.0224(9) 0.0306(10) 0.0095(7) 0.0079(8) 0.0055(8)
C11 0.0255(9) 0.0252(9) 0.0246(9) 0.0073(7) 0.0039(7) -0.0001(7)
C12 0.0332(11) 0.0389(11) 0.0323(10) 0.0145(8) 0.0015(8) 0.0032(8)
C13 0.0381(11) 0.0325(10) 0.0290(10) 0.0114(8) 0.0047(8) -0.0100(8)
loop_
_atom_type_symbol
_atom_type_description
_atom_type_scat_dispersion_real
_atom_type_scat_dispersion_imag
_atom_type_scat_source
C C 0.0033 0.0016 'International Tables Vol C Tables 4.2.6.8 and 6.1.1.4'
H H 0.0000 0.0000 'International Tables Vol C Tables 4.2.6.8 and 6.1.1.4'
N N 0.0061 0.0033 'International Tables Vol C Tables 4.2.6.8 and 6.1.1.4'
Br Br -0.2901 2.4595 'International Tables Vol C Tables 4.2.6.8 and 6.1.1.4'
loop_
_geom_angle_atom_site_label_1
_geom_angle_atom_site_label_2
_geom_angle_atom_site_label_3
_geom_angle
N2 N1 C5 114.45(14)
N3 N2 N1 173.79(17)
C2 C1 C10 121.75(16)
C2 C1 Br1 118.96(14)
C10 C1 Br1 119.29(13)
C1 C2 C3 119.92(16)
C1 C2 H8 120.0
C3 C2 H8 120.0
C2 C3 C8 119.07(15)
C2 C3 C4 118.99(15)
C8 C3 C4 121.89(15)
C11 C4 C3 112.35(14)
C11 C4 C5 112.72(14)
C3 C4 C5 111.70(14)
C11 C4 H12 106.5
C3 C4 H12 106.5
C5 C4 H12 106.5
N1 C5 C6 110.23(14)
N1 C5 C13 109.75(14)
C6 C5 C13 110.96(15)
N1 C5 C4 105.38(13)
C6 C5 C4 109.11(14)
C13 C5 C4 111.27(14)
C7 C6 C5 112.10(14)
C7 C6 H5 109.2
C5 C6 H5 109.2
C7 C6 H4 109.2
C5 C6 H4 109.2
H5 C6 H4 107.9
C8 C7 C6 113.41(15)
C8 C7 H3 108.9
C6 C7 H3 108.9
C8 C7 H6 108.9
C6 C7 H6 108.9
H3 C7 H6 107.7
C9 C8 C3 118.91(16)
C9 C8 C7 119.34(16)
C3 C8 C7 121.73(16)
C10 C9 C8 122.38(17)
C10 C9 H7 118.8
C8 C9 H7 118.8
C9 C10 C1 117.94(16)
C9 C10 H2 121.0
C1 C10 H2 121.0
C12 C11 C4 124.35(17)
C12 C11 H11 117.8
C4 C11 H11 117.8
C11 C12 H10 120.0
C11 C12 H9 120.0
H10 C12 H9 120.0
C5 C13 H13A 109.5
C5 C13 H13B 109.5
H13A C13 H13B 109.5
C5 C13 H13C 109.5
H13A C13 H13C 109.5
H13B C13 H13C 109.5
loop_
_geom_bond_atom_site_label_1
_geom_bond_atom_site_label_2
_geom_bond_distance
Br1 C1 1.9039(17)
N1 N2 1.233(2)
N1 C5 1.508(2)
N2 N3 1.130(2)
C1 C2 1.379(2)
C1 C10 1.380(3)
C2 C3 1.400(2)
C2 H8 0.9300
C3 C8 1.400(2)
C3 C4 1.527(2)
C4 C11 1.500(2)
C4 C5 1.535(2)
C4 H12 0.9800
C5 C6 1.523(3)
C5 C13 1.525(2)
C6 C7 1.522(3)
C6 H5 0.9700
C6 H4 0.9700
C7 C8 1.502(2)
C7 H3 0.9700
C7 H6 0.9700
C8 C9 1.389(2)
C9 C10 1.377(3)
C9 H7 0.9300
C10 H2 0.9300
C11 C12 1.312(3)
C11 H11 0.9300
C12 H10 0.9300
C12 H9 0.9300
C13 H13A 0.9600
C13 H13B 0.9600
C13 H13C 0.9600
loop_
_geom_torsion_atom_site_label_1
_geom_torsion_atom_site_label_2
_geom_torsion_atom_site_label_3
_geom_torsion_atom_site_label_4
_geom_torsion
C10 C1 C2 C3 1.1(3)
Br1 C1 C2 C3 -179.43(12)
C1 C2 C3 C8 0.3(2)
C1 C2 C3 C4 177.69(15)
C2 C3 C4 C11 33.0(2)
C8 C3 C4 C11 -149.71(15)
C2 C3 C4 C5 160.84(15)
C8 C3 C4 C5 -21.9(2)
N2 N1 C5 C6 60.88(19)
N2 N1 C5 C13 -61.63(19)
N2 N1 C5 C4 178.47(14)
C11 C4 C5 N1 59.54(17)
C3 C4 C5 N1 -68.08(16)
C11 C4 C5 C6 177.88(14)
C3 C4 C5 C6 50.26(18)
C11 C4 C5 C13 -59.36(19)
C3 C4 C5 C13 173.03(14)
N1 C5 C6 C7 52.23(19)
C13 C5 C6 C7 174.02(15)
C4 C5 C6 C7 -63.03(18)
C5 C6 C7 C8 43.9(2)
C2 C3 C8 C9 -1.4(2)
C4 C3 C8 C9 -178.68(15)
C2 C3 C8 C7 -179.62(16)
C4 C3 C8 C7 3.1(2)
C6 C7 C8 C9 168.04(16)
C6 C7 C8 C3 -13.8(2)
C3 C8 C9 C10 1.1(3)
C7 C8 C9 C10 179.38(17)
C8 C9 C10 C1 0.3(3)
C2 C1 C10 C9 -1.4(3)
Br1 C1 C10 C9 179.13(13)
C3 C4 C11 C12 -120.32(19)
C5 C4 C11 C12 112.4(2)
