#------------------------------------------------------------------------------
#$Date: 2018-01-31 02:16:12 +0200 (Wed, 31 Jan 2018) $
#$Revision: 205917 $
#$URL: file:///home/coder/svn-repositories/cod/cif/4/12/71/4127111.cif $
#------------------------------------------------------------------------------
#
# This file is available in the Crystallography Open Database (COD),
# http://www.crystallography.net/
#
# All data on this site have been placed in the public domain by the
# contributors.
#
data_4127111
loop_
_publ_author_name
'Galley, Shane S.'
'Arico, Alexandra A.'
'Lee, Tsung-Han'
'Deng, Xiaoyu'
'Yao, Yong-Xin'
'Sperling, Joseph M.'
'Proust, Vanessa'
'Storbeck, Julia S.'
'Dobrosavljevic, Vladimir'
'Neu, Jennifer N.'
'Siegrist, Theo'
'Baumbach, Ryan E.'
'Albrecht-Schmitt, Thomas E'
'Kaltsoyannis, Nikolas'
'Lanat\`a, Nicola'
_publ_section_title
;
 Uncovering the Origin of Divergence in the CsM(CrO4)2 (M = La, Pr, Nd,
 Sm, Eu; Am) Family through Examination of the Chemical Bonding in a
 Molecular Cluster and by Band Structure Analysis.
;
_journal_name_full               'Journal of the American Chemical Society'
_journal_paper_doi               10.1021/jacs.7b09474
_journal_year                    2018
_chemical_formula_moiety         'Am Cr2 O8, Cs'
_chemical_formula_sum            'Am Cr2 Cs O8'
_chemical_formula_weight         607.91
_space_group_crystal_system      monoclinic
_space_group_IT_number           13
_space_group_name_Hall           '-P 2yc'
_space_group_name_H-M_alt        'P 1 2/c 1'
_symmetry_space_group_name_Hall  '-P 2yc'
_symmetry_space_group_name_H-M   'P 1 2/c 1'
_audit_creation_method           SHELXL-2017/1
_cell_angle_alpha                90
_cell_angle_beta                 98.691(2)
_cell_angle_gamma                90
_cell_formula_units_Z            2
_cell_length_a                   9.1759(11)
_cell_length_b                   5.5211(6)
_cell_length_c                   7.7323(9)
_cell_measurement_reflns_used    5828
_cell_measurement_temperature    137(2)
_cell_measurement_theta_max      27.529
_cell_measurement_theta_min      2.245
_cell_volume                     387.23(8)
_computing_cell_refinement       'SAINT V8.37A (Bruker, 2016)'
_computing_data_collection       'Apex2 (Bruker, 2016)'
_computing_data_reduction        'SAINT V8.37A (Bruker, 2016)'
_computing_structure_refinement
;  
SHELXL-2016/6 (Sheldrick, 2015, 2016), 
SHELXLE Rev714 (H\"ubschle et al., 2011)
;
_computing_structure_solution    'SHELXS-97 (Sheldrick, 2008)'
_diffrn_ambient_temperature      137(2)
_diffrn_measured_fraction_theta_full 1.000
_diffrn_measured_fraction_theta_max 1.000
_diffrn_measurement_device_type  'Bruker ApexII CCD diffractometer'
_diffrn_measurement_method       '0.5 wide w/ exposures'
_diffrn_radiation_type           MoK\a
_diffrn_radiation_wavelength     0.71073
_diffrn_reflns_av_R_equivalents  0.0370
_diffrn_reflns_av_unetI/netI     0.0245
_diffrn_reflns_Laue_measured_fraction_full 1.000
_diffrn_reflns_Laue_measured_fraction_max 1.000
_diffrn_reflns_limit_h_max       11
_diffrn_reflns_limit_h_min       -11
_diffrn_reflns_limit_k_max       7
_diffrn_reflns_limit_k_min       -7
_diffrn_reflns_limit_l_max       10
_diffrn_reflns_limit_l_min       -10
_diffrn_reflns_number            5511
_diffrn_reflns_point_group_measured_fraction_full 1.000
_diffrn_reflns_point_group_measured_fraction_max 1.000
_diffrn_reflns_theta_full        25.242
_diffrn_reflns_theta_max         27.529
_diffrn_reflns_theta_min         2.245
_diffrn_source                   'I-mu-S microsource X-ray tube'
_exptl_absorpt_coefficient_mu    17.199
_exptl_absorpt_correction_T_max  0.7456
_exptl_absorpt_correction_T_min  0.4729
_exptl_absorpt_correction_type   multi-scan
_exptl_absorpt_process_details
;
 SADABS 2016/2: Krause, L., Herbst-Irmer, R., Sheldrick G.M. & Stalke D.,
 J. Appl. Cryst. 48 (2015) 3-10
;
_exptl_crystal_colour            red
_exptl_crystal_density_diffrn    5.214
_exptl_crystal_description       block
_exptl_crystal_F_000             524
_exptl_crystal_size_max          0.05
_exptl_crystal_size_mid          0.03
_exptl_crystal_size_min          0.01
_refine_diff_density_max         2.159
_refine_diff_density_min         -1.588
_refine_diff_density_rms         0.317
_refine_ls_extinction_method     none
_refine_ls_goodness_of_fit_ref   1.045
_refine_ls_hydrogen_treatment    undef
_refine_ls_matrix_type           full
_refine_ls_number_parameters     56
_refine_ls_number_reflns         893
_refine_ls_number_restraints     0
_refine_ls_restrained_S_all      1.045
_refine_ls_R_factor_all          0.0198
_refine_ls_R_factor_gt           0.0185
_refine_ls_shift/su_max          0.000
_refine_ls_shift/su_mean         0.000
_refine_ls_structure_factor_coef Fsqd
_refine_ls_weighting_details
'w=1/[\s^2^(Fo^2^)+(0.0206P)^2^+3.5442P] where P=(Fo^2^+2Fc^2^)/3'
_refine_ls_weighting_scheme      calc
_refine_ls_wR_factor_gt          0.0450
_refine_ls_wR_factor_ref         0.0459
_reflns_Friedel_coverage         0.000
_reflns_number_gt                864
_reflns_number_total             893
_reflns_threshold_expression     'I > 2\s(I)'
_cod_data_source_file            ja7b09474_si_001.cif
_cod_data_source_block           b_a
_cod_database_code               4127111
_shelx_shelxl_version_number     2017/1
_shelx_space_group_comment
;
The symmetry employed for this shelxl refinement is uniquely defined
by the following loop, which should always be used as a source of
symmetry information in preference to the above space-group names.
They are only intended as comments.
;
_shelx_res_file
;
TITL b_a.res in P2/c
    b_a.res
    created by SHELXL-2017/1 at 22:49:49 on 30-Aug-2017

CELL  0.71073   9.1759   5.5211   7.7323   90.000   98.691   90.000
ZERR    2.000   0.0011   0.0006   0.0009    0.000    0.002    0.000
LATT  1
SYMM -X, Y, 1/2-Z
SFAC CR CS O
SFAC Am 36.6706 0.483629 24.0992 3.20647 17.3415 14.3136 3.49331 =
        102.273 13.3592 -7.8986 4.5125 18900 3.0 243
UNIT 4 2 16 2
ACTA
TEMP -135.760
L.S. 10
BOND $H
LIST 6
FMAP 2
PLAN 20
WGHT    0.020600    3.544200
FVAR       0.33475
AM1   4    1.000000    0.905820    0.250000    10.50000    0.00632    0.00465 =
         0.00573    0.00000    0.00135    0.00000
CS1   2    0.500000    0.823648    0.250000    10.50000    0.00897    0.00762 =
         0.01846    0.00000    0.00457    0.00000
CR1   1    0.781740    0.331725    0.319240    11.00000    0.00630    0.00534 =
         0.00781    0.00027    0.00180    0.00016
O1    3    0.633058    0.320535    0.405906    11.00000    0.01121    0.01194 =
         0.01118    0.00074    0.00519    0.00018
O2    3    0.928402    0.210887    0.449104    11.00000    0.01091    0.00887 =
         0.00706    0.00033    0.00097    0.00298
O3    3    0.815722    0.614464    0.268737    11.00000    0.00924    0.00848 =
         0.01260    0.00095    0.00122   -0.00194
O4    3    0.766826    0.151453    0.148865    11.00000    0.01134    0.00827 =
         0.01155    0.00047    0.00102   -0.00012
HKLF 4




REM  b_a.res in P2/c
REM R1 =  0.0185 for     864 Fo > 4sig(Fo)  and  0.0198 for all     893 data
REM     56 parameters refined using      0 restraints

END

WGHT      0.0214      1.4506

REM Highest difference peak  2.159,  deepest hole -1.588,  1-sigma level  0.317
Q1    1   0.9096  0.9123  0.1949  11.00000  0.05    2.16
Q2    1   0.9773  1.0472  0.1692  11.00000  0.05    1.52
Q3    1   0.9847  0.7773  0.1673  11.00000  0.05    1.35
Q4    1   1.0846  1.0732  0.2200  11.00000  0.05    1.27
Q5    1   1.0824  0.7502  0.2226  11.00000  0.05    0.98
Q6    1   0.8260 -0.0951  0.1399  11.00000  0.05    0.97
Q7    1   0.4021  0.8240  0.1989  11.00000  0.05    0.94
Q8    1   0.9041  0.3371  0.3992  11.00000  0.05    0.92
Q9    1   0.8293  0.4698  0.4333  11.00000  0.05    0.83
Q10   1   0.9677  0.1709  0.3661  11.00000  0.05    0.78
Q11   1   0.5123  0.7009  0.1976  11.00000  0.05    0.76
Q12   1   1.0940  0.1732  0.4465  11.00000  0.05    0.73
Q13   1   0.5160  0.9257  0.0503  11.00000  0.05    0.72
Q14   1   0.5762  0.2138  0.0679  11.00000  0.05    0.70
Q15   1   0.7432  0.0050  0.0618  11.00000  0.05    0.68
Q16   1   0.7353  0.3179  0.4400  11.00000  0.05    0.67
Q17   1   0.3718  0.6733  0.1075  11.00000  0.05    0.65
Q18   1   0.8363  0.3750  0.0493  11.00000  0.05    0.62
Q19   1   1.0196  0.3920  0.5001  11.00000  0.05    0.62
Q20   1   1.0280  0.3494  0.4625  11.00000  0.05    0.61
;
_shelx_res_checksum              35926
_shelx_hkl_file
;
   0   0  -1   -9.90    1.00
   0   0   1  -12.50    1.10
   0   0   1  -11.30    1.00
   0   0   1   -9.60    1.10
   0   0  -1   -9.90    1.30
   0   0  -1  -13.50    0.90
   0   0  -1  -12.00    0.40
   0   0  -2 9999.00  412.56
   0   0  -2 8902.21  411.76
   0   0  -2 9236.08  411.06
   0   0   2 9068.69  411.76
   0   0   2 8989.20  411.66
   0   0  -3   -1.70    1.10
   0   0   3    1.10    1.30
   0   0   3    6.70    3.00
   0   0  -3    1.40    2.50
   0   0   3   -0.90    3.00
   0   0   4 3781.52  175.58
   0   0  -4 4086.69  175.88
   0   0   4 3805.92  175.88
   0   0  -5    5.60    4.70
   0   0   5    7.10    5.10
   0   0   5    3.40    4.70
   0   0   6 1974.50   95.69
   0   0  -6 2141.89  100.89
   0   0   7    0.70    4.70
   0   0  -7   -3.40    3.70
   0   0   7    5.50    4.70
   0   0   8  882.61   47.70
   0   0   8  913.71   46.20
   0   0  -8  937.51   46.80
   0   0   9   -8.20    7.30
   0   0  -9   39.70    8.40
   0   0  -9   12.20    6.90
   0   1   0 1751.72   80.19
   0   1   0 1671.03   80.09
   0   1   0 1922.41   80.49
   0  -1   0 1744.43   80.19
   0  -1   0 1859.11   80.39
   0   1   1  877.21   39.50
   0   1   1  863.51   39.20
   0   1   1  893.21   39.20
   0   1  -1  891.81   39.30
   0   1  -1  868.11   39.50
   0   1  -1  843.32   39.10
   0   1  -1  913.61   40.10
   0  -1  -1  789.82   39.50
   0  -1  -1  962.90   39.90
   0  -1  -1  903.01   39.40
   0  -1   1  804.52   39.50
   0  -1   1  778.62   39.10
   0   1   2 1778.22   83.09
   0   1   2 1799.12   83.99
   0   1   2 1817.72   84.19
   0   1  -2 1977.10   83.09
   0  -1   2 1838.32   83.89
   0  -1  -2 1765.02   83.19
   0  -1   2 1816.12   84.49
   0  -1  -2 1933.61   83.99
   0  -1  -2 1829.82   83.69
   0  -1   2 1994.20   83.19
   0   1   3 4185.88  187.78
   0   1   3 3836.92  185.98
   0   1  -3 4778.02  187.88
   0   1  -3 4795.12  186.08
   0  -1  -3 3991.30  187.08
   0  -1  -3 3648.44  185.88
   0  -1   3 4556.64  186.08
   0  -1  -3 4141.89  187.18
   0  -1   3 4024.90  187.48
   0  -1   3 3764.02  187.68
   0   1   4 1843.22   85.99
   0   1   4 1811.22   83.49
   0   1  -4 1859.11   85.69
   0   1  -4 2110.89   83.49
   0   1   4 1810.62   83.39
   0  -1   4 1675.93   83.29
   0  -1  -4 1921.51   85.29
   0  -1  -4 1910.51   85.19
   0  -1   4 1755.12   85.89
   0  -1   4 1883.41   85.89
   0   1  -5 2471.05  105.59
   0   1  -5 2386.06  108.49
   0   1   5 2440.16  105.59
   0   1   5 2351.96  109.19
   0   1   5 2229.78  105.39
   0  -1   5 2436.86  108.99
   0  -1   5 2068.29  105.39
   0  -1  -5 2474.85  107.99
   0  -1   5 2281.87  108.79
   0  -1  -5 2418.46  108.19
   0   1  -6 1352.26   62.79
   0   1  -6 1445.76   66.49
   0   1   6 1444.56   67.09
   0  -1   6 1227.98   62.79
   0  -1   6 1366.96   67.29
   0  -1   6 1417.96   66.89
   0  -1  -6 1497.15   67.29
   0  -1  -6 1408.46   66.09
   0   1  -7 1929.81   90.79
   0   1   7 1907.01   91.59
   0  -1  -7 1971.30   90.09
   0  -1  -7 1981.10   90.69
   0  -1   7 1825.12   91.19
   0   1   8 1069.49   54.69
   0   1  -8 1048.30   53.49
   0  -1   8  993.60   54.29
   0  -1   8 1048.90   53.69
   0  -1  -8 1118.59   53.09
   0  -1  -8 1129.09   54.09
   0   1  -9  844.12   45.10
   0   1   9  816.92   46.00
   0  -1   9  846.22   46.60
   0  -1  -9  900.81   44.80
   0  -1   9  816.92   45.20
   0  -1  -9  901.31   45.90
   0   2   0  684.63   30.90
   0   2   0  627.04   30.10
   0  -2   0  673.63   30.70
   0  -2   0  585.14   30.20
   0   2  -1 5251.17  239.18
   0   2   1 5467.75  239.28
   0   2  -1 4952.90  238.88
   0   2   1 5083.99  238.98
   0   2   1 5747.23  238.88
   0  -2   1 5905.31  241.38
   0  -2   1 4855.51  238.98
   0  -2  -1 5467.25  240.38
   0  -2  -1 5429.86  239.48
   0   2   2   12.10    2.50
   0   2   2    5.90    2.90
   0   2  -2    5.40    2.10
   0   2  -2    6.80    3.00
   0  -2  -2    1.50    3.40
   0  -2   2   -1.10    4.80
   0  -2   2   16.30    3.40
   0  -2  -2    2.10    2.80
   0   2   3 3311.07  151.58
   0   2   3 3418.66  153.08
   0   2  -3 3412.56  151.48
   0   2  -3 3291.77  152.68
   0  -2   3 3360.36  154.38
   0  -2  -3 3502.45  153.18
   0  -2  -3 3372.56  152.28
   0   2   4   40.00    4.40
   0   2  -4   47.80    5.40
   0   2  -4   46.60    6.60
   0   2   4   32.10    6.00
   0  -2  -4   43.70    5.70
   0  -2   4   46.20    6.70
   0  -2   4   34.90    8.40
   0  -2  -4   47.00    7.00
   0   2  -5 1673.23   77.39
   0   2   5 1578.74   74.79
   0   2   5 1620.34   77.59
   0   2  -5 1811.42   74.99
   0  -2  -5 1638.54   76.89
   0  -2   5 1512.55   78.69
   0  -2  -5 1720.83   77.79
   0  -2   5 1631.24   77.89
   0   2  -6   65.79    5.90
   0   2   6   43.30    6.70
   0   2  -6   56.19    7.60
   0   2   6   51.49    5.20
   0  -2  -6   51.09    7.10
   0  -2   6   44.30    7.80
   0  -2  -6   52.89    7.30
   0  -2   6   40.80    6.80
   0   2  -7  858.01   43.80
   0   2   7  872.11   44.70
   0  -2  -7  900.41   43.60
   0  -2  -7  904.11   43.70
   0  -2   7  817.02   44.60
   0  -2   7  812.42   44.40
   0   2  -8  114.69   11.70
   0   2   8   86.99   12.20
   0  -2   8   81.59   11.40
   0  -2  -8   87.49   12.80
   0  -2   8  100.99   14.40
   0  -2  -8  123.39   12.80
   0   2  -9  453.15   27.10
   0   2   9  442.96   28.90
   0  -2  -9  459.75   28.00
   0  -2   9  394.06   28.20
   0  -2  -9  461.75   27.80
   0  -2   9  414.56   29.00
   0   3   0  175.98   11.30
   0   3   0  196.98   11.10
   0  -3   0  206.98   15.50
   0  -3   0  189.38   12.50
   0   3   1 1845.02   85.49
   0   3   1 1821.72   85.29
   0   3  -1 1829.52   85.29
   0   3  -1 1877.11   85.39
   0  -3  -1 1902.41   86.29
   0  -3   1 1846.02   88.69
   0  -3  -1 1898.21   87.89
   0  -3   1 1954.10   85.99
   0   3   2  289.27   16.20
   0   3  -2  266.17   15.00
   0   3   2  271.97   15.20
   0   3  -2  283.37   16.00
   0  -3  -2  293.07   18.20
   0  -3   2  295.77   21.00
   0  -3   2  299.87   16.30
   0  -3  -2  268.67   16.60
   0   3   3 1171.98   54.99
   0   3  -3 1144.19   54.79
   0   3  -3 1106.39   55.69
   0   3   3 1227.98   56.39
   0  -3  -3 1205.18   57.39
   0  -3   3 1264.57   56.29
   0  -3  -3 1214.58   55.89
   0  -3   3 1144.09   59.89
   0   3  -4  744.63   36.40
   0   3  -4  770.82   38.40
   0   3   4  748.53   36.60
   0  -3  -4  685.13   39.50
   0  -3  -4  781.12   37.90
   0  -3   4  870.41   39.00
   0   3   5 1224.08   58.29
   0   3   5 1216.58   60.49
   0   3  -5 1240.58   60.39
   0   3  -5 1259.77   58.29
   0  -3   5 1377.86   61.79
   0  -3  -5 1273.97   60.29
   0  -3   5 1216.28   64.89
   0   3   6  747.63   35.90
   0   3   6  709.93   38.40
   0   3  -6  756.32   36.10
   0   3  -6  747.83   38.40
   0  -3   6  684.73   46.40
   0  -3   6  701.53   40.50
   0  -3  -6  754.22   38.70
   0  -3  -6  855.61   44.30
   0   3  -7  683.33   32.30
   0   3   7  632.64   35.10
   0   3  -7  643.94   34.90
   0  -3   7  622.84   35.60
   0  -3   7  565.74   36.60
   0  -3  -7  675.03   35.40
   0  -3  -7  663.03   34.30
   0   3  -8  625.64   33.90
   0   3   8  608.14   34.40
   0  -3   8  562.64   36.60
   0  -3   8  567.94   35.10
   0  -3  -8  607.54   34.30
   0  -3  -8  619.64   33.60
   0   3   9  495.75   30.10
   0   3  -9  482.45   29.40
   0  -3  -9  450.95   29.30
   0  -3   9  439.66   33.20
   0  -3   9  420.66   31.30
   0  -3  -9  487.45   30.00
   0   4   0 2121.49   99.49
   0   4   0 2242.68   99.69
   0  -4   0 2155.18  103.39
   0  -4   0 2187.18  100.29
   0   4  -1   64.09    8.30
   0   4   1   73.39    8.60
   0   4  -1   69.79    6.30
   0   4   1   53.29    5.90
   0  -4   1   81.89    9.20
   0  -4  -1   72.19    9.50
   0  -4  -1   75.79    9.40
   0  -4   1   74.09   10.70
   0   4   2 1671.43   79.29
   0   4  -2 1755.42   79.39
   0   4  -2 1763.92   79.99
   0   4   2 1751.92   80.09
   0  -4  -2 1684.53   82.79
   0  -4  -2 1726.73   80.99
   0  -4   2 1666.83   84.59
   0  -4   2 1747.43   80.29
   0   4   3    7.60    5.60
   0   4  -3    1.10    2.70
   0   4  -3    7.30    5.80
   0   4   3    5.60    3.10
   0  -4  -3    7.60    5.00
   0  -4   3    3.70    7.70
   0  -4  -3   14.30    8.20
   0  -4   3    7.10    6.50
   0   4  -4  688.83   35.00
   0   4   4  690.13   33.60
   0   4  -4  684.13   34.00
   0  -4   4  689.23   36.40
   0  -4  -4  701.63   36.90
   0  -4   4  679.43   40.30
   0  -4  -4  690.43   36.80
   0   4  -5  162.48   11.70
   0   4   5  135.79   10.30
   0   4  -5  161.28   13.00
   0   4   5  161.88   13.00
   0  -4   5  127.09   15.90
   0  -4  -5  165.18   17.20
   0  -4   5  162.98   18.60
   0  -4  -5  157.88   14.20
   0   4  -6  372.16   19.80
   0   4   6  387.76   23.40
   0   4  -6  376.36   22.70
   0  -4  -6  355.86   23.80
   0  -4  -6  360.06   22.80
   0  -4   6  336.67   27.00
   0  -4   6  380.66   23.60
   0   4   7  153.08   15.90
   0   4  -7  172.88   15.50
   0   4  -7  159.28   11.80
   0  -4  -7  153.08   15.60
   0  -4  -7  148.59   16.70
   0  -4   7  144.59   17.60
   0  -4   7  160.48   19.80
   0   4  -8  327.97   22.60
   0   4   8  327.17   24.30
   0  -4  -8  322.57   23.50
   0  -4   8  277.57   24.90
   0  -4  -8  320.77   24.50
   0  -4   8  308.47   29.80
   0   5   0  520.05   26.70
   0   5   0  546.95   27.20
   0  -5   0  472.25   31.80
   0  -5   0  505.75   30.50
   0   5  -1   36.60    7.30
   0   5  -1   45.70    5.60
   0   5   1   40.60    5.40
   0   5   1   33.40    7.50
   0  -5   1   41.30   10.90
   0  -5   1   36.00    9.30
   0  -5  -1   52.89    9.80
   0  -5  -1   32.10   10.00
   0   5   2  487.25   28.10
   0   5   2  484.75   25.30
   0   5  -2  511.55   26.90
   0   5  -2  460.25   24.90
   0  -5   2  438.36   32.20
   0  -5   2  480.35   28.30
   0  -5  -2  495.15   29.50
   0  -5  -2  461.35   29.40
   0   5  -3   25.60    4.80
   0   5   3   28.50    4.90
   0   5  -3   28.10    5.90
   0  -5   3   50.39   12.90
   0  -5   3   32.50    9.30
   0  -5  -3   24.70    8.40
   0  -5  -3   35.20   12.50
   0   5   4  158.48   13.30
   0   5  -4  139.99   11.20
   0   5   4  159.58   11.60
   0   5  -4  157.68   13.10
   0  -5   4  134.59   18.90
   0  -5  -4  139.39   16.00
   0  -5  -4  178.88   23.30
   0  -5   4  154.58   19.50
   0   5  -5  183.98   15.40
   0   5   5  205.98   15.90
   0   5  -5  195.98   12.80
   0   5   5  192.08   13.10
   0  -5  -5  175.98   18.20
   0  -5  -5  195.48   19.70
   0  -5   5  146.49   20.80
   0  -5   5  142.59   16.40
   0   5   6  154.48   15.80
   0   5  -6  112.39   11.60
   0   5  -6   98.39   14.10
   0   5   6  125.59   11.10
   0  -5  -6  113.39   14.80
   0  -5   6  115.99   13.60
   0  -5   6  115.09   19.90
   0   5  -7  111.19   15.50
   0  -5  -7  100.89   15.10
   0   6   0   11.90    4.60
   0  -6   0   23.90   11.30
   0  -6   0   11.90   12.50
   0   6   1    8.40    5.20
   0   6   1    2.30    4.60
   0   6  -1    4.20    4.30
   0  -6   1   19.10   13.10
   0  -6  -1    8.30   11.00
   0   6   2   30.20    6.00
   0   6  -2   40.00    6.50
   0   6   2   33.40    6.60
   0   6  -2   33.30    6.80
   0  -6   2   26.80   13.00
   0  -6  -2   36.20   11.70
   0   6   3    7.70    5.10
   0   6  -3   16.60    5.60
   0   6   3   -0.80    6.00
   0   6  -3   17.10    6.60
   0  -6  -3   19.50   10.10
   0  -6   3    0.30   14.60
   0   6  -4  279.07   17.70
   0   6   4  272.47   19.40
   0   6   4  285.17   17.70
   0   6  -4  250.77   19.60
   0  -6  -4  269.07   24.60
   0  -6   4  243.48   32.30
   0   6   5   48.70    7.40
   0   6  -5   31.40    9.60
   0   6  -5   65.49    7.80
   0   6   5   48.30   10.00
   0  -6  -5   54.69   13.50
   0  -6   5    6.60   18.00
   0   7   0  313.17   20.00
   0  -7   0  281.07   33.20
   0   7  -1  385.26   22.50
   0   7   1  371.06   22.50
   0  -7   1  289.07   36.10
   0  -7  -1  337.07   32.40
   0   7  -2  201.98   15.60
   0   7   2  176.28   15.40
   0  -7  -2  186.38   26.10
   0  -7   2  183.78   25.90
   1   0 -10  584.44   34.40
  -1   0  10  575.84   36.00
   1   0 -10  588.24   34.20
  -1   0   9    4.30    7.10
   1   0  -9   -3.70    6.20
  -1   0   9    1.40    6.70
  -1   0   8  110.59   13.10
   1   0  -8  120.09   11.60
  -1   0   8  128.99   12.40
   1   0  -7    7.40    4.20
  -1   0   7    6.40    4.70
  -1   0   7    0.70    4.80
   1   0  -6    8.10    3.80
  -1   0   6    0.00    3.70
  -1   0   5   -3.80    5.10
  -1   0   5    0.80    4.80
   1   0  -5   10.10    4.90
   1   0  -4  131.89   10.00
  -1   0   4  146.79   10.90
  -1   0   4  122.69   10.20
   1   0  -3    0.00    2.70
  -1   0   3   -1.90    2.80
  -1   0   3   -3.70    3.10
  -1   0   2   -0.40    2.10
   1   0  -2    0.20    2.10
  -1   0   2   -3.30    2.40
   1   0  -2   -2.40    2.20
  -1   0   2   -0.50    2.60
   1   0  -1   -0.10    1.70
   1   0  -1    0.20    1.50
  -1   0   1   -3.10    1.50
  -1   0   1    0.50    1.20
  -1   0   1   -1.60    0.70
   1   0  -1   -2.80    1.00
  -1   0   0 1440.26   61.39
  -1   0   0 1335.47   60.49
  -1   0   0 1277.67   60.79
   1   0   0 1348.67   61.59
  -1   0  -1   -4.20    1.20
  -1   0  -1   -3.80    1.00
  -1   0  -1   -3.50    1.20
   1   0   1   -2.90    1.40
   1   0   1   -2.20    1.10
   1   0   1   -3.30    0.90
   1   0   1   -1.40    1.30
   1   0   2 2016.30   94.39
   1   0   2 1990.90   95.09
   1   0   2 2230.08   94.29
  -1   0  -2 2145.19   94.99
  -1   0  -2 2113.59   94.19
  -1   0  -2 2074.79   94.59
  -1   0  -3   -3.50    1.80
   1   0   3   -3.90    2.90
  -1   0  -3   -5.70    2.60
   1   0   3   -5.00    2.30
   1   0   3   -6.60    2.90
   1   0   4 1487.55   63.89
  -1   0  -4 1389.46   65.29
   1   0   4 1414.26   64.89
  -1   0  -4 1332.07   63.29
   1   0   4 1371.86   65.69
   1   0   5    0.40    4.90
   1   0   5    1.30    4.70
   1   0   5    5.20    2.80
  -1   0  -5   -2.00    4.20
   1   0   6  673.93   32.00
  -1   0  -6  697.83   35.10
   1   0   6  728.73   35.60
   1   0   6  656.23   35.50
   1   0   7    0.60    4.50
  -1   0  -7   -0.60    4.10
   1   0   7    2.80    4.70
  -1   0  -8  190.28   13.70
   1   0   8  165.68   15.40
  -1   0  -8  181.48   15.00
  -1   0  -9    5.70    7.20
  -1   0  -9  -11.40    6.80
   1   0   9    3.80    7.70
  -1   1   9    4.90    7.40
   1   1  -9    9.00    6.40
   1  -1  -9   14.70    7.00
  -1  -1   9   -4.00    8.20
   1  -1  -9   -7.50    7.30
  -1  -1   9    5.20    7.70
   1   1  -8  308.67   19.70
  -1   1   8  294.37   20.50
   1  -1  -8  297.67   19.30
  -1  -1   8  294.17   20.70
   1  -1  -8  298.77   19.60
  -1  -1   8  267.67   20.50
  -1   1   7  180.68   14.20
   1   1  -7  174.08   13.70
   1  -1  -7  201.48   14.00
   1  -1  -7  220.48   14.40
  -1  -1   7  187.18   14.60
  -1  -1   7  189.28   15.00
  -1   1   6  587.44   32.50
   1   1  -6  631.44   32.50
  -1  -1   6  621.44   33.00
   1  -1  -6  656.03   32.20
  -1  -1   6  620.04   32.50
   1  -1  -6  651.33   32.20
   1   1  -5  113.79   10.70
  -1   1   5  110.79   11.10
  -1  -1   5   96.89   11.00
   1  -1  -5  117.99    9.90
   1  -1  -5  122.89   11.00
  -1  -1   5  111.39   13.30
   1   1  -4 1454.95   59.69
   1  -1  -4 1250.77   59.09
  -1  -1   4 1312.47   60.19
  -1  -1   4 1174.58   56.79
   1  -1  -4 1277.47   58.89
   1  -1  -4 1159.48   56.59
  -1  -1   4 1226.08   58.99
  -1   1   3  228.88   13.80
  -1   1   3  214.18   11.40
   1   1  -3  284.07   11.60
  -1  -1   3  271.37   13.50
   1  -1  -3  226.08   12.80
  -1  -1   3  269.47   15.10
   1  -1  -3  204.88   11.70
  -1  -1   3  260.87   12.00
   1  -1  -3  226.18   13.60
   1   1  -2 2131.59   92.69
   1   1  -2 2161.68   93.89
  -1  -1   2 2243.28   94.59
   1  -1  -2 2022.70   93.69
  -1  -1   2 2143.09   92.79
   1  -1  -2 1736.13   92.89
   1   1  -1  188.78    9.80
   1   1  -1  145.59    9.30
  -1   1   1  179.08    9.10
   1   1  -1  160.68    8.00
  -1   1   1  151.08    8.60
  -1   1   1  152.78    7.80
  -1   1   1  148.59    7.50
   1   1  -1  160.48    7.50
   1  -1  -1  132.99    8.80
  -1  -1   1  145.09    8.10
   1  -1  -1  145.59    7.90
  -1  -1   1  181.38    9.70
   1  -1  -1  164.48    7.50
  -1  -1   1  156.28    7.60
  -1   1   0  922.41   41.00
   1   1   0  907.01   41.10
   1   1   0  884.81   41.70
  -1   1   0  928.51   40.50
  -1   1   0  901.71   41.60
   1   1   0  959.90   42.10
   1   1   0  905.51   40.50
   1  -1   0  899.51   40.50
  -1  -1   0  961.40   42.00
   1  -1   0  822.32   41.80
  -1  -1   0  901.21   42.20
  -1  -1   0  924.91   40.60
  -1  -1   0  854.61   41.20
  -1   1  -1  190.68   11.30
  -1   1  -1  225.28   10.80
   1   1   1  228.28   11.50
  -1   1  -1  220.48   10.90
   1   1   1  244.28   11.10
  -1   1  -1  216.58   11.70
   1   1   1  254.77   11.70
   1   1   1  233.58   11.10
   1  -1   1  216.88   11.00
  -1  -1  -1  218.78   11.30
   1  -1   1  208.88   11.00
  -1  -1  -1  226.38   11.50
   1  -1   1  229.28   11.90
  -1  -1  -1  196.98   11.10
  -1  -1  -1  220.48   11.40
   1  -1   1  206.68   11.50
   1   1   2   32.00    3.30
  -1   1  -2   27.80    4.30
  -1   1  -2   38.80    4.00
  -1   1  -2   29.90    3.20
   1   1   2   39.70    4.50
   1   1   2   29.10    4.40
   1  -1   2   28.90    4.10
  -1  -1  -2   23.10    3.20
   1  -1   2   28.40    3.70
  -1  -1  -2   31.10    4.10
   1   1   3   43.10    6.30
  -1   1  -3   49.10    4.30
   1   1   3   50.89    4.40
  -1   1  -3   49.90    5.70
   1  -1   3   45.60    5.80
   1  -1   3   39.60    5.10
  -1  -1  -3   46.70    5.50
  -1  -1  -3   42.60    5.30
   1   1   4   99.79    9.40
  -1   1  -4  114.69    9.20
  -1   1  -4  111.59    7.10
   1   1   4  109.79    7.20
  -1  -1  -4  100.99    8.70
   1  -1   4  108.79   10.20
  -1  -1  -4  111.49    8.70
   1  -1   4   98.89   10.30
   1   1   5   28.80    4.10
  -1   1  -5   25.90    4.00
   1   1   5   14.20    5.20
   1  -1   5   22.80    6.80
   1  -1   5   21.90    6.70
  -1  -1  -5   26.90    5.90
  -1  -1  -5   29.30    5.90
  -1   1  -6  339.37   19.60
  -1   1  -6  335.17   17.70
   1   1   6  347.87   17.60
   1   1   6  338.87   20.40
  -1  -1  -6  376.06   20.90
   1  -1   6  336.37   22.10
  -1  -1  -6  358.66   20.30
   1  -1   6  334.27   20.70
   1   1   7   37.40    7.20
  -1   1  -7   51.59    7.30
  -1  -1  -7   51.89    6.80
   1  -1   7   40.70    7.40
   1  -1   7   48.10    6.80
  -1  -1  -7   44.20    7.10
  -1   1  -8  328.57   21.70
   1   1   8  325.67   22.70
   1  -1   8  320.87   23.40
  -1  -1  -8  356.56   21.20
  -1  -1  -8  373.96   22.40
   1  -1   8  361.16   21.90
   1   1   9   73.39   16.60
  -1   1  -9   93.79   15.20
   1  -1   9  144.79   15.40
  -1  -1  -9  113.09   13.90
   1  -1   9  104.29   13.50
  -1  -1  -9  107.79   13.40
  -1   2   9  414.06   27.40
   1   2  -9  397.76   26.40
  -1  -2   9  431.36   28.60
   1  -2  -9  425.86   26.70
   1  -2  -9  421.96   26.50
  -1  -2   9  391.46   28.10
  -1   2   8  384.36   24.40
   1   2  -8  372.56   23.90
  -1  -2   8  356.76   25.00
   1  -2  -8  404.26   24.00
   1  -2  -8  394.06   23.40
  -1  -2   8  337.77   24.20
   1   2  -7  256.27   17.30
  -1   2   7  268.37   17.80
  -1  -2   7  262.87   19.40
   1  -2  -7  261.87   16.80
  -1  -2   7  220.98   17.30
   1  -2  -7  273.67   17.60
   1   2  -6  901.91   43.10
  -1   2   6  880.61   39.20
  -1   2   6  836.02   43.10
   1  -2  -6  872.71   42.10
  -1  -2   6  847.62   42.70
  -1  -2   6  751.52   45.20
   1  -2  -6  866.71   43.00
   1   2  -5   68.39    6.00
  -1   2   5   45.40    4.50
   1   2  -5   53.69    7.20
  -1   2   5   50.79    6.90
  -1  -2   5   51.89    7.90
   1  -2  -5   51.79    7.20
   1   2  -4 1125.99   50.89
   1   2  -4 1182.08   48.60
  -1   2   4  976.30   50.79
  -1   2   4  956.20   48.30
   1  -2  -4 1025.00   49.60
   1  -2  -4 1029.50   50.99
  -1  -2   4 1120.49   52.89
   1   2  -3    9.40    2.70
   1   2  -3   11.10    4.30
  -1   2   3   11.70    2.80
  -1   2   3    9.00    3.80
  -1  -2   3   12.90    6.10
  -1  -2   3   14.60    3.90
   1  -2  -3   13.00    3.20
   1  -2  -3   11.00    5.00
  -1   2   2 2091.59  101.49
   1   2  -2 2147.09  101.69
   1   2  -2 2584.94  101.49
  -1   2   2 2191.18  101.29
  -1   2   2 2193.38  102.79
   1   2  -2 2078.89  102.59
  -1  -2   2 2490.05  101.69
   1  -2  -2 2287.27  101.39
   1  -2  -2 2241.78  102.99
  -1   2   1   18.90    3.50
   1   2  -1   20.80    3.00
  -1   2   1   22.90    2.50
  -1   2   1   20.60    2.80
  -1  -2   1   25.50    3.20
   1  -2  -1   28.10    4.70
   1  -2  -1   25.70    3.00
  -1  -2   1   28.70    6.00
  -1  -2   1   21.60    4.60
  -1  -2   1   28.50    3.80
  -1   2   0  896.31   42.60
  -1   2   0 1000.40   42.50
   1   2   0  905.41   42.90
  -1   2   0  916.81   41.90
  -1   2   0  896.91   43.40
  -1  -2   0  872.31   42.20
  -1  -2   0  922.71   44.70
  -1  -2   0  968.50   44.50
   1  -2   0  981.50   44.60
  -1   2  -1  992.30   45.60
  -1   2  -1  983.30   45.40
   1   2   1 1019.90   45.50
   1   2   1 1064.89   45.90
   1  -2   1  971.80   46.60
   1  -2   1  885.91   45.60
  -1  -2  -1  938.91   46.10
  -1  -2  -1 1067.49   47.30
  -1  -2  -1  994.70   47.00
   1  -2   1 1012.20   47.80
   1   2   2  608.44   28.50
   1   2   2  590.24   28.70
  -1   2  -2  587.54   28.60
  -1   2  -2  612.44   28.10
   1  -2   2  583.54   29.40
  -1  -2  -2  593.24   29.50
  -1  -2  -2  609.74   29.30
   1  -2   2  576.34   30.80
   1   2   3 2011.60   92.59
  -1   2  -3 2062.19   91.29
   1   2   3 2057.79   91.59
  -1   2  -3 2001.50   92.29
  -1  -2  -3 2010.90   92.49
  -1  -2  -3 2026.50   92.39
   1  -2   3 2016.40   92.89
   1  -2   3 1959.00   93.69
   1   2   4  439.66   22.10
  -1   2  -4  451.85   21.90
   1   2   4  457.45   24.30
  -1  -2  -4  462.05   23.80
   1  -2   4  403.26   25.20
  -1  -2  -4  441.66   23.50
   1  -2   4  445.86   24.30
   1   2   5  442.86   21.70
  -1   2  -5  430.96   21.40
   1   2   5  420.56   23.50
  -1  -2  -5  422.66   23.80
  -1  -2  -5  406.06   26.60
   1  -2   5  429.56   25.90
   1   2   6  363.56   18.80
  -1   2  -6  345.77   20.50
   1   2   6  328.87   20.90
  -1   2  -6  360.86   18.70
   1  -2   6  355.16   21.80
  -1  -2  -6  376.46   20.40
  -1  -2  -6  367.36   20.50
   1  -2   6  296.07   22.00
   1   2   7   98.99   11.60
  -1   2  -7  123.49   11.10
   1   2   7  128.49   10.80
  -1   2  -7  126.29   11.10
  -1  -2  -7  116.29   11.30
  -1  -2  -7  118.79   11.70
   1  -2   7  108.29   12.90
   1  -2   7   94.09   11.50
   1   2   8  393.26   24.70
  -1   2  -8  394.16   23.90
  -1  -2  -8  396.16   24.90
   1  -2   8  386.56   25.20
  -1  -2  -8  426.06   24.20
   1  -2   8  357.56   25.80
  -1   2  -9   53.49    9.40
   1   2   9   44.70    9.60
  -1  -2  -9   59.39    9.70
   1  -2   9   53.59   10.70
   1  -2   9   37.50   15.60
  -1  -2  -9   43.30   10.60
  -1   3   9  663.23   38.50
   1   3  -9  656.53   36.80
  -1  -3   9  623.84   38.20
  -1  -3   9  604.64   40.50
   1  -3  -9  630.14   36.10
   1  -3  -9  649.34   41.30
   1   3  -8   90.99   12.00
  -1   3   8   66.79   10.50
   1  -3  -8   64.49    9.90
  -1  -3   8   51.09   10.20
  -1  -3   8   62.99   12.50
   1  -3  -8   62.99    9.20
   1   3  -7  761.12   40.00
  -1   3   7  773.42   40.80
   1  -3  -7  739.43   38.60
  -1  -3   7  781.72   39.90
   1  -3  -7  783.82   40.30
  -1  -3   7  685.43   42.00
  -1   3   6   -0.80    4.50
   1   3  -6    6.00    5.10
   1   3  -6    8.30    5.70
  -1   3   6    6.40    4.60
  -1  -3   6   -5.40    5.00
  -1  -3   6    7.40    7.10
   1  -3  -6    2.80    5.10
   1  -3  -6   11.80    4.60
  -1   3   5 1485.95   71.89
   1   3  -5 1508.05   71.39
   1   3  -5 1719.43   69.29
  -1   3   5 1432.36   68.79
  -1  -3   5 1404.76   73.49
   1  -3  -5 1508.25   70.39
   1  -3  -5 1456.15   71.69
  -1   3   4   18.90    4.10
   1   3  -4   19.40    4.20
  -1   3   4   16.40    4.30
  -1  -3   4   24.40    6.50
   1  -3  -4   23.40    4.90
   1  -3  -4   17.60    5.10
  -1  -3   4    8.30    6.10
  -1   3   3 1556.94   74.69
   1   3  -3 1590.54   74.89
   1   3  -3 1527.55   76.29
  -1   3   3 1614.44   76.69
   1  -3  -3 1591.44   74.99
  -1  -3   3 1866.91   80.89
   1  -3  -3 1595.04   77.19
  -1  -3   3 1778.72   75.39
  -1   3   2    3.10    3.80
  -1   3   2   -0.90    2.70
  -1   3   2    2.40    3.00
   1   3  -2    1.40    3.20
   1   3  -2    2.60    4.10
   1  -3  -2    4.80    4.00
   1  -3  -2    5.70    5.30
  -1  -3   2    5.60    7.30
  -1  -3   2    2.60    3.40
  -1   3   1 2023.70   86.59
   1   3  -1 1949.51   87.89
  -1   3   1 1917.11   88.39
  -1   3   1 1846.62   87.49
  -1  -3   1 1865.21   89.39
   1  -3  -1 1959.70   90.29
  -1  -3   1 1944.11   87.29
  -1  -3   1 1770.92   86.99
   1  -3  -1 2026.30   87.29
  -1  -3   1 1962.10   91.69
  -1   3   0  168.58    9.60
   1   3   0  177.18   10.10
  -1   3   0  178.28   11.50
  -1   3   0  188.48   11.60
   1   3   0  169.48   10.80
  -1   3   0  158.88   10.20
  -1  -3   0  173.38   14.90
  -1  -3   0  181.28   11.50
  -1  -3   0  188.68   13.80
   1  -3   0  164.08   14.10
  -1   3  -1 2615.74  118.09
  -1   3  -1 2532.55  118.49
   1   3   1 2645.44  118.89
   1   3   1 2731.13  118.49
  -1  -3  -1 2725.83  121.39
   1  -3   1 2586.14  121.89
   1  -3   1 2541.85  120.09
  -1  -3  -1 2605.94  120.59
  -1   3  -2 1788.42   83.69
  -1   3  -2 1852.31   83.59
   1   3   2 1859.31   83.99
   1   3   2 1899.01   83.99
   1  -3   2 1865.91   88.09
   1  -3   2 1802.92   84.99
  -1  -3  -2 1758.82   85.29
  -1  -3  -2 1845.32   86.19
   1   3   3 1870.01   86.29
  -1   3  -3 1879.31   85.39
   1   3   3 1959.70   85.79
  -1   3  -3 1853.91   86.19
   1  -3   3 1866.21   89.89
  -1  -3  -3 1919.01   87.09
  -1  -3  -3 1793.42   87.49
   1  -3   3 1829.32   87.09
  -1   3  -4  938.91   45.50
  -1   3  -4  966.20   44.00
   1   3   4  940.21   45.90
   1   3   4  928.81   44.20
   1  -3   4  943.51   49.40
  -1  -3  -4  904.21   47.30
  -1  -3  -4  896.41   45.70
   1  -3   4  920.01   46.60
  -1   3  -5 1506.45   72.19
   1   3   5 1560.14   70.59
   1   3   5 1550.74   72.59
  -1   3  -5 1580.74   70.39
  -1  -3  -5 1551.34   72.19
   1  -3   5 1438.46   73.89
   1  -3   5 1497.05   72.89
  -1  -3  -5 1511.05   72.39
  -1   3  -6   89.99   10.30
   1   3   6   64.09    9.40
  -1   3  -6   68.19    9.00
   1   3   6   86.99   10.40
   1  -3   6   86.69   11.20
   1  -3   6   81.99   10.10
  -1  -3  -6   67.99    9.70
  -1  -3  -6   83.39    9.50
   1   3   7  890.91   41.90
  -1   3  -7  840.52   42.80
   1   3   7  879.71   45.10
  -1   3  -7  863.21   44.00
  -1  -3  -7  868.71   44.20
  -1  -3  -7  857.81   44.10
   1  -3   7  843.32   46.00
   1  -3   7  803.02   45.60
   1   3   8   13.70    7.40
  -1   3  -8    7.20    6.50
  -1  -3  -8   13.80    7.60
   1  -3   8    6.80    9.60
   1  -3   8    3.50    9.00
  -1  -3  -8   13.60    7.30
  -1   4   8  185.18   18.20
   1   4  -8  165.38   17.40
  -1  -4   8  188.68   25.10
   1  -4  -8  149.69   17.20
   1  -4  -8  171.18   23.80
  -1  -4   8  144.09   15.80
   1   4  -7 1013.00   52.19
  -1   4   7 1090.59   53.39
  -1  -4   7 1046.10   51.69
  -1  -4   7  912.71   56.09
   1  -4  -7  965.60   52.59
   1  -4  -7 1043.10   51.09
  -1   4   6  105.09    9.00
  -1   4   6  130.09   12.90
   1   4  -6  100.79   12.30
   1  -4  -6  112.69   13.40
  -1  -4   6  122.99   17.80
   1  -4  -6  117.69   12.50
  -1  -4   6  134.99   14.30
  -1   4   5 2228.08  101.99
   1   4  -5 2160.38  104.29
  -1   4   5 2393.76  105.59
   1   4  -5 2296.17  102.39
   1  -4  -5 2189.08  105.69
  -1  -4   5 2038.60  108.19
   1  -4  -5 2361.86  104.09
  -1  -4   5 2202.58  103.89
   1   4  -4  144.89   10.10
  -1   4   4  166.08   12.30
  -1   4   4  147.09    9.80
  -1  -4   4  176.88   15.40
  -1  -4   4  153.78   17.10
   1  -4  -4  149.19   13.40
   1  -4  -4  149.79   14.50
  -1   4   3 2783.12  127.39
  -1   4   3 2777.02  125.69
   1   4  -3 2821.22  125.89
   1   4  -3 2794.22  127.89
   1  -4  -3 2778.12  126.49
  -1  -4   3 2813.62  125.99
  -1  -4   3 2685.03  131.69
   1  -4  -3 2709.23  128.99
  -1   4   2  403.96   21.00
   1   4  -2  417.56   21.30
  -1   4   2  440.26   23.30
   1   4  -2  417.46   23.00
  -1  -4   2  371.06   32.10
  -1  -4   2  374.56   21.70
   1  -4  -2  438.46   22.80
   1   4  -1 2957.20  129.29
  -1   4   1 2768.42  128.49
  -1   4   1 2928.01  129.39
   1   4  -1 2874.01  128.89
  -1   4   1 2792.72  127.19
  -1  -4   1 2528.95  128.19
   1  -4  -1 3018.00  128.09
   1  -4  -1 2826.52  132.09
  -1  -4   1 2809.12  133.49
  -1   4   0  446.66   22.70
  -1   4   0  472.15   25.00
  -1   4   0  458.25   23.40
   1   4   0  471.55   23.70
   1   4   0  474.35   23.50
  -1  -4   0  473.45   27.20
   1  -4   0  455.85   27.40
  -1  -4   0  456.85   27.40
   1   4   1 1367.86   60.69
  -1   4  -1 1253.47   60.59
   1   4   1 1307.77   60.99
  -1   4  -1 1331.87   60.19
   1  -4   1 1318.17   63.19
  -1  -4  -1 1291.87   63.59
   1  -4   1 1282.07   65.19
  -1  -4  -1 1266.97   64.29
   1   4   2  760.82   36.10
  -1   4  -2  733.23   35.60
  -1   4  -2  733.83   35.30
   1  -4   2  759.02   38.20
   1  -4   2  711.13   41.30
  -1  -4  -2  702.73   39.20
  -1  -4  -2  706.03   38.50
   1   4   3  445.26   22.50
  -1   4  -3  423.96   23.70
   1   4   3  436.66   24.00
   1  -4   3  420.36   26.10
  -1  -4  -3  404.26   25.80
  -1  -4  -3  436.66   27.30
   1   4   4  615.64   31.50
  -1   4  -4  594.84   31.20
  -1   4  -4  624.34   30.10
  -1  -4  -4  603.04   34.60
   1  -4   4  582.44   36.40
  -1  -4  -4  612.14   33.40
   1   4   5  992.70   48.30
   1   4   5 1001.60   46.40
  -1   4  -5  968.70   47.70
  -1   4  -5  949.71   46.00
  -1  -4  -5  984.70   48.80
   1  -4   5  953.40   52.69
   1  -4   5  877.31   50.99
  -1  -4  -5  992.90   49.60
   1   4   6  386.96   23.40
  -1   4  -6  377.76   22.60
   1   4   6  387.46   20.30
  -1   4  -6  361.26   20.20
  -1  -4  -6  356.66   24.10
   1  -4   6  359.96   27.10
  -1  -4  -6  363.76   23.70
   1  -4   6  358.96   24.40
  -1   4  -7  902.11   43.40
   1   4   7  886.11   44.70
   1   4   7  930.31   47.50
  -1   4  -7  910.91   46.40
   1  -4   7  858.31   48.20
  -1  -4  -7  916.01   47.60
   1  -4   7  829.12   50.69
  -1  -4  -7  921.61   48.00
   1   4   8  250.17   21.60
  -1   4  -8  285.87   19.80
  -1  -4  -8  259.27   22.30
  -1  -4  -8  248.68   21.40
   1  -4   8  276.37   27.60
   1  -4   8  252.17   24.90
   1   5  -7   48.90   17.50
  -1   5   7   77.09   12.20
  -1  -5   7   44.70   17.40
   1  -5  -7   60.69   12.60
   1   5  -6  990.80   50.29
   1   5  -6  947.11   46.60
  -1   5   6  995.60   51.09
  -1   5   6  968.10   46.50
   1  -5  -6  972.70   52.49
  -1  -5   6  893.51   56.79
   1   5  -5   26.80    5.60
  -1   5   5   28.30    7.50
   1   5  -5   33.30    8.00
  -1   5   5   31.40    5.50
   1  -5  -5   33.10    9.20
  -1  -5   5   14.70   12.90
   1   5  -4 1122.79   53.79
   1   5  -4 1135.99   55.39
  -1   5   4 1164.48   55.99
  -1   5   4 1154.58   53.79
   1  -5  -4 1101.39   58.49
  -1  -5   4 1062.79   62.39
  -1   5   3  111.39   11.10
   1   5  -3  114.39    9.40
  -1   5   3  118.09    9.30
   1   5  -3  101.89   12.50
   1  -5  -3   95.79   14.10
  -1  -5   3  121.69   14.60
  -1  -5   3   96.79   16.40
  -1   5   2 1612.64   74.89
  -1   5   2 1645.04   74.39
   1   5  -2 1629.84   76.89
   1   5  -2 1624.44   74.49
  -1  -5   2 1506.45   81.19
   1  -5  -2 1519.85   78.59
  -1  -5   2 1568.74   73.99
   1   5  -1  229.78   14.50
  -1   5   1  253.77   18.80
  -1   5   1  233.98   14.40
  -1   5   1  268.57   14.50
   1   5  -1  244.98   17.30
  -1  -5   1  208.98   22.20
  -1  -5   1  222.28   17.70
   1  -5  -1  225.88   19.20
  -1   5   0 1805.02   77.49
  -1   5   0 1664.53   78.69
   1   5   0 1655.83   78.79
   1  -5   0 1639.04   83.99
  -1  -5   0 1684.43   81.69
  -1  -5   0 1635.24   84.19
   1  -5   0 1726.63   81.99
  -1  -5   0 1694.93   79.89
  -1   5  -1  496.95   26.10
  -1   5  -1  501.85   26.00
   1   5   1  503.45   26.50
   1   5   1  536.55   27.10
  -1  -5  -1  520.85   31.70
   1  -5   1  491.45   32.10
   1  -5   1  499.15   31.10
  -1  -5  -1  489.25   31.30
   1   5   2 2758.72  122.19
  -1   5  -2 2661.33  121.99
   1   5   2 2679.33  122.19
  -1   5  -2 2780.12  121.69
  -1  -5  -2 2592.54  126.49
   1  -5   2 2541.45  128.89
  -1  -5  -2 2572.24  124.99
   1  -5   2 2689.33  124.19
   1   5   3  657.23   33.00
   1   5   3  672.53   32.90
  -1   5  -3  655.03   32.50
  -1  -5  -3  617.64   36.70
   1  -5   3  587.34   40.30
  -1  -5  -3  648.94   39.30
  -1   5  -4 1878.11   88.39
   1   5   4 1987.30   89.99
  -1   5  -4 1953.90   89.29
   1   5   4 1930.41   88.69
  -1  -5  -4 1876.51   92.99
   1  -5   4 1789.52   96.49
  -1  -5  -4 1865.51   91.99
   1  -5   4 1953.00   92.59
  -1   5  -5  326.67   19.70
   1   5   5  340.77   20.90
  -1   5  -5  305.47   18.30
   1   5   5  307.87   18.30
  -1  -5  -5  348.97   24.30
   1  -5   5  262.37   21.70
  -1  -5  -5  273.57   23.40
   1  -5   5  259.87   28.50
   1   5   6  985.10   48.00
   1   5   6 1055.99   51.39
  -1   5  -6 1067.59   50.59
  -1   5  -6  984.30   48.00
   1  -5   6  883.31   57.19
  -1  -5  -6 1008.30   52.79
   1  -5   6  901.41   51.99
  -1  -5  -6  984.10   53.59
  -1   6   5  275.27   20.90
   1   6  -5  262.07   17.90
  -1   6   5  266.37   17.20
   1   6  -5  258.77   20.70
   1  -6  -5  274.57   25.90
  -1  -6   5  216.98   28.50
  -1   6   4 1964.10   91.19
   1   6  -4 2016.40   92.69
  -1   6   4 1963.80   92.99
   1   6  -4 2013.20   91.49
   1  -6  -4 1871.31  100.69
  -1  -6   4 1847.32  103.29
  -1   6   3  198.08   15.20
  -1   6   3  168.28   13.10
   1   6  -3  167.28   13.60
   1   6  -3  189.38   15.10
  -1  -6   3  170.98   22.90
   1  -6  -3  219.78   21.20
   1   6  -2 2205.98   98.69
  -1   6   2 2080.59   98.19
   1   6  -2 2212.08   98.89
  -1   6   2 2134.69   98.89
  -1  -6   2 1992.10  106.89
   1  -6  -2 2008.50  104.59
   1   6  -1  240.18   16.70
  -1   6   1  265.17   17.20
  -1   6   1  246.18   16.30
   1   6  -1  293.07   16.90
  -1  -6   1  218.88   26.10
   1  -6  -1  249.48   23.90
   1   6   0 1653.23   75.99
  -1   6   0 1605.74   75.59
   1  -6   0 1619.84   82.19
   1  -6   0 1572.14   83.39
  -1  -6   0 1527.55   83.09
   1   6   1  305.27   18.50
  -1   6  -1  298.97   18.00
   1  -6   1  279.17   21.00
  -1  -6  -1  300.57   26.70
   1  -6   1  287.17   28.50
  -1   6  -2  881.41   43.20
   1   6   2  856.21   43.20
   1   6   2  874.01   43.60
   1  -6   2  859.01   45.10
  -1  -6  -2  833.42   49.50
   1  -6   2  841.22   53.09
  -1   6  -3  136.09   11.80
   1   6   3  134.79   12.20
   1   6   3  124.29   12.90
   1  -6   3  152.98   19.20
  -1  -6  -3  148.99   20.10
   1  -6   3  145.09   21.90
  -1   6  -4  790.82   38.80
   1   6   4  786.12   39.00
  -1   6  -4  771.32   39.40
   1   6   4  752.92   39.90
   1  -6   4  686.63   50.39
  -1  -6  -4  734.83   45.20
  -1   6  -5  200.98   16.10
   1   6   5  219.18   15.80
   1   6   5  238.18   19.00
  -1   6  -5  181.98   17.30
   1  -6   5  175.08   33.20
  -1  -6  -5  216.48   24.00
   1   7  -2   91.19   10.00
  -1   7   2   73.09    9.10
   1  -7  -2   92.69   17.90
  -1  -7   2   58.39   20.40
  -1   7   1 1032.20   49.99
   1   7  -1 1021.80   50.09
   1  -7  -1  932.31   59.59
  -1  -7   1  936.11   60.89
  -1   7   0  333.57   20.60
   1   7   0  335.37   20.80
  -1  -7   0  249.08   33.20
   1  -7   0  299.17   33.60
  -1   7  -1 1736.53   78.49
   1   7   1 1674.03   78.09
   1  -7   1 1507.05   89.19
  -1  -7  -1 1544.25   87.19
   2   0 -10 1324.87   66.19
  -2   0  10 1289.77   67.59
   2   0  -9   13.50    6.30
  -2   0   9    5.80    7.50
  -2   0   9    4.60    7.40
  -2   0   8 2575.84  123.69
   2   0  -8 2729.63  123.29
  -2   0   8 2602.84  123.49
  -2   0   7   -0.20    4.80
   2   0  -7   -4.50    4.50
  -2   0   7    7.30    4.60
   2   0  -6 3289.37  146.39
  -2   0   6 3067.79  146.29
  -2   0   6 3229.28  146.99
  -2   0   5    3.70    5.40
  -2   0   5    3.80    4.60
   2   0  -5   22.10    5.80
  -2   0   4 4171.08  197.08
  -2   0   4 4979.70  197.98
   2   0  -4 3965.20  196.68
  -2   0   3   12.70    4.10
  -2   0   3   12.80    3.40
   2   0  -2 2768.12  114.89
  -2   0   2 2361.66  115.19
  -2   0   2 2755.62  116.59
  -2   0   2 2531.45  115.89
   2   0  -2 2410.16  115.89
   2   0  -1   -8.60    2.60
   2   0  -1   -3.70    2.10
   2   0  -1  -11.30    1.30
   2   0  -1   -3.70    2.80
  -2   0   1   -7.20    1.70
  -2   0   1   -9.50    1.30
  -2   0   1  -13.10    1.90
  -2   0   1   -9.10    2.20
   2   0   0 2516.55  113.49
   2   0   0 2471.95  113.29
  -2   0   0 2628.04  113.09
   2   0   0 2596.24  112.99
   2   0   0 2574.54  112.79
  -2   0   0 2536.15  113.69
   2   0   0 2318.77  113.19
  -2   0   0 2460.95  112.69
   2   0   1   -6.40    1.60
  -2   0  -1   -7.00    1.70
  -2   0  -1   -5.50    1.60
   2   0   2 3050.19  140.99
  -2   0  -2 3166.68  139.79
   2   0   2 3286.97  139.59
  -2   0  -2 3203.28  140.29
  -2   0  -2 2930.81  140.69
   2   0   3    0.10    3.00
  -2   0  -3   -0.90    3.90
  -2   0  -3   -0.90    2.70
  -2   0  -3    2.40    2.50
   2   0   3    3.10    2.70
  -2   0  -4 5916.11  263.27
  -2   0  -4 5844.62  261.67
   2   0   4 5653.33  263.67
   2   0   4 6010.20  262.07
  -2   0  -5   -0.10    3.10
   2   0   5   10.00    4.20
  -2   0  -5    0.00    3.00
   2   0   5   -1.90    4.20
   2   0   6 4653.43  220.98
   2   0   6 5295.87  223.18
   2   0   6 4688.13  224.68
  -2   0  -6 5139.59  224.48
   2   0   7    2.90    5.10
  -2   0  -7    5.80    4.90
   2   0   7   -2.00    4.90
  -2   0  -7    8.70    7.80
   2   0   8 1752.12   87.99
  -2   0  -8 1872.11   87.19
   2   0   9   -5.00    7.30
  -2   0  -9    7.90    7.10
  -2   1   9  176.98   17.20
   2   1  -9  178.48   16.70
   2  -1  -9  203.98   16.10
  -2  -1   9  194.08   17.30
  -2  -1   9  193.38   18.60
   2  -1  -9  190.78   16.60
  -2   1   8  531.95   30.60
   2   1  -8  520.95   30.00
  -2  -1   8  493.25   30.00
   2  -1  -8  525.65   29.30
  -2  -1   8  549.85   31.10
   2  -1  -8  552.04   29.90
  -2   1   7  434.46   25.20
   2   1  -7  413.16   24.60
   2  -1  -7  450.75   24.60
   2  -1  -7  458.25   24.20
  -2  -1   7  390.76   24.50
  -2  -1   7  424.46   25.20
   2   1  -6 1256.07   62.49
  -2   1   6 1222.38   62.79
  -2  -1   6 1467.95   65.29
   2  -1  -6 1352.06   62.29
  -2  -1   6 1125.29   63.69
   2  -1  -6 1424.26   64.49
   2   1  -5 1007.10   49.50
  -2   1   5 1035.60   49.99
   2  -1  -5 1039.80   49.00
  -2  -1   5  969.90   49.00
   2  -1  -5 1033.80   49.50
   2   1  -4 3375.16  151.28
  -2   1   4 3230.28  151.58
  -2   1   4 3455.75  154.28
  -2   1   4 3200.28  153.98
   2   1  -4 3891.51  154.38
   2  -1  -4 3362.16  153.78
   2  -1  -4 3510.85  153.38
  -2  -1   4 3582.74  153.48
   2  -1  -4 2950.20  151.18
  -2   1   3 2781.82  139.49
  -2   1   3 3088.19  137.59
   2   1  -3 3636.04  137.89
   2  -1  -3 2986.90  138.69
   2  -1  -3 2912.21  139.29
   2   1  -2 5145.39  198.68
  -2   1   2 4079.29  199.68
  -2   1   2 4511.95  198.38
   2  -1  -2 4197.78  199.48
   2  -1  -2 3970.10  198.58
  -2  -1   2 4800.02  200.48
   2   1  -1 5843.12  273.07
   2   1  -1 5591.44  272.57
  -2   1   1 6394.56  273.07
  -2   1   1 5548.45  273.87
  -2  -1   1 6223.48  274.37
   2  -1  -1 6209.68  272.97
   2  -1  -1 6521.65  273.77
  -2  -1   1 6718.93  275.27
  -2   1   0 5140.19  226.08
  -2   1   0 5220.98  226.38
  -2   1   0 4938.61  227.18
   2   1   0 5005.00  226.78
   2   1   0 5000.70  225.88
   2   1   0 4996.90  226.38
  -2  -1   0 4859.41  225.98
   2  -1   0 5142.69  225.88
   2  -1   0 5544.45  226.68
  -2  -1   0 5141.19  226.98
  -2  -1   0 4835.22  228.08
   2   1   1 5270.97  226.88
   2   1   1 5192.38  226.78
  -2   1  -1 5278.97  226.78
  -2   1  -1 4970.80  226.58
   2   1   1 5103.89  226.68
  -2   1  -1 5198.68  226.68
  -2  -1  -1 5268.77  226.98
   2  -1   1 4838.82  226.68
  -2  -1  -1 4890.61  227.68
   2  -1   1 5023.00  226.98
  -2  -1  -1 4839.02  226.78
   2   1   2 3276.67  153.98
  -2   1  -2 3562.94  154.18
   2   1   2 3385.96  154.18
  -2   1  -2 3508.15  154.58
   2   1   2 3510.35  154.88
  -2   1  -2 3399.76  154.28
  -2  -1  -2 3456.45  155.18
  -2  -1  -2 3571.64  154.18
   2  -1   2 3288.47  155.18
   2  -1   2 3462.55  154.38
   2   1   3 2348.76  105.59
  -2   1  -3 2427.26  106.69
   2   1   3 2334.47  106.89
  -2   1  -3 2464.95  105.79
   2  -1   3 2202.98  107.09
   2  -1   3 2304.77  106.19
  -2  -1  -3 2434.36  105.79
  -2  -1  -3 2238.28  106.69
   2   1   4 1478.75   70.39
  -2   1  -4 1546.45   68.49
  -2   1  -4 1506.25   69.99
   2   1   4 1503.65   68.39
   2  -1   4 1442.16   70.49
  -2  -1  -4 1502.75   70.09
  -2  -1  -4 1590.94   68.99
   2  -1   4 1424.76   69.29
  -2   1  -5  275.07   15.70
  -2   1  -5  281.97   14.90
   2   1   5  257.57   16.00
   2   1   5  265.27   14.50
  -2  -1  -5  270.77   15.80
   2  -1   5  253.07   16.70
   2  -1   5  246.78   17.10
  -2  -1  -5  260.07   15.50
   2   1   6  890.91   40.50
  -2   1  -6  833.72   40.50
   2   1   6  837.62   43.30
  -2   1  -6  850.11   42.70
  -2  -1  -6  878.41   42.10
   2  -1   6  865.01   44.10
  -2  -1  -6  859.81   43.00
   2  -1   6  850.51   42.90
   2   1   7  338.37   22.20
  -2   1  -7  340.87   19.50
   2   1   7  358.96   19.40
  -2   1  -7  356.16   21.40
   2  -1   7  356.26   25.30
  -2  -1  -7  372.76   21.80
   2  -1   7  361.76   22.90
   2   1   8  512.55   31.50
  -2   1  -8  562.84   30.90
  -2  -1  -8  561.24   31.20
  -2  -1  -8  555.04   29.20
   2  -1   8  503.55   32.00
   2  -1   8  555.44   30.20
  -2   1  -9  528.85   30.10
   2   1   9  495.05   31.30
   2  -1   9  452.95   32.00
  -2  -1  -9  469.75   30.00
   2   2  -9 1726.23   85.49
  -2   2   9 1685.03   88.09
   2  -2  -9 1879.41   85.39
   2  -2  -9 1802.02   84.69
  -2  -2   9 1597.74   84.59
  -2  -2   9 1772.22   86.39
  -2   2   8   33.50    7.40
   2   2  -8   10.10    6.40
  -2  -2   8    7.70    7.40
  -2  -2   8   23.90    8.60
   2  -2  -8   15.20    6.30
   2  -2  -8    3.30    7.20
  -2   2   7 2803.82  136.59
   2   2  -7 3074.79  136.39
   2  -2  -7 2951.80  136.29
  -2  -2   7 2890.41  135.49
   2  -2  -7 2947.41  134.89
  -2  -2   7 2932.41  137.39
  -2   2   6   -1.50    3.20
   2   2  -6   -3.50    4.50
  -2   2   6    2.90    4.00
   2   2  -6   13.60    3.90
   2  -2  -6   21.20    6.50
  -2  -2   6    6.60    7.00
  -2  -2   6    2.70    5.70
   2  -2  -6   -4.80    4.50
  -2   2   5 2307.07  121.19
   2   2  -5 2897.31  121.69
  -2   2   5 2373.16  118.09
   2  -2  -5 2414.66  119.89
   2  -2  -5 2476.85  121.29
  -2  -2   5 2895.81  123.19
  -2  -2   5 3112.19  121.09
  -2   2   4    3.40    5.00
   2   2  -4    1.40    4.70
  -2   2   4    2.10    2.40
   2   2  -4    4.50    2.70
  -2  -2   4    0.00    6.90
   2  -2  -4    6.20    5.80
  -2  -2   4    1.90    4.30
   2  -2  -4    1.00    3.50
  -2   2   3 2837.52  133.89
  -2   2   3 2881.31  136.09
   2   2  -3 3358.76  136.39
   2   2  -3 3125.09  134.29
   2  -2  -3 2861.91  135.99
   2  -2  -3 2860.01  133.99
   2   2  -2  154.98    7.80
   2   2  -2  146.69    8.90
  -2   2   2  142.09    7.80
  -2   2   2  153.58    8.60
  -2   2   2  141.09   10.30
   2  -2  -2  154.98   11.00
  -2  -2   2  158.48   12.90
  -2  -2   2  131.99   11.50
  -2  -2   2  134.59    8.00
   2  -2  -2  159.68    7.80
   2   2  -1 3802.62  169.08
  -2   2   1 3484.15  169.78
  -2   2   1 3846.62  168.78
   2  -2  -1 3808.72  170.08
  -2  -2   1 3954.20  171.38
  -2  -2   1 3713.03  171.18
  -2   2   0   95.59    6.60
  -2   2   0  101.39    8.20
   2   2   0   94.99    6.90
  -2   2   0  104.99    5.30
   2   2   0   94.69    5.50
  -2  -2   0  106.89    5.90
  -2  -2   0   93.99   10.20
  -2  -2   0  107.99   10.30
   2  -2   0   95.39    5.60
   2  -2   0  116.49    9.50
  -2   2  -1 2846.02  126.99
   2   2   1 2998.90  127.29
  -2   2  -1 2921.01  127.59
   2   2   1 2900.11  127.79
  -2  -2  -1 2748.93  127.49
  -2  -2  -1 2883.71  129.09
   2  -2   1 2756.22  128.99
   2  -2   1 2583.64  127.19
   2  -2   1 2792.22  129.19
  -2  -2  -1 2921.01  129.69
   2   2   2   72.59    6.60
  -2   2  -2   77.89    6.20
  -2   2  -2   82.09    6.50
   2   2   2   77.59    6.80
   2  -2   2   89.09   10.40
  -2  -2  -2   82.39    8.30
  -2  -2  -2   90.69    8.70
   2  -2   2   69.59    8.50
   2   2   3 3771.42  171.58
  -2   2  -3 3962.80  171.48
  -2   2  -3 3812.22  172.08
   2   2   3 3847.91  172.38
   2  -2   3 3679.13  173.18
   2  -2   3 3903.41  173.28
  -2  -2  -3 3815.82  172.28
  -2  -2  -3 3748.92  172.88
   2   2   4   13.20    5.10
  -2   2  -4   12.80    4.60
   2   2   4   17.80    4.20
  -2  -2  -4   26.10    5.50
   2  -2   4   15.90    7.00
   2  -2   4   17.80    6.00
  -2  -2  -4   15.60    5.50
  -2   2  -5 3085.79  143.19
  -2   2  -5 3282.47  141.79
   2   2   5 3231.68  141.79
   2   2   5 3203.38  144.59
   2  -2   5 3005.40  143.79
  -2  -2  -5 3166.28  142.89
   2  -2   5 3025.00  144.49
  -2  -2  -5 3109.59  143.59
   2   2   6   72.99    7.60
  -2   2  -6   59.79    8.10
   2   2   6   52.19    7.80
  -2   2  -6   86.69    9.50
   2  -2   6   80.89   10.90
  -2  -2  -6   70.99    9.50
  -2  -2  -6   87.89    9.40
   2  -2   6   63.39   11.10
  -2   2  -7 1966.90   88.39
   2   2   7 1916.01   91.79
  -2   2  -7 1913.51   90.89
   2   2   7 1968.00   88.09
  -2  -2  -7 1958.90   91.39
   2  -2   7 1898.21   92.89
   2  -2   7 1826.82   90.49
  -2   2  -8   10.90    6.50
   2   2   8   -0.30    7.10
  -2  -2  -8   11.90    6.90
   2  -2   8    9.60    7.10
  -2  -2  -8    9.90    7.10
   2  -2   8    6.20    8.20
   2   2   9 1014.00   55.69
  -2   2  -9 1099.09   55.09
  -2  -2  -9 1078.59   55.79
   2  -2   9 1061.49   57.49
  -2   3   9  538.15   33.30
   2   3  -9  553.74   31.60
   2  -3  -9  506.65   30.50
  -2  -3   9  461.95   31.70
  -2  -3   9  439.56   36.70
   2  -3  -9  502.55   32.20
   2   3  -8   11.60    8.00
  -2   3   8   24.00    8.20
   2  -3  -8   26.00    7.30
   2  -3  -8   17.30    8.30
  -2  -3   8   16.20    8.00
  -2  -3   8   15.30    9.90
  -2   3   7  509.85   30.80
   2   3  -7  521.25   30.40
  -2  -3   7  621.94   30.40
   2  -3  -7  517.35   30.60
  -2  -3   7  511.15   32.70
   2  -3  -7  508.25   28.50
  -2   3   6  314.27   20.30
  -2   3   6  303.17   17.00
   2   3  -6  344.77   20.30
   2  -3  -6  299.57   20.10
  -2  -3   6  325.47   22.70
   2  -3  -6  305.27   20.40
  -2   3   5  752.32   40.90
   2   3  -5  792.32   40.70
   2   3  -5  896.11   38.50
  -2   3   5  760.62   38.10
   2  -3  -5  772.42   41.00
   2  -3  -5  767.92   39.30
  -2  -3   5  917.21   44.10
   2   3  -4 1667.53   77.59
   2   3  -4 1594.04   79.59
  -2   3   4 1616.74   77.29
  -2   3   4 1709.03   80.29
   2  -3  -4 1690.83   80.29
   2  -3  -4 1634.94   77.59
  -2  -3   4 1996.30   83.29
  -2   3   3  780.82   38.90
  -2   3   3  864.71   39.60
  -2   3   3  898.11   42.40
   2   3  -3  864.51   40.10
   2   3  -3  828.72   41.70
   2  -3  -3  904.31   39.30
  -2  -3   3  763.02   39.20
   2   3  -2 1583.74   78.69
   2   3  -2 1744.63   77.79
  -2   3   2 1693.73   77.29
  -2   3   2 1705.23   78.99
  -2  -3   2 1618.54   80.29
  -2  -3   2 1810.42   82.59
   2  -3  -2 1716.13   79.89
  -2   3   1  969.70   48.10
  -2   3   1 1000.90   47.00
   2   3  -1 1055.69   47.50
  -2  -3   1 1005.50   51.39
   2  -3  -1  994.90   49.60
  -2  -3   1 1024.70   50.29
  -2   3   0 2459.05  112.79
  -2   3   0 2657.73  110.59
  -2   3   0 2370.86  109.89
   2   3   0 2526.95  110.49
   2   3   0 2546.35  111.99
  -2   3   0 2442.76  111.49
  -2  -3   0 2439.26  114.69
  -2  -3   0 2495.55  114.79
  -2  -3   0 2262.47  110.39
   2  -3   0 2435.96  114.19
   2   3   1 1329.57   59.79
  -2   3  -1 1324.07   59.49
  -2   3  -1 1320.77   60.39
   2   3   1 1331.57   60.89
   2  -3   1 1246.98   62.69
  -2  -3  -1 1314.57   63.29
  -2  -3  -1 1256.97   63.59
   2  -3   1 1336.17   63.89
   2   3   2 1453.15   65.99
  -2   3  -2 1417.76   65.49
   2   3   2 1433.66   65.49
  -2   3  -2 1451.65   65.39
  -2  -3  -2 1405.66   68.39
  -2  -3  -2 1422.36   67.99
   2  -3   2 1392.66   67.69
   2  -3   2 1392.96   69.59
  -2   3  -3  791.32   38.30
  -2   3  -3  772.62   37.90
   2   3   3  811.12   39.00
   2   3   3  788.12   38.30
  -2  -3  -3  790.32   40.70
   2  -3   3  760.52   42.70
  -2  -3  -3  841.12   41.00
   2  -3   3  793.52   40.80
   2   3   4  230.78   19.10
  -2   3  -4  261.77   16.60
   2   3   4  286.87   15.80
  -2   3  -4  253.37   15.10
   2  -3   4  250.97   21.60
   2  -3   4  262.17   17.40
  -2  -3  -4  250.77   18.40
  -2   3  -5  854.41   41.60
   2   3   5  841.52   41.90
  -2   3  -5  878.01   40.50
   2  -3   5  844.22   43.40
  -2  -3  -5  834.62   42.10
  -2  -3  -5  855.41   42.50
   2  -3   5  764.92   44.50
   2   3   6  133.49   11.70
   2   3   6  143.89   10.00
  -2   3  -6  113.29    9.70
  -2   3  -6  134.99   11.40
  -2  -3  -6  113.59   11.90
   2  -3   6  106.29   13.60
  -2  -3  -6  124.89   12.00
   2   3   7  539.55   31.50
  -2   3  -7  545.65   28.30
   2   3   7  578.84   28.30
  -2   3  -7  567.54   30.60
   2  -3   7  544.55   33.80
  -2  -3  -7  591.14   31.40
   2  -3   7  538.45   32.70
  -2  -3  -7  549.65   31.60
   2   3   8   46.90   11.30
  -2   3  -8   73.19   10.20
  -2  -3  -8   49.20   10.00
   2  -3   8   49.90   10.80
  -2  -3  -8   62.69   10.60
   2  -3   8   60.19   12.20
  -2   4   8  554.04   33.70
   2   4  -8  511.95   31.70
  -2  -4   8  426.36   40.70
   2  -4  -8  523.25   32.40
  -2   4   7   16.10    8.00
   2   4  -7    7.60    7.60
  -2  -4   7   24.40   11.80
  -2  -4   7   29.10    8.50
   2  -4  -7   26.70    9.20
  -2   4   6  736.43   38.90
   2   4  -6  841.92   43.20
  -2   4   6  837.22   43.80
   2   4  -6  848.62   40.60
   2  -4  -6  727.53   43.30
  -2  -4   6  959.70   43.90
   2  -4  -6  814.32   42.40
  -2  -4   6  802.82   47.30
   2   4  -5   94.29   10.90
   2   4  -5   88.99    8.40
  -2   4   5   92.19    7.90
  -2   4   5  113.39   11.60
   2  -4  -5  121.49   14.00
  -2  -4   5  125.39   15.00
   2  -4  -5   89.09   11.90
  -2  -4   5  100.09   14.30
   2   4  -4  546.95   30.20
  -2   4   4  570.54   27.80
   2   4  -4  600.14   28.30
  -2   4   4  588.84   30.70
   2  -4  -4  558.74   29.20
  -2  -4   4  546.65   29.00
   2  -4  -4  583.24   31.60
  -2  -4   4  503.45   34.50
  -2   4   3  199.28   14.00
   2   4  -3  201.68   14.00
  -2   4   3  205.88   11.80
   2   4  -3  198.88   12.30
  -2  -4   3  194.18   13.10
   2  -4  -3  207.08   13.70
   2  -4  -3  196.08   15.30
  -2  -4   3  203.88   18.70
   2   4  -2  551.94   29.80
  -2   4   2  520.15   27.00
   2   4  -2  582.64   27.80
  -2  -4   2  518.55   32.80
   2  -4  -2  571.04   32.30
  -2   4   1  205.88   11.90
   2   4  -1  214.58   12.50
  -2   4   1  213.68   14.90
   2  -4  -1  200.78   15.50
  -2  -4   1  163.68   17.20
  -2  -4   1  207.68   18.90
   2   4   0  336.67   16.90
  -2   4   0  303.77   17.10
  -2   4   0  318.67   15.60
  -2   4   0  312.87   16.70
  -2   4   0  325.87   19.80
   2  -4   0  306.07   21.00
  -2  -4   0  326.57   21.50
  -2  -4   0  350.66   23.50
   2  -4   0  341.77   22.40
  -2   4  -1  375.56   19.00
   2   4   1  390.16   19.90
  -2   4  -1  383.66   20.90
   2   4   1  402.06   20.80
   2  -4   1  369.86   24.00
  -2  -4  -1  350.26   26.40
   2  -4   1  378.86   24.80
  -2  -4  -1  356.56   23.60
   2   4   2  610.44   29.80
  -2   4  -2  579.54   29.30
  -2   4  -2  593.44   29.10
   2   4   2  542.45   31.00
  -2  -4  -2  630.94   33.00
   2  -4   2  617.54   34.90
   2  -4   2  585.34   33.20
  -2  -4  -2  557.04   35.10
   2   4   3   14.60    6.00
  -2   4  -3   14.10    5.40
   2   4   3    4.70    3.70
  -2   4  -3   12.80    3.20
   2  -4   3   12.80    5.80
  -2  -4  -3    8.20    9.80
   2  -4   3   10.90    7.90
   2   4   4 1047.60   49.00
  -2   4  -4 1039.90   49.20
  -2   4  -4 1006.00   48.40
   2   4   4 1021.00   49.60
  -2  -4  -4 1007.90   51.79
   2  -4   4  999.40   54.19
  -2  -4  -4 1022.30   51.79
   2   4   5   15.50    5.00
  -2   4  -5    1.50    4.80
   2   4   5    6.10    4.30
  -2   4  -5    8.70    4.20
  -2  -4  -5   -3.30    6.70
   2  -4   5    4.50    6.90
   2  -4   5    2.30    9.30
  -2  -4  -5   10.30    6.70
   2   4   6  775.32   41.00
  -2   4  -6  789.82   40.50
   2   4   6  782.02   39.00
  -2   4  -6  785.52   39.00
   2  -4   6  741.93   44.50
  -2  -4  -6  848.82   43.00
  -2  -4  -6  806.72   42.80
   2  -4   6  808.52   43.50
  -2   4  -7   -7.40    5.80
   2   4   7    2.20    6.60
  -2   4  -7    0.70    5.30
   2   4   7    5.10    5.90
   2  -4   7   -5.50    9.20
   2  -4   7   -5.80   11.30
  -2  -4  -7  -13.30    8.50
  -2  -4  -7   -0.50    8.40
  -2   5   7   51.69   11.00
   2   5  -7   39.50   10.70
  -2  -5   7   46.90   17.70
   2  -5  -7   34.20   11.60
   2   5  -6  466.75   28.60
  -2   5   6  492.85   29.30
   2   5  -6  398.46   24.30
  -2   5   6  453.75   24.10
  -2  -5   6  437.16   35.60
   2  -5  -6  454.05   30.30
  -2   5   5   10.90    6.60
   2   5  -5    2.50    4.40
   2   5  -5    4.70    6.20
  -2   5   5    6.90    4.30
  -2  -5   5   21.80   12.70
   2  -5  -5   20.00    8.20
  -2   5   4  217.18   16.00
   2   5  -4  189.98   15.80
   2   5  -4  203.98   13.60
  -2   5   4  200.28   13.10
  -2  -5   4  208.48   23.30
   2  -5  -4  209.48   18.30
   2   5  -3   97.59   10.40
  -2   5   3  118.09   10.80
   2   5  -3   84.69    8.80
  -2   5   3   80.79    8.20
  -2  -5   3   76.49   14.50
   2  -5  -3   77.89   11.60
   2   5  -2  328.07   18.40
  -2   5   2  307.47   17.90
   2   5  -2  340.37   21.60
  -2   5   2  319.77   19.40
   2  -5  -2  333.57   23.20
  -2  -5   2  292.67   26.10
   2   5  -1  291.87   16.50
  -2   5   1  286.57   17.50
  -2   5   1  266.57   15.90
  -2  -5   1  241.88   23.70
   2  -5  -1  262.37   20.70
  -2  -5   1  272.87   19.80
   2   5   0  139.69   10.20
  -2   5   0  127.09    9.80
   2  -5   0  121.49   16.00
   2  -5   0  106.69   13.70
  -2  -5   0  121.29   16.90
  -2  -5   0  149.19   14.80
   2   5   1  299.17   18.00
   2   5   1  321.17   18.50
  -2   5  -1  317.87   17.00
  -2   5  -1  304.97   17.60
   2  -5   1  309.47   21.10
  -2  -5  -1  324.47   30.90
   2  -5   1  296.77   24.60
  -2  -5  -1  317.27   23.40
   2   5   2  242.08   15.00
  -2   5  -2  244.78   15.50
   2   5   2  233.28   16.70
  -2   5  -2  227.48   14.30
   2  -5   2  232.18   23.30
  -2  -5  -2  230.28   19.10
   2  -5   2  237.18   18.00
  -2  -5  -2  231.88   19.90
   2   5   3    9.10    4.30
  -2   5  -3   10.20    7.10
   2   5   3    4.20    6.30
  -2   5  -3    3.90    3.90
  -2  -5  -3    7.50    9.00
   2  -5   3    6.10    7.10
  -2  -5  -3    9.10    7.40
   2  -5   3   13.80   11.20
  -2   5  -4  532.55   28.40
   2   5   4  571.84   29.10
  -2   5  -4  570.64   28.80
   2   5   4  564.94   29.70
  -2  -5  -4  536.75   33.60
   2  -5   4  522.95   37.50
  -2  -5  -4  508.75   33.40
   2  -5   4  559.04   32.60
   2   5   5   50.19    7.90
  -2   5  -5   44.50    6.30
   2   5   5   38.80    6.80
  -2   5  -5   44.00    7.20
  -2  -5  -5   48.70   11.00
   2  -5   5   42.40   10.60
   2  -5   5   31.50   14.50
  -2  -5  -5   41.50   11.50
   2   5   6  420.26   23.40
  -2   5  -6  394.46   23.20
  -2   5  -6  430.16   24.80
   2   5   6  413.66   26.10
  -2  -5  -6  422.86   29.60
  -2  -5  -6  423.16   28.90
   2  -5   6  339.57   33.60
   2  -5   6  397.56   29.00
  -2   6   5   73.29    8.90
   2   6  -5   68.59    8.30
   2   6  -5   67.69   11.20
  -2   6   5   70.19   11.00
   2  -6  -5   49.90   13.70
  -2  -6   5   35.60   20.00
   2   6  -4  163.58   15.60
  -2   6   4  149.99   12.70
   2   6  -4  164.68   13.40
  -2   6   4  162.28   15.90
   2   6  -3   50.19    9.10
   2   6  -3   51.49    7.30
  -2   6   3   49.40    7.20
  -2   6   3   49.50    8.10
  -2  -6   3   43.70   15.80
   2  -6  -3   37.70   10.70
  -2   6   2  347.97   20.60
   2   6  -2  326.67   21.90
  -2   6   2  367.06   22.30
   2   6  -2  377.36   21.30
  -2  -6   2  342.87   31.80
   2  -6  -2  348.27   27.80
   2   6  -1   39.40    7.20
  -2   6   1   52.79    7.10
  -2   6   1   50.89    8.30
   2   6  -1   53.79    7.10
   2  -6  -1   50.19   12.70
   2  -6  -1   41.20   10.40
  -2  -6   1   46.90   13.20
  -2   6   0  541.55   29.10
   2   6   0  553.14   29.40
  -2  -6   0  542.15   38.40
  -2  -6   0  538.35   33.00
   2  -6   0  522.05   32.90
   2  -6   0  590.14   37.80
   2   6   1  143.59   12.10
  -2   6  -1  132.79   11.00
   2  -6   1  144.59   20.00
  -2  -6  -1  123.49   17.40
   2  -6   1  112.79   13.70
  -2  -6  -1  149.29   21.10
   2   6   2  255.27   17.40
  -2   6  -2  270.67   16.80
  -2  -6  -2  253.47   23.30
   2  -6   2  229.18   29.20
   2  -6   2  263.17   21.50
  -2  -6  -2  286.77   25.00
   2   6   3   16.10    6.10
  -2   6  -3   13.40    5.80
   2  -6   3   21.10   10.20
  -2  -6  -3   29.70   15.90
  -2  -6  -3   29.40   12.00
   2  -6   3    9.00   15.20
   2   6   4    1.50    6.30
  -2   6  -4   11.60    5.90
   2  -6   4    6.70   17.10
   2  -6   4   35.30   11.00
  -2  -6  -4    5.20   11.90
  -2   7   1    9.00    6.00
   2   7  -1   22.80    7.00
   2  -7  -1   12.70   13.60
  -2  -7   1   32.20   16.50
   2  -7  -1   15.90   15.20
   2   7   0  120.19   12.80
  -2   7   0  112.29   12.30
  -2  -7   0   87.69   20.00
   2  -7   0  110.29   19.50
  -2   7  -1    4.80    6.10
   2   7   1    0.60    6.10
  -2  -7  -1   30.50   16.90
   2  -7   1    9.50   17.80
   3   0 -10   61.39   10.60
   3   0  -9   -8.90    6.70
  -3   0   9    7.80    7.30
  -3   0   9    1.30    7.00
   3   0  -8  341.67   21.40
  -3   0   8  335.87   22.70
  -3   0   8  329.37   21.80
   3   0  -7   -4.00    4.30
  -3   0   7    2.40    5.00
  -3   0   7    8.10    4.80
   3   0  -6  979.20   47.70
  -3   0   6  981.20   48.60
  -3   0   6  946.91   47.60
  -3   0   5    3.90    5.20
   3   0  -5    1.20    4.90
  -3   0   5    2.00    6.40
   3   0  -4 1292.97   54.99
   3   0  -4 1181.68   57.59
  -3   0   4 1180.18   57.69
   3   0  -3    0.60    3.20
  -3   0   3   -1.20    3.10
   3   0  -3   -0.40    2.40
  -3   0   3    1.10    4.00
  -3   0   3   -0.40    2.10
  -3   0   2    4.00    3.40
  -3   0   2    3.20    2.90
  -3   0   2    6.80    3.60
  -3   0   1   -2.00    2.40
  -3   0   1   -0.10    2.40
  -3   0   1   -1.90    3.50
  -3   0   1   -3.20    1.70
   3   0   0    9.10    2.80
   3   0   0   13.60    3.10
  -3   0   0   10.10    2.60
  -3   0   0   11.20    3.80
  -3   0  -1   -4.40    2.20
   3   0   1   -4.00    2.10
  -3   0  -1   -4.60    2.60
  -3   0  -2   -5.10    2.40
  -3   0  -2   -0.10    2.80
   3   0   2   -4.10    2.80
  -3   0  -3    1.90    2.30
  -3   0  -3   -2.50    3.40
  -3   0  -3   -0.50    2.90
   3   0   3   -1.30    3.30
  -3   0  -3    4.10    3.50
   3   0   4   23.10    5.70
  -3   0  -4   37.20    6.10
  -3   0  -4   28.30    6.80
  -3   0  -4   22.70    4.40
  -3   0  -4   20.50    3.70
  -3   0  -5   -1.70    4.30
  -3   0  -5    2.80    4.10
  -3   0  -6  327.77   19.50
   3   0   6  308.57   17.80
   3   0   6  328.07   20.60
  -3   0  -6  339.57   18.90
  -3   0  -7    7.10    4.90
   3   0   7    2.80    5.40
  -3   0  -7    9.60    7.60
   3   0   7    9.60    6.30
   3   0   8  360.46   24.60
  -3   0  -8  394.46   24.20
   3   0   9   -8.20    7.70
  -3   0  -9    4.20    8.50
  -3   1   9   28.40    8.40
   3   1  -9   28.20    8.10
   3  -1  -9   24.10    7.70
  -3  -1   9   30.30    8.30
  -3  -1   9   40.00    9.50
   3  -1  -9   37.00    9.20
  -3   1   8  366.16   22.70
   3   1  -8  330.07   21.90
  -3  -1   8  329.97   22.70
  -3  -1   8  285.27   21.70
   3  -1  -8  327.57   21.30
   3  -1  -8  343.37   21.30
   3   1  -7   39.60    7.30
  -3   1   7   34.80    6.40
   3  -1  -7   32.00    6.30
   3  -1  -7   39.20    6.70
  -3  -1   7   36.20    7.60
  -3  -1   7   23.50    6.20
  -3   1   6  203.58   14.60
   3   1  -6  244.98   14.90
  -3   1   6  201.28   14.70
   3  -1  -6  200.98   14.10
  -3   1   5  302.67   19.90
   3   1  -5  307.37   21.30
   3   1  -5  365.66   16.60
  -3  -1   5  409.96   21.80
  -3  -1   5  336.07   20.30
   3  -1  -5  350.36   20.10
  -3   1   4  352.46   16.70
  -3   1   4  358.76   20.30
   3   1  -4  330.07   19.80
  -3   1   4  350.26   20.40
   3   1  -4  367.26   16.80
  -3  -1   4  392.86   19.20
   3  -1  -4  300.27   16.60
   3  -1  -4  337.17   18.80
  -3   1   3   50.49    7.00
  -3   1   3   46.90    4.40
   3   1  -3   47.90    6.50
   3   1  -3   48.20    4.30
  -3   1   3   41.10    6.10
   3  -1  -3   40.60    5.50
  -3  -1   3   54.09    6.20
  -3  -1   3   44.10    7.10
   3  -1  -3   46.00    6.20
   3   1  -2  664.03   30.10
   3   1  -2  654.23   30.20
  -3   1   2  671.33   30.20
  -3   1   2  608.34   31.60
  -3  -1   2  665.83   33.10
  -3  -1   2  698.13   30.40
  -3  -1   2  633.84   32.30
   3  -1  -2  692.33   31.50
   3  -1  -2  616.34   30.40
   3  -1  -2  587.44   31.20
   3   1  -1  140.39    7.80
  -3   1   1  148.69    8.70
  -3   1   1  140.99    7.80
  -3   1   1  118.59    9.00
   3   1  -1  131.59    7.60
   3  -1  -1  130.09    8.70
  -3  -1   1  133.09    9.80
   3  -1  -1  142.59    8.80
  -3   1   0 1341.57   58.89
  -3   1   0 1333.67   58.69
   3   1   0 1252.97   58.59
   3   1   0 1211.18   58.89
   3   1   0 1293.77   58.19
  -3   1   0 1247.08   58.29
  -3  -1   0 1328.87   59.19
   3  -1   0 1342.47   58.59
  -3  -1   0 1260.17   58.59
   3  -1   0 1248.08   59.89
   3  -1   0 1244.68   58.29
  -3  -1   0 1328.97   61.29
   3   1   1    4.70    2.10
  -3   1  -1    6.70    2.50
   3   1   1    6.00    3.70
  -3   1  -1    6.50    2.50
   3   1   1    3.00    2.30
  -3   1  -1    4.50    2.30
  -3  -1  -1    8.40    3.10
   3  -1   1    8.00    3.20
   3  -1   1    6.90    3.10
  -3  -1  -1    3.70    3.50
   3   1   2 1970.30   89.09
  -3   1  -2 1972.50   88.99
   3   1   2 1952.10   89.59
  -3   1  -2 2049.70   89.79
  -3   1  -2 2030.20   90.09
   3   1   2 1954.40   90.19
  -3  -1  -2 2009.60   89.39
   3  -1   2 1919.91   90.99
   3  -1   2 1950.01   89.29
  -3  -1  -2 1985.80   90.99
  -3   1  -3  315.77   17.00
   3   1   3  301.97   16.10
  -3   1  -3  312.47   16.60
   3   1   3  319.47   17.60
  -3   1  -3  328.07   16.40
  -3  -1  -3  307.47   17.70
   3  -1   3  298.87   18.20
  -3  -1  -3  334.77   16.00
   3  -1   3  306.87   16.30
  -3  -1  -3  270.87   16.00
   3   1   4 1201.08   57.19
  -3   1  -4 1264.47   56.89
   3   1   4 1193.88   55.19
  -3   1  -4 1257.07   55.59
  -3  -1  -4 1202.08   54.99
   3  -1   4 1215.38   55.59
   3  -1   4 1078.49   58.79
  -3  -1  -4 1126.29   57.09
   3   1   5   35.50    5.30
  -3   1  -5   32.50    5.80
   3  -1   5   57.59    7.80
  -3  -1  -5   34.60    5.70
   3  -1   5   35.80    6.90
  -3  -1  -5   38.70    5.80
  -3   1  -6  397.46   21.90
   3   1   6  399.86   23.50
   3   1   6  403.26   21.60
  -3   1  -6  417.76   23.20
   3  -1   6  392.86   24.60
   3  -1   6  421.06   23.90
  -3  -1  -6  398.16   23.40
  -3  -1  -6  436.26   22.70
  -3   1  -7    8.80    6.80
   3   1   7   14.20    5.90
   3   1   7   20.10    6.70
  -3   1  -7   20.30    5.60
  -3  -1  -7   11.20    5.30
  -3  -1  -7   15.30    7.90
   3  -1   7    6.50    9.40
   3  -1   7   25.40    6.90
   3   1   8  114.89   14.90
  -3   1  -8  138.59   13.70
   3  -1   8  141.19   16.00
  -3  -1  -8  169.08   14.80
   3   1   9   -1.50    8.30
  -3   1  -9    7.20    7.30
   3  -1   9    6.80    8.90
  -3  -1  -9   18.10    8.50
   3   2  -9  111.39   14.50
  -3   2   9   96.09   13.00
   3  -2  -9  120.19   14.70
  -3  -2   9  101.99   14.10
  -3  -2   9  111.09   13.50
   3  -2  -9  125.49   14.30
  -3   2   8  238.98   19.70
   3   2  -8  267.17   19.10
   3  -2  -8  256.47   19.10
  -3  -2   8  235.88   18.50
   3  -2  -8  252.97   17.50
   3   2  -7  556.94   31.20
  -3   2   7  529.15   31.60
  -3  -2   7  644.24   33.50
  -3  -2   7  556.64   31.70
   3  -2  -7  555.24   31.50
   3  -2  -7  526.95   29.40
  -3   2   6  230.58   17.60
   3   2  -6  313.47   14.70
  -3   2   6  254.17   14.40
   3   2  -6  293.27   18.00
   3  -2  -6  248.98   17.80
  -3  -2   6  311.37   19.40
   3  -2  -6  258.57   18.00
  -3  -2   6  311.07   19.60
  -3   2   5 1213.78   59.19
   3   2  -5 1481.55   59.59
   3  -2  -5 1207.08   60.89
   3   2  -4  320.97   15.50
  -3   2   4  265.47   15.00
   3   2  -4  331.67   18.90
   3  -2  -4  268.57   16.10
   3  -2  -4  267.07   19.30
  -3  -2   4  354.96   23.40
   3   2  -3 1251.77   56.39
   3   2  -3 1142.69   55.79
   3   2  -3 1311.77   58.89
  -3   2   3 1204.58   56.09
  -3   2   3 1110.49   58.39
   3  -2  -3 1161.38   58.29
  -3  -2   3 1318.47   60.29
  -3  -2   3 1356.26   56.09
   3  -2  -3 1181.88   55.99
  -3   2   2 1475.45   63.99
  -3   2   2 1315.77   65.59
   3   2  -2 1386.86   64.09
  -3  -2   2 1288.67   67.09
   3  -2  -2 1400.46   63.39
   3  -2  -2 1462.85   65.79
   3  -2  -2 1451.85   62.89
  -3  -2   2 1399.56   66.99
  -3   2   1  862.71   44.90
  -3   2   1  975.10   43.60
   3   2  -1  926.91   43.70
   3  -2  -1  936.51   44.70
  -3  -2   1  989.50   46.50
  -3  -2   1  943.21   47.50
  -3   2   0 1138.69   56.09
   3   2   0 1210.28   53.49
  -3   2   0 1215.48   54.69
   3   2   0 1157.48   54.79
  -3   2   0 1083.79   54.59
  -3  -2   0 1247.78   56.79
   3  -2   0 1232.48   55.99
   3  -2   0 1254.27   53.59
  -3  -2   0 1153.18   58.09
  -3  -2   0 1156.98   53.69
  -3   2  -1  107.39    7.60
   3   2   1  105.99    7.10
   3   2   1  104.69    7.90
  -3   2  -1  106.79    6.90
  -3  -2  -1  106.99   10.20
   3  -2   1  113.79   11.00
  -3  -2  -1  101.49   11.50
   3  -2   1  103.49   10.00
  -3   2  -2 1255.17   57.59
   3   2   2 1249.18   57.79
   3   2   2 1250.97   57.79
  -3   2  -2 1246.08   57.49
   3  -2   2 1262.27   59.29
  -3  -2  -2 1236.18   59.79
   3  -2   2 1216.98   59.69
  -3  -2  -2 1245.78   58.59
   3   2   3   18.30    4.20
  -3   2  -3   17.10    4.30
  -3   2  -3   17.60    4.00
   3   2   3   20.40    4.60
  -3  -2  -3   36.30    6.90
  -3  -2  -3   17.90    5.40
   3  -2   3   22.00    6.10
   3  -2   3   23.70    6.70
  -3   2  -4 1237.88   57.99
   3   2   4 1251.57   57.29
  -3   2  -4 1253.87   57.29
   3   2   4 1241.18   58.69
   3  -2   4 1150.48   59.29
   3  -2   4 1196.88   58.49
  -3  -2  -4 1240.08   57.79
  -3  -2  -4 1225.98   58.89
  -3   2  -5  185.98   12.60
   3   2   5  185.88   13.30
  -3   2  -5  193.88   13.10
   3   2   5  196.68   13.20
  -3  -2  -5  200.28   14.90
   3  -2   5  183.78   14.40
   3  -2   5  185.58   16.50
  -3  -2  -5  185.88   13.30
  -3   2  -6  268.27   19.80
   3   2   6  261.67   16.60
  -3   2  -6  257.67   16.90
   3   2   6  246.68   17.60
   3  -2   6  281.97   19.10
  -3  -2  -6  254.87   17.60
   3  -2   6  260.67   21.10
  -3  -2  -6  294.07   18.80
  -3   2  -7  602.24   30.30
   3   2   7  580.64   33.60
  -3   2  -7  620.04   33.30
  -3  -2  -7  619.34   31.80
   3  -2   7  614.24   36.10
  -3  -2  -7  616.84   33.90
  -3   2  -8  164.78   15.10
   3   2   8  164.48   16.10
   3  -2   8  172.78   19.20
  -3  -2  -8  146.59   16.00
   3   3  -9  704.63   40.60
  -3   3   9  691.63   41.00
  -3  -3   9  726.73   40.10
   3  -3  -9  653.43   40.80
  -3  -3   9  718.33   43.80
   3  -3  -9  684.93   38.40
  -3   3   8   43.80    9.00
   3   3  -8   40.60   10.10
  -3  -3   8   61.69    9.10
   3  -3  -8   42.00    7.80
   3  -3  -8   26.10    9.60
  -3  -3   8   45.80   11.90
   3   3  -7  978.20   48.20
  -3   3   7  816.72   48.30
   3  -3  -7  780.52   47.80
   3  -3  -7  846.52   47.30
  -3  -3   7 1081.89   51.69
  -3  -3   7 1063.99   46.50
  -3   3   6  509.25   31.60
   3   3  -6  657.73   28.30
   3   3  -6  606.24   31.50
  -3   3   6  490.05   27.60
  -3  -3   6  661.63   31.60
   3  -3  -6  487.45   29.60
  -3  -3   6  624.64   34.20
   3  -3  -6  485.55   31.30
   3   3  -5 1526.35   67.09
  -3   3   5 1290.17   63.19
   3   3  -5 1610.24   63.89
  -3   3   5 1294.87   66.89
   3  -3  -5 1268.87   66.49
   3  -3  -5 1266.77   63.79
   3   3  -4  559.34   31.10
  -3   3   4  532.65   27.20
   3   3  -4  566.54   27.80
   3  -3  -4  530.55   27.00
  -3  -3   4  546.95   27.40
   3  -3  -4  530.45   29.80
  -3  -3   4  645.54   32.90
   3   3  -3 1531.75   70.29
  -3   3   3 1539.05   69.79
  -3   3   3 1401.26   73.59
  -3  -3   3 1544.15   74.49
   3  -3  -3 1590.04   69.19
   3  -3  -3 1512.95   72.19
   3   3  -2  385.16   20.50
  -3   3   2  408.76   22.40
  -3   3   2  393.06   20.00
  -3  -3   2  387.96   25.90
   3  -3  -2  388.26   23.00
  -3  -3   2  376.76   24.80
  -3   3   1 1348.07   65.49
   3   3  -1 1411.96   64.29
  -3   3   1 1409.66   63.89
  -3  -3   1 1351.16   68.19
  -3  -3   1 1396.96   68.19
   3  -3  -1 1381.06   66.39
   3   3   0   38.60    5.30
  -3   3   0   39.50    4.90
  -3   3   0   40.90    6.70
   3  -3   0   37.60    8.40
   3  -3   0   45.40    8.20
  -3  -3   0   49.60   10.40
  -3  -3   0   45.80    9.40
   3   3   1 1725.03   78.99
   3   3   1 1784.72   80.39
  -3   3  -1 1739.73   79.99
  -3   3  -1 1789.82   78.79
   3  -3   1 1661.83   82.69
   3  -3   1 1767.22   83.29
  -3  -3  -1 1813.32   83.09
  -3  -3  -1 1666.43   83.99
  -3   3  -2  109.99    8.00
   3   3   2   91.09    9.00
   3   3   2   90.39    8.50
  -3   3  -2   94.79    8.50
   3  -3   2  107.79   13.30
   3  -3   2   94.89   12.70
  -3  -3  -2  103.79   13.10
  -3  -3  -2   92.99   11.80
   3   3   3  985.80   46.10
   3   3   3  983.60   46.40
  -3   3  -3  967.00   45.80
  -3   3  -3  941.41   45.40
   3  -3   3  939.31   49.99
  -3  -3  -3  968.10   48.10
   3  -3   3  940.71   48.20
  -3   3  -4   38.30    4.70
   3   3   4   39.80    5.20
   3   3   4   24.80    5.40
   3  -3   4   30.70   10.90
   3  -3   4   21.80    6.30
  -3  -3  -4   26.90    8.50
  -3   3  -5  900.01   45.10
   3   3   5  928.21   46.10
   3   3   5  938.01   44.60
   3  -3   5  914.41   49.00
   3  -3   5  931.11   48.10
  -3  -3  -5  933.21   47.20
   3   3   6   59.99    6.50
   3   3   6   53.29    8.20
  -3   3  -6   55.49    6.50
  -3   3  -6   51.99    7.80
   3  -3   6   54.99    9.30
   3  -3   6   52.69    9.70
  -3  -3  -6   62.39    9.40
  -3   3  -7  761.72   39.60
   3   3   7  740.53   40.40
  -3   3  -7  786.22   37.50
   3   3   7  758.62   37.30
  -3  -3  -7  756.42   39.60
  -3  -3  -7  755.32   41.40
   3  -3   7  711.73   40.30
   3  -3   7  778.52   44.00
   3   3   8  210.78   18.60
  -3   3  -8  224.48   17.80
   3  -3   8  208.98   29.60
  -3   4   8  312.67   24.70
   3   4  -8  272.27   22.30
   3  -4  -8  260.07   22.90
   3   4  -7  713.53   38.30
  -3   4   7  678.13   39.20
  -3  -4   7  790.42   44.40
   3  -4  -7  565.94   38.10
   3   4  -6  566.64   32.20
  -3   4   6  525.05   28.10
  -3   4   6  565.54   33.40
  -3  -4   6  670.63   37.80
   3  -4  -6  538.35   32.70
  -3   4   5  613.74   30.30
  -3   4   5  621.44   34.40
   3   4  -5  607.84   33.70
   3  -4  -5  606.74   34.50
  -3  -4   5  649.24   38.80
   3   4  -4  350.76   21.70
  -3   4   4  378.16   19.20
  -3   4   4  364.96   22.40
  -3  -4   4  356.66   26.40
   3  -4  -4  374.06   23.10
   3   4  -3 1210.08   60.89
  -3   4   3 1286.27   58.99
  -3   4   3 1258.37   61.09
  -3  -4   3 1300.17   65.49
   3  -4  -3 1242.08   62.19
  -3   4   2  276.37   16.80
  -3   4   2  259.47   16.70
   3  -4  -2  270.07   18.20
  -3  -4   2  271.17   21.80
  -3  -4   2  281.17   19.30
  -3   4   1 1808.32   85.39
   3   4  -1 1830.22   85.59
  -3   4   1 1845.22   87.29
   3  -4  -1 1805.72   89.89
  -3   4   0  140.79    9.00
   3   4   0  126.39    9.20
   3  -4   0  117.09   13.80
  -3  -4   0  134.19   18.50
  -3  -4   0  121.39   14.90
   3  -4   0  129.39   13.00
   3   4   1 3123.09  140.19
   3   4   1 3176.68  138.59
  -3   4  -1 2998.00  139.69
  -3   4  -1 3188.28  138.09
   3  -4   1 3081.99  142.99
  -3  -4  -1 3078.39  143.59
  -3  -4  -1 2837.92  145.09
   3  -4   1 3128.49  144.09
  -3   4  -2  113.99    8.50
  -3   4  -2  103.29    9.00
   3   4   2  120.99    9.10
   3   4   2  105.19   10.20
  -3  -4  -2  130.79   13.70
   3  -4   2   88.59   12.50
  -3  -4  -2  135.79   12.50
   3  -4   2  124.29   12.40
  -3   4  -3 2804.02  126.49
   3   4   3 2862.71  127.39
  -3   4  -3 2717.43  126.79
   3   4   3 2841.02  127.19
   3  -4   3 2739.93  130.09
   3  -4   3 2559.34  131.29
  -3  -4  -3 2965.50  135.19
   3   4   4  157.98   11.70
  -3   4  -4  182.38   11.70
  -3   4  -4  169.68   11.60
   3   4   4  161.48   11.90
  -3  -4  -4  178.88   15.20
   3  -4   4  155.48   18.90
  -3  -4  -4  175.38   16.50
   3  -4   4  179.78   16.20
  -3   4  -5 1556.54   71.89
   3   4   5 1496.65   72.49
   3   4   5 1553.94   71.39
  -3   4  -5 1485.95   71.09
   3  -4   5 1474.95   76.19
  -3  -4  -5 1537.15   74.99
   3  -4   5 1533.35   75.69
  -3  -4  -5 1510.55   74.19
   3   4   6  159.48   14.20
   3   4   6  168.38   12.30
  -3   4  -6  163.98   13.00
  -3   4  -6  134.19   11.90
  -3  -4  -6  131.09   15.50
  -3  -4  -6  128.89   16.20
   3  -4   6  145.69   18.50
   3  -4   6  122.89   17.90
   3   4   7  474.45   28.40
   3   4   7  472.75   25.30
  -3   4  -7  468.35   27.10
  -3   4  -7  455.65   25.00
  -3  -4  -7  467.65   30.70
  -3  -4  -7  415.06   29.40
   3  -4   7  418.06   31.50
   3  -4   7  471.45   32.50
  -3   5   7  409.56   29.30
   3   5  -7  439.86   28.50
   3  -5  -7  390.46   30.50
  -3   5   6 2018.00   95.89
   3   5  -6 1906.11   94.29
  -3   5   6 1909.51   90.59
   3   5  -6 2006.80   90.89
   3   5  -5  622.54   32.50
  -3   5   5  655.03   32.40
  -3   5   5  714.03   36.90
   3   5  -5  644.94   36.00
  -3  -5   5  551.84   41.60
   3  -5  -5  648.34   38.10
  -3   5   4 1889.91   87.09
   3   5  -4 1907.81   89.79
   3   5  -4 1945.01   87.49
  -3   5   4 1968.60   90.29
   3  -5  -4 1851.71   92.29
  -3  -5   4 1687.33   95.59
  -3   5   3  399.86   23.70
   3   5  -3  422.96   22.30
   3   5  -3  409.76   24.10
  -3   5   3  389.16   21.40
   3  -5  -3  392.56   26.80
  -3  -5   3  359.56   30.00
   3   5  -2 2159.18   99.19
   3   5  -2 2151.08   98.09
  -3   5   2 2100.19   97.49
  -3   5   2 2152.58   99.39
   3  -5  -2 2107.59  102.89
  -3  -5   2 2002.10  104.79
  -3   5   1  227.68   14.00
   3   5  -1  238.18   14.90
  -3   5   1  243.48   16.00
   3  -5  -1  222.08   19.20
  -3  -5   1  218.28   18.80
  -3  -5   1  220.58   22.20
  -3   5   0 1743.33   80.19
   3   5   0 1790.82   80.69
  -3  -5   0 1721.83   86.69
   3  -5   0 1752.92   83.99
  -3  -5   0 1563.84   87.29
   3  -5   0 1725.73   85.89
   3   5   1  113.69    9.80
  -3   5  -1   95.39    8.70
   3  -5   1  102.39   13.90
   3  -5   1  127.69   17.30
  -3  -5  -1  114.29   15.60
  -3  -5  -1   92.59   13.10
   3   5   2 1343.87   61.29
  -3   5  -2 1307.97   60.59
   3   5   2 1286.97   61.79
  -3   5  -2 1271.57   61.49
  -3  -5  -2 1252.97   66.89
   3  -5   2 1304.87   65.19
  -3  -5  -2 1287.97   66.79
   3  -5   2 1297.97   68.69
  -3   5  -3   82.99    8.50
  -3   5  -3   86.29   12.00
   3   5   3   73.09   10.90
   3   5   3   75.49    9.20
  -3  -5  -3   70.69   13.40
   3  -5   3   96.09   12.40
   3  -5   3   86.29   15.20
  -3  -5  -3  111.99   15.30
  -3   5  -4 1150.18   57.39
   3   5   4 1213.68   57.19
  -3   5  -4 1198.08   56.79
   3   5   4 1210.08   57.29
   3  -5   4 1213.88   61.29
  -3  -5  -4 1204.98   61.79
  -3  -5  -4 1172.98   62.69
   3  -5   4 1081.69   64.29
   3   5   5  122.39   12.10
  -3   5  -5  121.69   12.10
  -3   5  -5  130.69   11.70
   3   5   5  129.39   13.10
   3  -5   5  121.69   15.50
   3  -5   5   83.89   17.50
  -3  -5  -5  144.69   18.10
  -3  -5  -5  126.09   16.70
  -3   5  -6 1032.40   51.79
  -3   5  -6  972.80   50.29
   3   5   6 1105.59   53.39
   3   5   6 1039.40   50.89
  -3  -5  -6 1081.99   56.39
   3  -5   6  990.70   59.09
  -3  -5  -6 1087.79   57.49
   3  -5   6  945.11   56.39
   3   6  -5  193.38   18.50
   3   6  -5  170.38   14.70
  -3   6   5  215.38   14.70
  -3  -6   5  162.48   25.20
   3  -6  -5  209.68   22.70
   3   6  -4  731.23   35.90
   3   6  -4  687.93   38.40
  -3   6   4  743.53   38.80
  -3   6   4  674.63   35.50
   3  -6  -4  681.13   43.30
  -3  -6   4  608.54   47.70
  -3   6   3  383.06   24.00
   3   6  -3  362.36   23.70
  -3   6   3  361.76   21.20
   3   6  -3  381.06   22.00
  -3  -6   3  339.17   34.70
   3  -6  -3  378.16   28.70
  -3   6   2 1413.26   67.39
  -3   6   2 1466.55   69.19
   3   6  -2 1449.35   68.99
   3   6  -2 1383.76   67.59
   3  -6  -2 1398.46   74.49
  -3  -6   2 1347.97   77.69
   3   6  -1  256.17   17.80
   3   6  -1  298.17   19.10
  -3   6   1  281.77   17.50
  -3  -6   1  275.67   27.30
   3  -6  -1  279.67   23.20
   3  -6  -1  304.57   26.40
  -3  -6   1  283.17   24.20
   3   6   0 1939.41   87.29
  -3   6   0 1915.41   86.89
   3  -6   0 1817.12   90.79
  -3  -6   0 1786.52   91.29
   3  -6   0 1768.12   94.09
  -3  -6   0 1838.12   95.19
  -3   6  -1  366.66   21.30
   3   6   1  377.66   22.00
   3  -6   1  383.66   31.40
  -3  -6  -1  357.16   27.80
  -3  -6  -1  391.46   30.60
   3  -6   1  317.77   25.80
   3   6   2 2113.99   96.79
  -3   6  -2 2070.09   96.39
   3  -6   2 2075.49   99.99
  -3  -6  -2 2005.50  101.59
  -3  -6  -2 2108.09  103.29
   3  -6   2 1959.00  105.39
  -3   6  -3  222.08   15.80
   3   6   3  242.58   16.70
  -3  -6  -3  244.28   26.10
   3  -6   3  227.78   22.60
   3  -6   3  230.38   30.30
  -3  -6  -3  233.38   24.90
   3   6   4 1508.55   81.69
  -3   6  -4 1521.95   75.29
  -3  -6  -4 1654.13   82.39
   3  -6   4 1637.34   80.19
   3  -6   4 1432.46   85.69
  -3  -6  -4 1690.53   83.49
  -4   0   9    6.40    7.40
   4   0  -9   -5.50    7.10
  -4   0   9   12.60    7.90
  -4   0   8 1145.29   59.19
   4   0  -8 1215.28   59.09
  -4   0   8 1188.18   60.29
  -4   0   7   -2.30    4.90
   4   0  -7    0.20    5.30
  -4   0   7    5.00    5.70
  -4   0   6 1719.73   80.89
  -4   0   6 1729.23   81.59
   4   0  -6 1672.43   84.19
  -4   0   5    4.50    3.90
   4   0  -5    0.50    5.60
   4   0  -5    7.10    3.20
  -4   0   5    3.50    5.90
  -4   0   4 6163.88  278.17
   4   0  -4 5916.81  277.97
  -4   0   4 6625.14  279.17
   4   0  -4 6034.70  275.57
  -4   0   3    8.40    3.20
  -4   0   3   -1.40    3.90
   4   0  -3   -1.00    3.90
  -4   0   3   -3.50    4.30
  -4   0   2 8055.69  359.76
  -4   0   2 8237.98  360.76
  -4   0   2 7436.96  359.26
  -4   0   2 8429.56  358.76
  -4   0   1   -3.90    3.00
  -4   0   1   -2.90    3.10
  -4   0   0 7364.66  327.17
  -4   0   0 7424.86  329.77
  -4   0   0 7350.17  328.07
   4   0   0 7428.66  328.37
   4   0   0 7136.39  327.37
  -4   0  -1   -1.50    2.80
   4   0   1    0.30    3.00
  -4   0  -1    1.90    4.00
   4   0   2 5396.86  245.78
  -4   0  -2 5564.94  245.18
  -4   0  -2 5444.96  245.98
  -4   0  -3    6.00    4.50
   4   0   3    2.40    4.00
  -4   0  -3    1.40    3.80
  -4   0  -4 1348.07   60.59
  -4   0  -4 1339.47   61.49
   4   0   4 1190.48   61.39
  -4   0  -5    1.50    3.40
  -4   0  -5    3.30    3.90
   4   0   5   -1.00    4.00
  -4   0  -5    4.60    5.00
   4   0   6  771.42   41.70
   4   0   6  770.62   38.90
  -4   0  -6  786.92   40.80
  -4   0  -6  855.31   38.20
   4   0   7    5.50    3.90
  -4   0  -7   -3.90    5.20
   4   0   7    1.50    6.00
  -4   0  -8  854.21   45.70
   4   0   8  789.92   48.10
  -4   1   9  839.52   45.80
   4   1  -9  807.32   44.30
   4  -1  -9  822.42   44.20
  -4  -1   9  835.82   45.90
   4  -1  -9  840.02   44.00
  -4  -1   9  772.82   44.20
  -4   1   8 1135.29   57.69
   4   1  -8 1142.99   56.99
  -4  -1   8 1089.49   57.69
  -4  -1   8 1065.09   55.89
   4  -1  -8 1140.59   55.99
   4  -1  -8 1152.38   56.59
  -4   1   7 1708.03   80.89
  -4   1   7 1664.93   80.59
   4   1  -7 1636.94   79.79
   4  -1  -7 1691.43   79.19
   4  -1  -7 1612.64   79.69
  -4  -1   7 1792.52   81.39
  -4  -1   7 1575.94   79.09
  -4   1   6 1229.28   59.89
  -4   1   6 1226.48   59.79
   4   1  -6 1175.08   59.19
   4  -1  -6 1244.68   58.59
  -4   1   5 1557.04   73.49
  -4   1   5 1550.14   69.79
  -4   1   5 1583.54   73.69
   4   1  -5 1475.95   73.09
   4   1  -5 1536.25   69.79
  -4  -1   5 1554.84   72.59
   4  -1  -5 1550.84   72.49
   4   1  -4 1011.20   51.19
   4   1  -4 1088.79   48.30
  -4   1   4 1120.89   48.50
  -4   1   4 1019.80   51.29
  -4   1   4 1050.99   51.59
   4  -1  -4 1025.50   49.90
  -4  -1   4 1053.69   49.99
  -4   1   3  685.53   30.10
   4   1  -3  670.93   30.10
  -4   1   3  622.14   32.20
  -4   1   3  599.74   32.30
   4   1  -3  611.74   32.40
   4  -1  -3  647.54   32.10
   4  -1  -3  616.34   30.80
  -4  -1   3  633.84   33.80
  -4  -1   3  655.13   31.10
  -4  -1   3  622.34   33.40
  -4   1   2 1237.88   59.39
   4   1  -2 1238.98   57.69
  -4   1   2 1314.17   57.79
  -4   1   2 1296.37   58.59
  -4  -1   2 1211.58   57.79
  -4  -1   2 1272.17   59.89
   4  -1  -2 1285.27   58.79
  -4  -1   2 1238.28   61.29
   4   1  -1 1662.93   72.19
  -4   1   1 1620.94   72.49
   4   1  -1 1556.44   72.39
  -4   1   1 1483.45   73.69
   4   1  -1 1567.84   72.89
  -4   1   1 1591.54   73.49
   4  -1  -1 1670.53   72.89
  -4  -1   1 1593.44   73.59
  -4  -1   1 1559.04   76.09
  -4   1   0 2331.87  105.99
  -4   1   0 2389.46  106.79
   4   1   0 2374.16  105.99
   4   1   0 2320.97  105.49
   4  -1   0 2278.17  107.39
   4  -1   0 2401.36  105.69
  -4  -1   0 2327.87  106.19
  -4  -1   0 2310.37  109.09
  -4   1  -1 1068.69   49.30
   4   1   1 1047.40   49.20
   4   1   1 1011.70   49.00
   4   1   1 1031.60   49.00
  -4   1  -1 1080.99   49.60
  -4  -1  -1 1094.79   48.90
   4  -1   1 1033.10   50.59
   4  -1   1 1097.79   48.90
  -4   1  -2 2487.05  106.59
   4   1   2 2284.77  108.49
   4   1   2 2434.96  106.99
  -4   1  -2 2376.76  108.59
  -4   1  -2 2493.55  108.49
   4   1   2 2378.26  108.19
  -4  -1  -2 2453.65  107.39
   4  -1   2 2400.36  109.79
  -4  -1  -2 2342.97  109.89
   4  -1   2 2205.08  107.19
  -4   1  -3 2041.00   90.39
   4   1   3 1961.30   90.09
   4   1   3 1962.80   91.09
  -4   1  -3 2020.90   90.89
  -4  -1  -3 1893.61   88.89
   4  -1   3 1963.70   91.99
  -4  -1  -3 1971.00   89.09
  -4  -1  -3 1986.70   91.99
  -4   1  -4 1964.70   86.19
  -4   1  -4 1902.21   86.89
   4   1   4 1838.42   87.39
   4   1   4 1850.01   85.69
  -4   1  -4 1758.82   84.69
  -4  -1  -4 2036.00   86.19
  -4  -1  -4 1827.12   84.79
   4  -1   4 1918.01   84.79
  -4  -1  -4 1814.02   87.39
   4  -1   4 1798.32   87.79
   4   1   5 2263.87  109.19
  -4   1  -5 2351.96  108.89
  -4   1  -5 2368.46  107.59
   4   1   5 2279.87  107.09
  -4  -1  -5 2310.97  109.39
   4  -1   5 2591.14  106.89
   4  -1   5 2206.18  109.79
  -4  -1  -5 2424.96  106.59
  -4   1  -6 1407.16   69.19
   4   1   6 1468.95   69.09
  -4   1  -6 1479.15   71.39
   4   1   6 1450.45   71.89
   4  -1   6 1629.24   70.09
  -4  -1  -6 1444.66   71.99
  -4  -1  -6 1545.55   69.19
   4  -1   6 1495.35   73.19
  -4   1  -7 1052.59   52.69
   4   1   7 1012.80   53.29
  -4   1  -7  998.80   49.80
   4   1   7 1037.50   49.50
   4  -1   7 1098.09   55.19
  -4  -1  -7 1101.19   53.69
  -4   1  -8  761.72   45.20
   4   1   8  732.73   45.60
  -4   2   9  420.96   28.70
   4   2  -9  370.76   27.50
   4  -2  -9  380.66   27.50
  -4  -2   9  408.26   26.30
   4  -2  -9  414.86   25.80
  -4  -2   9  467.85   29.40
  -4   2   8   45.60    8.70
   4   2  -8   38.80    8.80
  -4  -2   8   53.69   11.90
   4  -2  -8   44.20    9.10
  -4  -2   8   42.50    7.80
   4  -2  -8   32.30    7.30
  -4   2   7  824.32   47.10
   4   2  -7 1003.90   47.00
   4  -2  -7  813.12   44.50
   4  -2  -7  855.71   46.70
  -4  -2   7 1044.40   49.60
  -4   2   6   74.39    8.00
   4   2  -6   86.19   10.00
  -4   2   6   72.79   10.30
  -4  -2   6   93.99   12.30
  -4  -2   6   85.89   10.30
   4  -2  -6   75.59   10.50
   4  -2  -6   87.99   12.30
   4   2  -5 3230.88  135.89
  -4   2   5 2738.03  131.69
   4   2  -5 3104.29  131.99
  -4   2   5 2660.73  135.49
   4  -2  -5 2719.13  133.09
  -4  -2   5 3380.06  137.49
   4  -2  -5 2702.73  134.89
   4   2  -4   67.19    6.80
  -4   2   4   55.89    6.30
  -4   2   4   51.99    7.50
   4   2  -4   52.89    7.30
  -4  -2   4   52.19    8.20
   4  -2  -4   62.79    8.00
  -4  -2   4   73.19    8.60
   4  -2  -4   53.29    7.30
   4   2  -3 5168.28  230.78
  -4   2   3 5398.26  231.58
   4   2  -3 5226.18  231.58
  -4   2   3 5012.50  233.88
  -4  -2   3 5091.19  235.68
   4  -2  -3 5293.07  231.18
  -4  -2   3 5040.40  234.78
   4  -2  -3 5129.09  233.48
   4   2  -2   59.99    6.30
  -4   2   2   65.09    8.70
  -4   2   2   57.89    6.00
   4  -2  -2   58.19    7.80
  -4  -2   2   36.90    8.90
   4  -2  -2   52.69    5.10
   4  -2  -2   49.40    7.00
  -4  -2   2   63.09    9.50
  -4   2   1 4756.22  229.78
  -4   2   1 5256.17  228.28
   4   2  -1 4974.80  228.28
   4  -2  -1 5223.88  226.98
  -4  -2   1 5382.66  230.68
  -4  -2   1 4908.81  232.48
   4  -2  -1 5133.39  229.18
   4   2   0    7.80    3.40
  -4   2   0   11.50    3.90
  -4   2   0   13.40    3.50
   4  -2   0   14.00    5.20
   4  -2   0   13.30    5.20
  -4  -2   0   17.70    6.20
  -4  -2   0    7.70    7.30
   4  -2   0    9.50    3.40
  -4  -2   0   12.60    4.40
  -4   2  -1 3126.49  139.59
   4   2   1 3264.27  139.69
  -4   2  -1 3006.20  139.99
   4   2   1 3027.20  140.19
  -4  -2  -1 3069.49  143.59
  -4  -2  -1 3241.08  141.39
   4  -2   1 3106.99  141.09
   4  -2   1 2956.50  142.19
  -4   2  -2   14.50    4.00
   4   2   2   16.10    4.20
   4   2   2   27.60    4.90
  -4   2  -2   19.30    4.40
  -4  -2  -2   20.20    7.00
   4  -2   2   17.00    6.00
  -4  -2  -2   19.30    5.70
   4  -2   2   21.60    6.90
   4   2   3 2327.97  105.09
  -4   2  -3 2296.87  105.19
   4   2   3 2338.77  105.59
  -4   2  -3 2266.97  104.99
  -4  -2  -3 2262.17  107.09
  -4  -2  -3 2340.77  105.29
   4  -2   3 2334.27  105.39
   4  -2   3 2226.68  107.19
   4   2   4  107.49    9.40
  -4   2  -4  115.79    8.60
   4   2   4  106.09    9.50
  -4   2  -4  116.29    9.10
  -4  -2  -4  114.69   11.80
  -4  -2  -4   96.79    9.80
   4  -2   4  129.59   11.20
   4  -2   4  108.59   12.40
  -4   2  -5 1158.58   56.29
  -4   2  -5 1206.28   55.29
   4   2   5 1183.88   56.89
   4   2   5 1163.68   54.99
   4  -2   5 1128.49   58.49
   4  -2   5 1147.79   56.29
  -4  -2  -5 1156.78   57.69
  -4  -2  -5 1212.78   56.19
  -4   2  -6   66.89    8.40
  -4   2  -6   82.19    9.50
   4   2   6   64.99    8.80
   4  -2   6   95.49   12.40
  -4  -2  -6   77.49   10.60
  -4  -2  -6   75.29   10.60
   4   2   7  790.12   37.20
  -4   2  -7  739.43   37.50
  -4   2  -7  746.13   39.70
   4   2   7  745.33   40.60
  -4  -2  -7  745.23   41.00
   4  -2   7  773.82   43.10
  -4   2  -8   29.50    7.90
   4   2   8   31.70    8.50
  -4  -2  -8   26.70    9.20
   4  -2   8   35.30   10.70
   4   3  -8  904.61   53.09
   4  -3  -8  781.42   48.70
   4  -3  -8  771.42   44.10
  -4  -3   8 1060.99   46.70
  -4   3   7  631.54   37.40
   4   3  -7  788.12   37.50
   4  -3  -7  593.44   33.50
   4  -3  -7  612.74   37.00
   4   3  -6  698.83   30.70
  -4   3   6  581.34   30.10
   4   3  -6  643.34   34.20
  -4   3   6  533.45   34.10
   4  -3  -6  515.45   33.70
   4  -3  -6  519.05   31.60
  -4  -3   6  713.03   37.20
  -4  -3   6  684.53   33.00
  -4   3   5  961.90   49.20
   4   3  -5 1062.29   52.59
  -4   3   5  913.01   52.39
   4   3  -5 1179.68   49.99
   4  -3  -5  938.71   52.59
  -4  -3   5 1185.08   55.89
   4  -3  -5  949.71   49.40
  -4  -3   5 1221.78   50.29
   4   3  -4  150.68   11.40
  -4   3   4  137.49   12.50
   4   3  -4  149.88   12.80
  -4   3   4  167.48   11.10
   4  -3  -4  139.79   12.30
  -4  -3   4  158.78   11.10
  -4  -3   4  176.48   15.30
   4  -3  -4  143.69   10.10
   4   3  -3 1254.57   63.69
  -4   3   3 1294.87   63.99
  -4   3   3 1409.36   61.69
   4   3  -3 1325.07   61.89
  -4  -3   3 1328.57   66.09
   4  -3  -3 1352.26   64.09
  -4   3   2   83.19    8.00
   4   3  -2  107.69    8.90
  -4   3   2   84.09    8.40
  -4  -3   2   68.39   11.30
   4  -3  -2   78.09   11.00
  -4   3   1  870.41   40.90
   4   3  -1  844.22   41.20
  -4   3   1  821.72   43.90
  -4  -3   1  892.41   46.00
  -4  -3   1  861.41   47.30
   4  -3  -1  843.22   43.40
   4   3   0  536.05   30.30
   4  -3   0  553.34   32.00
   4  -3   0  597.54   32.00
  -4  -3   0  596.44   32.90
  -4  -3   0  564.74   35.20
  -4   3  -1 1094.59   50.99
   4   3   1 1066.69   51.09
   4   3   1 1111.09   49.99
  -4   3  -1 1025.00   49.90
  -4  -3  -1 1161.28   54.99
  -4  -3  -1 1019.50   56.99
   4  -3   1 1115.49   54.79
  -4   3  -2 1021.60   45.80
   4   3   2  954.50   46.30
   4   3   2 1021.10   46.20
  -4   3  -2  954.70   46.10
   4  -3   2  938.31   49.20
   4  -3   2  925.41   49.90
  -4  -3  -2  958.00   49.90
  -4  -3  -2  986.30   49.20
  -4   3  -3  739.13   38.70
   4   3   3  834.22   39.10
  -4   3  -3  806.92   38.30
  -4  -3  -3  676.83   43.00
   4  -3   3  810.42   42.70
  -4  -3  -3  819.82   41.10
   4  -3   3  789.72   41.30
  -4   3  -4  818.32   41.70
  -4   3  -4  858.91   42.10
   4   3   4  875.91   42.80
   4   3   4  852.21   41.90
   4  -3   4  894.31   46.50
  -4  -3  -4  882.31   44.70
   4  -3   4  840.42   45.40
  -4  -3  -4  923.91   45.50
  -4   3  -5  609.04   31.40
  -4   3  -5  594.74   30.50
   4   3   5  605.64   30.70
   4   3   5  622.04   32.40
  -4  -3  -5  611.34   34.30
   4  -3   5  594.24   35.60
   4  -3   5  606.14   34.80
  -4  -3  -5  606.04   34.00
   4   3   6  947.11   44.60
   4   3   6  952.90   47.20
  -4   3  -6  902.61   44.60
  -4   3  -6  930.81   46.00
   4  -3   6  851.11   49.20
  -4  -3  -6  910.81   46.00
  -4  -3  -6  904.31   48.50
  -4   3  -7  501.05   28.10
   4   3   7  472.05   29.50
   4   3   7  488.55   26.10
  -4   3  -7  471.25   26.40
   4  -3   7  512.55   33.30
  -4  -3  -7  491.25   31.00
  -4   4   8  338.17   28.20
   4   4  -8  422.26   27.90
   4  -4  -8  328.87   27.30
  -4  -4   8  473.85   35.30
   4   4  -7  238.48   19.50
  -4   4   7  177.38   19.40
   4  -4  -7  156.48   20.80
  -4  -4   7  255.97   26.40
   4   4  -6  672.83   31.20
  -4   4   6  609.44   35.80
   4   4  -6  666.93   35.70
  -4   4   6  580.84   31.70
   4  -4  -6  581.34   35.70
  -4   4   5    2.70    4.30
   4   4  -5   11.90    6.00
   4   4  -5   10.90    4.40
  -4   4   5   -0.20    6.10
  -4  -4   5    7.00    9.20
   4  -4  -5    5.60    6.10
   4   4  -4  845.32   42.20
  -4   4   4  784.42   38.60
   4   4  -4  793.72   39.10
  -4   4   4  801.72   42.00
   4  -4  -4  790.52   42.50
  -4  -4   4  802.72   46.00
  -4   4   3   60.29    6.30
   4   4  -3   60.29    6.70
   4   4  -3   71.59    9.10
  -4   4   3   64.59    8.40
  -4  -4   3   42.80   10.00
   4  -4  -3   57.19    8.90
  -4   4   2 1334.57   61.89
   4   4  -2 1350.56   62.29
  -4   4   2 1345.27   64.19
  -4  -4   2 1325.07   67.29
  -4  -4   2 1289.67   67.59
   4  -4  -2 1294.87   65.19
  -4   4   1   47.70    5.50
   4   4  -1   42.70    5.40
  -4   4   1   39.40    6.50
   4  -4  -1   41.50    8.20
  -4  -4   1   39.60    9.10
  -4   4   0 1232.18   57.99
   4   4   0 1216.48   58.29
   4  -4   0 1275.17   62.09
   4  -4   0 1220.18   61.59
  -4  -4   0 1224.78   64.39
  -4   4  -1   54.79    6.60
  -4   4  -1   52.99    5.80
   4   4   1   42.40    5.40
   4   4   1   39.20    5.30
  -4  -4  -1   44.70    8.90
   4  -4   1   63.19    9.70
   4  -4   1   30.80    7.70
  -4   4  -2  720.03   34.60
  -4   4  -2  725.03   35.30
   4   4   2  720.43   35.80
   4   4   2  706.83   35.00
  -4  -4  -2  722.43   39.00
   4  -4   2  731.93   40.50
   4  -4   2  696.73   38.80
  -4  -4  -2  704.63   40.40
   4   4   3   77.99    8.20
  -4   4  -3   68.69    8.10
   4   4   3   79.69    9.00
  -4   4  -3   75.79    7.60
   4  -4   3   66.59   10.40
   4  -4   3   85.69   12.30
  -4  -4  -3   64.29   11.50
  -4   4  -4  355.56   20.30
   4   4   4  363.16   20.50
  -4   4  -4  358.86   20.20
   4  -4   4  361.06   25.00
  -4  -4  -4  365.36   23.70
  -4  -4  -4  388.56   25.80
   4   4   5  248.58   15.30
   4   4   5  229.48   16.80
  -4   4  -5  214.48   15.50
  -4   4  -5  207.98   14.70
  -4  -4  -5  245.68   18.90
  -4  -4  -5  247.98   20.50
   4  -4   5  217.58   21.40
   4  -4   5  231.08   21.00
  -4   4  -6  146.09   13.80
   4   4   6  148.19   15.40
   4   4   6  136.09   12.70
  -4   4  -6  163.58   12.70
   4  -4   6  178.68   20.40
  -4  -4  -6  150.28   17.20
  -4  -4  -6  168.48   19.00
   4  -4   6  162.08   24.50
  -4   4  -7  227.38   18.20
   4   4   7  237.08   16.30
   4   4   7  213.28   19.20
  -4   4  -7  212.28   16.30
   4  -4   7  210.58   24.40
  -4  -4  -7  191.48   23.30
   4   5  -6  217.58   14.70
   4   5  -6  218.68   18.50
  -4   5   6  203.78   14.60
   4  -5  -6  184.58   21.30
  -4  -5   6  230.68   29.30
  -4   5   5   26.00    7.90
  -4   5   5   26.20    5.50
   4   5  -5   30.40    5.70
   4   5  -5   17.70    8.30
   4  -5  -5   30.40   10.70
  -4  -5   5   31.70   14.30
   4   5  -4  342.77   20.30
  -4   5   4  361.46   23.20
  -4   5   4  373.06   19.90
   4   5  -4  356.36   22.80
  -4  -5   4  304.67   30.50
   4  -5  -4  339.67   25.60
  -4   5   3   -4.70    5.50
   4   5  -3    8.90    4.40
  -4   5   3   12.20    4.40
   4   5  -3   16.90    6.50
  -4  -5   3    9.90   11.00
   4  -5  -3    5.40    8.40
  -4   5   2  586.24   30.30
   4   5  -2  590.64   30.80
  -4   5   2  607.84   32.80
   4  -5  -2  592.74   35.80
  -4  -5   2  583.34   38.60
  -4  -5   2  605.44   36.60
  -4   5   1   29.50    6.50
  -4   5   1   21.10    4.70
   4   5  -1   25.90    5.00
  -4  -5   1   13.20   10.10
  -4  -5   1   35.90    9.70
   4  -5  -1   21.90    8.60
   4   5   0  401.06   23.10
  -4   5   0  407.36   22.60
   4  -5   0  414.36   28.50
  -4  -5   0  436.66   29.60
  -4  -5   0  422.96   29.60
   4  -5   0  435.76   27.50
   4   5   1    6.50    4.30
  -4   5  -1    4.40    3.80
  -4  -5  -1   -2.90    9.80
   4  -5   1   12.20    8.10
   4  -5   1   26.60   10.00
  -4  -5  -1    1.00    8.90
  -4   5  -2  283.37   16.30
   4   5   2  245.58   16.70
   4  -5   2  281.67   25.20
  -4  -5  -2  226.08   23.80
   4  -5   2  274.97   21.40
  -4  -5  -2  262.77   23.30
   4   5   3   51.99    7.00
  -4   5  -3   52.89    6.80
   4  -5   3   53.99   10.90
  -4  -5  -3   60.99   12.20
  -4  -5  -3   38.20   12.20
   4  -5   3   69.89   14.80
  -4   5  -4  235.78   17.60
  -4   5  -4  221.68   15.50
   4   5   4  247.98   16.40
   4   5   4  234.28   16.40
   4  -5   4  236.58   26.50
  -4  -5  -4  188.08   23.70
   4  -5   4  260.37   22.60
  -4  -5  -4  255.87   22.20
  -4   5  -5  194.78   13.70
   4   5   5  157.28   14.30
  -4   5  -5  172.78   14.40
   4   5   5  176.58   15.60
   4  -5   5  172.38   22.00
   4  -5   5  151.28   21.50
  -4  -5  -5  179.28   22.90
  -4  -5  -5  190.08   21.40
  -4   6   4   26.10    9.40
  -4   6   4   18.60    6.70
   4   6  -4   45.00    9.60
   4   6  -4   48.40    7.80
   4  -6  -4   18.80   12.40
  -4  -6   4    7.30   16.10
  -4   6   3   48.30    9.90
   4   6  -3   34.50    7.20
   4   6  -3   51.99    9.70
  -4   6   3   30.80    6.70
  -4  -6   3   23.30   23.30
  -4   6   2   -1.80    5.00
   4   6  -2    2.30    7.20
  -4   6   2   17.90    7.20
   4   6  -2   13.30    5.40
  -4  -6   2    5.60   13.70
   4  -6  -2   -4.50   10.60
   4   6  -1    9.80    5.60
  -4   6   1    3.30    4.70
  -4  -6   1   -8.20   12.60
   4  -6  -1   18.90   11.60
   4  -6  -1   12.10    9.80
  -4  -6   1   12.10   12.10
   4   6   0   13.70    5.80
  -4   6   0   14.80    5.40
   4  -6   0   10.50   10.00
   4  -6   0   35.50   12.80
  -4  -6   0   29.50   12.80
  -4  -6   0   21.40   11.40
  -4   6  -1   30.40    6.10
   4   6   1   43.20    7.50
   4  -6   1   46.00   15.30
  -4  -6  -1   18.10   13.20
   4  -6   1   50.39   11.40
  -4  -6  -1   65.29   14.20
   4  -6   2   96.69   14.30
  -4  -6  -2  110.49   17.20
  -4  -6  -2   74.39   16.70
   4  -6   2   90.49   19.10
  -4   6  -3   32.10    6.90
   4   6   3   14.10    6.60
  -4  -6  -3   31.70   13.70
  -4  -6  -3   55.99   16.20
   4  -6   3   59.09   17.70
   4  -6   3   30.30   11.50
   5   0  -9    2.00    7.50
  -5   0   9   10.30    8.40
  -5   0   9   14.00   16.30
  -5   0   8  172.38   15.90
  -5   0   8  152.98   17.30
   5   0  -8  162.68   15.70
   5   0  -7   13.30    5.80
  -5   0   7    4.20    6.10
  -5   0   7   11.00    5.50
  -5   0   6    6.10    6.20
  -5   0   6    2.40    4.90
   5   0  -6    8.80    5.00
  -5   0   5   -4.00    4.90
   5   0  -5    1.60    3.10
  -5   0   5    0.90    6.10
   5   0  -5    5.40    5.40
   5   0  -4   64.09    8.30
  -5   0   4   58.09    7.80
  -5   0   4   45.10    9.20
  -5   0   3    7.70    6.00
  -5   0   3    1.30    4.30
  -5   0   3    0.50    5.40
  -5   0   3   -0.90    3.50
  -5   0   2 1166.68   57.19
  -5   0   2 1091.59   54.89
  -5   0   2 1182.48   55.29
  -5   0   2 1220.38   54.39
  -5   0   1   -4.80    3.40
  -5   0   1    2.90    3.50
  -5   0   1    3.40    6.50
   5   0  -1   -0.40    3.60
   5   0   0 1689.53   79.39
  -5   0   0 1811.82   81.79
  -5   0   0 1783.82   79.19
   5   0   0 1626.24   78.99
  -5   0   0 1689.43   77.89
  -5   0  -1   35.00    6.70
   5   0   1    2.20    4.00
  -5   0  -1   -2.30    3.50
   5   0   2 1155.38   57.59
  -5   0  -2 1255.17   57.19
  -5   0  -2 1225.38   58.29
  -5   0  -3    0.70    4.30
  -5   0  -3    0.90    3.50
   5   0   4  320.47   19.80
  -5   0  -4  351.66   19.90
  -5   0  -4  349.96   18.80
   5   0   5   -4.20    4.20
  -5   0  -5   -4.60    3.90
  -5   0  -5    3.90    4.60
   5   0   6  195.58   12.70
   5   0   6  203.78   16.30
  -5   0  -6  208.38   15.30
  -5   0  -6  198.58   13.30
   5   0   7    7.40    6.60
   5   0   7    3.00    4.60
  -5   0  -7   10.60    6.70
   5   0   8   32.90   10.30
  -5   0  -8   46.90   10.10
  -5   1   9   38.60   15.10
   5  -1  -9   41.50    9.50
  -5  -1   9   45.90   11.40
   5  -1  -9   27.40    8.80
  -5  -1   9   33.70    9.80
  -5   1   8  299.07   22.60
   5   1  -8  294.27   21.40
   5  -1  -8  307.17   20.20
  -5  -1   8  317.17   23.50
  -5  -1   8  292.37   21.50
   5  -1  -8  320.27   21.40
  -5   1   7  223.98   17.10
   5   1  -7  197.08   16.20
  -5   1   7  222.08   16.70
   5  -1  -7  204.58   16.20
  -5  -1   7  215.78   17.90
  -5  -1   7  208.88   15.90
   5  -1  -7  205.58   15.60
   5   1  -6  410.86   25.50
  -5   1   6  466.25   26.60
  -5   1   6  452.25   26.10
   5   1  -6  430.86   21.90
  -5  -1   6  446.56   25.00
  -5  -1   6  524.45   27.60
   5  -1  -6  427.56   24.70
  -5   1   5  506.85   27.80
  -5   1   5  499.15   29.60
   5   1  -5  505.85   24.50
  -5   1   5  530.25   24.90
   5  -1  -5  485.55   27.40
  -5  -1   5  508.15   28.00
  -5   1   4  738.93   32.30
  -5   1   4  632.14   36.80
  -5   1   4  654.53   35.90
   5   1  -4  669.63   31.80
   5  -1  -4  673.63   33.90
  -5  -1   4  622.54   35.20
  -5  -1   4  695.73   34.00
  -5   1   3   26.60    4.40
   5   1  -3   24.60    3.80
  -5   1   3   21.20    5.80
  -5  -1   3   31.90    5.50
   5  -1  -3   16.10    5.10
  -5  -1   3   14.20    7.70
   5  -1  -3   11.40    5.70
  -5  -1   3   27.80    7.40
  -5   1   2  365.16   21.60
   5   1  -2  389.46   19.70
  -5   1   2  422.36   20.20
  -5   1   2  400.86   21.70
   5  -1  -2  389.76   20.90
  -5  -1   2  389.96   20.40
  -5  -1   2  380.86   25.30
  -5  -1   2  379.86   22.60
   5   1  -1   68.19    6.80
   5   1  -1   79.09    6.90
  -5   1   1   63.99    6.80
  -5   1   1   82.79    9.30
  -5   1   1   61.79    8.60
   5  -1  -1   77.69    7.80
  -5  -1   1   69.59    9.50
  -5  -1   1   79.39   11.90
  -5   1   0  124.29    9.50
   5   1   0  132.69    9.10
  -5   1   0  149.69   12.30
   5   1   0  138.19    9.40
  -5  -1   0  131.69   14.70
   5  -1   0  140.79    9.20
   5  -1   0  129.39   11.50
  -5  -1   0  130.39   10.70
   5   1   1  135.59   11.80
  -5   1  -1  140.29   10.90
   5   1   1  133.59    9.70
   5   1   1  135.69    9.90
  -5   1  -1  140.99   10.00
  -5  -1  -1  148.79   14.20
  -5  -1  -1  144.39    9.90
   5  -1   1  152.78   10.40
   5  -1   1  143.19   11.70
   5  -1   1  146.09    9.80
  -5   1  -2  163.38   11.50
   5   1   2  165.68   11.10
   5   1   2  154.98   11.20
  -5   1  -2  160.98   11.70
   5  -1   2  151.68   12.80
  -5  -1  -2  166.48   14.20
   5   1   3    3.90    4.60
  -5   1  -3    0.50    4.80
  -5  -1  -3    7.00    4.00
   5  -1   3    5.20    3.40
  -5   1  -4  150.98   16.40
  -5   1  -4  161.68   10.90
   5   1   4  158.28   10.50
  -5  -1  -4  159.68   12.50
   5  -1   4  175.28   12.90
  -5   1  -5   32.40    5.70
   5   1   5   35.20    6.20
  -5  -1  -5   24.80    6.50
   5  -1   5   27.30    6.50
  -5   1  -6  349.57   19.80
   5   1   6  351.46   22.20
   5   1   6  338.97   19.10
  -5   1  -6  370.56   21.50
   5  -1   6  341.17   23.40
  -5  -1  -6  373.16   22.50
  -5   1  -7   90.99    9.80
   5   1   7   58.59   10.00
  -5   1  -7   85.49   11.20
   5   1   7   69.89    7.90
  -5  -1  -7   76.39   11.00
   5  -1   7   75.19   12.40
   5   1   8  432.86   29.00
  -5   1  -8  457.15   28.50
   5  -1   8  501.45   31.40
  -5  -1  -8  431.36   29.60
  -5   2   9  154.38   19.40
   5   2  -9  112.59   15.00
  -5  -2   9   97.89   12.70
  -5  -2   9   96.69   15.40
   5  -2  -9   96.69   11.60
   5  -2  -9  132.79   17.40
   5   2  -8  345.07   24.30
  -5   2   8  397.66   25.90
   5  -2  -8  352.26   22.50
  -5  -2   8  391.76   27.70
   5  -2  -8  335.17   25.20
  -5  -2   8  340.47   22.90
   5   2  -7   81.69   10.80
  -5   2   7   66.29   10.20
   5  -2  -7   72.59   10.80
   5  -2  -7   65.79    8.40
  -5  -2   7   59.89   11.00
  -5  -2   7   56.39    8.40
   5   2  -6 1050.29   53.39
  -5   2   6 1011.70   49.00
  -5   2   6 1010.70   53.79
   5   2  -6 1101.69   49.10
   5  -2  -6  998.10   51.39
   5  -2  -6  976.90   52.79
  -5  -2   6 1204.88   52.39
   5   2  -5   17.90    5.10
  -5   2   5   20.00    5.00
  -5   2   5   11.00    5.40
   5   2  -5   10.60    4.50
  -5  -2   5    9.40    7.10
   5  -2  -5    8.00    6.40
  -5  -2   5   24.10    6.80
   5  -2  -5   10.40    5.40
  -5   2   4 1017.70   46.40
   5   2  -4  995.10   46.40
   5   2  -4 1000.50   51.19
  -5   2   4  848.02   52.39
   5  -2  -4  979.60   46.80
   5  -2  -4 1071.59   50.79
  -5   2   3   16.40    4.00
   5   2  -3   16.10    4.20
  -5   2   3   18.20    4.40
  -5  -2   3   21.60    6.60
   5  -2  -3   21.40    7.20
   5  -2  -3   19.30    4.50
  -5  -2   3   17.30    4.70
   5   2  -2  597.74   26.50
   5   2  -2  521.25   26.40
  -5   2   2  602.44   28.20
  -5   2   2  516.25   30.20
   5   2  -2  558.64   27.90
  -5  -2   2  551.24   34.60
  -5  -2   2  594.64   32.00
   5  -2  -2  602.54   30.20
   5  -2  -2  550.34   27.30
  -5   2   1  526.85   29.30
   5   2  -1  505.65   26.10
  -5   2   1  563.34   27.50
   5   2  -1  531.05   27.20
   5   2  -1  542.55   25.60
  -5   2   1  566.54   27.40
  -5  -2   1  588.74   30.40
  -5  -2   1  551.84   33.80
   5  -2  -1  561.94   28.40
  -5   2   0  465.95   24.50
  -5   2   0  473.45   24.00
   5   2   0  475.25   22.60
   5   2   0  458.75   23.90
  -5  -2   0  468.45   26.20
  -5  -2   0  451.95   30.00
   5  -2   0  460.95   25.10
   5  -2   0  448.46   26.50
  -5   2  -1  731.33   39.60
   5   2   1  759.92   35.30
  -5   2  -1  764.52   36.00
  -5  -2  -1  654.63   45.10
  -5  -2  -1  765.12   37.40
   5  -2   1  716.43   37.10
  -5   2  -2  333.37   18.60
   5   2   2  327.87   17.80
  -5   2  -2  320.37   17.60
   5   2   2  347.87   18.70
  -5  -2  -2  357.76   20.10
  -5  -2  -2  317.17   20.60
   5  -2   2  321.27   20.30
   5  -2   2  301.27   19.60
   5   2   3  670.63   34.10
  -5   2  -3  639.44   32.90
  -5   2  -3  666.13   33.60
   5   2   3  678.33   33.00
  -5  -2  -3  645.04   35.40
  -5  -2  -3  701.73   34.00
   5  -2   3  630.64   35.30
   5  -2   3  700.63   33.60
   5   2   4  519.95   28.70
  -5   2  -4  505.75   26.10
  -5   2  -4  593.44   32.10
   5   2   4  502.85   26.00
   5  -2   4  494.35   26.90
  -5  -2  -4  510.85   27.40
  -5  -2  -4  475.85   28.60
   5  -2   4  476.15   28.90
   5   2   5  315.87   19.80
  -5   2  -5  317.27   19.20
   5   2   5  321.27   17.90
  -5   2  -5  319.87   18.30
  -5  -2  -5  312.47   21.10
  -5  -2  -5  309.47   21.10
   5  -2   5  342.87   22.10
   5   2   6  309.57   18.20
  -5   2  -6  317.77   18.80
  -5   2  -6  308.37   20.00
   5   2   6  312.57   20.60
   5  -2   6  318.37   22.80
  -5  -2  -6  336.67   22.10
   5   2   7   32.40    5.90
  -5   2  -7   24.50    6.20
   5   2   7   16.60    7.50
  -5   2  -7   21.50    7.40
   5  -2   7   17.90    9.10
  -5  -2  -7   22.40    8.60
   5   3  -8   23.60    9.10
  -5   3   8   10.50    9.50
   5  -3  -8    1.60    9.10
  -5  -3   8   -3.90   11.80
   5   3  -7 1276.27   58.89
  -5   3   7 1075.19   59.09
   5  -3  -7 1037.70   58.29
  -5   3   6    3.60    6.40
   5   3  -6   11.70    7.40
   5   3  -6    1.80    6.70
  -5   3   6    8.30    6.50
  -5  -3   6   -6.30    8.20
   5  -3  -6   11.50    7.30
   5  -3  -6    5.30    7.50
  -5   3   5 1125.19   60.09
  -5   3   5 1173.68   56.19
   5   3  -5 1128.79   57.19
   5   3  -5 1245.08   60.19
   5  -3  -5 1154.08   59.89
   5  -3  -5 1169.38   56.09
  -5  -3   5 1386.76   56.69
   5   3  -4    3.80    3.90
  -5   3   4    6.20    5.30
  -5   3   4    8.90    5.60
   5   3  -4    3.10    5.50
   5  -3  -4    5.80    5.40
   5  -3  -4    0.30    4.30
  -5  -3   4    4.20    7.00
   5   3  -3 1635.84   75.69
  -5   3   3 1562.84   78.09
  -5   3   3 1733.13   75.89
  -5  -3   3 1590.24   80.09
  -5  -3   3 1606.74   81.39
   5  -3  -3 1710.63   79.29
  -5   3   2  220.48   15.70
   5   3  -2  225.08   13.10
  -5   3   2  213.28   12.80
   5  -3  -2  214.58   14.80
  -5  -3   2  232.68   17.60
  -5   3   1 1550.94   73.29
  -5   3   1 1548.35   70.29
   5   3  -1 1449.06   70.29
   5  -3  -1 1521.05   72.79
  -5  -3   1 1581.24   75.09
  -5  -3   1 1443.56   75.89
  -5   3   0  855.91   43.20
   5   3   0  853.41   43.90
   5   3   0  908.71   40.30
  -5   3   0  937.41   41.10
   5   3   0  887.21   39.80
  -5  -3   0  902.81   46.60
   5  -3   0  839.42   45.60
   5  -3   0  851.51   45.10
   5  -3   0  846.12   40.30
  -5  -3   0  785.62   46.80
  -5   3  -1 1818.82   79.59
   5   3   1 1776.02   79.09
   5   3   1 1704.13   80.49
   5  -3   1 1487.45   84.79
   5  -3   1 1765.12   83.39
  -5  -3  -1 1845.92   83.49
  -5   3  -2  525.25   27.70
  -5   3  -2  566.14   28.10
   5   3   2  563.84   28.30
   5   3   2  581.94   28.20
  -5  -3  -2  587.74   32.50
   5  -3   2  504.95   32.70
  -5  -3  -2  558.84   32.80
   5  -3   2  523.15   31.00
   5   3   3 1332.67   63.39
   5   3   3 1363.96   63.69
  -5   3  -3 1337.27   63.19
  -5   3  -3 1319.37   63.29
  -5  -3  -3 1378.76   65.79
   5  -3   3 1311.77   66.79
  -5  -3  -3 1351.16   67.49
   5  -3   3 1355.56   66.49
   5   3   4  357.66   20.20
  -5   3  -4  344.17   25.20
  -5   3  -4  344.57   19.90
   5  -3   4  370.76   24.50
  -5  -3  -4  358.26   23.80
  -5  -3  -4  369.76   25.20
   5  -3   4  420.76   26.80
   5   3   5  938.91   47.00
   5   3   5  947.11   45.70
  -5   3  -5  899.01   45.60
  -5   3  -5  934.41   46.20
  -5  -3  -5  959.00   48.90
   5  -3   5  965.20   50.49
  -5  -3  -5  912.51   49.70
   5   3   6    7.70    5.30
   5   3   6   13.50    6.50
  -5   3  -6   10.50    5.90
  -5   3  -6    3.30    5.40
  -5  -3  -6    8.60    7.70
   5  -3   6   10.40    9.40
  -5   3  -7  715.73   38.10
   5   3   7  705.23   36.00
   5   3   7  719.53   39.40
  -5   3  -7  650.33   36.40
   5  -3   7  734.83   43.00
  -5  -3  -7  701.33   41.80
  -5   4   7 1298.07   68.09
   5   4  -7 1428.46   67.69
   5  -4  -7 1195.18   66.99
   5   4  -6  163.98   11.50
  -5   4   6  150.18   16.50
  -5   4   6  125.69   11.10
   5   4  -6  164.08   16.60
   5  -4  -6  129.09   16.90
   5   4  -5 1804.52   85.49
   5   4  -5 1854.21   89.59
  -5   4   5 1914.81   90.29
  -5   4   5 1884.41   85.49
  -5  -4   5 1824.82   92.99
   5  -4  -5 1821.62   89.99
  -5   4   4  194.68   15.90
  -5   4   4  190.28   12.50
   5   4  -4  192.58   12.70
   5   4  -4  198.18   16.00
   5  -4  -4  190.18   16.50
  -5  -4   4  193.88   20.50
  -5   4   3 1998.60   90.49
  -5   4   3 1970.20   93.49
   5   4  -3 1990.00   90.69
   5  -4  -3 1949.20   94.09
  -5  -4   3 1906.91   96.69
  -5  -4   3 1952.20   97.09
   5   4  -2  556.94   27.80
  -5   4   2  562.74   27.60
  -5   4   2  533.05   30.20
  -5  -4   2  542.35   33.50
   5  -4  -2  515.35   30.80
  -5  -4   2  517.55   33.80
  -5   4   1  843.62   42.90
   5   4  -1  829.32   40.60
  -5   4   1  820.42   40.20
  -5  -4   1  816.92   46.70
   5  -4  -1  807.72   43.40
  -5  -4   1  843.82   45.70
  -5   4   0  764.22   37.80
   5   4   0  786.82   38.30
  -5  -4   0  771.92   42.50
   5  -4   0  796.82   42.10
  -5  -4   0  727.63   44.10
  -5   4  -1  781.42   39.40
   5   4   1  794.52   39.90
  -5   4  -1  865.81   38.30
   5   4   1  810.92   38.00
  -5  -4  -1  776.62   46.00
   5  -4   1  767.02   43.30
   5  -4   1  828.52   43.60
   5   4   2  460.85   24.50
   5   4   2  450.35   24.70
  -5   4  -2  481.25   24.30
  -5   4  -2  427.96   24.30
   5  -4   2  443.16   29.10
  -5  -4  -2  481.75   30.50
   5  -4   2  446.46   28.70
  -5  -4  -2  503.45   31.60
  -5   4  -3  679.53   35.30
   5   4   3  774.12   36.80
  -5   4  -3  719.83   35.60
   5   4   3  687.43   35.80
  -5  -4  -3  724.43   41.80
   5  -4   3  688.63   40.30
   5  -4   3  674.63   39.80
   5   4   4  363.46   20.70
   5   4   4  322.27   20.50
  -5   4  -4  368.06   20.10
  -5   4  -4  329.07   20.30
   5  -4   4  372.26   26.50
  -5  -4  -4  396.86   27.10
   5  -4   4  348.37   26.00
  -5  -4  -4  366.96   23.80
  -5   4  -5  670.33   35.40
   5   4   5  683.13   35.60
   5   4   5  688.73   36.30
  -5   4  -5  697.23   35.60
  -5  -4  -5  671.63   41.00
   5  -4   5  712.63   41.70
  -5  -4  -5  719.83   38.60
  -5   4  -6  122.09   13.20
  -5   4  -6  149.88   14.50
   5   4   6  184.58   15.90
   5   4   6  172.48   13.90
  -5  -4  -6  190.48   22.50
  -5   5   6  827.62   45.60
  -5   5   6  805.92   39.40
   5   5  -6  796.22   39.50
   5   5  -6  775.92   44.40
   5  -5  -6  811.72   46.60
  -5  -5   6  686.33   50.59
  -5   5   5    3.90    7.80
   5   5  -5    2.40    5.50
   5   5  -5   12.00    7.40
  -5   5   5    7.30    5.50
   5  -5  -5    7.50   11.60
   5   5  -4  766.02   42.30
  -5   5   4  794.72   38.80
  -5   5   4  838.82   42.80
   5   5  -4  781.32   39.20
  -5  -5   4  713.53   47.90
   5  -5  -4  771.62   44.50
  -5   5   3  153.38   11.10
  -5   5   3  133.99   14.00
   5   5  -3  124.79   11.40
   5   5  -3  145.59   14.20
  -5  -5   3  108.69   17.60
   5  -5  -3  115.79   16.70
  -5   5   2 1489.95   69.99
   5   5  -2 1516.05   70.39
  -5   5   2 1542.05   72.89
  -5  -5   2 1445.66   77.09
   5  -5  -2 1439.66   74.99
  -5  -5   2 1453.15   77.49
   5   5  -1  574.24   30.30
  -5   5   1  590.94   30.00
  -5  -5   1  568.94   38.10
  -5  -5   1  570.04   37.30
   5  -5  -1  589.24   34.50
   5  -5  -1  559.54   35.10
  -5   5   0 1989.20   93.59
   5   5   0 2007.40   93.99
   5  -5   0 2131.59   98.99
   5  -5   0 1969.40   98.99
  -5  -5   0 2035.90  100.09
  -5  -5   0 1939.61  100.89
   5   5   1  501.05   27.70
  -5   5  -1  503.95   27.40
  -5  -5  -1  561.14   36.70
  -5  -5  -1  514.45   33.90
   5  -5   1  499.15   33.90
   5  -5   1  519.75   32.40
  -5   5  -2 1396.36   67.99
   5   5   2 1412.56   68.49
  -5  -5  -2 1466.65   76.39
   5  -5   2 1395.86   74.69
  -5  -5  -2 1420.86   73.59
   5  -5   2 1498.65   73.69
  -5   5  -3  250.57   18.10
   5   5   3  284.27   18.90
  -5  -5  -3  301.37   27.20
  -5  -5  -3  339.67   25.20
   5  -5   3  312.37   25.10
   5  -5   3  322.27   28.10
  -5   5  -4 1342.87   65.69
   5   5   4 1417.86   66.29
   5  -5   4 1312.07   72.59
  -5  -5  -4 1434.16   70.79
   5  -5   4 1395.76   72.39
  -5  -5  -4 1317.37   73.79
  -5   5  -5  122.19   15.20
  -5  -5  -5  116.09   16.20
  -5  -5  -5  130.39   20.00
  -5   6   4 1953.80   86.49
   5   6  -4 1602.54   88.59
  -5   6   4 1640.14   83.69
  -5  -6   4 1553.64   92.69
   5  -6  -4 1881.41   90.69
  -5   6   3  189.18   15.00
   5   6  -3  211.78   18.30
  -5   6   3  200.28   18.20
  -5  -6   3  143.09   22.80
   5  -6  -3  197.38   24.30
   5   6  -2 1067.29   57.19
   5   6  -2 1023.80   53.29
  -5   6   2 1136.69   54.59
  -5   6   2 1016.60   52.79
   5  -6  -2  942.31   60.69
  -5  -6   2  995.60   58.59
   5  -6  -1  110.59   16.60
   5  -6  -1   78.29   13.90
  -5  -6   1   75.69   17.20
  -5  -6   1   87.39   16.10
   5   6   0  686.73   37.10
  -5   6   0  635.04   36.60
  -5  -6   0  696.83   44.80
  -5  -6   0  612.54   44.20
   5  -6   0  644.14   43.40
   5  -6   0  714.53   41.60
   5   6   1  205.48   15.50
  -5   6  -1  175.68   14.60
   5  -6   1  187.48   22.80
  -5  -6  -1  192.18   23.40
  -5  -6  -1  223.28   25.50
   5  -6   1  232.58   28.50
  -5   6  -2  763.52   39.20
   5   6   2  755.62   39.20
  -5  -6  -2  747.43   47.00
   5  -6   2  685.43   49.70
   5  -6   2  802.12   45.90
  -5  -6  -2  709.53   48.70
  -6   0   9    6.00    9.40
  -6   0   9    0.20   10.10
   6   0  -9  -17.10    8.20
   6   0  -8 1909.71   92.29
  -6   0   8 1993.10   93.09
  -6   0   8 1833.22   93.19
  -6   0   7    5.80    6.90
   6   0  -7   12.60    6.00
  -6   0   7    6.10    6.50
   6   0  -6 2108.79   97.69
   6   0  -6 2036.40   93.49
  -6   0   6 2084.99   97.89
  -6   0   6 2060.99   98.69
   6   0  -5    7.20    3.90
  -6   0   5    2.70    4.80
  -6   0   5    5.10    5.00
   6   0  -5    7.70    4.60
  -6   0   4 2347.47  110.99
  -6   0   4 2469.55  108.79
  -6   0   4 2239.18  110.39
   6   0  -4 2499.15  111.39
  -6   0   3    3.50    5.80
  -6   0   3    6.50    4.40
  -6   0   3   -5.90    7.20
  -6   0   3   -2.70    4.90
  -6   0   2 2095.39   97.69
  -6   0   2 2018.00   97.69
  -6   0   2 2127.59  100.69
  -6   0   2 2234.28   97.29
  -6   0   1    1.90    4.00
  -6   0   1    4.60    4.30
   6   0  -1    1.20    4.30
  -6   0   1    6.40    8.70
   6   0   0 2730.83  123.99
  -6   0   0 2757.92  126.79
  -6   0   0 2612.64  121.89
  -6   0   0 2745.83  123.59
   6   0   1    1.50    4.50
  -6   0  -1    4.70    6.60
  -6   0  -2 5049.39  218.78
  -6   0  -2 4635.74  221.68
  -6   0  -3    4.40    4.70
  -6   0  -4 3667.63  163.88
   6   0   4 3571.64  165.28
  -6   0  -4 3562.34  165.28
  -6   0  -5    3.30    4.90
   6   0   5    6.10    5.30
  -6   0  -5    6.70    5.10
  -6   0  -6 2760.22  128.09
   6   0   6 2701.33  124.89
   6   0   6 2723.73  128.59
  -6   0  -7   14.40   11.90
   6   0   7   -2.80    5.30
   6   0   7   11.10   11.50
  -6   1   9  354.36   26.20
   6   1  -9  296.57   24.10
   6  -1  -9  298.87   23.40
  -6  -1   9  296.07   24.40
  -6  -1   9  300.97   27.10
   6  -1  -9  304.07   22.30
  -6   1   8  617.04   35.00
   6   1  -8  609.04   34.10
   6  -1  -8  540.05   32.50
   6  -1  -8  551.54   33.10
  -6  -1   8  553.24   35.10
  -6  -1   8  576.94   33.60
  -6   1   7  674.03   37.20
   6   1  -7  649.14   36.70
  -6  -1   7  646.74   37.30
   6  -1  -7  659.63   35.90
   6  -1  -7  669.73   35.40
  -6  -1   7  649.43   35.60
  -6   1   6  976.30   51.59
   6   1  -6  970.20   47.10
  -6   1   6 1076.49   51.89
  -6   1   6 1007.40   47.60
   6   1  -6 1031.50   51.79
  -6  -1   6 1062.49   52.49
  -6  -1   6  982.70   50.19
   6  -1  -6 1016.40   51.99
  -6   1   5 1669.83   72.19
   6   1  -5 1540.65   71.49
  -6   1   5 1521.75   75.19
   6   1  -5 1648.54   75.59
  -6   1   5 1571.34   75.09
   6  -1  -5 1534.25   74.19
  -6  -1   5 1497.35   75.59
  -6  -1   5 1527.55   74.29
   6   1  -4 1941.21   88.79
   6   1  -4 1997.20   92.19
  -6   1   4 1853.61   91.39
  -6   1   4 2066.59   89.29
  -6   1   4 1953.90   91.39
  -6  -1   4 1919.71   92.29
  -6  -1   4 1894.21   90.29
   6  -1  -4 1973.40   90.89
   6  -1  -4 1934.51   90.59
   6   1  -3 2510.75  114.59
  -6   1   3 2591.44  114.89
  -6  -1   3 2509.35  117.49
  -6  -1   3 2432.16  119.59
   6  -1  -3 2588.74  115.89
   6  -1  -3 2604.64  116.19
  -6  -1   3 2441.06  115.29
  -6   1   2 2477.05  118.49
  -6   1   2 2703.03  118.99
  -6   1   2 2649.83  117.09
   6   1  -2 2539.35  116.69
   6   1  -2 2641.94  116.89
   6  -1  -2 2549.15  117.39
  -6  -1   2 2541.35  118.59
  -6  -1   2 2452.95  122.09
   6   1  -1 3739.03  168.18
  -6   1   1 3815.82  168.48
   6   1  -1 3840.02  167.98
  -6   1   1 3731.63  170.68
   6  -1  -1 3805.52  168.08
  -6  -1   1 3670.83  168.98
  -6  -1   1 3476.65  173.08
   6  -1  -1 3718.73  170.08
   6   1   0 1450.15   69.29
   6   1   0 1474.35   68.89
  -6   1   0 1528.25   71.79
   6  -1   0 1465.45   70.99
   6  -1   0 1462.75   68.29
  -6  -1   0 1464.25   68.99
  -6  -1   0 1594.94   74.79
   6   1   1 1593.14   76.19
   6   1   1 1642.84   76.19
   6   1   1 1876.11   76.59
  -6   1  -1 1609.94   76.39
  -6   1  -1 1645.04   77.89
  -6  -1  -1 1549.64   79.79
  -6  -1  -1 1568.64   74.99
   6  -1   1 1631.84   75.09
   6  -1   1 1702.53   75.29
   6   1   2  893.51   42.70
   6   1   2  895.41   43.50
  -6   1  -2  916.31   44.60
  -6   1  -2  872.21   42.90
  -6  -1  -2  880.51   45.50
   6  -1   2  880.01   44.50
   6   1   3  639.64   33.10
   6   1   3  668.13   32.40
  -6   1  -3  645.94   33.50
  -6   1  -3  650.43   32.70
  -6  -1  -3  654.23   34.90
   6  -1   3  660.03   34.60
  -6   1  -4  649.64   32.30
   6   1   4  623.64   31.70
   6   1   4  644.04   33.40
  -6   1  -4  648.14   33.30
  -6  -1  -4  607.34   34.20
   6  -1   4  624.24   34.40
   6   1   5  466.65   28.00
   6   1   5  499.15   25.80
  -6   1  -5  522.65   26.60
  -6   1  -5  483.35   27.50
   6  -1   5  480.85   29.00
  -6  -1  -5  519.95   29.20
   6   1   6  532.25   30.30
   6   1   6  480.95   26.70
  -6   1  -6  513.65   29.40
  -6   1  -6  508.95   28.00
   6  -1   6  541.75   31.70
  -6  -1  -6  535.15   30.90
  -6   1  -7  256.17   20.60
   6   1   7  264.67   21.00
  -6   1  -7  249.48   17.60
   6   1   7  267.37   16.80
  -6  -1  -7  258.97   21.00
   6  -1   7  246.28   22.40
  -6   2   8    2.20    8.60
   6   2  -8   -0.60    8.60
   6  -2  -8    7.10    7.20
  -6  -2   8   25.70    9.10
   6   2  -7 1485.25   75.29
  -6   2   7 1503.95   76.19
  -6  -2   7 1693.33   75.29
   6  -2  -7 1508.35   75.19
   6  -2  -7 1429.56   72.29
  -6   2   6   20.70    6.60
  -6   2   6   18.30    7.20
   6   2  -6   12.00    7.20
   6   2  -6   17.80    5.90
   6  -2  -6   10.40    7.10
  -6  -2   6   18.40    9.60
   6  -2  -6   20.30   10.80
  -6  -2   6    7.10    7.60
   6   2  -5 1339.77   63.89
  -6   2   5 1340.57   67.79
   6   2  -5 1376.96   68.09
  -6   2   5 1376.56   64.19
  -6  -2   5 1594.64   65.89
  -6  -2   5 1264.97   67.99
   6  -2  -5 1385.66   67.29
   6  -2  -5 1350.36   65.29
   6   2  -4   38.60    7.40
  -6   2   4   28.90    6.30
  -6   2   4   37.00    6.10
   6   2  -4   31.90    5.70
  -6  -2   4   36.20    7.10
  -6  -2   4   39.00    7.50
   6  -2  -4   32.90    6.60
   6  -2  -4   36.80    7.00
   6   2  -3  755.62   35.30
  -6   2   3  697.53   37.30
  -6   2   3  763.52   35.50
  -6  -2   3  687.03   37.80
   6  -2  -3  735.53   35.20
   6  -2  -3  717.63   36.50
  -6  -2   3  674.83   40.30
  -6   2   2   87.49    9.90
   6   2  -2   96.49    7.60
  -6   2   2   79.89    9.00
   6  -2  -2   89.39   11.70
  -6  -2   2   99.19   12.10
  -6  -2   2   62.99   10.40
  -6   2   1 1506.85   67.59
  -6   2   1 1457.55   66.59
   6   2  -1 1466.35   66.59
   6   2  -1 1447.46   65.19
  -6   2   1 1352.26   68.39
  -6  -2   1 1447.96   69.09
   6  -2  -1 1428.36   67.39
  -6  -2   1 1399.56   72.29
   6  -2  -1 1346.67   68.69
   6   2   0   73.89    6.60
  -6   2   0   74.49   10.00
  -6   2   0   67.59    6.50
   6   2   0   59.59    7.10
   6  -2   0   71.59    9.20
  -6  -2   0   70.49   10.70
  -6  -2   0   83.29   10.10
   6  -2   0   55.29    7.60
   6   2   1 2729.03  119.99
  -6   2  -1 2430.56  121.99
  -6   2  -1 2717.03  121.19
   6   2   1 2490.45  122.99
   6  -2   1 2744.03  121.09
  -6  -2  -1 2468.95  128.19
  -6  -2  -1 2864.41  121.39
  -6   2  -2   25.50    4.60
  -6   2  -2   40.00    7.40
   6   2   2   30.50    4.60
   6   2   2   30.10    6.20
   6  -2   2   29.50    7.90
   6  -2   2   26.50    6.20
  -6  -2  -2   45.70    8.30
  -6  -2  -2   24.00    7.20
  -6   2  -3 2467.15  115.59
   6   2   3 2493.85  115.79
   6   2   3 2545.45  115.59
  -6   2  -3 2463.15  115.79
   6  -2   3 2641.14  114.19
  -6  -2  -3 2699.93  114.99
  -6  -2  -3 2383.56  118.79
   6  -2   3 2428.46  118.39
   6   2   4    0.80    3.90
  -6   2  -4    6.30    4.00
   6   2   4    8.40    4.50
  -6   2  -4    4.90    4.20
   6  -2   4    1.40    5.80
  -6  -2  -4    4.70    5.90
  -6   2  -5 1724.93   80.99
  -6   2  -5 1726.73   81.69
   6   2   5 1704.23   82.29
   6   2   5 1703.83   80.59
   6  -2   5 1731.23   84.89
  -6  -2  -5 1751.42   84.59
  -6   2  -6    3.00    6.00
   6   2   6    0.30    6.00
   6   2   6    7.00    5.10
  -6   2  -6    4.60    5.70
  -6  -2  -6    4.90    7.90
   6  -2   6    2.40    8.20
  -6   2  -7  899.41   45.90
   6   2   7  894.91   45.30
   6  -2   7  956.90   52.49
  -6  -2  -7  920.71   50.69
  -6   3   8  157.68   19.80
   6   3  -8  167.18   18.70
  -6  -3   8  161.88   23.70
   6  -3  -8  125.59   16.60
   6   3  -7  701.43   38.80
  -6   3   7  650.63   38.90
   6  -3  -7  602.44   37.70
   6   3  -6  384.16   21.10
   6   3  -6  406.56   25.90
  -6   3   6  404.86   26.90
   6  -3  -6  395.56   26.50
   6   3  -5  630.64   35.30
   6   3  -5  596.54   30.60
  -6   3   5  629.84   30.70
  -6   3   5  608.64   35.20
  -6  -3   5  602.74   36.90
   6  -3  -5  650.53   35.40
   6   3  -4 1226.18   62.09
  -6   3   4 1186.18   61.79
  -6   3   4 1275.27   58.59
   6   3  -4 1340.97   63.09
  -6  -3   4 1174.98   63.39
   6  -3  -4 1277.77   61.79
  -6   3   3  912.11   46.90
  -6   3   3  891.01   46.10
   6   3  -3  896.71   43.80
   6  -3  -3  913.91   46.20
  -6  -3   3  955.20   48.80
  -6  -3   3  918.01   50.79
   6   3  -2 1743.93   82.29
  -6   3   2 1759.52   84.79
  -6   3   2 1799.92   82.29
  -6  -3   2 1812.22   89.49
   6  -3  -2 1787.32   84.09
  -6   3   1  804.12   42.20
   6   3  -1  813.42   39.90
  -6   3   1  852.11   39.90
  -6  -3   1  818.62   46.80
  -6  -3   1  839.12   43.30
   6  -3  -1  790.22   42.90
   6   3   0  601.14   27.40
  -6   3   0  555.24   29.00
  -6   3   0  621.24   29.80
   6   3   0  554.14   29.00
   6  -3   0  544.25   33.20
  -6  -3   0  579.54   34.90
   6  -3   0  562.64   32.30
  -6  -3   0  537.95   35.60
   6   3   1 1116.29   50.19
   6   3   1 1063.29   51.29
  -6   3  -1 1089.29   51.19
  -6   3  -1 1037.10   51.09
   6  -3   1 1033.40   54.29
  -6  -3  -1  993.90   56.69
  -6  -3  -1 1132.39   54.99
   6  -3   1 1057.29   54.49
   6   3   2  172.98   13.50
  -6   3  -2  189.18   12.20
  -6   3  -2  172.48   14.10
   6   3   2  148.79   11.80
  -6  -3  -2  181.48   20.30
  -6  -3  -2  174.08   17.30
   6  -3   2  164.48   20.00
   6  -3   2  174.78   15.30
  -6   3  -3  882.61   43.80
   6   3   3  876.41   43.90
  -6   3  -3  862.51   43.80
  -6  -3  -3  878.11   48.70
   6  -3   3  873.31   47.90
   6  -3   3  938.51   47.50
  -6  -3  -3  948.21   47.30
   6   3   4   73.79    8.70
   6   3   4   59.39    7.80
  -6   3  -4   72.79    8.80
  -6   3  -4   71.39    8.60
   6  -3   4   85.39   12.40
  -6  -3  -4   72.99   12.10
  -6   3  -5  509.15   28.70
   6   3   5  533.25   28.20
   6   3   5  516.45   29.30
  -6   3  -5  517.45   28.40
  -6  -3  -5  545.25   33.00
   6  -3   5  546.35   34.30
   6   3   6  103.59   11.10
  -6   3  -6   86.19   10.60
   6   3   6   79.59   10.80
  -6   3  -6   80.29    9.60
   6  -3   6   79.89   19.50
  -6   4   7   17.70   10.80
   6   4  -7   23.70   11.20
   6  -4  -7   23.40   10.80
  -6  -4   7   31.90   13.40
  -6   4   6  543.65   29.40
   6   4  -6  565.74   34.30
   6   4  -6  599.44   29.60
  -6   4   6  579.44   35.40
   6  -4  -6  570.54   35.20
  -6  -4   6  546.15   39.10
   6   4  -5   55.89    7.10
  -6   4   5   52.79    9.70
   6   4  -5   59.89   10.20
  -6   4   5   72.09    8.20
   6  -4  -5   63.19   10.40
  -6  -4   5   31.70   11.20
   6   4  -4  495.85   30.00
   6   4  -4  485.35   25.90
  -6   4   4  501.65   25.80
  -6   4   4  536.75   30.00
  -6  -4   4  457.15   33.00
   6  -4  -4  487.55   30.10
  -6   4   3  394.36   24.70
  -6   4   3  394.06   21.40
   6   4  -3  364.16   21.20
  -6  -4   3  393.96   29.00
   6  -4  -3  388.06   24.70
  -6  -4   3  389.86   27.80
  -6   4   2  461.05   26.40
   6   4  -2  433.46   23.70
  -6   4   2  450.15   23.60
   6  -4  -2  424.06   26.80
  -6  -4   2  431.56   29.60
  -6  -4   2  432.86   31.30
  -6   4   1  132.19   10.40
   6   4  -1  141.69   10.90
   6  -4  -1  130.89   14.40
   6  -4  -1  169.28   15.20
  -6  -4   1  158.58   16.60
  -6  -4   1  134.89   18.10
  -6   4   0  630.34   32.90
   6   4   0  671.33   33.50
   6  -4   0  663.53   37.70
  -6  -4   0  666.13   41.20
  -6  -4   0  647.24   37.80
   6  -4   0  639.14   36.40
   6   4   1    4.70    4.20
  -6   4  -1    3.70    3.90
   6  -4   1    6.80    8.40
  -6  -4  -1   -5.80    8.30
   6  -4   1    6.80    7.10
  -6  -4  -1    7.20    9.60
  -6   4  -2  672.23   35.50
   6   4   2  742.73   36.40
   6  -4   2  695.13   40.30
  -6  -4  -2  711.13   43.60
   6  -4   2  711.23   40.00
   6   4   3    1.10    4.70
  -6   4  -3    6.20    4.80
   6  -4   3    5.90    8.30
   6  -4   3   14.70    9.80
  -6  -4  -3   -0.10    9.70
   6   4   4  921.61   45.10
  -6   4  -4  889.81   44.50
  -6   4  -4  873.61   44.80
   6   4   4  904.51   45.10
   6  -4   4  906.31   51.39
  -6  -4  -4  915.31   51.79
   6   4   5   18.70    6.70
   6   4   5    7.70    7.00
  -6   4  -5    9.40    6.00
  -6   4  -5   11.50    6.50
  -6  -4  -5   -3.10   11.60
   6   5  -5   35.30    9.90
   6   5  -5   39.10    7.20
  -6   5   5   48.40    7.60
  -6   5   5   52.99   10.20
  -6  -5   5   33.60   14.80
   6  -5  -5   40.60   11.40
   6   5  -4   90.09    9.40
  -6   5   4  107.69   14.20
   6   5  -4  101.89   13.40
  -6   5   4   93.29   10.50
   6  -5  -4  110.79   14.90
  -6  -5   4  102.09   18.10
  -6   5   3  200.58   14.00
   6   5  -3  174.98   14.20
   6   5  -3  213.08   17.80
  -6   5   3  215.68   18.00
  -6  -5   3  215.88   23.70
  -6  -5   3  215.38   23.80
   6  -5  -3  194.18   20.10
  -6   5   2   31.30    7.60
  -6   5   2   27.30    5.60
   6   5  -2   35.30    6.40
   6  -5  -2   28.20   10.00
  -6  -5   2   32.20   13.40
  -6  -5   2   33.20   12.60
   6   5  -1  163.48   13.20
  -6   5   1  181.78   13.20
  -6  -5   1  134.19   19.90
   6  -5  -1  231.08   20.50
  -6  -5   1  165.08   21.90
   6  -5  -1  186.98   19.10
  -6   5   0  215.68   14.60
   6   5   0  198.68   14.90
  -6  -5   0  214.68   22.80
   6  -5   0  225.98   21.20
   6  -5   0  224.38   20.80
  -6  -5   0  185.98   24.90
  -6   5  -1   51.39    7.20
   6  -5   1   41.80   11.30
  -6  -5  -1   41.60   14.40
  -6  -5  -1   25.70   12.30
   6  -5   1   35.00   12.10
  -6   5  -2  259.27   16.60
   6   5   2  250.37   17.10
   6  -5   2  283.47   26.10
  -6  -5  -2  207.78   27.20
   6  -5   2  255.17   23.30
  -6  -5  -2  236.28   23.70
   6   5   3    3.50    6.50
  -6   5  -3    6.70    8.90
   6  -5   3   -0.40   10.30
   6  -5   3    7.30   13.20
  -6  -5  -3   33.60   12.50
  -6  -5  -3   29.50   13.50
  -6   5  -4  322.17   21.30
   6   5   4  347.97   21.70
   6  -5   4  347.07   30.30
  -6   6   2  408.86   24.30
   6   6  -2  413.36   24.60
   6  -6  -2  439.56   32.20
   6  -6  -2  413.36   32.80
  -6  -6   2  366.36   36.10
  -6  -6   2  407.56   49.00
  -6   6   1   18.80    6.20
   6   6  -1   13.60    6.40
   6  -6  -1   27.90   14.00
  -6  -6   1   -3.70   14.70
   6   6   0  241.78   17.50
  -6   6   0  228.38   16.70
  -6  -6   0  241.08   30.20
  -6  -6   0  188.68   28.00
   6  -6   0  274.77   28.70
  -6   6  -1   10.50    6.30
   6   6   1   13.60    6.90
  -6  -6  -1   15.50   14.70
   6  -6   1   36.40   16.60
  -6  -6  -1   -1.10   17.20
   6  -6   1    6.60   14.40
   7   0  -8  540.65   32.30
  -7   0   8  532.25   33.00
   7   0  -7    9.30    6.70
  -7   0   7    2.00    7.80
  -7   0   7   -7.20    7.60
   7   0  -6  489.95   24.80
  -7   0   6  463.55   28.20
   7   0  -6  505.75   28.60
  -7   0   6  492.15   29.20
  -7   0   5   -7.20    5.50
   7   0  -5    4.10    4.90
   7   0  -5   -6.40    5.30
  -7   0   5   10.20    5.30
  -7   0   4  312.67   19.00
  -7   0   4  321.97   19.10
   7   0  -4  325.87   19.80
  -7   0   4  305.37   19.70
  -7   0   3   -1.10    5.20
  -7   0   3    5.60    6.50
   7   0  -2   63.69    8.40
  -7   0   2   68.49    8.20
  -7   0   2   65.89    8.80
  -7   0   2   72.39   13.20
  -7   0   1   -2.30    3.30
  -7   0   1   -2.00    9.90
   7   0  -1   -0.10    5.50
  -7   0   1   -2.40    4.50
   7   0   0  114.59    9.20
  -7   0   0   99.69   19.30
   7   0   0  124.49   11.90
  -7   0   0  120.69    9.60
  -7   0  -1    0.80    3.30
   7   0   1    2.70    3.50
  -7   0  -1    5.70    5.30
  -7   0  -2   73.89    9.90
  -7   0  -2   55.99    7.30
  -7   0  -3   -1.80    5.20
  -7   0  -3    1.80    4.30
   7   0   3    2.10    4.50
   7   0   4  332.47   21.40
  -7   0  -4  352.66   20.20
  -7   0  -4  330.77   21.70
  -7   0  -5    5.20    6.60
   7   0   5    3.30    5.80
  -7   0  -5   11.50    5.50
   7   0   6  420.46   23.80
  -7   0  -6  424.26   27.30
   7   0   6  404.56   27.60
   7   0   7    1.60    6.10
  -7   0  -7   -3.00    8.60
   7   0   7   12.70    8.90
   7   1  -8  177.48   18.10
  -7   1   8  186.18   19.50
   7  -1  -8  152.18   16.50
  -7  -1   8  180.88   18.30
   7  -1  -8  155.08   20.90
  -7  -1   8  153.38   21.50
  -7   1   7  108.79   15.60
   7   1  -7  100.19   12.70
   7  -1  -7  109.69   13.30
   7  -1  -7  119.19   13.60
  -7  -1   7  103.19   12.00
  -7  -1   7  111.59   16.20
  -7   1   6  211.78   18.00
   7   1  -6  228.18   14.60
   7   1  -6  267.67   18.70
  -7   1   6  217.38   16.50
  -7  -1   6  193.78   17.60
   7  -1  -6  227.08   16.50
   7  -1  -6  227.88   16.40
   7   1  -5   22.20    5.80
  -7   1   5   20.70    6.10
  -7   1   5   30.20    7.10
   7   1  -5   30.10    8.30
  -7  -1   5   31.20    9.10
   7  -1  -5   30.80    6.30
   7  -1  -5   21.70    6.20
  -7  -1   5   33.10    7.50
   7   1  -4  296.97   19.80
  -7   1   4  296.57   18.00
   7   1  -4  308.37   17.20
  -7   1   4  293.87   19.00
   7  -1  -4  303.47   20.60
  -7  -1   4  307.07   20.30
  -7  -1   4  283.07   19.60
  -7  -1   4  301.67   22.30
   7  -1  -4  294.87   18.10
  -7   1   3    9.10    8.10
  -7   1   3   10.20    5.60
   7  -1  -3    7.70    4.60
  -7  -1   3   13.50    6.30
  -7  -1   3   15.60    5.30
  -7  -1   3   10.10    6.60
   7   1  -2  492.85   25.60
  -7   1   2  506.85   25.90
   7   1  -2  542.45   26.90
  -7   1   2  516.15   30.40
  -7   1   2  507.45   27.70
  -7  -1   2  527.25   29.50
   7  -1  -2  502.25   27.30
  -7  -1   2  472.85   31.50
   7   1  -1  276.17   16.30
   7   1  -1  262.47   15.00
  -7   1   1  260.07   15.40
  -7   1   1  282.77   22.50
  -7  -1   1  299.57   24.10
   7  -1  -1  259.77   16.50
   7  -1  -1  249.97   17.00
  -7  -1   1  269.87   18.60
   7   1   0  732.83   36.40
  -7   1   0  744.63   40.70
  -7   1   0  732.33   36.50
   7   1   0  750.32   36.40
   7  -1   0  730.73   35.50
  -7  -1   0  744.03   41.90
   7  -1   0  724.13   37.60
  -7  -1   0  725.43   36.30
  -7   1  -1  303.47   22.00
   7   1   1  314.07   18.60
   7   1   1  329.77   17.60
  -7   1  -1  321.27   17.70
   7  -1   1  320.07   19.40
  -7  -1  -1  283.37   16.40
  -7  -1  -1  302.87   21.50
   7   1   2  686.73   34.10
  -7   1  -2  676.33   35.70
   7   1   2  641.24   34.20
  -7   1  -2  688.63   34.40
   7  -1   2  693.43   36.00
  -7  -1  -2  704.93   37.80
   7   1   3    2.20    4.10
  -7   1  -3   12.20    4.40
   7   1   3    6.50    3.90
  -7   1  -3   -2.70    4.50
  -7  -1  -3    8.30    5.80
   7  -1   3    4.20    4.90
   7   1   4  301.27   18.90
  -7   1  -4  312.17   18.20
   7   1   4  275.77   17.20
  -7   1  -4  284.97   19.20
  -7  -1  -4  304.57   20.80
   7  -1   4  272.97   20.00
  -7   1  -5    2.10    5.00
  -7   1  -5    2.50    6.30
   7   1   5    0.50    5.70
   7   1   5   -0.10    4.40
  -7  -1  -5    2.10    7.00
   7  -1   5    1.60    6.70
   7   1   6   99.09   11.80
   7   1   6  151.38   15.70
  -7   1  -6  150.38   13.50
  -7   1  -6  139.49   14.60
   7  -1   6  158.68   16.70
  -7  -1  -6  117.19   15.10
  -7   1  -7   17.90    7.70
  -7   1  -7   -3.20    7.70
   7   1   7    6.10    6.40
   7   1   7    6.40    8.50
   7  -1   7    0.30    9.90
  -7  -1  -7  -14.20    9.00
  -7   2   8  105.99   14.60
   7   2  -8   84.79   13.80
   7  -2  -8   91.39   14.70
   7  -2  -8   96.29   13.70
  -7  -2   8   95.89   14.50
  -7   2   7  483.35   30.50
   7   2  -7  444.46   29.80
  -7  -2   7  526.35   32.40
   7  -2  -7  449.95   29.30
   7  -2  -7  405.46   26.20
   7   2  -6  212.58   18.60
  -7   2   6  203.88   19.40
   7   2  -6  212.28   15.80
  -7   2   6  238.48   17.30
   7  -2  -6  240.98   18.50
  -7  -2   6  258.77   22.20
   7  -2  -6  189.98   15.40
  -7  -2   6  236.18   21.00
   7   2  -5  466.25   24.10
   7   2  -5  497.95   29.40
  -7   2   5  504.75   29.00
   7  -2  -5  502.35   28.20
  -7  -2   5  466.25   27.70
  -7  -2   5  444.06   29.40
   7  -2  -5  477.55   27.20
  -7   2   4  389.46   20.50
   7   2  -4  369.06   20.10
  -7   2   4  384.06   23.40
   7  -2  -4  387.56   22.70
  -7  -2   4  355.46   24.30
   7  -2  -4  378.26   23.10
  -7  -2   4  403.46   22.70
  -7  -2   4  385.46   27.00
   7   2  -3  363.76   18.70
  -7   2   3  333.47   18.50
  -7   2   3  321.37   20.80
   7   2  -3  346.27   19.30
  -7  -2   3  336.97   25.20
   7  -2  -3  337.97   20.20
  -7  -2   3  282.17   22.90
  -7   2   2  612.14   30.80
   7   2  -2  608.04   30.60
   7   2  -2  615.64   29.80
  -7   2   2  660.93   32.50
  -7   2   2  566.34   32.60
   7  -2  -2  606.84   34.50
  -7   2   1   92.39   11.90
   7   2  -1   90.09    7.90
   7   2  -1  100.19    8.80
  -7   2   1   91.19    8.00
  -7  -2   1   91.89   12.30
   7  -2  -1   94.59   11.90
  -7  -2   1  111.69   14.90
   7  -2  -1   76.79    9.80
  -7   2   0 1322.47   63.89
   7   2   0 1360.56   62.99
   7   2   0 1353.56   63.89
  -7   2   0 1406.26   66.39
  -7  -2   0 1299.87   69.79
  -7  -2   0 1370.16   65.59
   7  -2   0 1385.96   66.69
   7  -2   0 1344.97   64.59
   7   2   1   10.20    5.60
   7   2   1   16.20    3.70
  -7   2  -1    8.40    3.70
  -7   2  -1   23.30    8.90
   7  -2   1    5.80    4.70
  -7  -2  -1    9.60    8.00
  -7  -2  -1   12.30    8.20
   7  -2   1    8.50    8.00
  -7   2  -2  594.84   32.30
   7   2   2  607.74   32.00
   7   2   2  625.94   32.80
   7  -2   2  694.13   34.30
  -7  -2  -2  589.54   36.60
  -7  -2  -2  668.23   33.00
   7  -2   2  642.64   35.30
  -7   2  -3   64.59    8.40
   7   2   3   60.59    8.20
  -7   2  -3   62.09    7.60
   7   2   3   70.39    8.00
  -7  -2  -3   85.49   12.30
   7  -2   3   69.79    9.80
  -7   2  -4  298.97   19.40
   7   2   4  318.97   19.80
   7   2   4  317.37   18.70
  -7   2  -4  293.77   19.00
  -7  -2  -4  300.37   22.50
   7  -2   4  331.07   22.70
  -7   2  -5  273.17   18.50
  -7   2  -5  308.97   20.00
   7   2   5  284.67   18.50
   7   2   5  301.27   19.90
   7  -2   5  326.27   23.90
  -7  -2  -5  279.37   23.00
  -7   2  -6  168.08   15.00
   7   2   6  150.48   16.50
   7   2   6  187.58   13.90
  -7   2  -6  173.28   15.60
  -7  -2  -6  175.18   19.50
   7  -2   6  176.08   19.90
   7   3  -7  710.63   41.50
  -7   3   7  719.33   42.50
   7  -3  -7  682.23   41.10
  -7   3   6  180.08   18.60
   7   3  -6  175.78   18.00
   7   3  -6  179.28   12.50
   7  -3  -6  187.98   18.10
  -7  -3   6  165.98   20.70
   7   3  -5  690.73   38.90
   7   3  -5  667.83   33.60
  -7   3   5  684.83   33.90
  -7   3   5  681.83   38.60
   7  -3  -5  709.13   38.50
  -7  -3   5  642.94   40.00
   7   3  -4  216.58   13.00
  -7   3   4  196.18   12.90
  -7   3   4  208.88   17.20
  -7  -3   4  161.28   18.30
  -7  -3   4  181.48   20.50
   7  -3  -4  204.38   16.80
  -7   3   3 1136.99   57.39
  -7   3   3 1155.88   54.09
   7   3  -3 1106.59   53.79
  -7  -3   3 1114.09   58.49
  -7  -3   3 1153.98   62.39
   7  -3  -3 1134.39   56.29
  -7   3   2   49.20    6.00
  -7   3   2   48.40    8.00
   7   3  -2   43.40    5.70
   7  -3  -2   35.40    6.80
  -7  -3   2   60.89    9.70
  -7  -3   2   25.40   10.40
  -7   3   1 1121.09   49.70
   7   3  -1 1029.10   50.49
  -7   3   1 1038.50   50.39
   7  -3  -1 1006.70   51.69
   7  -3  -1  993.70   53.59
  -7  -3   1 1117.39   53.79
  -7  -3   1 1006.30   57.99
   7   3   0    3.90    5.00
   7   3   0    1.80    3.80
  -7   3   0   14.80    8.90
  -7   3   0    1.00    3.50
   7  -3   0    0.10    9.90
  -7  -3   0    8.20   11.70
   7  -3   0  -11.70    5.30
  -7  -3   0   15.40   10.00
   7   3   1  933.91   47.10
   7   3   1 1025.10   46.30
  -7   3  -1  934.81   47.00
  -7   3  -1  990.20   48.50
   7  -3   1  950.50   50.69
   7  -3   1  910.31   50.29
  -7  -3  -1  957.70   54.09
  -7  -3  -1  995.00   51.29
   7   3   2   15.60    7.20
   7   3   2    4.60    4.00
  -7   3  -2   17.80    9.00
  -7   3  -2   11.50    4.70
  -7  -3  -2   -4.00    8.50
   7  -3   2   11.90    6.50
  -7  -3  -2   15.20   11.90
   7  -3   2    4.10   12.10
  -7   3  -3  899.61   47.30
   7   3   3 1000.40   47.80
   7   3   3  969.10   47.50
   7  -3   3  972.10   52.19
  -7  -3  -3  981.80   53.79
  -7   3  -4   59.89    8.50
   7   3   4   71.69    8.80
  -7   3  -4   67.69    8.90
   7   3   4   62.69    8.30
  -7  -3  -4   51.09   11.40
   7  -3   4   77.49   12.90
  -7   3  -5  623.04   34.00
   7   3   5  623.64   33.20
   7   3   5  618.54   34.40
  -7   3  -5  643.24   33.70
  -7   3  -6  131.69   15.10
  -7  -3  -6  164.58   20.80
   7   4  -6  324.37   24.90
   7   4  -6  302.27   20.30
  -7   4   6  354.46   26.50
  -7   4   6  333.97   22.00
   7  -4  -6  362.56   26.60
  -7  -4   6  402.36   31.90
  -7   4   5  695.03   38.60
   7   4  -5  610.24   32.70
   7   4  -5  651.63   38.10
  -7   4   5  646.74   33.10
  -7  -4   5  562.14   40.70
   7  -4  -5  693.63   38.30
  -7   4   4  249.58   16.20
  -7   4   4  287.97   21.00
   7   4  -4  277.17   20.60
   7   4  -4  232.38   16.00
   7  -4  -4  242.78   20.30
  -7  -4   4  222.58   24.20
   7   4  -3 1092.69   54.19
  -7   4   3 1164.08   54.49
  -7   4   3 1214.48   58.29
   7  -4  -3 1103.99   57.59
  -7  -4   3 1109.89   63.69
  -7  -4   3 1071.79   60.19
  -7   4   2   90.69   12.70
   7   4  -2   91.09    9.40
  -7   4   2   84.99    9.40
  -7  -4   2   84.99   14.10
  -7  -4   2   60.99   15.30
   7  -4  -2   81.09   11.50
   7   4  -1 1749.43   80.79
  -7   4   1 1710.63   80.49
  -7  -4   1 1705.13   85.09
   7  -4  -1 1710.03   83.39
  -7  -4   1 1627.54   89.39
   7  -4  -1 1763.12   85.49
   7   4   0   73.59    9.20
  -7   4   0   93.99    9.50
  -7  -4   0   73.89   12.50
   7  -4   0   71.09   11.30
  -7  -4   0  105.49   17.60
   7  -4   0   98.09   13.00
  -7   4  -1 1988.20   93.29
   7   4   1 2049.70   93.49
   7  -4   1 1974.00   97.79
  -7  -4  -1 1956.10  101.99
  -7  -4  -1 1988.90   96.29
   7   4   2  132.49   11.60
  -7   4  -2  108.49   11.30
  -7  -4  -2  116.89   16.10
  -7  -4  -2  186.98   21.20
   7  -4   2  127.29   18.60
   7  -4   2  102.49   15.10
  -7   4  -3 1254.27   62.09
   7   4   3 1326.87   62.39
  -7  -4  -3 1259.07   70.19
   7  -4   3 1287.67   68.09
   7   4   4  303.37   19.40
  -7   4  -4  271.07   19.40
   7  -4   4  316.17   32.70
   7  -5  -5  407.96   31.20
  -7   5   4 1550.64   71.29
   7   5  -4 1338.37   65.49
  -7   5   4 1380.36   65.49
   7   5  -4 1432.86   70.29
  -7  -5   4 1115.89   74.49
  -7   5   3  161.18   13.50
   7   5  -3  171.68   13.80
  -7  -5   3  166.98   22.20
   7  -5  -3  176.08   20.40
  -7  -5   3  200.18   24.10
  -7   5   2 1065.09   51.79
   7   5  -2 1029.60   51.89
   7  -5  -2 1003.10   56.89
   7  -5  -2 1137.39   58.29
  -7  -5   2 1055.19   59.79
  -7  -5   2 1041.60   61.79
   7   5  -1   40.00    6.80
  -7   5   1   26.70    6.40
  -7  -5   1   36.70   14.90
   7  -5  -1   58.99   12.20
   7  -5  -1   39.10   11.30
  -7  -5   1   37.30   13.10
  -7   5   0  900.11   46.30
   7   5   0  961.40   47.10
  -7  -5   0  935.11   53.19
  -7  -5   0  923.11   57.09
   7  -5   0  887.51   51.29
   7  -5   0  975.30   52.89
  -7   5  -1    6.50   10.10
   7   5   1   27.10   11.50
   7  -5   1   34.00   10.70
   7  -5   1   17.00   13.10
  -7  -5  -1   29.80   16.10
  -7  -5  -1   23.10   12.70
   7   5   2  759.82   40.00
  -7   5  -2  762.42   39.60
  -7  -5  -2  765.82   51.79
  -7  -5  -2  722.23   45.10
   7  -5   2  811.72   50.19
   7   5   3  148.19   14.30
  -7   5  -3  134.89   13.80
   7  -5   3  154.18   19.50
  -7  -5  -3  132.49   21.60
  -8   0   8 1112.79   59.59
  -8   0   8 1162.48   60.79
   8   0  -8 1161.68   59.59
   8   0  -7   14.10    8.70
  -8   0   7   13.80    8.00
  -8   0   7   13.00    8.10
  -8   0   6 2267.17  108.49
   8   0  -6 2385.36  109.49
  -8   0   6 2211.38  109.49
   8   0  -6 2334.07  106.49
   8   0  -5   -0.20    3.90
  -8   0   5   21.90    6.40
   8   0  -5    2.90    6.50
  -8   0   5    8.20    6.30
  -8   0   4 2506.05  118.59
   8   0  -4 2574.34  119.29
  -8   0   4 2561.04  118.99
  -8   0   3    7.30    4.60
  -8   0   3   -0.20    7.90
  -8   0   3   16.40    4.60
  -8   0   3   -0.20    4.40
  -8   0   2 3652.23  162.48
   8   0  -2 3519.55  162.98
  -8   0   2 3549.74  166.98
  -8   0   2 3547.25  162.38
   8   0  -1    4.70    4.00
  -8   0   1    4.30    7.40
  -8   0   1    7.40    3.80
   8   0   0 2485.95  113.49
  -8   0   0 2494.25  113.09
  -8   0   0 2378.76  117.49
   8   0   0 2414.06  110.59
  -8   0  -1    1.50    6.70
   8   0   1   15.70    5.00
  -8   0  -1    3.00    4.10
   8   0   2 1309.77   63.99
  -8   0  -2 1292.27   66.19
  -8   0  -2 1352.06   63.59
   8   0   3    6.50    5.60
  -8   0  -3    0.90    6.40
  -8   0  -3    4.80    4.60
   8   0   4  740.23   40.10
  -8   0  -4  767.32   39.10
  -8   0  -4  737.53   41.10
  -8   0  -5    8.70    8.00
   8   0   5   -0.20    6.50
  -8   0  -5   14.30    6.40
  -8   0  -6  687.83   41.20
   8   0   6  738.93   41.80
   8   0   6  732.23   37.70
   8   1  -8  754.62   43.30
  -8  -1   8  739.33   41.70
   8  -1  -8  730.63   41.10
   8  -1  -8  738.13   41.60
  -8  -1   8  750.62   44.60
  -8   1   7  350.76   25.40
   8   1  -7  357.76   26.00
  -8  -1   7  320.27   23.60
   8  -1  -7  360.96   23.00
   8  -1  -7  342.37   23.10
  -8  -1   7  328.37   26.10
  -8   1   6  690.13   36.40
  -8   1   6  725.83   38.90
   8   1  -6  733.83   39.70
   8  -1  -6  690.03   37.30
   8  -1  -6  690.23   37.10
  -8  -1   6  662.73   39.00
  -8  -1   6  658.03   36.70
  -8   1   5  579.54   28.60
  -8   1   5  552.14   31.40
   8   1  -5  603.24   33.40
   8   1  -5  543.45   27.80
  -8  -1   5  530.65   30.00
   8  -1  -5  565.84   30.40
  -8  -1   5  510.15   31.60
   8  -1  -5  541.15   30.40
  -8   1   4  756.12   39.40
  -8  -1   4  825.22   43.70
  -8  -1   4  710.33   39.20
  -8  -1   4  744.83   39.30
   8  -1  -4  719.03   38.00
   8  -1  -4  731.33   38.40
   8   1  -3  526.85   26.90
   8   1  -3  560.84   28.90
  -8   1   3  550.84   36.40
  -8   1   3  547.65   27.40
  -8   1   3  486.95   28.90
  -8  -1   3  498.75   33.30
   8  -1  -3  522.85   28.00
   8   1  -2 1042.40   48.70
   8   1  -2 1010.10   47.90
  -8   1   2 1021.10   48.30
  -8   1   2  985.70   52.89
   8  -1  -2  974.00   49.70
  -8  -1   2  970.40   50.09
   8  -1  -2  989.40   48.80
  -8  -1   2  961.50   54.49
   8   1  -1  605.24   30.20
  -8   1   1  593.24   30.40
  -8   1   1  593.24   37.30
   8   1  -1  614.44   31.00
   8  -1  -1  583.24   30.50
  -8  -1   1  569.94   31.50
   8  -1  -1  612.74   32.10
  -8  -1   1  560.24   36.90
   8   1   0 1348.57   62.39
  -8   1   0 1272.07   65.49
  -8   1   0 1303.87   62.29
   8   1   0 1321.67   62.09
   8  -1   0 1296.57   63.79
  -8  -1   0 1260.57   61.29
  -8  -1   0 1326.77   68.09
   8  -1   0 1332.27   60.99
  -8   1  -1 1188.98   59.59
   8   1   1 1206.48   59.19
   8   1   1 1297.97   59.49
  -8   1  -1 1263.67   64.79
  -8  -1  -1 1214.58   64.49
   8  -1   1 1283.97   61.39
  -8   1  -2 1697.43   79.89
  -8   1  -2 1676.23   81.69
   8   1   2 1682.23   79.69
   8   1   2 1728.03   79.59
   8  -1   2 1726.03   81.69
  -8  -1  -2 1632.14   83.89
   8   1   3 1317.47   63.59
  -8   1  -3 1323.17   64.09
   8   1   3 1319.97   64.39
  -8   1  -3 1343.47   65.99
  -8  -1  -3 1319.57   67.69
   8  -1   3 1356.26   66.29
   8   1   4 1193.58   60.19
  -8   1  -4 1242.18   61.29
   8   1   4 1217.58   58.89
  -8   1  -4 1190.68   59.29
   8  -1   4 1230.58   62.19
  -8  -1  -4 1240.58   62.99
  -8   1  -5 1042.30   53.29
   8   1   5 1076.79   52.49
  -8   1  -5 1037.00   54.89
   8   1   5 1065.89   54.79
  -8  -1  -5 1057.19   56.69
   8  -1   5 1126.19   57.09
   8   1   6  617.14   36.20
  -8   1  -6  640.34   34.10
  -8   1  -6  591.74   35.90
   8   1   6  585.84   32.70
   8  -1   6  632.44   38.00
  -8  -1  -6  618.84   38.00
  -8   2   7 1172.58   59.19
  -8  -2   7  942.71   64.59
   8   2  -6    8.10    8.20
  -8   2   6    2.00    6.50
  -8   2   6    8.60    7.90
   8  -2  -6   14.50    8.10
  -8  -2   6   22.70    9.60
  -8   2   5 2504.55  117.19
  -8   2   5 2501.35  113.09
   8   2  -5 2553.04  118.29
   8   2  -5 2404.86  112.59
  -8  -2   5 2360.36  117.69
   8  -2  -5 2423.06  114.29
   8  -2  -5 2521.35  116.29
  -8   2   4    6.20    4.60
  -8   2   4    9.70    5.90
   8   2  -4    1.60    4.00
   8   2  -4    7.50    7.40
   8  -2  -4    2.80    5.50
  -8  -2   4   -6.10    7.20
  -8  -2   4   18.20    9.80
   8  -2  -4    1.10    8.30
  -8   2   3 3002.90  135.89
   8   2  -3 3260.07  134.99
   8   2  -3 3029.20  135.69
  -8   2   3 2729.83  137.99
  -8  -2   3 2932.21  138.59
  -8  -2   3 2890.81  143.49
   8  -2  -3 2973.50  136.99
   8  -2  -3 2927.81  136.09
  -8   2   2   42.10    5.90
   8   2  -2   42.90    6.70
   8   2  -2   40.40    5.90
  -8   2   2   42.30   10.50
   8  -2  -2   31.00    7.40
  -8  -2   2   37.50    7.70
   8  -2  -2   43.00    6.50
   8   2  -1 2676.93  118.79
  -8   2   1 2590.44  119.99
  -8   2   1 2820.52  122.49
   8   2  -1 2575.94  119.89
  -8  -2   1 2625.54  121.89
   8  -2  -1 2559.54  120.09
  -8  -2   1 2585.84  127.79
   8  -2  -1 2439.26  122.39
  -8   2   0    0.50   11.00
   8   2   0   16.20    4.20
  -8   2   0    5.70    3.80
   8   2   0    4.50    6.00
   8  -2   0    4.80    8.70
  -8  -2   0    0.40    8.20
  -8  -2   0    4.40    9.60
   8  -2   0    4.80    4.90
   8   2   1 1388.46   66.49
   8   2   1 1430.46   66.39
  -8   2  -1 1343.77   66.69
  -8   2  -1 1409.16   70.79
  -8  -2  -1 1368.06   73.29
   8  -2   1 1412.76   69.39
  -8  -2  -1 1438.66   66.79
   8   2   2   38.60    6.20
  -8   2  -2   31.10    7.20
   8   2   2   30.60    5.50
  -8   2  -2   28.70    6.40
   8  -2   2   16.20    7.10
  -8  -2  -2   34.80    9.80
  -8   2  -3  675.53   34.70
   8   2   3  629.34   34.10
  -8   2  -3  656.33   35.60
   8   2   3  642.34   34.60
  -8  -2  -3  644.14   39.40
   8  -2   3  707.33   38.70
   8   2   4   84.39   11.80
  -8   2  -4   51.79    7.90
  -8   2  -4   66.59   10.00
   8   2   4   53.39    7.50
  -8  -2  -4   55.89   12.10
   8  -2   4   57.99   11.00
  -8   2  -5  802.42   43.80
   8   2   5  816.02   42.30
   8   2   5  806.42   43.60
  -8   2  -5  826.32   42.70
   8  -2   5  880.41   47.90
  -8  -2  -5  827.72   47.50
  -8   3   7  498.45   34.10
   8   3  -7  458.45   33.10
  -8  -3   7  495.15   36.20
   8  -3  -7  478.65   32.50
   8   3  -6  102.99   12.20
   8   3  -6  113.69   24.60
   8  -3  -6  132.39   17.10
  -8  -3   6  166.88   23.00
   8   3  -5  433.86   28.80
   8   3  -5  410.26   23.00
  -8   3   5  421.06   23.50
  -8   3   5  423.66   28.00
   8  -3  -5  438.96   27.70
  -8  -3   5  384.06   29.40
  -8   3   4   91.59    9.80
   8   3  -4   84.59    9.20
  -8   3   4   80.29   11.70
  -8  -3   4   92.39   13.60
   8  -3  -4  100.49   13.30
  -8  -3   4   85.09   16.00
  -8   3   3  579.74   32.90
   8   3  -3  566.24   29.40
  -8   3   3  562.74   29.40
  -8  -3   3  523.35   33.80
   8  -3  -3  560.24   31.40
  -8  -3   3  595.04   39.50
   8   3  -2  206.58   13.80
  -8   3   2  190.88   13.90
  -8  -3   2  199.18   18.40
   8  -3  -2  193.98   17.50
   8  -3  -2  194.48   15.50
  -8  -3   2  284.37   25.50
   8   3  -1  584.84   29.60
  -8   3   1  561.64   29.50
   8  -3  -1  554.54   30.80
  -8  -3   1  524.85   34.40
   8  -3  -1  539.35   33.00
  -8  -3   1  574.94   38.80
  -8   3   0  426.66   24.50
   8   3   0  472.55   24.80
  -8  -3   0  458.05   33.00
   8  -3   0  411.36   27.70
   8  -3   0  464.45   30.40
  -8  -3   0  448.16   27.10
  -8   3  -1  443.76   25.40
   8   3   1  460.05   25.50
  -8   3  -1  471.15   30.70
  -8  -3  -1  486.15   32.90
  -8  -3  -1  421.86   32.50
   8  -3   1  451.55   29.30
   8  -3   1  462.15   41.00
  -8   3  -2 1100.09   55.79
   8   3   2 1180.18   56.09
   8   3   2 1110.59   55.89
  -8   3  -2 1145.29   56.29
   8  -3   2 1170.68   60.29
  -8  -3  -2 1151.28   63.39
   8   3   3  497.15   27.30
  -8   3  -3  484.65   27.80
  -8   3  -3  468.35   27.30
   8   3   3  465.55   26.70
   8  -3   3  507.05   32.50
  -8  -3  -3  481.15   34.10
   8   3   4  783.02   40.30
  -8   3  -4  784.92   40.50
  -8   3  -4  757.52   41.00
   8   3   4  788.72   40.20
   8  -3   4  787.82   48.40
  -8  -3  -4  715.83   50.59
  -8   3  -5  344.77   23.40
   8   3   5  317.27   21.40
   8   3   5  340.67   23.40
  -8   3  -5  338.07   22.40
   8  -3   5  345.17   29.40
  -8  -3  -5  369.16   30.90
   8   4  -5   25.70   10.40
  -8   4   5   17.70    6.80
  -8   4   5   17.20    9.10
   8   4  -5   44.60    7.30
  -8  -4   5    9.30   21.50
   8  -4  -5   21.20   16.50
   8   4  -4  516.95   29.50
   8   4  -4  623.44   37.90
  -8   4   4  632.74   43.40
  -8   4   4  558.44   30.00
  -8  -4   4  600.54   45.50
   8  -4  -4  544.15   33.80
  -8  -4   4  524.85   37.40
  -8   4   3   13.20    5.20
   8   4  -3    7.30    5.80
  -8   4   3   16.50    7.90
  -8  -4   3    6.20   13.50
   8  -4  -3   15.00    8.50
  -8  -4   3   -0.40   11.20
   8   4  -2  509.15   27.30
  -8   4   2  506.95   27.10
  -8  -4   2  470.95   37.30
   8  -4  -2  516.55   32.30
   8  -4  -2  463.25   30.10
  -8  -4   2  481.85   32.80
   8   4  -1    2.70    5.30
  -8   4   1    1.50    5.30
   8  -4  -1    9.30    8.40
   8  -4  -1    8.30    8.80
  -8  -4   1    9.60   10.00
  -8  -4   1   35.40   15.00
   8   4   0  523.85   28.80
  -8   4   0  547.85   28.90
   8  -4   0  556.64   33.80
  -8  -4   0  510.85   33.30
  -8  -4   0  519.45   39.70
   8  -4   0  497.55   31.90
  -8   4  -1   90.69   10.50
   8   4   1  102.29   11.00
  -8  -4  -1   86.89   17.90
  -8  -4  -1   87.49   13.30
   8  -4   1   80.59   13.70
  -8   4  -2  237.58   19.50
   8   4   2  265.57   19.80
  -8  -4  -2  293.77   28.40
   8  -4   2  290.57   24.70
   8   4   3  332.17   21.50
  -8   4  -3  271.27   20.70
   8  -4   3  358.66   28.40
  -8  -4  -3  394.16   32.40
  -8   5   3   16.70    9.30
   8   5  -3    3.50    6.30
  -8   5   3    1.10    7.20
   8  -5  -3    7.70   11.60
  -8  -5   3   11.60   17.60
   8   5  -2  320.27   20.60
  -8   5   2  323.97   20.80
  -8  -5   2  307.47   32.90
  -8  -5   2  347.47   29.90
   8  -5  -2  330.47   27.00
   8  -5  -2  267.77   26.30
   8   5  -1   -1.10    5.90
  -8   5   1    2.50    6.60
  -8  -5   1   13.40   15.40
   8  -5  -1    2.80   11.60
  -8  -5   1  -12.00   12.70
   8  -5  -1   -2.60   10.20
  -8   5   0  332.17   21.70
   8   5   0  336.47   22.10
   8  -5   0  362.76   28.20
   8  -5   0  370.36   29.40
  -8  -5   0  297.67   29.50
  -8  -5   0  361.96   37.00
  -8   5  -1   18.10    6.80
   8   5   1   20.30    7.40
  -8  -5  -1   -2.40   13.30
   8  -5   1   33.20   12.20
  -8  -5  -1    7.00   17.20
   9   0  -7   -6.80    9.60
  -9   0   7   -3.50    8.40
  -9   0   7    9.40   12.20
   9   0  -6   29.80    8.80
  -9   0   6   18.60    8.00
  -9   0   6   22.40    8.50
   9   0  -5   -7.40    4.60
  -9   0   5   18.60    7.10
   9   0  -5    4.80    8.20
  -9   0   5    0.50    6.40
  -9   0   4  172.08   17.90
  -9   0   4  159.98   14.20
  -9   0   4  154.58   13.80
   9   0  -4  151.18   11.80
  -9   0   3    3.60    5.00
  -9   0   3   -5.40    8.30
  -9   0   3    4.30    5.30
   9   0  -3   -1.70    4.90
  -9   0   2  577.24   36.50
   9   0  -2  597.84   31.70
  -9   0   2  602.04   31.30
  -9   0   1   -1.10    8.60
  -9   0   1    3.40    4.40
   9   0  -1   12.00    5.00
   9   0  -1   -0.40    6.90
   9   0   0  541.75   29.80
  -9   0   0  569.84   35.10
  -9   0   0  550.74   29.70
  -9   0  -1   14.20    5.00
  -9   0  -1  -12.20    8.60
   9   0   1    8.30    5.20
   9   0   2  363.56   22.10
  -9   0  -2  335.27   21.20
  -9   0  -2  321.07   25.20
  -9   0  -3   10.10    6.00
   9   0   3    1.70    6.30
  -9   0  -3  -10.70    7.50
   9   0   4   29.80    8.80
  -9   0  -4   25.30   10.10
  -9   0  -4   34.10    7.70
   9   0   5   15.10    8.60
  -9   0  -5   -1.60    9.30
  -9   1   7  123.79   18.30
   9   1  -7  139.39   17.10
  -9  -1   7  183.68   18.40
   9  -1  -7  175.98   18.20
  -9  -1   7  135.29   20.00
   9  -1  -7  159.48   16.80
   9   1  -6  338.57   24.10
  -9   1   6  310.67   23.10
   9  -1  -6  304.97   21.70
  -9  -1   6  329.47   22.10
  -9  -1   6  321.77   24.70
   9  -1  -6  303.47   22.30
  -9   1   5   49.70    7.50
   9   1  -5   44.90    6.50
   9   1  -5   50.49   10.50
  -9   1   5   41.60    8.70
  -9  -1   5   34.90    7.60
  -9  -1   5   48.00    9.30
   9  -1  -5   38.40    8.80
   9  -1  -5   56.19    8.90
  -9   1   4  186.98   16.20
   9   1  -4  194.28   13.40
  -9   1   4  204.48   14.60
   9   1  -4  212.88   15.00
  -9  -1   4  198.28   21.60
   9  -1  -4  220.88   15.50
   9  -1  -4  185.58   16.20
  -9  -1   4  204.28   16.90
   9   1  -3   26.00    5.10
   9   1  -3   35.20    6.00
  -9   1   3   31.00    7.00
  -9   1   3   20.60    5.60
  -9  -1   3   26.00    6.70
   9  -1  -3   14.50    5.90
   9  -1  -3   28.50    6.40
  -9  -1   3   24.30   11.10
  -9   1   2  217.48   14.90
   9   1  -2  229.68   14.90
  -9   1   2  234.78   22.30
   9   1  -2  229.18   14.60
   9  -1  -2  202.78   16.90
   9  -1  -2  214.18   15.90
  -9  -1   2  256.47   23.60
  -9  -1   2  229.68   15.90
  -9   1   1  129.69   10.70
   9   1  -1  113.89   10.20
   9   1  -1  122.09   10.50
   9  -1  -1  127.89   14.00
   9  -1  -1  113.49   11.90
  -9  -1   1   99.09   14.50
  -9  -1   1  166.88   19.40
   9   1   0  178.48   12.80
  -9   1   0  169.98   17.80
  -9   1   0  173.98   13.10
  -9  -1   0  156.88   19.30
   9  -1   0  172.38   14.80
   9   1   1   55.99    7.20
  -9   1  -1   45.30    7.10
   9   1   1   62.09    8.80
  -9   1  -1   51.09   11.30
  -9  -1  -1   83.39   13.50
   9  -1   1   45.90    8.50
   9   1   2  197.08   14.60
  -9   1  -2  192.88   18.20
  -9   1  -2  158.88   14.20
   9   1   2  177.88   13.60
  -9  -1  -2  174.18   20.00
   9  -1   2  181.08   15.80
   9   1   3  -13.10    5.20
   9   1   3    2.60    6.10
  -9   1  -3   -7.70    8.00
  -9   1  -3    4.50    5.70
  -9  -1  -3    4.70   10.10
   9  -1   3    9.70    6.70
   9   1   4  328.27   22.00
  -9   1  -4  310.27   22.90
   9   1   4  343.87   20.50
  -9   1  -4  276.67   21.00
   9  -1   4  350.46   24.30
  -9  -1  -4  308.87   24.80
  -9   1  -5  102.09   21.90
  -9   1  -5  183.78   15.70
   9   1   5  135.49   13.90
   9   1   5  119.59   17.50
  -9  -1  -5  166.68   20.70
   9  -1   5  138.39   17.00
  -9   2   7   16.00   10.50
   9   2  -7   16.80   11.40
  -9  -2   7   14.60   11.50
   9  -2  -7   23.20    9.70
   9   2  -6  432.46   30.80
  -9   2   6  445.96   28.70
  -9  -2   6  357.96   29.00
   9  -2  -6  396.66   26.70
   9   2  -5  159.08   12.50
  -9   2   5  181.28   17.70
   9   2  -5  160.88   18.80
  -9   2   5  187.98   13.70
   9  -2  -5  156.28   16.10
  -9  -2   5  154.98   18.70
  -9   2   4  358.96   21.40
  -9   2   4  358.46   24.50
   9   2  -4  380.86   21.00
   9  -2  -4  370.76   23.30
  -9  -2   4  378.26   26.10
  -9  -2   4  372.86   31.60
  -9   2   3  294.77   21.80
  -9   2   3  316.97   19.00
   9   2  -3  318.97   18.90
  -9  -2   3  322.47   22.70
   9  -2  -3  313.67   23.20
  -9  -2   3  305.87   28.00
   9  -2  -3  317.77   20.30
  -9   2   2  175.58   13.40
   9   2  -2  195.58   13.80
   9   2  -2  224.88   22.30
  -9   2   2  192.08   22.00
  -9  -2   2  185.38   23.00
  -9  -2   2  169.28   16.70
   9  -2  -2  177.68   16.20
   9   2  -1  401.06   22.10
  -9   2   1  386.16   30.80
  -9   2   1  378.76   22.20
   9   2  -1  393.66   22.80
  -9  -2   1  366.16   31.30
   9  -2  -1  394.46   25.10
   9  -2  -1  371.66   24.80
   9   2   0  228.28   15.00
  -9   2   0  249.28   19.80
  -9   2   0  203.88   15.20
   9   2   0  215.38   16.90
  -9  -2   0  167.58   23.10
   9  -2   0  222.68   18.00
  -9  -2   0  216.88   22.20
  -9   2  -1  585.04   34.30
  -9   2  -1  556.44   31.00
   9   2   1  585.84   30.90
   9   2   1  560.34   30.40
  -9  -2  -1  588.24   39.10
   9  -2   1  601.44   33.90
   9   2   2  214.98   15.20
  -9   2  -2  219.08   19.50
  -9   2  -2  211.78   15.70
   9   2   2  212.68   15.30
  -9  -2  -2  185.58   21.80
   9  -2   2  233.68   18.80
  -9   2  -3  278.97   21.30
   9   2   3  270.47   18.40
   9   2   3  261.97   19.10
  -9   2  -3  258.07   18.50
  -9  -2  -3  284.27   25.20
   9  -2   3  269.47   22.50
  -9   2  -4  295.37   22.90
   9   2   4  297.57   22.00
   9  -2   4  339.07   25.70
  -9  -2  -4  313.37   27.90
   9   3  -6    9.60   10.70
  -9   3   6  -10.50   10.00
  -9  -3   6   -7.50   11.90
   9  -3  -6   -0.40    9.70
  -9   3   5  687.73   36.00
   9   3  -5  690.43   35.20
   9   3  -5  706.63   42.30
  -9   3   5  715.83   43.20
  -9  -3   5  655.23   42.20
   9  -3  -5  692.53   39.50
  -9   3   4  180.68   14.30
  -9   3   4  168.18   17.50
   9   3  -4  172.98   13.50
   9  -3  -4  186.38   16.40
  -9  -3   4  177.58   22.40
  -9  -3   4  145.39   19.90
  -9   3   3  755.72   39.40
  -9   3   3  819.72   43.50
   9   3  -3  811.32   39.50
  -9  -3   3  721.93   43.20
   9  -3  -3  770.32   41.30
  -9  -3   3  754.52   49.99
   9   3  -2  165.58   13.50
  -9   3   2  165.68   13.40
   9  -3  -2  162.48   17.40
  -9  -3   2  186.48   24.00
  -9  -3   2  190.78   18.30
   9  -3  -2  150.88   15.20
  -9   3   1  760.82   39.40
   9   3  -1  793.62   39.30
  -9  -3   1  727.53   41.90
   9  -3  -1  748.33   40.20
  -9  -3   1  767.12   49.20
   9  -3  -1  790.42   43.40
  -9   3   0  286.37   19.10
   9   3   0  314.87   18.90
  -9  -3   0  348.47   30.60
   9  -3   0  293.97   22.60
  -9  -3   0  258.47   22.00
  -9   3  -1  659.33   36.40
   9   3   1  717.93   36.60
  -9  -3  -1  668.83   45.60
   9  -3   1  712.53   40.50
  -9   3  -2  190.68   15.80
   9   3   2  191.78   15.20
  -9  -3  -2  191.08   26.10
   9  -3   2  197.28   19.90
  -9   3  -3  768.32   41.80
  -9   3  -3  672.33   38.50
   9   3   3  738.13   38.60
   9  -3   3  777.22   44.20
  -9  -3  -3  663.33   46.60
   9   4  -4  181.38   15.80
  -9   4   4  213.48   16.20
  -9   4   4  221.78   20.80
   9  -4  -4  191.78   20.80
  -9  -4   4  190.48   27.10
  -9  -4   4  233.88   28.90
   9   4  -3  680.13   35.10
  -9   4   3  640.24   35.10
   9  -4  -3  652.73   38.70
  -9  -4   3  628.24   41.90
   9  -4  -3  694.23   41.30
  -9  -4   3  694.43   48.40
   9   4  -2  279.67   19.10
  -9   4   2  302.27   18.90
  -9  -4   2  264.87   32.20
   9  -4  -2  270.37   22.30
   9  -4  -2  293.77   25.00
  -9  -4   2  271.27   26.10
  -9   4   1  651.93   39.90
   9   4  -1  661.93   38.90
  -9  -4   1  577.64   45.90
  -9  -4   1  581.44   38.70
   9  -4  -1  623.94   40.40
   9  -4  -1  609.04   36.70
   9   4   0  393.66   23.10
  -9   4   0  359.66   22.50
   9  -4   0  336.07   26.90
  -9  -4   0  355.16   28.60
  -9  -4   0  368.56   35.20
  -9   4  -1  391.96   25.10
   9   4   1  414.66   25.70
   9  -4   1  470.95   31.40
  -9  -4  -1  450.65   37.70
   9   4   2  181.48   16.50
  -9   4  -2  187.48   16.00
  -9  -4  -2  181.98   24.80
   9  -4   2  201.48   23.00
 -10   0   6  900.71   48.60
  10   0  -6  843.12   48.30
 -10   0   6  928.21   48.00
  10   0  -5   -6.20    5.40
  10   0  -5   11.30   10.00
 -10   0   5   11.70    7.60
 -10   0   5    1.40    7.70
  10   0  -4  956.80   49.99
  10   0  -4  983.20   48.40
 -10   0   4  979.50   50.49
 -10   0   4 1019.50   54.69
 -10   0   3   -1.80    5.60
 -10   0   3   -2.90   11.00
  10   0  -3    3.60    6.30
  10   0  -2 2047.30   94.59
  10   0  -2 1864.71   92.29
 -10   0   2 2079.59  100.49
 -10   0   2 2016.00   94.29
 -10   0   1    6.80    5.50
  10   0  -1    6.10    5.60
 -10   0   1   12.90   10.80
  10   0   0 2044.30   96.99
 -10   0   0 2039.10   96.89
 -10   0   0 2063.09  102.99
  10   0   1   -2.70    5.80
 -10   0  -1   10.30   11.20
 -10   0  -1   -0.90    5.50
 -10   0  -2 2093.39  105.29
 -10   0  -2 2091.59  100.39
  10   0   2 2156.98  100.89
  10   0   3    1.60    7.60
 -10   0  -3   11.60   13.30
 -10   0  -3   40.70   12.00
  10   0   4 2093.99  100.79
 -10   0  -4 1994.20   99.19
  10   0   4 2149.08   98.89
 -10   0  -4 2058.89  103.19
 -10   1   6  884.51   47.80
  10   1  -6  891.71   49.10
  10  -1  -6  813.32   46.10
  10  -1  -6  812.82   45.40
 -10  -1   6  874.41   57.79
 -10   1   5 1413.86   67.59
  10   1  -5 1481.55   70.59
  10   1  -5 1436.66   72.39
 -10   1   5 1412.06   70.39
  10   1  -5 1463.85   67.09
  10  -1  -5 1345.87   69.29
 -10  -1   5 1358.56   70.79
  10  -1  -5 1339.87   68.79
  10   1  -4 1081.99   52.09
  10   1  -4 1049.99   50.99
 -10   1   4 1079.29   54.59
 -10   1   4 1085.69   51.79
 -10  -1   4 1057.49   54.19
 -10  -1   4 1025.70   59.69
  10  -1  -4  982.30   52.09
  10  -1  -4 1014.40   53.39
  10   1  -3 1247.08   58.29
 -10   1   3 1197.68   58.89
 -10   1   3 1233.18   62.49
  10   1  -3 1247.08   58.59
  10  -1  -3 1146.99   58.39
  10  -1  -3 1200.28   60.89
 -10  -1   3 1169.68   66.59
 -10  -1   3 1193.58   59.89
 -10   1   2  877.61   46.10
  10   1  -2  962.20   46.00
  10   1  -2  967.40   46.10
 -10   1   2  966.30   50.99
  10  -1  -2  854.31   45.10
  10  -1  -2  927.51   48.20
 -10  -1   2  904.61   54.39
 -10   1   1  689.23   41.90
  10   1  -1  689.13   36.10
 -10   1   1  686.73   36.60
  10   1  -1  716.23   36.40
 -10  -1   1  713.43   45.70
  10  -1  -1  705.93   38.20
 -10   1   0  639.44   34.30
  10   1   0  658.83   33.90
  10   1   0  634.44   33.70
 -10   1   0  652.03   39.30
  10  -1   0  618.54   35.40
 -10  -1   0  617.64   42.40
  10   1   1  688.73   36.80
 -10   1  -1  685.93   37.00
 -10   1  -1  713.73   42.30
  10   1   1  701.13   36.80
  10  -1   1  696.13   38.60
 -10  -1  -1  693.53   44.10
  10   1   2  433.26   25.50
 -10   1  -2  404.76   30.10
 -10   1  -2  393.56   25.40
  10   1   2  423.06   25.00
  10  -1   2  440.96   27.60
 -10  -1  -2  386.96   32.00
  10   1   3  231.18   17.20
 -10   1  -3  204.78   18.10
 -10   1  -3  214.48   22.60
  10   1   3  236.18   18.90
 -10  -1  -3  173.18   29.00
  10  -1   3  251.07   28.50
 -10   2   5  398.36   36.20
  10   2  -5  392.96   23.50
 -10   2   5  413.26   24.20
  10   2  -5  410.76   33.50
  10  -2  -5  418.16   26.40
 -10  -2   5  420.76   29.40
 -10   2   4   78.89    9.20
 -10   2   4   64.29   11.30
  10   2  -4   53.99    7.80
  10  -2  -4   60.59   10.10
 -10  -2   4   86.69   18.00
 -10  -2   4   63.59   11.80
 -10   2   3  652.43   35.70
  10   2  -3  692.23   35.70
  10  -2  -3  673.93   36.40
  10  -2  -3  670.63   39.00
 -10  -2   3  641.74   38.20
 -10  -2   3  769.32   47.50
 -10   2   2    2.20    5.50
  10   2  -2    7.20    6.10
 -10  -2   2   -1.40    7.70
  10  -2  -2    6.00    7.90
 -10  -2   2   21.90   14.10
  10  -2  -2    3.80    6.40
  10   2  -1 1235.48   57.59
 -10   2   1 1163.58   57.59
 -10   2   1 1168.28   60.89
 -10  -2   1 1166.98   67.19
  10  -2  -1 1102.99   59.89
 -10   2   0    3.10    5.90
 -10   2   0    5.10   11.30
  10   2   0    7.10    5.40
 -10  -2   0    7.70   13.70
  10  -2   0    2.80    7.50
  10   2   1 1817.52   83.69
 -10   2  -1 1716.23   83.69
 -10   2  -1 1767.42   86.99
  10   2   1 1701.73   82.39
  10  -2   1 1716.73   86.29
 -10  -2  -1 1772.82   92.29
  10   2   2    8.10    6.10
 -10   2  -2   14.50    6.90
  10   2   2   12.70    6.70
 -10   2  -2    8.60   10.60
 -10  -2  -2   23.70   14.90
  10   2   3 1611.24   77.79
 -10   2  -3 1566.84   80.39
 -10   2  -3 1497.15   77.49
  10   2   3 1617.24   77.49
  10  -2   3 1677.23   81.49
 -10  -2  -3 1635.74   85.79
  10   3  -4  730.53   36.50
 -10   3   4  713.43   36.90
 -10   3   4  721.73   41.40
 -10  -3   4  629.14   42.20
  10  -3  -4  654.03   38.70
 -10  -3   4  706.33   50.59
 -10   3   3  442.86   26.30
  10   3  -3  468.15   26.10
  10  -3  -3  444.26   31.10
 -10  -3   3  495.65   39.10
  10  -3  -3  448.16   27.70
 -10  -3   3  398.56   31.20
  10   3  -2  503.45   27.70
 -10   3   2  456.05   27.40
 -10  -3   2  488.05   31.50
 -10  -3   2  453.85   39.80
  10  -3  -2  465.05   28.40
  10   3  -1  539.75   35.90
 -10   3   1  542.75   34.30
 -10  -3   1  535.55   47.50
  10   3   0  185.58   15.20
 -10   3   0  153.28   15.10
  10  -3   0  163.08   18.60
 -10  -3   0  198.08   27.50
  10   3   1  440.86   25.80
 -10   3  -1  410.46   26.00
  10  -3   1  422.56   29.90
 -10  -3  -1  437.66   37.20
 -10   3  -2   37.70    8.60
  10   3   2   18.80    7.40
  10  -3   2   44.30   11.90
 -10  -3  -2   56.49   15.10
  11   0  -5    4.80    7.30
  11   0  -5   11.60   11.50
  11   0  -5    6.50    8.60
  11   0  -4   38.50    7.70
  11   0  -4   45.40    9.30
  11   0  -4   50.49    9.30
 -11   0   4   44.40   13.80
  11   0  -3    5.40    7.20
  11   0  -3    9.60    6.80
  11   0  -3   12.50    7.30
 -11   0   3   -5.80   13.60
 -11   0   2   10.60    7.00
 -11   0   2   34.20   13.90
  11   0  -2    2.00    7.00
 -11   0   1  -10.70   13.90
  11   0  -1   -2.00    6.60
 -11   0   1   13.80    6.90
  11   0   0   39.50    8.20
 -11   0   0   38.70   14.90
 -11   0  -1   10.60    7.50
  11   0   1    4.00    7.70
 -11   0  -1   20.60   13.30
 -11   0  -2  147.39   16.20
 -11   0  -2  134.09   30.40
  11   0   2  137.79   17.30
  11  -1  -5  -14.70    8.50
 -11   1   4  233.98   18.30
  11   1  -4  260.37   17.50
  11  -1  -4  231.78   18.90
  11  -1  -4  223.38   21.10
  11  -1  -4  249.58   21.50
 -11  -1   4  230.68   21.40
 -11  -1   4  247.48   30.00
 -11   1   3  152.88   18.00
  11   1  -3  174.48   14.50
 -11   1   3  172.98   15.00
  11  -1  -3  117.39   14.50
  11  -1  -3  145.19   17.30
 -11  -1   3  174.18   23.20
 -11  -1   3  187.88   16.90
  11   1  -2  342.27   21.90
 -11   1   2  321.37   22.40
 -11   1   2  387.46   29.90
  11   1  -2  353.16   21.90
 -11  -1   2  378.56   32.90
  11  -1  -2  322.17   23.40
 -11   1   1  110.79   13.60
  11   1  -1  108.29   12.10
  11   1  -1  108.99   12.90
 -11   1   1  115.39   17.00
 -11  -1   1  108.59   19.20
  11  -1  -1  128.59   15.70
 -11   1   0  240.28   26.30
 -11   1   0  219.18   18.70
  11   1   0  219.28   18.50
  11   1   0  265.87   18.60
  11  -1   0  235.38   19.80
 -11  -1   0  263.17   28.70
  11   1   1   80.99   10.90
 -11   1  -1   99.49   16.90
  11   1   1   74.79   10.10
 -11   1  -1   73.29   11.10
  11  -1   1   72.99   11.70
  11   1   2  179.78   17.90
 -11   1  -2  161.48   16.90
 -11   1  -2  162.48   20.40
  11   1   2  187.08   15.90
  11  -1   2  176.88   19.00
 -11  -1  -2  154.98   21.90
 -11   2   4  396.46   25.00
  11   2  -4  403.26   24.50
  11  -2  -4  366.36   26.30
 -11  -2   4  458.85   40.50
  11  -2  -4  399.66   28.60
 -11  -2   4  425.46   28.80
 -11   2   3    2.70    7.20
  11   2  -3    3.50    7.60
  11  -2  -3    8.80    9.30
  11  -2  -3   18.00   11.10
 -11  -2   3   16.30   10.20
 -11  -2   3   17.20   17.70
 -11   2   2  443.46   36.50
 -11  -2   2  567.34   41.30
 -11   2   1    5.60    6.60
  11   2  -1   26.00    7.20
  11  -2  -1   -4.80   10.60
 -11  -2   1    5.90   15.00
 -11   2   0  398.46   25.70
  11   2   0  455.75   26.20
  11  -2   0  417.46   28.60
 -11  -2   0  370.56   37.70
 -11   2  -1   84.99   10.50
  11   2   1   82.29   10.30
  11  -2   1   59.79   11.60
 -11  -2  -1   90.79   19.60
   0   0   0    0.00    0.00

_computing_structure_solution     'SHELXT 2014/5 (Sheldrick, 2014)'
;
_shelx_hkl_checksum              68345
loop_
_space_group_symop_operation_xyz
'x, y, z'
'-x, y, -z+1/2'
'-x, -y, -z'
'x, -y, z-1/2'
loop_
_atom_site_label
_atom_site_type_symbol
_atom_site_fract_x
_atom_site_fract_y
_atom_site_fract_z
_atom_site_U_iso_or_equiv
_atom_site_adp_type
_atom_site_occupancy
_atom_site_site_symmetry_order
_atom_site_calc_flag
_atom_site_refinement_flags_posn
_atom_site_refinement_flags_adp
_atom_site_refinement_flags_occupancy
Am1 Am 1.000000 0.90582(4) 0.250000 0.00552(9) Uani 1 2 d S T P
Cs1 Cs 0.500000 0.82365(8) 0.250000 0.01143(12) Uani 1 2 d S T P
Cr1 Cr 0.78174(9) 0.33173(15) 0.31924(10) 0.00641(17) Uani 1 1 d . . .
O1 O 0.6331(4) 0.3205(7) 0.4059(5) 0.0111(7) Uani 1 1 d . . .
O2 O 0.9284(4) 0.2109(7) 0.4491(5) 0.0090(7) Uani 1 1 d . . .
O3 O 0.8157(4) 0.6145(7) 0.2687(5) 0.0101(7) Uani 1 1 d . . .
O4 O 0.7668(4) 0.1515(7) 0.1489(5) 0.0105(7) Uani 1 1 d . . .
loop_
_atom_site_aniso_label
_atom_site_aniso_U_11
_atom_site_aniso_U_22
_atom_site_aniso_U_33
_atom_site_aniso_U_23
_atom_site_aniso_U_13
_atom_site_aniso_U_12
Am1 0.00632(14) 0.00465(14) 0.00573(13) 0.000 0.00135(9) 0.000
Cs1 0.0090(2) 0.0076(2) 0.0185(2) 0.000 0.00457(17) 0.000
Cr1 0.0063(4) 0.0053(4) 0.0078(4) 0.0003(3) 0.0018(3) 0.0002(3)
O1 0.0112(18) 0.0119(19) 0.0112(17) 0.0007(14) 0.0052(14) 0.0002(14)
O2 0.0109(17) 0.0089(16) 0.0071(16) 0.0003(14) 0.0010(13) 0.0030(14)
O3 0.0092(17) 0.0085(17) 0.0126(18) 0.0009(14) 0.0012(14) -0.0019(14)
O4 0.0113(18) 0.0083(17) 0.0115(17) 0.0005(14) 0.0010(14) -0.0001(14)
loop_
_atom_type_symbol
_atom_type_description
_atom_type_scat_dispersion_real
_atom_type_scat_dispersion_imag
_atom_type_scat_source
Cr Cr 0.3209 0.6236 'International Tables Vol C Tables 4.2.6.8 and 6.1.1.4'
Cs Cs -0.3680 2.1192 'International Tables Vol C Tables 4.2.6.8 and 6.1.1.4'
O O 0.0106 0.0060 'International Tables Vol C Tables 4.2.6.8 and 6.1.1.4'
Am Am -7.8986 4.5125 'International Tables Vol C Tables 4.2.6.8 and 6.1.1.4'
loop_
_geom_angle_atom_site_label_1
_geom_angle_atom_site_label_2
_geom_angle_atom_site_label_3
_geom_angle
_geom_angle_site_symmetry_1
_geom_angle_site_symmetry_3
O3 Am1 O3 93.79(19) . 2_755
O3 Am1 O2 77.47(13) . 4_565
O3 Am1 O2 81.45(13) 2_755 4_565
O3 Am1 O2 81.45(13) . 3_766
O3 Am1 O2 77.47(13) 2_755 3_766
O2 Am1 O2 148.96(18) 4_565 3_766
O3 Am1 O2 99.71(13) . 1_565
O3 Am1 O2 140.85(12) 2_755 1_565
O2 Am1 O2 137.29(14) 4_565 1_565
O2 Am1 O2 68.59(14) 3_766 1_565
O3 Am1 O2 140.85(12) . 2_765
O3 Am1 O2 99.71(13) 2_755 2_765
O2 Am1 O2 68.59(14) 4_565 2_765
O2 Am1 O2 137.29(14) 3_766 2_765
O2 Am1 O2 92.61(18) 1_565 2_765
O3 Am1 O4 156.97(13) . 2_765
O3 Am1 O4 78.78(12) 2_755 2_765
O2 Am1 O4 122.11(12) 4_565 2_765
O2 Am1 O4 75.68(12) 3_766 2_765
O2 Am1 O4 74.52(12) 1_565 2_765
O2 Am1 O4 62.18(12) 2_765 2_765
O3 Am1 O4 78.78(12) . 1_565
O3 Am1 O4 156.97(13) 2_755 1_565
O2 Am1 O4 75.68(12) 4_565 1_565
O2 Am1 O4 122.11(12) 3_766 1_565
O2 Am1 O4 62.18(12) 1_565 1_565
O2 Am1 O4 74.52(12) 2_765 1_565
O4 Am1 O4 115.86(17) 2_765 1_565
O3 Am1 Cr1 171.99(9) . 2_765
O3 Am1 Cr1 91.05(9) 2_755 2_765
O2 Am1 Cr1 97.00(9) 4_565 2_765
O2 Am1 Cr1 105.86(9) 3_766 2_765
O2 Am1 Cr1 80.35(9) 1_565 2_765
O2 Am1 Cr1 31.55(9) 2_765 2_765
O4 Am1 Cr1 30.77(9) 2_765 2_765
O4 Am1 Cr1 94.33(9) 1_565 2_765
O3 Am1 Cr1 91.05(9) . 1_565
O3 Am1 Cr1 171.99(9) 2_755 1_565
O2 Am1 Cr1 105.86(9) 4_565 1_565
O2 Am1 Cr1 97.00(9) 3_766 1_565
O2 Am1 Cr1 31.55(9) 1_565 1_565
O2 Am1 Cr1 80.35(9) 2_765 1_565
O4 Am1 Cr1 94.33(9) 2_765 1_565
O4 Am1 Cr1 30.77(9) 1_565 1_565
Cr1 Am1 Cr1 84.87(3) 2_765 1_565
O3 Am1 Cr1 14.13(9) . .
O3 Am1 Cr1 80.72(9) 2_755 .
O2 Am1 Cr1 80.88(9) 4_565 .
O2 Am1 Cr1 73.47(9) 3_766 .
O2 Am1 Cr1 106.68(9) 1_565 .
O2 Am1 Cr1 148.92(9) 2_765 .
O4 Am1 Cr1 145.92(9) 2_765 .
O4 Am1 Cr1 92.90(9) 1_565 .
Cr1 Am1 Cr1 171.712(17) 2_765 .
Cr1 Am1 Cr1 103.42(2) 1_565 .
O3 Am1 Cr1 80.72(9) . 2_755
O3 Am1 Cr1 14.13(9) 2_755 2_755
O2 Am1 Cr1 73.47(9) 4_565 2_755
O2 Am1 Cr1 80.88(9) 3_766 2_755
O2 Am1 Cr1 148.92(9) 1_565 2_755
O2 Am1 Cr1 106.68(9) 2_765 2_755
O4 Am1 Cr1 92.90(9) 2_765 2_755
O4 Am1 Cr1 145.92(9) 1_565 2_755
Cr1 Am1 Cr1 103.42(2) 2_765 2_755
Cr1 Am1 Cr1 171.712(18) 1_565 2_755
Cr1 Am1 Cr1 68.29(3) . 2_755
O3 Cs1 O3 136.28(14) 2_655 .
O3 Cs1 O1 130.10(10) 2_655 1_565
O3 Cs1 O1 90.07(10) . 1_565
O3 Cs1 O1 90.07(10) 2_655 2_665
O3 Cs1 O1 130.10(10) . 2_665
O1 Cs1 O1 59.91(14) 1_565 2_665
O3 Cs1 O1 109.90(10) 2_655 4_565
O3 Cs1 O1 58.25(10) . 4_565
O1 Cs1 O1 111.07(11) 1_565 4_565
O1 Cs1 O1 94.17(9) 2_665 4_565
O3 Cs1 O1 58.25(10) 2_655 3_666
O3 Cs1 O1 109.90(10) . 3_666
O1 Cs1 O1 94.17(9) 1_565 3_666
O1 Cs1 O1 111.07(11) 2_665 3_666
O1 Cs1 O1 151.11(14) 4_565 3_666
O3 Cs1 O1 89.71(10) 2_655 .
O3 Cs1 O1 50.05(10) . .
O1 Cs1 O1 120.40(12) 1_565 .
O1 Cs1 O1 179.69(7) 2_665 .
O1 Cs1 O1 85.71(8) 4_565 .
O1 Cs1 O1 68.97(11) 3_666 .
O3 Cs1 O1 50.05(10) 2_655 2_655
O3 Cs1 O1 89.71(10) . 2_655
O1 Cs1 O1 179.69(7) 1_565 2_655
O1 Cs1 O1 120.40(12) 2_665 2_655
O1 Cs1 O1 68.97(11) 4_565 2_655
O1 Cs1 O1 85.71(8) 3_666 2_655
O1 Cs1 O1 59.29(14) . 2_655
O3 Cs1 O4 158.89(10) 2_655 1_565
O3 Cs1 O4 58.92(10) . 1_565
O1 Cs1 O4 49.06(10) 1_565 1_565
O1 Cs1 O4 71.67(10) 2_665 1_565
O1 Cs1 O4 62.55(10) 4_565 1_565
O1 Cs1 O4 137.74(10) 3_666 1_565
O1 Cs1 O4 108.51(10) . 1_565
O1 Cs1 O4 130.93(10) 2_655 1_565
O3 Cs1 O4 58.92(10) 2_655 2_665
O3 Cs1 O4 158.89(10) . 2_665
O1 Cs1 O4 71.67(10) 1_565 2_665
O1 Cs1 O4 49.06(10) 2_665 2_665
O1 Cs1 O4 137.74(10) 4_565 2_665
O1 Cs1 O4 62.55(10) 3_666 2_665
O1 Cs1 O4 130.93(10) . 2_665
O1 Cs1 O4 108.52(10) 2_655 2_665
O4 Cs1 O4 111.94(14) 1_565 2_665
O3 Cs1 O4 123.90(10) 2_655 4_566
O3 Cs1 O4 58.03(9) . 4_566
O1 Cs1 O4 58.21(9) 1_565 4_566
O1 Cs1 O4 117.47(9) 2_665 4_566
O1 Cs1 O4 115.01(9) 4_565 4_566
O1 Cs1 O4 66.17(9) 3_666 4_566
O1 Cs1 O4 62.83(9) . 4_566
O1 Cs1 O4 121.48(9) 2_655 4_566
O4 Cs1 O4 75.34(8) 1_565 4_566
O4 Cs1 O4 102.17(8) 2_665 4_566
O3 Cs1 O4 58.03(9) 2_655 3_665
O3 Cs1 O4 123.90(10) . 3_665
O1 Cs1 O4 117.47(9) 1_565 3_665
O1 Cs1 O4 58.21(9) 2_665 3_665
O1 Cs1 O4 66.17(9) 4_565 3_665
O1 Cs1 O4 115.01(9) 3_666 3_665
O1 Cs1 O4 121.48(9) . 3_665
O1 Cs1 O4 62.83(9) 2_655 3_665
O4 Cs1 O4 102.17(8) 1_565 3_665
O4 Cs1 O4 75.34(8) 2_665 3_665
O4 Cs1 O4 175.67(12) 4_566 3_665
O1 Cr1 O4 109.8(2) . .
O1 Cr1 O3 109.7(2) . .
O4 Cr1 O3 112.32(19) . .
O1 Cr1 O2 112.73(19) . .
O4 Cr1 O2 101.54(19) . .
O3 Cr1 O2 110.61(19) . .
O1 Cr1 Am1 129.46(14) . 1_545
O4 Cr1 Am1 52.80(13) . 1_545
O3 Cr1 Am1 120.82(14) . 1_545
O2 Cr1 Am1 49.02(13) . 1_545
O1 Cr1 Cs1 58.35(14) . .
O4 Cr1 Cs1 110.76(14) . .
O3 Cr1 Cs1 55.20(13) . .
O2 Cr1 Cs1 147.64(13) . .
Am1 Cr1 Cs1 162.25(3) 1_545 .
O1 Cr1 Cs1 55.15(14) . 1_545
O4 Cr1 Cs1 57.73(14) . 1_545
O3 Cr1 Cs1 144.52(14) . 1_545
O2 Cr1 Cs1 104.84(13) . 1_545
Am1 Cr1 Cs1 82.12(2) 1_545 1_545
Cs1 Cr1 Cs1 94.32(2) . 1_545
O1 Cr1 Am1 125.73(14) . .
O4 Cr1 Am1 111.83(14) . .
O3 Cr1 Am1 20.38(13) . .
O2 Cr1 Am1 91.35(13) . .
Am1 Cr1 Am1 103.42(2) 1_545 .
Cs1 Cr1 Am1 75.119(18) . .
Cs1 Cr1 Am1 161.97(2) 1_545 .
O1 Cr1 Am1 89.40(14) . 3_766
O4 Cr1 Am1 117.24(14) . 3_766
O3 Cr1 Am1 115.78(14) . 3_766
O2 Cr1 Am1 24.17(13) . 3_766
Am1 Cr1 Am1 68.640(16) 1_545 3_766
Cs1 Cr1 Am1 129.11(2) . 3_766
Cs1 Cr1 Am1 97.149(19) 1_545 3_766
Am1 Cr1 Am1 100.854(19) . 3_766
Cr1 O1 Cs1 100.20(17) . 1_545
Cr1 O1 Cs1 144.3(2) . 3_666
Cs1 O1 Cs1 85.83(9) 1_545 3_666
Cr1 O1 Cs1 96.26(16) . .
Cs1 O1 Cs1 120.40(12) 1_545 .
Cs1 O1 Cs1 111.03(11) 3_666 .
Cr1 O1 Am1 67.81(13) . 3_766
Cs1 O1 Am1 102.22(10) 1_545 3_766
Cs1 O1 Am1 76.48(8) 3_666 3_766
Cs1 O1 Am1 136.82(11) . 3_766
Cr1 O2 Am1 139.1(2) . 3_766
Cr1 O2 Am1 99.43(16) . 1_545
Am1 O2 Am1 111.41(14) 3_766 1_545
Cr1 O3 Am1 145.5(2) . .
Cr1 O3 Cs1 98.90(16) . .
Am1 O3 Cs1 114.66(14) . .
Cr1 O4 Am1 96.43(17) . 1_545
Cr1 O4 Cs1 96.87(16) . 1_545
Am1 O4 Cs1 104.99(12) 1_545 1_545
Cr1 O4 Cs1 128.43(18) . 3_665
Am1 O4 Cs1 134.81(14) 1_545 3_665
Cs1 O4 Cs1 77.83(8) 1_545 3_665
Cr1 O4 Am1 132.37(18) . 3_765
Am1 O4 Am1 71.03(9) 1_545 3_765
Cs1 O4 Am1 130.63(11) 1_545 3_765
Cs1 O4 Am1 73.79(7) 3_665 3_765
loop_
_geom_bond_atom_site_label_1
_geom_bond_atom_site_label_2
_geom_bond_distance
_geom_bond_site_symmetry_2
Am1 O3 2.354(4) .
Am1 O3 2.354(4) 2_755
Am1 O2 2.408(4) 4_565
Am1 O2 2.408(4) 3_766
Am1 O2 2.438(4) 1_565
Am1 O2 2.438(4) 2_765
Am1 O4 2.554(4) 2_765
Am1 O4 2.554(4) 1_565
Am1 Cr1 3.1861(9) 2_765
Am1 Cr1 3.1861(9) 1_565
Am1 Cr1 3.8299(9) .
Am1 Cr1 3.8299(9) 2_755
Cs1 O3 3.102(4) 2_655
Cs1 O3 3.102(4) .
Cs1 O1 3.166(4) 1_565
Cs1 O1 3.166(4) 2_665
Cs1 O1 3.191(4) 4_565
Cs1 O1 3.191(4) 3_666
Cs1 O1 3.196(4) .
Cs1 O1 3.196(4) 2_655
Cs1 O4 3.234(4) 1_565
Cs1 O4 3.234(4) 2_665
Cs1 O4 3.639(4) 4_566
Cs1 O4 3.639(4) 3_665
Cr1 O1 1.609(4) .
Cr1 O4 1.640(4) .
Cr1 O3 1.650(4) .
Cr1 O2 1.690(4) .
