#------------------------------------------------------------------------------
#$Date: 2019-10-31 01:42:31 +0200 (Thu, 31 Oct 2019) $
#$Revision: 220554 $
#$URL: file:///home/coder/svn-repositories/cod/cif/4/12/73/4127326.cif $
#------------------------------------------------------------------------------
#
# This file is available in the Crystallography Open Database (COD),
# http://www.crystallography.net/
#
# All data on this site have been placed in the public domain by the
# contributors.
#
data_4127326
loop_
_publ_author_name
'Reiers\/olmoen, Ann Christin'
'Cs\'ok\'as, D\'aniel'
'P\'apai, Imre'
'Fiksdahl, Anne'
'Erd\'elyi, M\'at\'e'
_publ_section_title
;
 Mechanism of Au(III)-Mediated Alkoxycyclization of a 1,6-Enyne.
;
_journal_name_full               'Journal of the American Chemical Society'
_journal_paper_doi               10.1021/jacs.9b09108
_journal_year                    2019
_chemical_absolute_configuration unk
_chemical_formula_moiety         'C12 H16 Au Br2 N3 O4'
_chemical_formula_sum            'C12 H16 Au Br2 N3 O4'
_chemical_formula_weight         623.06
_space_group_crystal_system      monoclinic
_space_group_IT_number           4
_space_group_name_Hall           'P 2yb'
_space_group_name_H-M_alt        'P 1 21 1'
_symmetry_space_group_name_Hall  'P 2yb'
_symmetry_space_group_name_H-M   'P 1 21 1'
_atom_sites_solution_hydrogens   geom
_atom_sites_solution_primary     dual
_audit_creation_date             2019-03-07
_audit_creation_method
;
Olex2 1.2
(compiled 2018.05.29 svn.r3508 for OlexSys, GUI svn.r5506)
;
_audit_update_record
;
2019-07-05 deposited with the CCDC.    2019-07-16 downloaded from the CCDC.
;
_cell_angle_alpha                90
_cell_angle_beta                 111.987(2)
_cell_angle_gamma                90
_cell_formula_units_Z            2
_cell_length_a                   8.7138(8)
_cell_length_b                   9.4502(9)
_cell_length_c                   10.8207(10)
_cell_measurement_reflns_used    5302
_cell_measurement_temperature    100(2)
_cell_measurement_theta_max      25.17
_cell_measurement_theta_min      2.52
_cell_volume                     826.25(13)
_computing_cell_refinement       'SAINT V8.38A (Sheldrick, 2016)'
_computing_data_reduction        'SAINT V8.38A (Sheldrick, 2016)'
_computing_molecular_graphics    'Olex2 (Dolomanov et al., 2009)'
_computing_publication_material  'Olex2 (Dolomanov et al., 2009)'
_computing_structure_refinement  'ShelXL (Sheldrick, 2015)'
_computing_structure_solution    'ShelXT (Sheldrick, 2015)'
_diffrn_ambient_temperature      100.04
_diffrn_detector                 'Bruker Photon 100 area detector'
_diffrn_detector_area_resol_mean 10.42
_diffrn_detector_type            'CMOS area detector'
_diffrn_measured_fraction_theta_full 0.998
_diffrn_measured_fraction_theta_max 0.998
_diffrn_measurement_device       'three-circle diffractometer'
_diffrn_measurement_device_type  'Bruker APEX-II CCD'
_diffrn_measurement_method       '\f and \w scans'
_diffrn_radiation_monochromator  'mirror optics'
_diffrn_radiation_probe          x-ray
_diffrn_radiation_type           MoK\a
_diffrn_radiation_wavelength     0.71073
_diffrn_reflns_av_R_equivalents  0.0448
_diffrn_reflns_av_unetI/netI     0.0598
_diffrn_reflns_Laue_measured_fraction_full 0.998
_diffrn_reflns_Laue_measured_fraction_max 0.998
_diffrn_reflns_limit_h_max       10
_diffrn_reflns_limit_h_min       -10
_diffrn_reflns_limit_k_max       11
_diffrn_reflns_limit_k_min       -11
_diffrn_reflns_limit_l_max       12
_diffrn_reflns_limit_l_min       -12
_diffrn_reflns_number            8518
_diffrn_reflns_point_group_measured_fraction_full 0.991
_diffrn_reflns_point_group_measured_fraction_max 0.991
_diffrn_reflns_theta_full        25.213
_diffrn_reflns_theta_max         25.213
_diffrn_reflns_theta_min         2.030
_diffrn_source                   'microfocus sealed X-ray tube'
_diffrn_source_type              'Incoatec I\ms'
_diffrn_standards_number         0
_exptl_absorpt_coefficient_mu    13.755
_exptl_absorpt_correction_T_max  0.7452
_exptl_absorpt_correction_T_min  0.4698
_exptl_absorpt_correction_type   multi-scan
_exptl_absorpt_process_details
;
SADABS-2016/2 (Bruker,2016/2) was used for absorption correction.
wR2(int) was 0.1438 before and 0.0690 after correction.
The Ratio of minimum to maximum transmission is 0.6304.
The \l/2 correction factor is Not present.
;
_exptl_crystal_colour            gold
_exptl_crystal_density_diffrn    2.442
_exptl_crystal_description       plate
_exptl_crystal_F_000             549
_exptl_crystal_size_max          0.12
_exptl_crystal_size_mid          0.04
_exptl_crystal_size_min          0.02
_refine_diff_density_max         0.981
_refine_diff_density_min         -0.721
_refine_diff_density_rms         0.136
_refine_ls_abs_structure_details
;
 Flack x determined using 1159 quotients [(I+)-(I-)]/[(I+)+(I-)]
 (Parsons, Flack and Wagner, Acta Cryst. B69 (2013) 249-259).
;
_refine_ls_abs_structure_Flack   0.011(9)
_refine_ls_extinction_method     none
_refine_ls_goodness_of_fit_ref   0.886
_refine_ls_hydrogen_treatment    constr
_refine_ls_matrix_type           full
_refine_ls_number_parameters     202
_refine_ls_number_reflns         2966
_refine_ls_number_restraints     1
_refine_ls_restrained_S_all      0.886
_refine_ls_R_factor_all          0.0304
_refine_ls_R_factor_gt           0.0246
_refine_ls_shift/su_max          0.000
_refine_ls_shift/su_mean         0.000
_refine_ls_structure_factor_coef Fsqd
_refine_ls_weighting_details     'w=1/[\s^2^(Fo^2^)] where P=(Fo^2^+2Fc^2^)/3'
_refine_ls_weighting_scheme      calc
_refine_ls_wR_factor_gt          0.0450
_refine_ls_wR_factor_ref         0.0465
_reflns_Friedel_coverage         0.863
_reflns_Friedel_fraction_full    0.984
_reflns_Friedel_fraction_max     0.984
_reflns_number_gt                2734
_reflns_number_total             2966
_reflns_threshold_expression     'I > 2\s(I)'
_cod_data_source_file            ja9b09108_si_003.cif
_cod_data_source_block           test2
_cod_database_code               4127326
_shelx_shelxl_version_number     2017/1
_shelx_space_group_comment
;
The symmetry employed for this shelxl refinement is uniquely defined
by the following loop, which should always be used as a source of
symmetry information in preference to the above space-group names.
They are only intended as comments.
;
_shelx_estimated_absorpt_t_max   0.770
_shelx_estimated_absorpt_t_min   0.289
_olex2_refinement_description
;
1. Fixed Uiso
 At 1.2 times of:
  All C(H) groups, All C(H,H) groups
 At 1.5 times of:
  All C(H,H,H) groups
2.a Ternary CH refined with riding coordinates:
 C7(H7)
2.b Secondary CH2 refined with riding coordinates:
 C8(H8A,H8B)
2.c Aromatic/amide H refined with riding coordinates:
 C4(H4), C5(H5), C3(H3), C2(H2)
2.d Idealised Me refined as rotating group:
 C11(H11A,H11B,H11C), C10(H10A,H10B,H10C), C12(H12A,H12B,H12C)
;
_shelx_res_file
;
TITL test2 in P2(1)
    test2.res
    created by SHELXL-2017/1 at 17:16:53 on 07-Mar-2019
CELL 0.71073 8.7138 9.4502 10.8207 90 111.9867 90
ZERR 2 0.0008 0.0009 0.001 0 0.0022 0
LATT -1
SYMM -X,0.5+Y,-Z
SFAC C Au Br N O H
UNIT 24 2 4 6 8 1

L.S. 4
PLAN  20
SIZE 0.02 0.04 0.12
TEMP -173.11
LIST 6
BOND
fmap 2
ACTA
REM <olex2.extras>
REM <HklSrc "%.\\test2.hkl">
REM </olex2.extras>

WGHT    0.000000
FVAR       0.10063
AU1   2   -0.295039   -0.426210   -0.810150    11.00000    0.01682    0.01348 =
         0.01301   -0.00039    0.00875    0.00139
O4    5   -0.835871   -0.243432   -0.613977    11.00000    0.02022    0.03882 =
         0.03018   -0.01286    0.01536   -0.00210
O2    5   -0.646415   -0.331136   -0.684361    11.00000    0.01149    0.02778 =
         0.01797   -0.00444    0.00565    0.00162
BR2   3   -0.338244   -0.643043   -0.714137    11.00000    0.03368    0.01558 =
         0.02498    0.00196    0.01797    0.00093
O3    5   -0.904340   -0.329165   -0.811337    11.00000    0.01731    0.04993 =
         0.02915   -0.01723   -0.00028    0.00037
O1    5   -0.403430   -0.060527   -0.660770    11.00000    0.03400    0.01759 =
         0.01966   -0.00055    0.01596    0.00865
N3    4   -0.808147   -0.297588   -0.703605    11.00000    0.01261    0.02312 =
         0.02377    0.00008    0.00532   -0.00390
C11   1   -0.172671   -0.154939   -0.393680    11.00000    0.03099    0.02078 =
         0.02687   -0.00712    0.01523    0.00393
AFIX 137
H11A  6   -0.074767   -0.144615   -0.311470    11.00000   -1.50000
H11B  6   -0.267547   -0.108826   -0.382771    11.00000   -1.50000
H11C  6   -0.151573   -0.110656   -0.467684    11.00000   -1.50000
AFIX   0
BR1   3   -0.238036   -0.568379   -0.974474    11.00000    0.03075    0.01993 =
         0.02185   -0.00421    0.01591    0.00115
C6    1   -0.358164   -0.155839   -0.715174    11.00000    0.01973    0.01369 =
         0.01396   -0.00256    0.00695   -0.00272
C4    1   -0.221288   -0.085667   -1.044430    11.00000    0.02788    0.02047 =
         0.01201    0.00094    0.01137    0.00409
AFIX  43
H4    6   -0.187119   -0.073162   -1.117421    11.00000   -1.20000
AFIX   0
N1    4   -0.274464   -0.236713   -0.893171    11.00000    0.01206    0.01366 =
         0.01527   -0.00348    0.00689    0.00141
N2    4   -0.335489   -0.295125   -0.675672    11.00000    0.01543    0.00623 =
         0.01844   -0.00140    0.00710   -0.00226
C10   1   -0.244783   -0.381864   -0.308906    11.00000    0.02187    0.03388 =
         0.01243   -0.00016    0.00747    0.00018
AFIX 137
H10A  6   -0.143042   -0.382077   -0.228930    11.00000   -1.50000
H10B  6   -0.282696   -0.479381   -0.332491    11.00000   -1.50000
H10C  6   -0.330494   -0.327828   -0.291399    11.00000   -1.50000
AFIX   0
C1    1   -0.315412   -0.125962   -0.834679    11.00000    0.00835    0.01811 =
         0.01366    0.00139    0.00111   -0.00386
C5    1   -0.227134   -0.217380   -0.997439    11.00000    0.02051    0.02595 =
         0.00888   -0.00120    0.00432   -0.00052
AFIX  43
H5    6   -0.197819   -0.296653   -1.037953    11.00000   -1.20000
AFIX   0
C3    1   -0.264852    0.031895   -0.986916    11.00000    0.02439    0.01194 =
         0.02778    0.00225    0.00710   -0.00201
AFIX  43
H3    6   -0.262763    0.124336   -1.020749    11.00000   -1.20000
AFIX   0
C8    1   -0.526614   -0.293228   -0.552658    11.00000    0.01025    0.02218 =
         0.01814   -0.00563    0.00809   -0.00331
AFIX  23
H8A   6   -0.551795   -0.342396   -0.481680    11.00000   -1.20000
H8B   6   -0.526570   -0.189848   -0.537848    11.00000   -1.20000
AFIX   0
C12   1   -0.055279   -0.385604   -0.432632    11.00000    0.02000    0.02513 =
         0.02314    0.00286    0.00889    0.00441
AFIX 137
H12A  6    0.038858   -0.372323   -0.348334    11.00000   -1.50000
H12B  6   -0.030035   -0.342865   -0.505357    11.00000   -1.50000
H12C  6   -0.076310   -0.486985   -0.449761    11.00000   -1.50000
AFIX   0
C9    1   -0.210747   -0.313899   -0.423849    11.00000    0.02038    0.02442 =
         0.01577   -0.00286    0.00918    0.00150
C7    1   -0.359363   -0.342221   -0.554732    11.00000    0.02774    0.01070 =
         0.01408    0.00030    0.01417   -0.00132
AFIX  13
H7    6   -0.367911   -0.447629   -0.562347    11.00000   -1.20000
AFIX   0
C2    1   -0.311251    0.010399   -0.879179    11.00000    0.01843    0.01969 =
         0.02125   -0.00596    0.01110   -0.00113
AFIX  43
H2    6   -0.339792    0.088272   -0.836516    11.00000   -1.20000
AFIX   0
HKLF 4




REM  test2 in P2(1)
REM R1 =  0.0246 for    2734 Fo > 4sig(Fo)  and  0.0304 for all    2966 data
REM    202 parameters refined using      1 restraints

END

WGHT      0.0000      0.0000

REM Highest difference peak  0.981,  deepest hole -0.721,  1-sigma level  0.136
Q1    1  -0.2995 -0.3150 -0.8048  11.00000  0.05    0.98
Q2    1  -0.3009 -0.5390 -0.7804  11.00000  0.05    0.95
Q3    1  -0.3678 -0.4256 -0.9129  11.00000  0.05    0.79
Q4    1  -0.0017 -0.4244 -0.3646  11.00000  0.05    0.59
Q5    1  -0.1832 -0.3867 -0.7377  11.00000  0.05    0.58
Q6    1  -0.1843 -0.4936 -0.7344  11.00000  0.05    0.58
Q7    1  -0.4723 -0.6237 -0.8226  11.00000  0.05    0.55
Q8    1  -0.2539 -0.6858 -0.9613  11.00000  0.05    0.55
Q9    1  -0.2512 -0.4407 -0.7065  11.00000  0.05    0.54
Q10   1  -0.1001 -0.4437 -0.0976  11.00000  0.05    0.52
Q11   1  -0.2433 -0.6724 -1.0418  11.00000  0.05    0.52
Q12   1  -0.5549  0.1393 -0.8783  11.00000  0.05    0.51
Q13   1  -0.3268 -0.7476 -0.6889  11.00000  0.05    0.50
Q14   1  -0.4141 -0.5166 -0.8826  11.00000  0.05    0.48
Q15   1  -0.0251 -0.4266 -0.1641  11.00000  0.05    0.47
Q16   1  -0.0760 -0.4215 -0.4774  11.00000  0.05    0.46
Q17   1  -0.6011 -0.3479 -0.3682  11.00000  0.05    0.46
Q18   1  -0.4916 -0.2190 -0.9919  11.00000  0.05    0.45
Q19   1  -0.3263 -0.7390 -0.7841  11.00000  0.05    0.45
Q20   1  -0.1007 -0.4177 -0.6384  11.00000  0.05    0.45
;
_shelx_res_checksum              21974
_shelx_hkl_file
;
   1   0   0   71.60    4.24
   1   0   0   78.85    4.23
   1   0   0   64.73    4.31
   2   0   0  786.67   45.85
  -2   0   0  812.15   45.62
   2   0   0  800.03   45.81
   2   0   0  807.57   45.64
  -2   0   0  839.33   45.69
  -2   0   0  714.65   45.83
   3   0   0  246.76   13.81
  -3   0   0  235.69   13.78
  -3   0   0  257.34   14.36
   3   0   0  228.91   14.12
   3   0   0  233.28   13.91
  -3   0   0  218.09   14.14
   4   0   0   34.93    2.63
   4   0   0   39.46    2.48
  -4   0   0   34.65    2.53
   4   0   0   35.67    3.84
  -4   0   0   29.64    2.99
  -4   0   0   33.87    2.38
  -5   0   0  104.54    7.00
   5   0   0  107.22    6.27
   5   0   0   98.70    6.54
  -5   0   0   98.03    6.28
   6   0   0    4.60    1.14
  -6   0   0    6.84    2.04
  -6   0   0    6.20    1.24
   6   0   0    3.80    1.49
  -7   0   0    7.74    2.43
  -7   0   0    8.91    1.56
   7   0   0    8.35    2.18
  -8   0   0   14.56    3.21
  -8   0   0   12.03    1.90
   8   0   0    9.67    2.72
  -9   0   0   -0.03    1.86
   9   0   0    3.18    2.99
  -9   0   0    1.99    3.15
   0  -1   0    0.13    0.10
   0   1   0    0.08    0.10
  -1  -1   0  276.31   17.90
  -1  -1   0  320.61   18.03
   1  -1   0  308.65   17.97
  -1  -1   0  284.50   17.95
   1   1   0  332.68   18.04
   1   1   0  318.06   17.91
  -1   1   0  335.03   17.95
  -1   1   0  311.40   17.97
   1   1   0  316.01   17.97
   2  -1   0   57.55    3.67
  -2  -1   0   55.42    3.78
   2  -1   0   59.50    3.83
  -2  -1   0   58.54    3.80
  -2  -1   0   53.97    3.60
   2  -1   0   57.81    3.66
  -2   1   0   62.47    3.82
   2   1   0   63.37    3.63
  -2   1   0   67.66    3.68
  -2   1   0   63.87    3.70
   2   1   0   70.12    3.84
   2   1   0   64.91    3.85
  -3  -1   0  159.29    9.92
  -3  -1   0  164.63    9.83
  -3  -1   0  159.64    9.61
   3  -1   0  163.61    9.69
   3  -1   0  158.12    9.91
   3   1   0  165.23    9.90
  -3   1   0  169.06    9.66
  -3   1   0  160.09    9.92
  -3   1   0  174.68    9.67
   3   1   0  163.84    9.59
   3   1   0  168.29    9.87
  -4  -1   0  105.68    7.60
  -4  -1   0  120.47    7.37
  -4  -1   0  131.92    7.17
   4  -1   0  123.25    7.26
   4  -1   0  123.93    7.20
  -4   1   0  125.63    7.17
   4   1   0  103.07    7.16
  -4   1   0  108.96    7.58
  -4   1   0  130.96    7.22
   4   1   0  107.58    8.02
   4   1   0  123.62    7.46
  -5  -1   0   14.81    1.66
  -5  -1   0   13.12    2.16
   5  -1   0   15.18    1.83
   5  -1   0   17.19    1.87
  -5   1   0   18.73    1.74
   5   1   0   14.74    2.08
   5   1   0   15.70    1.57
  -5   1   0   16.00    1.67
  -5   1   0   16.35    2.33
   6  -1   0   55.15    4.03
   6  -1   0   53.46    3.85
  -6  -1   0   50.94    4.63
  -6  -1   0   54.24    3.67
  -6   1   0   51.61    4.04
   6   1   0   50.19    4.21
  -6   1   0   53.17    4.56
   6   1   0   51.64    3.57
  -6   1   0   51.08    3.70
  -7  -1   0    2.92    1.36
   7  -1   0    3.93    1.83
  -7  -1   0    3.65    2.33
  -7   1   0    5.20    2.29
   7   1   0    2.55    1.85
   7   1   0    3.21    2.00
  -7   1   0    4.86    1.46
   8  -1   0   25.75    3.74
  -8  -1   0   23.29    3.62
  -8  -1   0   24.87    2.84
  -8   1   0   26.92    3.81
   8   1   0   22.48    3.44
  -8   1   0   24.46    2.95
  -9  -1   0   13.00    3.72
   9  -1   0    9.50    3.11
   9   1   0   16.48    3.64
  -9   1   0   14.19    2.38
  -9   1   0   13.30    3.72
   0  -2   0   50.45    3.05
   0  -2   0   42.88    3.05
   0  -2   0   46.37    3.01
   0   2   0   57.45    3.05
   0   2   0   52.91    3.02
   1  -2   0    5.25    0.54
   1  -2   0    5.41    0.55
   1   2   0    3.21    0.50
   1   2   0    4.04    0.61
  -1   2   0    4.08    0.53
  -1   2   0    3.57    0.51
   2  -2   0   79.41    4.35
  -2  -2   0   77.05    4.43
   2  -2   0   81.09    4.39
  -2  -2   0   72.77    4.29
  -2  -2   0   70.84    4.15
  -2   2   0   65.51    4.24
   2   2   0   63.71    4.26
   2   2   0   65.86    4.16
   2   2   0   63.92    4.45
  -2   2   0   62.43    4.27
  -3  -2   0   52.79    3.66
  -3  -2   0   52.08    3.29
   3  -2   0   57.37    3.62
  -3  -2   0   56.10    3.65
   3  -2   0   59.35    3.44
   3  -2   0   59.19    3.36
  -3   2   0   51.15    3.42
  -3   2   0   52.86    3.29
   3   2   0   53.52    3.73
   3   2   0   53.14    3.56
  -3   2   0   49.88    3.55
   3   2   0   56.18    3.56
  -4  -2   0   49.81    3.59
   4  -2   0   56.02    3.38
   4  -2   0   54.26    3.31
  -4  -2   0   50.76    3.67
   4  -2   0   52.07    3.92
  -4  -2   0   52.87    3.19
  -4   2   0   49.28    3.67
   4   2   0   47.28    3.69
   4   2   0   47.78    3.63
  -4   2   0   52.61    3.34
  -4   2   0   46.47    3.33
   4   2   0   48.24    3.20
   5  -2   0  112.40    6.88
  -5  -2   0   84.05    6.26
  -5  -2   0   86.34    5.71
   5  -2   0   97.78    5.81
   5   2   0   89.04    5.61
   5   2   0   90.43    6.20
  -5   2   0   81.55    6.20
  -5   2   0   93.97    5.78
  -5   2   0   96.19    5.68
   6  -2   0    9.55    1.60
  -6  -2   0    9.80    2.25
  -6  -2   0    9.60    1.43
  -6   2   0    9.07    1.33
   6   2   0   10.11    1.27
   6   2   0   10.78    2.00
  -6   2   0    9.50    1.48
  -6   2   0   10.91    2.30
  -7  -2   0   54.58    5.57
   7  -2   0   70.68    4.92
  -7  -2   0   70.51    4.61
  -7   2   0   67.61    4.65
   7   2   0   64.30    5.20
   7   2   0   64.92    5.43
  -7   2   0   61.11    5.69
   8  -2   0   19.84    2.81
  -8  -2   0   16.14    2.14
  -8  -2   0   13.37    3.18
   8   2   0   15.31    3.19
  -8   2   0   20.93    2.90
  -8   2   0   14.36    3.44
   9  -2   0   24.20    4.65
  -9  -2   0   24.04    4.27
   9   2   0   26.39    4.28
  -9   2   0   23.24    2.97
  -9   2   0   23.71    4.27
   0  -3   0   -0.34    0.35
   0  -3   0    0.12    0.26
   0  -3   0   -0.37    0.31
   0   3   0    0.02    0.27
   0   3   0   -0.06    0.57
   1  -3   0   53.37    3.38
   1  -3   0   52.65    3.40
  -1  -3   0   54.38    3.40
   1  -3   0   55.97    3.29
   1   3   0   54.81    3.40
  -1   3   0   53.22    3.40
   1   3   0   58.68    3.55
  -1   3   0   55.00    3.28
  -2  -3   0   29.24    2.06
  -2  -3   0   29.80    2.22
  -2  -3   0   31.07    2.37
   2  -3   0   33.80    2.26
   2  -3   0   33.67    2.19
  -2   3   0   40.85    2.48
  -3  -3   0    6.83    0.70
  -3  -3   0    6.74    1.02
   3  -3   0    6.33    1.05
  -3  -3   0    7.21    1.19
   3   3   0    4.11    1.04
   3   3   0    4.22    0.80
  -3   3   0    3.98    0.84
  -3   3   0    4.74    0.87
  -4  -3   0   53.79    4.02
   4  -3   0   57.35    4.10
  -4  -3   0   50.43    3.61
   4   3   0   58.90    4.30
   4   3   0   63.45    3.71
  -4   3   0   63.73    3.91
  -4   3   0   64.87    4.11
  -5  -3   0   10.55    1.75
   5  -3   0   11.02    1.36
  -5  -3   0   11.49    1.31
  -5   3   0    8.44    1.39
   5   3   0    9.17    1.76
   5   3   0   12.55    1.40
  -5   3   0   10.48    1.68
   6  -3   0   80.11    5.18
  -6  -3   0   72.03    5.81
  -6  -3   0   80.69    5.08
   6   3   0   80.40    5.56
  -6   3   0   80.39    5.27
  -6   3   0   76.74    4.96
   6   3   0   81.50    5.95
  -6   3   0   70.87    5.76
  -7  -3   0   20.45    2.67
  -7  -3   0   18.02    3.22
   7  -3   0   25.45    2.78
  -7   3   0   20.09    3.17
  -7   3   0   27.45    2.91
   7   3   0   23.67    3.37
  -8  -3   0   45.31    3.86
   8  -3   0   44.42    4.25
  -8  -3   0   34.04    5.32
  -8   3   0   44.71    4.00
  -8   3   0   38.77    5.31
   8   3   0   43.88    5.27
  -9  -3   0   32.03    4.89
   9   3   0   30.61    4.68
  -9   3   0   35.25    5.11
  -9   3   0   35.98    4.08
   0  -4   0  106.18    7.32
   0  -4   0  104.86    7.42
   0   4   0  138.35    7.38
   0   4   0  142.72    7.41
   1  -4   0   20.28    1.48
   1  -4   0   18.44    1.54
   1  -4   0   18.99    1.54
   1  -4   0   19.50    1.56
  -1  -4   0   21.11    1.76
  -1  -4   0   17.47    1.54
  -1   4   0   21.32    1.60
  -1   4   0   21.60    1.45
   1   4   0   22.38    1.59
   1   4   0   21.75    1.78
  -2  -4   0   55.84    3.59
   2  -4   0   52.61    3.52
   2  -4   0   53.79    3.70
  -2  -4   0   58.64    3.79
   2   4   0   54.44    3.56
  -2   4   0   54.78    3.59
   2   4   0   56.13    3.85
  -3  -4   0  155.24    9.36
   3  -4   0  150.36    9.48
  -3  -4   0  150.34    9.58
  -3   4   0  163.75    9.62
  -3   4   0  171.84    9.58
   3   4   0  163.81    9.93
  -4  -4   0    3.67    1.02
  -4  -4   0    2.71    0.65
  -4   4   0    2.42    0.99
  -4   4   0    1.44    0.90
   4   4   0    1.59    1.20
  -5  -4   0  123.24    8.07
  -5  -4   0  124.64    7.55
   5   4   0  122.32    8.40
  -5   4   0  125.79    7.87
  -5   4   0  132.15    8.12
  -6  -4   0   22.55    2.15
  -6  -4   0   19.88    3.01
  -6   4   0   20.86    2.65
  -6   4   0   25.35    3.13
   6   4   0   19.01    2.95
   7  -4   0   59.59    4.11
  -7  -4   0   44.74    6.94
  -7  -4   0   60.91    4.20
  -7   4   0   48.63    5.33
   7   4   0   49.30    7.16
  -7   4   0   50.99    4.44
  -8  -4   0   17.93    4.02
  -8  -4   0   33.83    4.65
  -8   4   0   17.07    3.85
   8   4   0   27.39    4.05
  -8   4   0   28.74    3.63
  -9  -4   0   13.66    4.38
  -9   4   0    9.74    4.03
  -9   4   0    8.24    4.65
   9   4   0   23.26    4.53
   0  -5   0    1.55    0.75
   0  -5   0    0.99    0.67
   0  -5   0    0.09    0.50
   0   5   0   -0.21    0.57
   0   5   0   -0.37    0.60
   1  -5   0  170.32   10.40
   1  -5   0  179.92   10.30
  -1  -5   0  162.47   10.38
  -1  -5   0  163.60   10.41
  -1  -5   0  178.56   10.52
   1  -5   0  152.09   10.41
   1   5   0  180.47   10.42
   1   5   0  185.17   10.58
  -1   5   0  192.39   10.31
  -1   5   0  179.49   10.43
  -2  -5   0  101.89    6.13
  -2  -5   0   94.89    6.29
  -2  -5   0  104.18    5.97
  -2   5   0   96.10    6.12
   2   5   0   92.81    6.36
  -3  -5   0   41.51    2.84
  -3  -5   0   39.77    3.10
   3   5   0   44.50    3.59
  -3   5   0   45.40    3.13
  -4  -5   0  137.23    7.89
  -4  -5   0  125.57    8.21
  -4   5   0  132.69    8.25
   4   5   0  128.62    8.65
  -5  -5   0   18.30    2.48
  -5  -5   0   19.19    1.84
   5   5   0   16.85    2.66
  -5   5   0   19.90    2.60
  -6  -5   0   54.23    3.76
  -6  -5   0   55.46    4.65
   6   5   0   44.90    5.14
  -6   5   0   51.54    4.27
  -6   5   0   58.04    4.74
  -7  -5   0   16.12    3.15
  -7  -5   0   21.52    2.62
  -7   5   0   18.07    3.12
   7   5   0   15.12    3.39
  -8  -5   0    5.89    2.86
  -8  -5   0   12.18    3.56
   8   5   0   10.68    3.64
  -8   5   0    7.10    3.30
   0  -6   0  122.99    7.16
   0  -6   0  115.63    7.13
   0   6   0  105.53    7.90
   1  -6   0   14.13    1.57
  -1  -6   0   17.65    1.93
  -1  -6   0   13.65    1.50
   1  -6   0   13.06    1.52
  -1   6   0    8.59    1.34
  -1   6   0   11.14    1.47
   1   6   0   11.10    1.66
  -2  -6   0  101.88    6.53
   2  -6   0  108.82    6.56
   2   6   0  102.98    6.87
  -2   6   0  102.11    6.55
  -3  -6   0   42.04    3.06
  -3  -6   0   43.34    2.80
   3   6   0   32.41    3.49
  -3   6   0   34.95    3.01
  -4  -6   0   72.62    4.63
  -4  -6   0   71.89    5.01
  -4   6   0   76.68    5.03
   4   6   0   64.65    5.54
  -5  -6   0   55.36    4.33
  -5  -6   0   62.20    3.77
   5   6   0   41.85    4.85
  -5   6   0   50.43    4.30
  -6  -6   0   30.46    2.82
  -6   6   0   38.53    4.03
   6   6   0   26.53    4.33
  -7  -6   0   35.12    4.78
  -7  -6   0   34.59    3.50
   7   6   0   40.56    5.45
  -7   6   0   42.57    5.03
  -8  -6   0   10.82    3.67
   8   6   0    6.03    3.83
  -8   6   0   16.43    3.99
   0  -7   0    0.75    0.82
   0  -7   0    0.15    1.18
   0   7   0    0.36    1.11
   1  -7   0   83.87    5.55
   1  -7   0   84.63    5.65
  -1  -7   0   82.40    5.63
   1   7   0   87.18    5.90
  -1   7   0   96.46    5.58
   2  -7   0    3.67    1.07
  -2  -7   0    1.28    0.97
  -2   7   0    2.82    1.09
   2   7   0    1.26    1.48
   3  -7   0   77.89    5.07
  -3  -7   0   73.26    5.07
  -3  -7   0   74.07    4.81
  -3   7   0   72.82    5.08
   3   7   0   68.73    5.67
  -4  -7   0   28.56    3.01
  -4  -7   0   27.97    2.56
   4   7   0   29.52    3.98
  -4   7   0   35.93    3.11
  -5  -7   0   17.84    2.29
  -5  -7   0   16.83    2.65
  -5   7   0   28.37    3.36
  -6  -7   0   40.77    4.44
  -6  -7   0   44.03    3.55
  -6   7   0   47.23    4.66
   6   7   0   36.21    5.45
  -7  -7   0    1.26    1.74
  -7  -7   0   -0.30    2.69
   7   7   0    0.21    3.43
  -7   7   0    0.17    2.73
   0  -8   0  102.77    6.63
   0   8   0   99.89    6.71
   1  -8   0    8.77    1.62
   1  -8   0    9.41    1.57
  -1  -8   0   10.49    1.60
  -1   8   0    9.06    1.58
   1   8   0    8.97    2.00
  -2  -8   0   62.20    4.26
  -2  -8   0   61.69    4.41
   2  -8   0   61.69    4.43
  -2   8   0   59.27    4.45
   2   8   0   55.42    4.92
  -3  -8   0   28.11    2.69
  -3  -8   0   26.49    2.96
   3  -8   0   27.24    2.92
   3   8   0   32.87    4.01
  -3   8   0   34.50    3.08
   4  -8   0   28.71    3.09
  -4  -8   0   29.55    4.13
  -4  -8   0   29.16    2.69
  -4   8   0   21.98    3.11
   4   8   0   21.17    3.61
  -5  -8   0   28.67    2.93
  -5  -8   0   24.42    3.45
  -5   8   0   29.61    3.65
   5   8   0   23.48    3.89
  -6  -8   0   11.76    2.71
  -6  -8   0   11.40    2.04
   6   8   0   19.34    4.16
  -6   8   0    8.74    2.91
   0  -9   0   -0.89    1.28
   0   9   0    0.76    1.77
   1  -9   0   79.68    6.95
  -1  -9   0   84.82    6.05
   1   9   0   81.92    6.30
  -1   9   0   89.53    5.87
   2  -9   0   38.12    3.64
  -2  -9   0   39.69    3.40
  -2  -9   0   36.12    3.88
   2   9   0   40.42    4.38
  -3  -9   0   30.62    3.07
   3  -9   0   35.07    3.39
  -3  -9   0   31.67    3.36
   3   9   0   29.78    4.50
  -3   9   0   29.19    3.49
  -4  -9   0   58.60    4.39
   4  -9   0   54.31    4.69
  -4  -9   0   54.43    4.75
  -4   9   0   61.66    5.03
   4   9   0   50.39    6.15
  -5  -9   0    6.97    2.35
   5  -9   0    8.93    2.36
  -5  -9   0    6.54    2.98
  -5   9   0    8.45    2.56
   5   9   0    5.48    3.46
   0 -10   0   52.28    4.41
   0  10   0   44.47    4.93
   1 -10   0    8.91    2.13
  -1 -10   0   11.03    2.17
   1  10   0   10.10    2.71
  -2 -10   0   20.31    2.79
   2 -10   0   20.41    2.84
  -2 -10   0   21.65    2.61
   2  10   0   17.06    3.56
   3 -10   0   47.22    4.55
  -3 -10   0   43.31    4.12
  -3 -10   0   49.25    4.45
   3  10   0   45.71    5.98
   4 -10   0    0.47    2.17
  -4 -10   0    1.56    1.92
  -4 -10   0    2.95    2.12
  -4  10   0    4.09    2.46
   4  10   0    2.32    3.72
   0 -11   0    0.33    2.11
  -1 -11   0    7.37    2.39
   1 -11   0    8.20    2.51
   1  11   0    9.80    3.07
  -2 -11   0    8.72    2.46
   2 -11   0    7.82    2.60
  -2 -11   0    4.45    2.24
   2  11   0    3.68    3.86
   9   0  -1   20.33    3.46
  -9   0   1   17.78    3.69
  -8   0   1    9.88    1.58
   8   0  -1    8.87    2.42
  -8   0   1    9.09    3.06
  -7   0   1    0.94    1.94
  -7   0   1    2.26    1.09
   7   0  -1    3.32    1.16
   7   0  -1    4.30    1.63
  -6   0   1   14.04    2.37
   6   0  -1   13.63    2.09
   6   0  -1   16.17    1.65
  -6   0   1   12.24    1.52
  -5   0   1    4.28    0.72
   5   0  -1    3.25    1.03
  -5   0   1    4.69    1.57
  -5   0   1    5.44    1.13
   4   0  -1   44.65    2.71
  -4   0   1   43.40    3.32
   4   0  -1   39.12    2.93
  -4   0   1   39.56    2.62
   4   0  -1   43.16    3.27
  -4   0   1   40.86    2.86
   3   0  -1  118.30    7.30
  -3   0   1  110.55    7.26
  -3   0   1  119.56    6.88
   3   0  -1  122.38    7.09
   2   0  -1   33.86    2.49
  -2   0   1   39.73    2.34
   1   0  -1  330.59   18.43
  -1   0   1  308.83   18.40
   0   0   1   53.12    3.17
   1   0   1  330.46   18.60
  -1   0  -1  336.93   18.62
   1   0   1  327.31   18.69
   1   0   1  310.10   18.60
  -1   0  -1  303.74   18.70
  -2   0  -1  828.83   54.06
   2   0   1  919.95   53.86
   2   0   1  942.21   53.88
  -2   0  -1  987.41   53.88
  -2   0  -1 1000.00   53.89
   3   0   1   33.12    2.68
   3   0   1   31.78    2.30
  -3   0  -1   30.67    2.86
  -3   0  -1   33.53    2.27
  -3   0  -1   31.69    2.28
   3   0   1   29.50    2.27
   4   0   1  564.43   30.20
  -4   0  -1  467.15   30.65
   4   0   1  513.93   30.92
  -4   0  -1  542.35   30.71
  -4   0  -1  547.54   30.29
   4   0   1  483.57   30.35
  -5   0  -1   26.60    2.33
  -5   0  -1   25.42    3.03
  -5   0  -1   22.51    2.31
   5   0   1   25.60    2.67
  -6   0  -1  164.78   10.31
   6   0   1  146.91    9.80
  -6   0  -1  155.21    9.50
   7   0   1   47.42    4.45
  -7   0  -1   43.15    4.85
  -7   0  -1   47.70    3.82
  -8   0  -1   16.57    3.48
   8   0   1   13.21    3.03
  -8   0  -1   14.60    2.36
  -9   0  -1   13.77    3.72
  -9   0  -1   14.18    2.63
  -9  -1   1   17.44    3.83
   9  -1  -1   16.04    3.27
  -9   1   1   20.45    2.75
  -9   1   1   17.73    3.76
   9   1  -1   18.53    3.81
  -8  -1   1    5.04    1.46
  -8  -1   1    4.99    2.94
   8  -1  -1    9.45    2.44
  -8   1   1    7.94    1.58
   8   1  -1    6.69    2.52
   7  -1  -1   48.26    4.02
   7  -1  -1   43.54    3.98
  -7  -1   1   44.63    4.58
  -7  -1   1   41.20    3.36
  -7   1   1   54.18    3.52
  -7   1   1   53.99    4.80
   7   1  -1   49.32    4.25
   7   1  -1   50.21    3.35
  -6  -1   1   11.67    2.20
   6  -1  -1   13.38    1.83
   6  -1  -1   10.59    1.73
  -6  -1   1   11.71    1.42
  -6   1   1   14.03    1.55
  -6   1   1   12.23    1.81
  -6   1   1   13.85    2.30
   6   1  -1   10.19    1.42
   6   1  -1   13.36    2.13
   5  -1  -1   64.56    4.02
  -5  -1   1   64.62    3.97
  -5  -1   1   57.89    4.68
   5  -1  -1   60.43    4.13
  -5   1   1   59.90    4.57
   5   1  -1   60.40    4.35
  -5   1   1   65.30    4.08
  -5   1   1   62.61    3.93
  -4  -1   1   16.97    1.80
   4  -1  -1   18.11    1.54
  -4  -1   1   17.57    2.06
   4  -1  -1   16.30    1.97
  -4  -1   1   16.12    1.60
   4   1  -1   17.00    1.24
   4   1  -1   17.63    1.71
  -4   1   1   19.25    1.49
  -4   1   1   14.82    1.79
  -4   1   1   17.73    1.33
   4   1  -1   13.29    1.83
   3  -1  -1   18.94    1.57
  -3  -1   1   20.13    1.20
  -3  -1   1   17.59    1.47
   3  -1  -1   16.84    1.31
  -3  -1   1   18.16    1.65
   3  -1  -1   18.16    1.26
  -3   1   1   18.12    1.30
  -3   1   1   16.93    1.23
   3   1  -1   17.66    1.55
   3   1  -1   15.89    1.13
   3   1  -1   15.67    1.55
  -3   1   1   17.25    1.53
   2  -1  -1  222.15   12.63
  -2  -1   1  210.32   12.66
  -2  -1   1  221.38   12.66
   2  -1  -1  207.90   12.52
   2  -1  -1  208.96   12.54
  -2   1   1  214.86   12.62
   2   1  -1  227.47   12.63
   2   1  -1  222.83   12.70
  -2   1   1  214.17   12.54
  -1  -1   1    5.18    0.41
  -1  -1   1    5.47    0.51
  -1  -1   1    4.84    0.38
   1  -1  -1    5.75    0.48
   1  -1  -1    5.45    0.41
   1   1  -1    4.84    0.49
  -1   1   1    4.51    0.47
   1   1  -1    4.10    0.39
  -1   1   1    4.02    0.42
   0  -1   1  259.17   16.13
   0  -1   1  288.39   16.19
   0  -1   1  256.94   16.15
   0  -1  -1  257.56   16.15
   0  -1  -1  273.65   16.28
   0  -1  -1  272.59   16.17
   0   1  -1  295.61   16.18
   0   1   1  317.35   16.19
   0   1  -1  284.79   16.15
   0   1   1  300.95   16.24
  -1  -1  -1  101.15    6.03
   1  -1   1   91.64    5.98
  -1  -1  -1   89.78    5.95
  -1  -1  -1  100.79    6.03
   1  -1   1   90.31    5.88
   1  -1   1  102.96    5.98
   1   1   1  106.20    5.93
   1   1   1  108.49    6.09
   1   1   1  104.11    5.98
  -1   1  -1  109.75    6.07
  -1   1  -1  101.30    6.08
  -1   1  -1  109.05    5.90
  -2  -1  -1  100.10    6.13
   2  -1   1  102.02    6.14
   2  -1   1  107.23    6.41
  -2  -1  -1  101.27    6.30
   2  -1   1  110.53    6.39
   2   1   1  106.46    6.16
  -2   1  -1   99.35    6.35
  -2   1  -1  111.86    6.16
   2   1   1  109.19    6.32
  -2   1  -1   95.26    6.20
   2   1   1  100.46    6.31
   3  -1   1  208.40   12.51
  -3  -1  -1  211.31   12.45
  -3  -1  -1  207.17   12.74
   3  -1   1  209.26   12.47
  -3  -1  -1  214.34   12.61
   3  -1   1  191.90   12.74
  -3   1  -1  241.98   12.50
   3   1   1  225.35   12.70
   3   1   1  226.31   12.75
   3   1   1  202.11   12.44
  -3   1  -1  189.07   12.74
  -3   1  -1  221.10   12.52
   4  -1   1    5.38    1.04
  -4  -1  -1    4.65    1.34
  -4  -1  -1    5.20    1.70
  -4  -1  -1    6.14    1.11
   4  -1   1    7.16    1.06
  -4   1  -1    4.49    0.96
   4   1   1    5.72    1.20
  -4   1  -1    1.83    1.37
   4   1   1    5.08    0.89
  -4   1  -1    5.32    0.88
   5  -1   1  144.84    8.63
   5  -1   1  139.94    8.65
  -5  -1  -1  120.80    9.06
  -5  -1  -1  149.09    8.59
  -5   1  -1  150.63    8.60
  -5   1  -1  144.59    8.57
  -5   1  -1  137.66    9.19
   5   1   1  133.19    8.49
   5   1   1  137.69    8.86
  -6  -1  -1   23.02    2.49
  -6  -1  -1   22.61    3.38
   6  -1   1   22.17    2.78
  -6   1  -1   24.12    2.56
   6   1   1   26.28    3.04
  -6   1  -1   28.83    3.62
   7  -1   1   28.16    3.50
  -7  -1  -1   33.51    3.07
  -7  -1  -1   30.73    4.20
  -7   1  -1   26.56    3.06
  -7   1  -1   29.77    4.19
   7   1   1   29.88    3.79
   8  -1   1   32.15    4.18
  -8  -1  -1   25.59    3.36
  -8  -1  -1   32.25    4.75
   8   1   1   31.15    4.55
  -8   1  -1   25.07    3.40
  -8   1  -1   27.19    4.01
   9  -1   1    1.87    3.33
  -9  -1  -1    5.17    2.24
  -9  -1  -1    3.40    3.62
  -9   1  -1    1.73    3.60
   9   1   1   -1.70    3.47
  -9   1  -1   -1.00    2.28
  -9  -2   1   19.36    3.78
   9  -2  -1   17.07    3.22
  -9   2   1   17.91    3.09
  -9   2   1   18.11    3.84
   9   2  -1   14.02    3.59
  -8  -2   1   92.47    6.18
   8  -2  -1  102.85    6.86
  -8   2   1   91.65    7.54
  -8   2   1   96.53    6.35
   8   2  -1  101.77    7.46
  -7  -2   1    7.97    2.52
   7  -2  -1   10.04    1.84
  -7  -2   1    7.08    1.36
  -7   2   1   11.38    1.56
   7   2  -1    9.55    2.20
  -7   2   1    8.23    2.33
   7   2  -1    9.69    1.27
  -6  -2   1  115.19    8.79
   6  -2  -1  142.39    8.31
  -6  -2   1  144.05    8.05
  -6   2   1  136.23    8.18
   6   2  -1  130.78    7.94
  -6   2   1  117.77    8.70
   6   2  -1  133.12    8.67
  -6   2   1  143.14    8.17
   5  -2  -1   83.10    5.22
  -5  -2   1   79.60    5.01
  -5  -2   1   72.51    5.63
   5  -2  -1   81.26    5.13
  -5   2   1   87.62    5.17
  -5   2   1   83.55    5.64
  -5   2   1   85.64    5.15
   5   2  -1   85.73    5.65
  -4  -2   1   44.43    3.05
  -4  -2   1   43.69    3.51
   4  -2  -1   46.88    3.22
   4  -2  -1   47.97    3.80
  -4  -2   1   42.49    3.52
   4  -2  -1   45.71    3.19
   4   2  -1   56.69    3.10
  -4   2   1   55.49    3.27
  -4   2   1   53.91    3.55
  -4   2   1   53.72    3.35
   4   2  -1   54.16    3.68
   4   2  -1   59.44    3.57
   3  -2  -1  135.87    8.32
  -3  -2   1  119.53    8.05
  -3  -2   1  137.28    8.40
   3  -2  -1  132.87    8.26
   3  -2  -1  133.93    8.20
  -3  -2   1  130.41    8.30
   3   2  -1  147.64    8.31
  -3   2   1  150.25    8.13
  -3   2   1  153.10    8.38
  -3   2   1  147.82    8.19
   2  -2  -1   33.87    2.16
   2  -2  -1   32.22    2.08
  -2  -2   1   33.58    2.20
  -2  -2   1   33.94    2.39
   2  -2  -1   30.08    2.42
   2   2  -1   37.76    2.23
   2   2  -1   37.14    2.40
  -2   2   1   35.93    2.24
  -1  -2   1  130.16    6.98
  -1   2   1  108.97    6.72
   1   2  -1  108.34    6.69
   1   2  -1  116.99    6.83
  -1   2   1  108.63    6.71
   0  -2   1  131.00    7.25
   0  -2  -1  130.73    7.26
   0  -2  -1  138.15    7.33
   0  -2   1  135.76    7.20
   0  -2   1  121.29    7.28
   0  -2   1  124.05    7.23
   0   2  -1  105.98    7.26
   0   2  -1  109.67    7.23
   0   2  -1  120.06    7.22
   0   2   1  120.53    7.25
  -1   2  -1   45.47    2.85
   1   2   1   46.24    2.80
   1   2   1   45.52    2.97
   2  -2   1   78.35    4.29
  -2  -2  -1   75.77    4.24
  -2  -2  -1   73.42    4.07
   2   2   1   62.62    4.33
  -2   2  -1   59.11    4.15
   2   2   1   62.65    4.19
   2   2   1   62.23    4.15
   3  -2   1   20.23    1.64
  -3  -2  -1   17.27    1.38
   3  -2   1   18.58    1.44
  -3  -2  -1   17.05    1.66
   3  -2   1   17.88    1.80
  -3  -2  -1   15.76    1.74
   3   2   1   19.25    1.91
   3   2   1   19.36    1.74
   3   2   1   19.58    1.49
  -3   2  -1   21.14    1.84
  -3   2  -1   18.05    1.64
  -3   2  -1   22.25    1.40
   4   2   1   32.68    2.86
  -4   2  -1   31.37    2.47
  -4   2  -1   30.70    2.83
   4   2   1   33.15    2.31
   5  -2   1    0.93    0.97
  -5  -2  -1    0.44    0.89
  -5  -2  -1    1.25    1.40
  -5   2  -1    0.15    1.02
  -5   2  -1    0.47    0.79
   5   2   1   -0.51    1.22
  -5   2  -1   -0.98    1.38
   6  -2   1   35.43    3.15
  -6  -2  -1   34.87    3.08
   6   2   1   36.42    3.74
  -6   2  -1   39.55    4.08
  -6   2  -1   38.18    2.96
  -6   2  -1   38.19    3.15
   7  -2   1   25.07    3.20
  -7  -2  -1   21.18    2.98
  -7  -2  -1   21.46    3.40
   7   2   1   25.86    3.78
  -7   2  -1   29.31    4.14
  -7   2  -1   26.90    3.05
  -8  -2  -1   13.55    3.40
   8  -2   1   22.21    3.10
  -8  -2  -1   16.82    2.45
   8   2   1   19.28    3.93
  -8   2  -1   22.93    3.83
  -8   2  -1   22.44    2.76
  -9  -2  -1   33.81    5.18
  -9   2  -1   42.64    6.18
   9   2   1   45.32    6.07
  -9   2  -1   43.47    4.50
  -9  -3   1   49.68    6.40
   9  -3  -1   43.85    5.93
  -9   3   1   55.20    6.29
  -9   3   1   49.87    4.39
   9   3  -1   55.91    6.19
   8  -3  -1    4.64    2.06
  -8  -3   1    3.14    2.65
  -8  -3   1    2.53    1.60
  -8   3   1    2.84    2.71
  -8   3   1    2.81    1.64
   8   3  -1    5.92    2.75
   7  -3  -1  128.83    7.52
  -7  -3   1   92.61    8.11
  -7   3   1  108.86    7.25
  -7   3   1  115.48    8.15
   7   3  -1  120.18    8.12
  -7   3   1  122.44    7.35
  -6  -3   1   19.23    2.96
   6  -3  -1   27.68    3.32
  -6  -3   1   20.32    2.04
  -6   3   1   23.04    2.86
  -6   3   1   27.03    2.33
   6   3  -1   19.64    2.85
  -6   3   1   22.32    1.99
  -5  -3   1  139.31    8.33
  -5  -3   1  135.40    8.86
   5  -3  -1  142.25    8.48
   5  -3  -1  143.43    8.52
   5   3  -1  137.13    9.01
  -5   3   1  146.70    8.89
  -5   3   1  138.53    8.54
  -5   3   1  145.05    8.40
   4  -3  -1  128.82    7.09
  -4  -3   1  128.01    7.43
  -4  -3   1  118.70    7.01
   4  -3  -1  121.38    7.13
   4  -3  -1  130.04    7.20
  -4   3   1  113.42    7.03
   4   3  -1  111.83    7.59
  -4   3   1  109.89    7.35
   4   3  -1  109.79    7.32
   3  -3  -1   91.65    5.60
  -3  -3   1   90.56    5.53
  -3  -3   1   89.48    5.75
   3  -3  -1   92.20    5.53
   3  -3  -1   93.52    5.66
   3  -3  -1   93.06    5.80
  -3  -3   1   96.26    5.93
   3   3  -1   98.78    5.74
  -3   3   1   97.99    5.80
   3   3  -1   94.86    6.04
   2  -3  -1  105.82    6.15
  -2  -3   1  108.81    6.40
  -2  -3   1  101.10    6.24
   2  -3  -1  103.06    6.26
   2  -3  -1  100.47    6.07
   2  -3  -1   99.05    6.19
  -2   3   1  108.89    6.15
  -2   3   1   99.05    6.25
   2   3  -1  106.70    6.45
   2   3  -1  106.01    6.23
  -1  -3   1   80.96    4.96
   1  -3  -1   83.46    5.00
   1  -3  -1   87.51    4.98
  -1  -3   1   89.64    5.18
   1  -3  -1   84.09    4.99
   1   3  -1   78.15    5.07
  -1   3   1   75.10    4.98
   0  -3   1   52.82    3.36
   0  -3   1   57.80    3.34
   0  -3  -1   56.57    3.47
   0  -3  -1   51.57    3.38
   0  -3   1   53.81    3.37
   0  -3  -1   56.33    3.41
   1  -3   1    5.47    0.69
  -1  -3  -1    5.69    0.73
   1  -3   1    5.17    0.76
  -1  -3  -1    5.83    0.90
  -1  -3  -1    5.66    0.63
  -1   3  -1    4.09    0.67
  -2  -3  -1    4.69    0.75
   2  -3   1    5.51    0.79
  -2  -3  -1    6.63    1.04
  -2  -3  -1    5.26    0.71
   2  -3   1    6.65    0.99
  -2   3  -1    7.16    0.94
   2   3   1    6.63    1.05
   2   3   1    6.39    0.90
  -2   3  -1    8.93    1.00
  -3  -3  -1   31.31    2.51
  -3  -3  -1   29.38    2.68
   3  -3   1   30.27    2.92
  -3  -3  -1   27.55    2.32
   3  -3   1   34.48    2.64
   3   3   1   34.74    2.56
  -3   3  -1   39.59    2.55
   3   3   1   38.66    2.37
   3   3   1   36.08    2.85
  -3   3  -1   40.23    2.64
  -4  -3  -1   11.57    1.21
  -4  -3  -1    9.32    1.47
   4   3   1    9.65    1.35
   4   3   1    8.94    1.73
  -4   3  -1   11.52    1.43
  -4   3  -1    9.48    1.58
  -5  -3  -1   21.52    2.53
  -5  -3  -1   20.95    1.90
   5  -3   1   19.77    1.81
   5   3   1   18.43    2.06
  -5   3  -1   18.41    2.64
   5   3   1   19.83    2.85
  -5   3  -1   20.17    2.27
   6  -3   1   20.91    2.44
  -6  -3  -1   17.28    2.78
  -6  -3  -1   16.33    2.34
   6   3   1   23.32    3.27
  -6   3  -1   23.61    2.09
  -6   3  -1   21.21    2.68
  -6   3  -1   22.57    3.39
  -7  -3  -1   14.02    3.83
  -7  -3  -1   23.28    2.92
   7  -3   1   24.09    2.89
  -7   3  -1   20.30    3.56
   7   3   1   19.47    3.30
  -7   3  -1   20.53    2.65
  -8  -3  -1   22.81    4.25
  -8  -3  -1   29.05    3.83
   8  -3   1   30.06    4.74
  -8   3  -1   34.28    3.96
   8   3   1   40.43    5.20
  -8   3  -1   34.17    4.69
  -9  -3  -1    1.48    3.66
  -9   3  -1    4.04    3.93
  -9  -4   1    3.59    3.72
  -9   4   1    0.71    3.39
   9   4  -1    3.51    3.52
   8  -4  -1   26.60    3.66
  -8  -4   1   23.86    3.96
   8   4  -1   38.19    4.84
  -8   4   1   24.18    3.92
  -7  -4   1    2.55    1.98
   7  -4  -1    2.02    1.46
  -7  -4   1    2.92    1.35
   7   4  -1   -0.21    2.13
  -7   4   1    3.51    2.20
  -6  -4   1   92.71    5.79
   6  -4  -1   84.68    5.94
  -6  -4   1   91.01    6.56
   6  -4  -1   99.28    5.92
  -6   4   1   96.06    6.59
   6   4  -1   95.76    6.86
  -6   4   1   98.15    5.80
  -5  -4   1   22.47    1.64
   5  -4  -1   18.63    1.79
  -5  -4   1   20.67    2.34
   5   4  -1   17.42    2.62
  -5   4   1   15.60    2.17
  -4  -4   1  139.96    8.21
   4  -4  -1  138.30    8.23
  -4  -4   1  141.99    8.55
  -4   4   1  139.95    8.57
   4   4  -1  134.49    8.86
  -3  -4   1  116.22    7.03
   3  -4  -1  118.64    6.50
   3  -4  -1  113.38    6.58
  -3  -4   1  113.72    6.59
  -3  -4   1  116.32    6.82
   3  -4  -1  115.30    6.92
   3   4  -1  100.78    6.76
   3   4  -1  102.90    7.07
  -3   4   1   98.47    6.77
  -2  -4   1   77.10    4.75
   2  -4  -1   71.98    4.46
   2  -4  -1   68.30    4.58
   2  -4  -1   66.79    4.51
  -2  -4   1   70.82    4.57
   2   4  -1   77.98    4.57
   2   4  -1   77.74    4.85
  -2   4   1   75.95    4.61
  -1  -4   1  313.63   17.60
   1  -4  -1  291.64   17.60
   1  -4  -1  318.25   17.59
  -1  -4   1  322.03   17.68
  -1  -4   1  278.27   17.69
   1  -4  -1  292.50   17.61
   1   4  -1  296.02   17.57
  -1   4   1  306.55   17.59
  -1   4   1  289.03   17.61
   1   4  -1  309.52   17.71
   0  -4  -1    4.47    0.70
   0  -4   1    3.90    0.65
   0  -4  -1    3.63    0.61
   0  -4   1    4.05    0.64
   0  -4   1    5.63    0.80
   0  -4   1    6.15    0.82
   0  -4  -1    3.90    0.74
   0   4  -1    1.85    0.60
   0   4  -1    3.38    0.63
   0   4   1    2.39    0.59
   0   4   1    2.72    0.69
   1  -4   1  118.56    7.20
  -1  -4  -1  125.48    7.38
  -1  -4  -1  117.09    7.23
   1  -4   1  113.89    7.21
  -1  -4  -1  117.69    7.14
  -1   4  -1  121.56    7.23
   1   4   1  121.17    7.63
   1   4   1  124.47    7.25
  -2  -4  -1   68.27    4.56
   2  -4   1   63.07    4.43
  -2  -4  -1   59.94    3.99
   2  -4   1   60.58    4.11
  -2  -4  -1   61.94    4.21
  -2   4  -1   66.70    4.17
   2   4   1   63.73    4.15
   2   4   1   67.61    4.46
  -2   4  -1   71.22    4.21
  -3  -4  -1    9.16    1.07
  -3  -4  -1    8.83    1.35
   3   4   1    9.67    1.66
  -3   4  -1   10.52    1.43
  -3   4  -1    8.65    1.30
  -4  -4  -1   84.81    5.58
  -4  -4  -1   85.69    5.21
   4   4   1   87.26    5.38
   4   4   1   77.77    5.90
  -4   4  -1   79.52    5.48
  -4   4  -1   89.62    5.64
  -5  -4  -1   24.47    2.25
  -5  -4  -1   23.15    2.87
  -5   4  -1   29.97    2.79
  -5   4  -1   35.81    3.14
   5   4   1   29.22    3.32
  -6  -4  -1   20.82    2.29
  -6  -4  -1   19.10    2.73
  -6   4  -1   19.12    2.47
  -6   4  -1   19.93    2.98
   6   4   1   18.86    3.01
  -7  -4  -1   40.56    5.14
  -7  -4  -1   42.37    3.98
  -7   4  -1   51.02    4.32
  -7   4  -1   44.77    5.20
   7   4   1   51.78    5.32
  -8  -4  -1    3.92    2.31
  -8  -4  -1   -1.41    3.01
  -8   4  -1    0.57    3.39
   8   4   1   -0.35    3.32
  -8   4  -1   -0.72    3.26
  -8  -5   1    1.46    2.97
  -8   5   1   -0.28    2.95
   8   5  -1    4.61    3.32
  -7  -5   1   48.70    3.59
  -7   5   1   47.31    4.81
   7   5  -1   46.70    5.25
  -6  -5   1    0.75    1.54
  -6  -5   1    0.48    0.91
  -6   5   1    2.81    1.73
   6   5  -1    2.50    2.05
  -5  -5   1   75.41    4.64
  -5  -5   1   74.07    5.18
  -5   5   1   77.29    5.21
   5   5  -1   66.21    5.63
  -4  -5   1   33.38    2.37
  -4  -5   1   31.89    2.73
  -4   5   1   36.39    2.80
   4   5  -1   33.57    3.31
  -3  -5   1   75.63    4.61
  -3  -5   1   72.17    4.35
  -3   5   1   66.98    4.59
   3   5  -1   63.56    4.95
   2  -5  -1  117.79    6.93
  -2  -5   1  111.64    7.06
  -2  -5   1  104.31    7.59
   2  -5  -1  112.91    7.07
   2   5  -1  113.59    7.07
  -2   5   1  120.47    6.93
   2   5  -1  119.89    7.37
  -2   5   1  122.39    7.13
   1  -5  -1   33.29    2.26
  -1  -5   1   31.03    2.36
  -1  -5   1   30.77    2.29
  -1  -5   1   28.98    2.20
   1  -5  -1   32.12    2.25
  -1   5   1   29.76    2.23
   1   5  -1   28.32    2.22
  -1   5   1   29.18    2.22
   1   5  -1   26.85    2.62
   0  -5   1  172.09   10.33
   0  -5   1  162.33   10.25
   0  -5   1  171.17   10.28
   0  -5  -1  189.79   10.42
   0  -5  -1  173.04   10.31
   0   5   1  176.35   10.48
   0   5  -1  183.15   10.29
   0   5   1  153.62   10.61
  -1  -5  -1   73.63    4.71
  -1  -5  -1   76.16    4.92
   1  -5   1   65.70    4.70
   1  -5   1   76.45    4.45
  -1  -5  -1   71.53    4.60
   1  -5   1   73.91    4.69
  -1   5  -1   72.52    4.49
  -1   5  -1   75.79    4.72
   1   5   1   81.52    4.98
  -2  -5  -1   82.63    5.02
  -2  -5  -1   87.09    5.23
  -2   5  -1   75.40    5.15
   2   5   1   79.68    5.52
  -3  -5  -1  116.48    7.38
  -3  -5  -1  113.98    7.60
  -3   5  -1  127.73    7.65
  -3   5  -1  129.99    7.65
   3   5   1  125.17    8.04
  -4  -5  -1    2.15    0.87
  -4  -5  -1    2.36    1.08
  -4   5  -1    3.20    1.26
  -4   5  -1    1.30    1.17
   4   5   1    3.16    1.63
  -5  -5  -1   63.26    4.41
  -5  -5  -1   63.27    4.99
  -5   5  -1   77.05    5.14
   5   5   1   63.41    5.49
  -5   5  -1   68.01    4.94
  -6  -5  -1   28.43    2.77
  -6  -5  -1   28.01    3.79
  -6   5  -1   36.10    3.54
  -6   5  -1   29.54    4.05
   6   5   1   22.80    4.12
  -7  -5  -1   19.89    2.57
  -7  -5  -1   19.95    3.53
  -7   5  -1   29.52    3.76
  -7   5  -1   26.04    3.79
   7   5   1   23.84    3.92
  -8  -5  -1   35.17    5.05
  -8  -5  -1   33.54    4.21
  -8   5  -1   37.74    4.67
   8   5   1   31.70    5.04
  -8   5  -1   22.05    4.67
  -8  -6   1   22.94    3.89
   8   6  -1   16.11    4.27
  -8   6   1   21.08    3.94
  -7  -6   1   -2.79    2.18
  -7  -6   1   -0.01    1.33
  -7   6   1    2.27    2.42
   7   6  -1    0.72    2.79
  -6  -6   1   40.94    3.14
  -6  -6   1   41.24    4.04
  -5  -6   1   23.52    2.11
  -5  -6   1   20.50    2.67
   5   6  -1   20.07    3.04
  -5   6   1   27.12    2.77
  -4  -6   1   58.78    4.05
  -4  -6   1   59.68    3.67
   4   6  -1   45.13    4.57
  -4   6   1   53.10    3.99
  -3  -6   1   76.69    4.98
   3  -6  -1   80.29    4.99
  -3  -6   1   74.18    4.75
   3   6  -1   70.01    5.43
  -3   6   1   74.33    5.00
   2  -6  -1   67.61    4.41
  -2  -6   1   65.28    4.38
   2   6  -1   68.06    4.76
  -2   6   1   64.16    4.40
  -2   6   1   66.40    4.23
  -1  -6   1  107.85    6.96
   1  -6  -1  110.00    6.91
   1  -6  -1  116.62    6.91
  -1  -6   1  107.04    6.87
  -1   6   1  115.74    6.93
   1   6  -1  111.00    7.05
   0  -6   1   69.18    4.49
   0  -6   1   65.97    4.53
   0  -6  -1   66.83    4.54
   0  -6  -1   68.58    4.68
   0   6   1   76.57    4.75
   0   6  -1   73.19    4.55
  -1  -6  -1   66.88    4.32
   1  -6   1   68.88    4.03
   1  -6   1   67.22    4.30
  -1   6  -1   62.73    4.06
   1   6   1   64.72    4.61
  -1   6  -1   58.71    4.27
   2  -6   1   92.89    5.82
  -2  -6  -1   90.71    5.85
  -2  -6  -1   91.68    5.66
   2   6   1   87.90    6.21
  -2   6  -1   91.16    5.84
  -3  -6  -1   10.85    1.64
  -3  -6  -1    9.00    1.19
  -3   6  -1    9.22    1.45
   3   6   1   11.40    2.15
  -4  -6  -1   88.51    6.07
  -4  -6  -1   94.07    5.72
   4   6   1   81.90    6.63
  -4   6  -1   93.36    6.11
  -5  -6  -1   17.80    2.07
  -5  -6  -1   15.59    2.34
  -5   6  -1   14.90    2.33
   5   6   1   13.46    2.86
  -5   6  -1   18.01    2.51
  -6  -6  -1   50.01    3.86
  -6  -6  -1   46.38    4.73
   6   6   1   44.62    5.31
  -6   6  -1   55.72    4.95
  -6   6  -1   43.70    4.62
  -7  -6  -1   18.69    2.43
  -7  -6  -1   24.57    3.76
   7   6   1   11.90    3.76
  -7   6  -1   19.57    3.77
  -7   6  -1    9.40    2.90
  -7  -7   1   28.20    3.13
  -7  -7   1   32.02    4.60
   7   7  -1   29.88    4.56
  -7   7   1   34.92    4.59
  -6  -7   1    7.96    1.58
  -6  -7   1   10.12    2.38
   6   7  -1    9.15    3.13
  -6   7   1   10.07    3.23
  -5  -7   1   13.80    2.20
  -5  -7   1   15.85    2.00
  -5   7   1   16.36    3.24
   5   7  -1   13.90    2.95
  -4  -7   1   69.96    4.57
  -4  -7   1   65.61    4.91
  -4   7   1   72.73    4.98
   4   7  -1   68.94    5.71
  -3  -7   1    2.40    1.01
  -3  -7   1    3.46    1.32
   3  -7  -1    3.02    1.10
  -3   7   1    3.57    1.23
   3   7  -1    3.43    1.74
   2  -7  -1   88.72    5.71
   2  -7  -1   86.28    5.54
  -2  -7   1   81.64    5.65
   2   7  -1   86.40    6.09
  -2   7   1   90.19    5.53
  -2   7   1   88.60    5.71
   1  -7  -1   41.24    3.33
  -1  -7   1   40.09    3.17
   1  -7  -1   43.22    3.22
  -1  -7   1   36.41    3.69
   1   7  -1   47.69    3.55
  -1   7   1   51.37    3.41
   0  -7   1   37.32    2.98
   0  -7  -1   39.59    3.01
   0  -7  -1   41.69    4.47
   0  -7   1   39.34    2.98
   0   7  -1   36.36    3.00
   0   7   1   41.03    3.29
   1  -7   1   56.87    4.13
  -1  -7  -1   54.34    4.08
   1  -7   1   55.02    4.21
  -1   7  -1   64.37    4.19
  -1   7  -1   65.57    3.92
   1   7   1   60.39    4.61
  -2  -7  -1   14.81    1.78
   2  -7   1   16.86    2.01
  -2  -7  -1   13.72    1.96
  -2   7  -1   17.08    2.09
   2   7   1   15.34    2.33
  -3  -7  -1   50.19    3.92
  -3  -7  -1   52.53    3.64
   3   7   1   47.83    4.63
  -3   7  -1   53.65    3.98
  -4  -7  -1    8.56    1.41
  -4  -7  -1    9.07    1.78
  -4   7  -1    8.00    1.86
   4   7   1    6.33    2.45
  -5  -7  -1   60.59    4.35
  -5  -7  -1   58.49    4.93
  -5   7  -1   67.93    5.11
   5   7   1   55.62    5.86
  -6  -7  -1    1.39    2.19
  -6  -7  -1   -1.09    1.63
   6   7   1   -3.25    3.03
  -6   7  -1   -1.32    2.53
  -7  -7  -1   29.95    3.68
  -7  -7  -1   29.46    4.33
   7   7   1   24.58    4.78
  -7   7  -1   34.74    4.76
  -7  -8   1    0.44    2.78
  -7   8   1    1.34    2.77
   7   8  -1    3.24    3.99
  -6  -8   1   24.41    2.94
  -6  -8   1   21.10    3.09
   6   8  -1   25.10    4.45
  -6   8   1   32.45    4.01
  -5  -8   1   16.19    2.46
  -5  -8   1   17.73    1.98
   5  -8  -1   14.46    2.19
   5   8  -1   11.34    3.15
  -5   8   1   11.25    2.32
  -4  -8   1   38.78    3.12
  -4  -8   1   31.45    3.41
   4  -8  -1   35.09    3.51
   4   8  -1   39.19    4.63
  -4   8   1   41.21    3.64
  -3  -8   1   33.49    2.93
   3  -8  -1   36.33    3.16
  -3  -8   1   33.62    3.15
   3   8  -1   32.11    4.04
  -3   8   1   36.29    3.22
   2  -8  -1   36.28    3.14
  -2  -8   1   35.20    3.08
   2  -8  -1   37.05    3.19
   2   8  -1   34.65    3.68
  -2   8   1   34.30    4.09
   1  -8  -1   57.10    4.28
   1  -8  -1   49.04    4.49
  -1  -8   1   54.90    4.24
  -1   8   1   70.35    4.54
   1   8  -1   64.03    4.60
   0  -8  -1   31.34    2.81
   0  -8   1   33.15    4.41
   0  -8   1   34.23    2.81
   0   8   1   24.28    3.07
   0   8  -1   27.02    2.89
   1  -8   1   55.57    3.81
  -1  -8  -1   51.81    4.01
  -1  -8  -1   54.11    4.13
   1  -8   1   58.64    4.19
  -1   8  -1   59.89    3.96
   1   8   1   56.76    4.69
  -2  -8  -1   56.52    4.05
   2  -8   1   59.13    4.26
  -2  -8  -1   54.11    4.23
   2   8   1   52.11    4.99
  -2   8  -1   60.14    4.36
  -3  -8  -1    9.25    1.56
  -3  -8  -1    9.33    1.78
   3  -8   1   10.92    1.77
   3   8   1    6.66    2.48
  -3   8  -1    8.76    1.87
  -4  -8  -1   51.65    4.54
  -4  -8  -1   56.47    4.17
  -4   8  -1   63.74    4.80
   4   8   1   49.72    5.61
  -5  -8  -1    8.28    1.82
  -5  -8  -1    7.08    2.16
  -5   8  -1    8.08    2.57
   5   8   1    6.57    3.27
  -6  -8  -1   43.67    4.86
  -6   8  -1   37.87    5.12
   6   8   1   24.74    4.94
  -6  -9   1    1.88    1.85
  -6  -9   1   -2.18    2.31
   6  -9  -1    1.28    2.23
   6   9  -1    9.14    4.23
  -6   9   1    1.02    2.50
  -5  -9   1   37.69    3.49
  -5  -9   1   33.43    4.02
   5  -9  -1   32.51    3.86
  -5   9   1   38.02    4.20
   5   9  -1   27.15    4.71
  -4  -9   1   10.72    1.85
   4  -9  -1   11.58    2.11
  -4  -9   1   11.17    2.12
  -4   9   1    8.72    2.24
   4   9  -1    9.72    3.27
  -3  -9   1   38.61    3.69
  -3  -9   1   42.45    3.53
   3  -9  -1   40.72    3.73
   3   9  -1   33.68    4.65
  -3   9   1   44.15    3.87
   2  -9  -1   64.76    4.75
  -2  -9   1   61.72    4.66
  -2   9   1   58.84    4.58
   2   9  -1   57.76    5.26
  -1  -9   1   16.03    2.25
   1  -9  -1   13.00    3.17
  -1   9   1   23.26    2.93
   1   9  -1   23.46    3.12
   0  -9   1   98.42    6.65
   0   9  -1  100.10    6.70
   0   9   1   98.31    6.93
  -1  -9  -1   35.32    3.26
   1  -9   1   34.60    3.40
  -1  -9  -1   34.68    3.50
   1   9   1   34.66    4.02
  -1   9  -1   31.79    3.23
   2  -9   1   35.72    3.50
  -2  -9  -1   32.24    3.31
  -2   9  -1   34.72    3.46
   2   9   1   27.82    4.30
  -3  -9  -1   74.89    5.75
   3  -9   1   79.46    5.69
  -3  -9  -1   77.33    6.38
  -3   9  -1   76.99    5.79
  -4  -9  -1    0.67    1.91
  -4  -9  -1    3.33    1.67
   4  -9   1    1.86    1.87
   4   9   1    0.76    3.33
  -4   9  -1    1.35    2.08
  -5  -9  -1   47.93    5.12
   5  -9   1   53.34    5.04
  -5  -9  -1   50.37    4.42
  -5   9  -1   54.14    5.27
   4 -10  -1   32.16    4.21
  -4 -10   1   38.90    3.82
  -4 -10   1   40.02    4.29
   4  10  -1   36.49    5.06
  -4  10   1   39.60    4.44
   3 -10  -1   36.76    3.92
  -3 -10   1   35.60    3.73
  -3 -10   1   31.94    3.71
   3  10  -1   28.31    5.73
   2 -10  -1   26.22    3.48
  -2 -10   1   21.30    3.21
   2  10  -1   20.89    3.50
   1 -10  -1   60.12    4.73
  -1 -10   1   55.16    4.73
  -1  10   1   55.99    4.93
   1  10  -1   50.86    5.11
   0 -10   1    0.07    1.71
   0 -10  -1    1.84    1.70
   0  10   1    2.08    2.37
   0  10  -1    0.82    2.02
  -1 -10  -1   43.08    3.82
  -1 -10  -1   39.62    4.03
   1 -10   1   43.88    4.08
   1  10   1   37.92    4.85
   2 -10   1   23.67    3.43
  -2 -10  -1   20.73    2.83
  -2 -10  -1   19.40    2.57
   3 -10   1    6.49    2.27
  -3 -10  -1    5.83    2.24
  -3 -10  -1    8.12    2.01
   3  10   1    8.40    3.47
  -3  10  -1    5.24    2.43
   4 -10   1   30.28    4.20
  -4 -10  -1   37.90    3.87
  -4 -10  -1   30.65    4.23
  -4  10  -1   27.75    3.84
   4  10   1   28.71    5.28
  -2 -11   1   23.20    3.32
   2 -11  -1   32.27    4.06
   2  11  -1   25.51    4.80
   1 -11  -1    1.85    2.22
  -1 -11   1    3.58    2.18
   1  11  -1    5.63    3.57
   0 -11   1   21.18    3.00
   0 -11  -1   17.82    3.10
   0  11   1   19.25    3.51
   1 -11   1    4.34    2.35
  -1 -11  -1    3.59    2.18
  -1 -11  -1    2.90    2.29
   1  11   1    3.83    3.34
  10   0  -2    7.16    3.53
 -10   0   2   10.43    3.62
  -9   0   2   28.00    3.89
   9   0  -2   22.00    3.54
  -8   0   2   -1.70    2.14
   8   0  -2    2.21    2.05
  -7   0   2   59.55    5.18
   7   0  -2   60.67    3.76
   7   0  -2   54.07    4.49
  -7   0   2   57.13    3.72
  -6   0   2   -0.53    1.43
   6   0  -2    0.78    1.09
  -5   0   2   46.90    3.67
  -5   0   2   44.65    3.63
   5   0  -2   46.16    3.77
   5   0  -2   46.37    3.34
   4   0  -2    3.30    1.00
  -4   0   2    3.17    0.71
  -4   0   2    4.29    1.20
  -3   0   2   19.36    1.41
  -3   0   2   18.66    1.57
   3   0  -2   17.19    1.39
   2   0  -2   30.69    2.33
  -2   0   2   35.27    2.12
   2   0  -2   33.71    2.12
  -2   0   2   32.96    2.11
  -1   0   2   55.90    3.38
   1   0  -2   55.47    3.45
   1   0  -2   58.21    3.34
  -1   0   2   52.77    3.45
  -1   0   2   62.21    3.33
   1   0  -2   54.25    3.39
   0   0   2   89.61    6.01
   0   0   2  107.55    6.00
   0   0   2  104.85    5.92
   0   0  -2  100.42    6.02
   0   0  -2   95.42    6.02
   0   0  -2  111.44    5.97
  -1   0  -2  419.54   24.11
   1   0   2  453.75   24.19
   1   0   2  405.76   24.13
   1   0   2  398.53   24.12
  -1   0  -2  388.77   24.21
  -1   0  -2  433.95   24.16
   2   0   2   16.12    1.42
   2   0   2   12.98    1.61
   2   0   2   15.48    1.37
  -2   0  -2   17.21    1.44
  -2   0  -2   16.25    1.82
  -2   0  -2   15.15    1.46
   3   0   2  527.04   30.82
   3   0   2  504.33   31.06
  -3   0  -2  517.14   31.19
  -3   0  -2  555.06   30.85
  -3   0  -2  553.74   30.89
   3   0   2  529.27   30.88
   4   0   2   90.12    5.85
   4   0   2   88.69    5.93
  -4   0  -2   95.29    5.89
  -4   0  -2   91.93    5.84
  -4   0  -2   93.67    6.43
  -5   0  -2  162.29   10.22
  -5   0  -2  160.07    9.60
   5   0   2  147.26    9.73
   6   0   2  136.91    9.24
  -6   0  -2  151.11    9.77
  -6   0  -2  141.20    8.93
  -7   0  -2    2.93    4.04
   7   0   2    7.92    2.54
  -7   0  -2    5.72    1.93
  -8   0  -2   80.65    7.04
  -8   0  -2   75.69    5.87
   8   0   2   73.96    6.69
  10  -1  -2   30.06    5.20
 -10  -1   2   24.73    4.50
 -10   1   2   32.26    4.84
  10   1  -2   37.38    5.63
  -9  -1   2   -0.23    2.73
   9  -1  -2    2.73    2.48
  -9   1   2    0.23    2.76
   9   1  -2   -2.92    4.51
  -8  -1   2   55.58    5.48
   8  -1  -2   56.40    4.88
   8   1  -2   58.20    5.13
  -8   1   2   64.10    5.47
  -8   1   2   63.50    4.11
  -7  -1   2   15.32    2.57
   7  -1  -2   14.98    1.97
   7  -1  -2   11.39    1.98
   7   1  -2   12.34    2.16
  -7   1   2   13.55    2.40
   6  -1  -2   41.82    3.09
   6  -1  -2   43.06    3.39
  -6  -1   2   40.34    3.90
  -6   1   2   43.59    3.77
  -6   1   2   49.04    2.96
   6   1  -2   45.04    3.56
  -5  -1   2   89.11    6.59
   5  -1  -2   85.42    7.42
   5  -1  -2   96.40    6.25
   5   1  -2   92.53    6.53
  -5   1   2  106.21    6.21
  -5   1   2   98.59    6.50
  -5   1   2  112.73    5.98
   5   1  -2  109.45    6.49
   4  -1  -2   20.58    1.58
  -4  -1   2   19.41    2.18
   4  -1  -2   21.55    1.36
   4  -1  -2   20.16    1.91
  -4  -1   2   20.27    1.68
  -4   1   2   15.34    1.46
  -4   1   2   16.56    1.74
   4   1  -2   16.03    1.72
   3  -1  -2  151.78    8.94
   3  -1  -2  147.48    8.70
   3  -1  -2  145.29    8.82
  -3  -1   2  141.34    9.00
  -3  -1   2  141.77    8.91
  -3   1   2  155.63    8.90
   3   1  -2  167.96    9.49
  -3   1   2  155.63    8.94
   3   1  -2  145.11    8.94
   2  -1  -2   10.95    0.90
   2  -1  -2    9.79    0.99
  -2  -1   2   10.77    0.98
   2  -1  -2   10.86    0.94
  -2   1   2   14.64    0.95
  -2   1   2   13.99    0.97
   2   1  -2   14.05    1.03
   2   1  -2   14.33    0.92
  -1  -1   2   63.20    3.61
   1  -1  -2   64.38    3.73
   1  -1  -2   62.79    3.57
   1  -1  -2   64.00    3.58
  -1  -1   2   60.19    3.62
  -1   1   2   47.68    3.73
   0  -1   2  100.51    5.97
   0  -1  -2  110.29    6.14
   0  -1   2   95.73    6.02
   0  -1   2  107.15    6.08
   0  -1  -2  102.86    5.99
   0  -1  -2  106.27    5.99
   0   1  -2   92.32    6.11
   0   1   2  107.00    6.00
   0   1  -2   93.52    5.97
   0   1   2  111.31    6.00
   0   1  -2  105.52    6.08
   0   1   2  104.10    6.13
   0   1  -2   93.48    5.95
   1  -1   2   43.12    2.83
   1  -1   2   50.44    3.01
  -1  -1  -2   41.43    2.67
  -1  -1  -2   44.62    2.72
   1  -1   2   39.33    2.67
   1   1   2   42.94    2.83
   1   1   2   45.71    2.80
  -1   1  -2   41.84    2.66
  -1   1  -2   38.58    2.77
  -1   1  -2   43.46    2.78
   1   1   2   45.20    2.72
   2  -1   2  168.79   11.42
  -2  -1  -2  187.51   11.35
  -2  -1  -2  184.56   11.20
   2  -1   2  183.94   11.30
   2  -1   2  174.66   11.19
  -2  -1  -2  188.43   11.32
   2   1   2  217.32   11.40
  -2   1  -2  174.67   11.41
  -2   1  -2  209.96   11.21
  -2   1  -2  197.49   11.34
   2   1   2  201.83   11.41
   2   1   2  202.78   11.25
   3  -1   2   -0.16    0.84
   3  -1   2    0.31    0.62
  -3  -1  -2    0.41    0.85
  -3  -1  -2    0.69    0.65
   3  -1   2   -0.23    1.05
  -3  -1  -2    1.20    0.64
   3   1   2   -0.03    0.69
   3   1   2    0.08    0.80
   3   1   2    1.23    0.91
  -3   1  -2   -0.05    0.79
  -3   1  -2    1.21    0.71
  -3   1  -2    0.12    1.01
  -4  -1  -2  143.75   10.02
  -4  -1  -2  154.81    9.74
  -4  -1  -2  160.72    9.63
   4  -1   2  160.01    9.66
   4  -1   2  162.45    9.69
   4   1   2  159.89    9.85
  -4   1  -2  154.10   10.09
  -4   1  -2  168.01    9.58
   4   1   2  142.03    9.58
  -4   1  -2  182.87    9.73
  -5  -1  -2   37.11    3.98
  -5  -1  -2   40.04    3.30
   5  -1   2   39.30    3.34
  -5   1  -2   47.17    3.40
  -5   1  -2   49.75    4.15
   5   1   2   37.34    3.56
  -5   1  -2   43.77    4.15
   6  -1   2   81.16    5.72
  -6  -1  -2   77.61    5.54
  -6  -1  -2   76.71    6.32
   6   1   2   78.52    6.01
  -6   1  -2   88.41    5.64
   7  -1   2   60.90    5.28
  -7  -1  -2   66.00    5.84
  -7  -1  -2   58.19    4.78
  -7   1  -2   64.04    6.22
  -7   1  -2   68.79    4.94
   7   1   2   59.15    5.60
  -8  -1  -2    6.94    3.25
  -8  -1  -2    5.77    2.20
   8  -1   2    2.73    2.96
  -8   1  -2    3.95    2.24
   8   1   2    5.24    3.49
  -8   1  -2    4.25    3.34
 -10  -2   2   18.18    4.21
 -10   2   2   15.46    4.10
  -9  -2   2   51.10    5.75
   9  -2  -2   55.46    4.94
   9   2  -2   44.10    5.49
  -9   2   2   48.46    5.63
   8  -2  -2    5.97    1.98
  -8  -2   2    7.80    2.74
   8   2  -2    4.94    2.23
  -8   2   2    1.18    2.26
  -7  -2   2   83.61    6.56
   7  -2  -2   94.33    5.88
  -7   2   2   80.45    6.33
   7   2  -2   85.65    6.28
   6  -2  -2   74.53    4.63
  -6  -2   2   62.95    5.35
   6  -2  -2   77.63    4.87
  -6   2   2   72.51    4.95
   6   2  -2   71.36    5.20
  -6   2   2   70.87    5.23
  -5  -2   2   27.89    2.82
   5  -2  -2   33.46    2.24
  -5   2   2   32.30    2.67
  -5   2   2   30.71    2.23
   5   2  -2   27.68    2.68
   4  -2  -2  326.08   17.75
   4  -2  -2  316.03   17.82
  -4  -2   2  313.76   18.06
   4  -2  -2  324.32   18.02
  -4  -2   2  295.62   18.07
  -4   2   2  289.76   17.95
   4   2  -2  305.19   17.96
  -4   2   2  293.43   17.79
   4   2  -2  288.07   18.10
  -3  -2   2   24.82    1.79
  -3  -2   2   24.82    1.88
   3  -2  -2   26.45    1.81
   3  -2  -2   23.91    1.64
   3  -2  -2   23.82    1.77
  -3   2   2   23.23    1.77
   3   2  -2   23.47    1.72
  -3   2   2   24.54    1.74
   2  -2  -2  336.58   19.61
   2  -2  -2  325.52   19.52
  -2  -2   2  337.67   19.64
  -2  -2   2  325.62   19.52
  -2  -2   2  326.53   19.46
   2  -2  -2  334.61   19.62
   2   2  -2  347.69   19.52
  -2   2   2  338.56   19.57
   2   2  -2  345.61   19.68
  -2   2   2  359.48   19.62
  -1  -2   2  121.89    7.37
   1  -2  -2  118.39    7.37
  -1  -2   2  116.12    7.33
  -1  -2   2  118.95    7.34
   1  -2  -2  121.30    7.39
  -1  -2   2  124.94    7.41
   1  -2  -2  123.18    7.49
   1  -2  -2  116.35    7.38
   1   2  -2  133.26    7.34
   1   2  -2  130.94    7.38
  -1   2   2  141.67    7.53
  -1   2   2  134.28    7.41
   1   2  -2  137.10    7.46
   0  -2   2   50.52    3.31
   0  -2  -2   50.75    3.37
   0  -2  -2   50.70    3.35
   0  -2   2   49.81    3.34
   0   2   2   61.36    3.56
   0   2  -2   54.00    3.56
   0   2  -2   58.79    3.33
   0   2  -2   60.20    3.42
   0   2   2   65.45    3.43
  -1  -2  -2   84.83    4.95
   1  -2   2   76.10    4.81
  -1  -2  -2   82.51    4.88
   1  -2   2   89.46    4.99
  -1  -2  -2   83.60    5.07
   1   2   2   82.46    4.95
  -1   2  -2   81.95    4.82
   1   2   2   81.85    5.11
   1   2   2   84.07    4.91
  -1   2  -2   81.81    4.98
  -1   2  -2   78.19    4.91
  -1   2  -2   75.03    4.77
   2  -2   2   18.00    1.70
  -2  -2  -2   17.80    1.68
   2  -2   2   18.24    1.38
   2  -2   2   20.10    1.66
  -2  -2  -2   18.58    1.44
  -2  -2  -2   17.00    1.68
  -2   2  -2   21.34    1.71
   2   2   2   22.95    1.65
  -2   2  -2   20.09    1.83
   2   2   2   22.32    1.89
  -2   2  -2   21.94    1.52
   2   2   2   21.94    1.54
  -3  -2  -2   43.33    2.67
  -3  -2  -2   43.79    3.00
   3  -2   2   40.95    2.62
  -3  -2  -2   44.69    2.98
   3  -2   2   42.40    3.57
  -3   2  -2   39.06    3.06
  -3   2  -2   33.81    2.83
   3   2   2   39.47    3.10
   3   2   2   35.50    2.71
  -3   2  -2   38.57    2.58
   3   2   2   34.88    2.89
   4  -2   2   28.28    2.15
  -4  -2  -2   27.24    2.64
  -4  -2  -2   27.88    2.19
  -4   2  -2   26.32    2.39
  -4   2  -2   28.00    2.07
   4   2   2   24.94    2.66
  -4   2  -2   23.93    2.80
   4   2   2   22.64    2.24
  -5  -2  -2   26.88    3.26
  -5  -2  -2   29.22    2.62
   5   2   2   27.58    3.09
  -5   2  -2   28.67    2.72
  -5   2  -2   30.23    2.35
  -5   2  -2   20.01    2.97
  -6  -2  -2   19.01    3.00
   6  -2   2   24.43    2.74
  -6  -2  -2   20.96    2.63
  -6   2  -2   15.75    2.19
   6   2   2   17.63    2.85
  -6   2  -2   15.92    2.20
  -6   2  -2   13.30    2.82
   7  -2   2   11.84    2.49
  -7  -2  -2   13.07    2.31
  -7  -2  -2    9.83    2.98
  -7   2  -2   12.26    3.26
  -7   2  -2   11.44    2.19
   7   2   2   10.91    3.05
  -8  -2  -2   17.40    3.60
   8  -2   2   15.29    3.39
  -8  -2  -2   18.06    2.80
  -8   2  -2   24.73    4.20
   8   2   2   23.74    3.96
  -8   2  -2   14.66    2.89
   9  -3  -2    3.60    2.53
  -9  -3   2    2.58    3.17
   9   3  -2    2.27    3.05
  -9   3   2    0.80    3.07
  -8  -3   2   66.47    6.20
   8  -3  -2   70.98    5.18
  -8   3   2   65.51    6.03
   7  -3  -2   36.05    3.03
  -7  -3   2   25.45    4.00
  -7   3   2   37.64    3.73
   7   3  -2   30.04    3.70
   6  -3  -2   90.37    5.65
  -6  -3   2   79.63    6.21
   6  -3  -2   93.32    5.72
  -6   3   2   94.65    6.19
  -6   3   2   87.37    5.59
   6   3  -2   88.41    6.29
  -5  -3   2  181.72   11.52
   5  -3  -2  176.01   11.25
   5  -3  -2  191.75   11.18
  -5  -3   2  183.09   10.98
   5  -3  -2  191.74   11.19
  -5   3   2  204.19   11.18
   5   3  -2  188.50   11.71
  -5   3   2  194.06   11.50
   4  -3  -2   12.93    1.55
  -4  -3   2   13.42    1.47
   4  -3  -2   13.03    1.10
   4  -3  -2   13.89    1.23
   4  -3  -2   12.12    1.35
  -4  -3   2   12.20    0.90
  -4   3   2   10.67    1.07
  -4   3   2   10.41    1.41
   4   3  -2    7.64    1.43
   4   3  -2    9.23    1.31
  -3  -3   2  326.26   19.28
   3  -3  -2  343.62   19.15
   3  -3  -2  326.84   19.05
  -3  -3   2  324.86   19.13
   3  -3  -2  327.88   19.01
   3  -3  -2  335.42   19.19
   3   3  -2  318.36   19.09
  -3   3   2  321.53   19.16
   3   3  -2  329.51   19.39
   2  -3  -2   44.26    2.77
  -2  -3   2   44.47    2.70
  -2  -3   2   43.00    2.63
   2  -3  -2   43.11    2.74
  -2  -3   2   44.70    2.84
   2   3  -2   39.62    2.90
  -2   3   2   40.59    2.74
   2   3  -2   40.17    2.67
  -2   3   2   38.76    2.73
  -1  -3   2  241.94   14.30
   1  -3  -2  258.57   14.38
   1  -3  -2  245.15   14.36
   1  -3  -2  260.19   14.71
  -1  -3   2  260.19   14.44
   1   3  -2  240.90   14.37
   1   3  -2  250.12   14.44
  -1   3   2  228.86   14.35
  -1   3   2  232.26   14.43
   0  -3  -2  111.74    6.48
   0  -3  -2  107.60    6.42
   0  -3   2  109.89    6.42
   0  -3   2  119.38    6.56
   0  -3  -2  118.59    6.61
   0  -3   2  100.90    6.56
   0  -3   2  113.70    6.35
   0   3   2  106.56    6.61
   0   3  -2   98.72    6.40
   0   3   2  104.61    6.48
   0   3  -2  106.23    6.40
   0   3  -2  100.70    6.45
   1  -3   2  149.26    8.38
   1  -3   2  143.56    8.35
  -1  -3  -2  122.45    8.41
  -1  -3  -2  141.50    8.49
  -1   3  -2  141.05    8.33
   1   3   2  145.39    8.38
   1   3   2  148.95    8.32
  -1   3  -2  129.74    8.50
  -2  -3  -2   59.86    4.04
   2  -3   2   67.52    4.09
  -2  -3  -2   62.74    4.36
   2  -3   2   65.69    4.11
  -2  -3  -2   60.40    3.91
   2   3   2   59.28    4.05
   2   3   2   65.23    3.98
  -2   3  -2   61.95    4.05
   2   3   2   67.53    4.36
  -2   3  -2   63.97    4.09
  -3  -3  -2   28.06    2.26
  -3  -3  -2   26.51    1.99
  -3   3  -2   28.35    2.37
   3   3   2   27.34    2.34
  -3   3  -2   27.45    2.30
   3   3   2   27.25    2.61
  -4  -3  -2   22.97    2.45
  -4  -3  -2   22.71    2.04
  -4   3  -2   25.28    2.49
  -4   3  -2   32.11    2.74
   4   3   2   28.80    2.86
  -5  -3  -2    2.99    1.61
   5  -3   2    3.37    1.06
  -5  -3  -2    0.53    1.03
  -5   3  -2    5.20    1.50
  -5   3  -2    1.56    1.63
   5   3   2    3.15    1.79
  -5   3  -2    2.82    0.93
  -6  -3  -2    2.57    2.11
  -6  -3  -2    1.85    1.42
  -6   3  -2    3.18    1.15
   6   3   2    4.69    2.25
  -6   3  -2    6.44    2.39
  -6   3  -2    2.77    1.78
   7  -3   2    6.80    2.19
  -7  -3  -2    4.37    2.78
  -7  -3  -2    7.99    2.26
  -7   3  -2   13.15    2.46
  -7   3  -2    7.18    3.13
  -8  -3  -2    1.77    3.25
  -8  -3  -2    1.74    2.45
  -8   3  -2   -0.51    3.53
  -8   3  -2    3.39    2.73
   8   3   2    5.47    3.51
  -9  -4   2   18.08    4.07
   9   4  -2   22.01    4.14
  -9   4   2   11.39    3.72
   8  -4  -2   12.01    2.09
  -8  -4   2    4.01    2.96
   8   4  -2   10.87    3.07
  -8   4   2    7.96    2.65
  -7  -4   2   24.51    3.61
   7  -4  -2   20.12    3.03
   7  -4  -2   24.64    2.50
  -7   4   2   20.25    2.91
   7   4  -2   23.09    3.53
  -6  -4   2   43.56    3.95
  -6  -4   2   47.50    2.98
   6  -4  -2   45.83    3.44
  -6   4   2   46.07    3.84
   6   4  -2   43.15    4.10
   5  -4  -2   29.57    2.09
  -5  -4   2   26.20    1.91
  -5  -4   2   29.71    2.62
   5  -4  -2   27.86    2.35
  -5   4   2   28.04    2.57
   5   4  -2   25.22    2.89
  -4  -4   2  160.35    9.35
   4  -4  -2  164.01    9.40
   4  -4  -2  155.01    9.52
  -4  -4   2  164.74    9.68
  -4   4   2  156.63    9.69
   4   4  -2  156.56   10.00
  -3  -4   2   29.67    2.13
   3  -4  -2   27.69    2.20
  -3  -4   2   26.19    2.32
   3  -4  -2   28.86    1.88
   3  -4  -2   26.34    2.19
  -3   4   2   30.04    2.19
   3   4  -2   25.89    2.48
   3   4  -2   27.88    2.05
  -3   4   2   28.94    2.01
   2  -4  -2  232.91   14.37
  -2  -4   2  235.72   14.26
  -2  -4   2  253.49   14.46
  -2  -4   2  224.36   14.44
   2  -4  -2  235.63   14.36
   2   4  -2  258.04   14.58
  -2   4   2  253.46   14.37
  -2   4   2  250.49   14.40
   2   4  -2  257.68   14.33
   1  -4  -2   23.16    1.79
   1  -4  -2   25.32    1.84
  -1  -4   2   25.68    1.78
  -1  -4   2   24.45    1.74
   1  -4  -2   24.92    1.92
  -1  -4   2   26.12    1.79
  -1  -4   2   27.56    1.85
   1   4  -2   22.18    1.89
  -1   4   2   21.68    1.87
   0  -4  -2  217.53   13.22
   0  -4   2  229.19   12.99
   0  -4   2  218.04   13.10
   0  -4  -2  211.46   13.12
   0  -4   2  209.08   13.07
   0  -4  -2  210.91   13.06
   0  -4   2  216.65   13.07
   0   4   2  241.62   13.17
   0   4  -2  230.31   13.10
   0   4  -2  254.04   13.10
   0   4   2  208.32   13.52
   0   4  -2  230.62   13.12
   1  -4   2  105.12    6.60
  -1  -4  -2  110.12    6.45
  -1  -4  -2  106.32    6.58
   1  -4   2  106.56    6.40
  -1  -4  -2  100.29    6.31
   1   4   2  106.76    6.68
   1   4   2  108.96    6.74
  -1   4  -2   99.80    6.37
  -1   4  -2  102.32    6.43
  -2  -4  -2   56.85    3.89
  -2  -4  -2   56.65    3.74
   2  -4   2   62.90    3.98
  -2   4  -2   60.63    3.90
  -2   4  -2   59.49    3.96
   2   4   2   58.80    4.25
  -3  -4  -2   95.43    6.10
  -3  -4  -2   91.78    6.32
  -3   4  -2  108.57    6.41
   3   4   2  102.46    6.72
  -3   4  -2  104.18    6.40
  -4  -4  -2    4.65    1.30
  -4  -4  -2    3.37    0.89
  -4   4  -2    4.50    1.36
   4   4   2    3.46    1.57
  -4   4  -2    2.64    1.29
  -5  -4  -2   44.41    4.00
  -5  -4  -2   45.47    3.42
   5   4   2   45.98    4.49
  -5   4  -2   52.33    4.25
  -5   4  -2   48.94    3.94
  -6  -4  -2   32.29    3.18
  -6  -4  -2   34.54    3.91
   6   4   2   36.04    4.42
  -6   4  -2   28.54    4.11
  -6   4  -2   33.27    3.64
  -7  -4  -2   -1.93    2.59
  -7  -4  -2    0.19    2.08
  -7   4  -2   -0.23    2.20
   7   4   2    4.84    3.24
  -7   4  -2   -1.70    2.96
  -8  -4  -2   22.93    3.32
  -8  -4  -2   21.13    4.68
  -8   4  -2   20.44    4.67
   8   4   2   31.68    4.76
  -8   4  -2   23.25    3.53
  -9  -5   2    0.22    3.68
  -9   5   2   -2.57    3.44
   9   5  -2    3.12    3.82
  -8   5   2   23.11    3.79
   8   5  -2   30.76    4.90
  -7  -5   2    8.42    2.41
  -7  -5   2    4.81    1.22
  -7   5   2    2.93    2.61
   7   5  -2    5.70    2.48
   6  -5  -2   20.73    2.00
  -6  -5   2   22.25    2.82
   6  -5  -2   20.89    2.40
  -6  -5   2   18.59    1.84
  -6   5   2   26.65    2.86
   6   5  -2   16.69    2.72
  -5  -5   2   32.12    2.19
   5  -5  -2   33.70    3.08
  -5  -5   2   29.20    2.79
   5  -5  -2   28.06    2.14
   5   5  -2   28.35    3.29
  -5   5   2   27.73    2.71
  -4  -5   2   22.15    2.01
  -4  -5   2   20.31    1.61
   4  -5  -2   20.68    1.50
  -4   5   2   17.85    2.00
   4   5  -2   15.23    2.50
   3  -5  -2  118.08    7.20
  -3  -5   2  113.41    7.11
   3  -5  -2  121.17    6.88
   3   5  -2  109.35    7.47
  -3   5   2  112.90    7.17
  -3   5   2  117.02    6.99
  -2  -5   2   16.77    1.59
  -2  -5   2   19.09    1.63
   2  -5  -2   17.92    1.62
  -2  -5   2   15.48    1.86
   2  -5  -2   22.48    1.76
  -2  -5   2   18.10    1.73
  -2   5   2   21.09    1.73
  -2   5   2   18.72    1.71
   2   5  -2   18.90    2.07
   2   5  -2   17.16    1.80
   1  -5  -2  237.16   14.18
  -1  -5   2  228.39   14.16
  -1  -5   2  250.71   14.16
  -1  -5   2  231.63   14.11
  -1  -5   2  238.29   14.15
   1  -5  -2  245.22   14.22
   1   5  -2  258.58   14.30
   1   5  -2  240.66   14.13
  -1   5   2  231.16   14.45
   0  -5  -2   49.20    3.44
   0  -5   2   46.53    3.37
   0  -5  -2   48.12    3.37
   0  -5  -2   53.93    3.62
   0   5  -2   62.46    3.48
  -1  -5  -2  114.50    6.80
  -1  -5  -2  114.68    6.93
   1  -5   2  107.28    7.03
   1  -5   2  115.94    6.87
  -1   5  -2  107.97    6.91
  -1   5  -2  112.67    6.89
   1   5   2  111.51    7.20
  -2  -5  -2  122.04    7.05
  -2  -5  -2  116.82    7.22
  -2   5  -2  112.75    7.22
  -2   5  -2  111.14    7.15
   2   5   2  116.03    7.56
  -3  -5  -2    4.58    1.12
  -3  -5  -2    5.03    0.91
  -3   5  -2    3.60    1.26
  -3   5  -2    4.52    1.22
   3   5   2    4.16    1.57
  -4  -5  -2  109.55    6.80
  -4  -5  -2  105.44    6.41
   4   5   2   88.35    7.16
  -4   5  -2  105.45    6.83
  -4   5  -2  103.92    6.81
  -5  -5  -2   33.14    2.92
  -5  -5  -2   36.06    3.57
  -5   5  -2   31.59    3.51
   5   5   2   31.72    4.14
  -5   5  -2   38.79    3.75
  -6  -5  -2   15.67    2.73
  -6  -5  -2   16.08    2.10
   6   5   2   11.78    3.11
  -6   5  -2   13.82    2.59
  -6   5  -2   15.33    3.04
  -7  -5  -2   34.75    5.11
  -7  -5  -2   34.11    3.96
  -7   5  -2   29.56    4.62
   7   5   2   27.33    4.58
  -7   5  -2   30.01    3.72
  -8  -6   2    3.99    3.17
  -8   6   2    3.50    2.91
   8   6  -2    3.24    3.41
  -7  -6   2   56.87    5.51
  -7  -6   2   52.48    4.02
   7   6  -2   52.52    5.98
  -7   6   2   68.14    5.27
  -6  -6   2   14.31    2.32
  -6  -6   2   13.11    1.56
  -6   6   2   14.15    2.28
   6   6  -2   15.74    2.98
  -5  -6   2   23.86    2.06
  -5  -6   2   22.86    2.59
   5   6  -2   21.54    3.16
  -5   6   2   26.88    2.69
  -4  -6   2   55.91    3.86
  -4  -6   2   56.62    4.18
   4  -6  -2   58.69    3.72
  -4   6   2   68.39    4.33
   4   6  -2   60.90    4.85
   3  -6  -2   16.34    1.77
   3  -6  -2   16.38    1.78
  -3  -6   2   14.57    1.81
   3  -6  -2   17.13    1.41
  -3   6   2   17.81    1.92
  -3   6   2   18.65    1.69
   3   6  -2   15.21    2.23
  -2  -6   2   65.38    4.10
   2  -6  -2   67.38    4.12
   2  -6  -2   70.42    4.18
   2   6  -2   53.59    4.39
  -2   6   2   57.22    4.12
  -2   6   2   52.11    4.30
   1  -6  -2   41.40    3.24
  -1  -6   2   43.77    3.17
  -1  -6   2   42.61    3.07
   1  -6  -2   42.54    3.15
  -1   6   2   48.81    3.35
   1   6  -2   46.79    3.35
   0  -6  -2   64.75    4.66
   0  -6  -2   67.41    4.25
   0  -6   2   67.58    4.04
   0  -6   2   65.58    4.19
   0  -6  -2   63.55    4.14
   0   6  -2   59.10    4.25
   0   6   2   55.91    4.42
  -1  -6  -2   84.41    5.21
  -1  -6  -2   80.30    5.34
   1  -6   2   80.58    5.28
  -1   6  -2   84.37    5.33
   1   6   2   83.68    5.70
  -2  -6  -2   24.83    2.20
  -2  -6  -2   22.21    2.00
  -2   6  -2   22.53    2.22
   2   6   2   22.59    2.89
  -3  -6  -2   78.21    4.80
  -3  -6  -2   76.77    5.05
  -3   6  -2   70.59    5.00
  -3   6  -2   68.53    5.10
   3   6   2   70.78    5.64
  -4  -6  -2   15.44    1.99
  -4  -6  -2   16.60    2.40
   4   6   2   14.39    2.76
  -4   6  -2   14.80    2.25
  -4   6  -2   18.63    2.60
  -5  -6  -2   36.35    3.22
  -5   6  -2   34.88    3.94
  -5   6  -2   45.21    4.13
   5   6   2   31.09    5.50
  -6  -6  -2   32.40    4.38
  -6  -6  -2   32.69    3.39
  -6   6  -2   31.47    3.73
   6   6   2   33.56    4.64
  -6   6  -2   40.11    4.72
  -7  -6  -2   20.24    3.88
  -7  -6  -2   18.97    2.87
  -7   6  -2   23.21    4.28
  -7   6  -2   22.54    3.47
   7   6   2   18.50    4.57
  -8  -7   2   39.31    5.93
   8   7  -2   51.01    6.66
  -8   7   2   50.04    5.88
  -7  -7   2    1.09    1.58
  -7  -7   2    3.75    2.57
   7   7  -2   -0.15    3.10
  -7   7   2    1.14    2.21
  -6  -7   2   54.46    3.85
  -6  -7   2   51.94    5.13
  -6   7   2   53.40    4.64
   6   7  -2   54.22    5.64
  -5  -7   2   27.52    3.04
  -5  -7   2   30.55    2.50
  -5   7   2   29.99    3.08
   5   7  -2   24.51    3.61
   4  -7  -2    6.74    1.45
   4  -7  -2    7.71    1.14
   4  -7  -2    6.86    1.68
  -4  -7   2   10.92    1.69
   4   7  -2    9.45    2.39
  -4   7   2    9.19    1.63
   3  -7  -2   47.99    3.59
  -3  -7   2   44.00    3.65
   3  -7  -2   46.26    3.69
  -3   7   2   55.29    3.82
   3   7  -2   50.01    4.42
  -3   7   2   57.93    3.57
  -2  -7   2   25.60    2.43
   2  -7  -2   26.84    2.57
   2  -7  -2   26.39    2.48
  -2   7   2   32.56    2.64
   2   7  -2   28.81    3.02
   1  -7  -2   11.26    1.86
  -1  -7   2   13.56    2.09
   1  -7  -2   14.74    1.80
  -1  -7   2   15.04    1.81
  -1   7   2   18.20    2.26
   1   7  -2   19.22    2.30
   0  -7   2   84.21    5.68
   0  -7   2   87.42    5.50
   0  -7  -2   86.98    5.73
   0  -7  -2   88.17    5.61
   0   7  -2   87.48    5.72
   0   7   2   94.59    6.08
  -1  -7  -2    3.34    0.95
   1  -7   2    1.98    1.05
  -1  -7  -2    1.76    0.93
  -1   7  -2    2.73    1.16
   1   7   2    2.54    1.54
  -2  -7  -2   73.46    5.00
   2  -7   2   70.26    4.92
  -2  -7  -2   72.40    4.90
   2   7   2   69.54    5.68
  -2   7  -2   75.46    5.03
  -3  -7  -2   15.66    2.39
  -3  -7  -2   16.43    2.10
   3   7   2   22.78    3.63
  -3   7  -2   21.42    2.57
  -4  -7  -2   35.22    3.06
   4   7   2   30.64    4.35
  -4   7  -2   38.25    3.65
  -5  -7  -2   11.52    2.38
  -5  -7  -2   12.89    1.98
  -5   7  -2   18.93    2.90
   5   7   2   17.16    3.55
  -6  -7  -2   21.55    3.41
  -6  -7  -2   19.18    2.58
  -6   7  -2   16.43    3.80
   6   7   2   14.01    3.94
  -7  -8   2   45.61    5.05
  -7   8   2   35.69    4.99
   7   8  -2   29.21    5.29
  -6  -8   2    4.91    2.27
  -6  -8   2    3.45    1.53
   6   8  -2    5.04    3.21
  -6   8   2    6.75    2.35
  -5  -8   2   16.41    2.23
   5  -8  -2   17.54    2.66
  -5   8   2   14.03    2.29
   5   8  -2   13.69    3.28
  -4  -8   2   16.73    1.94
  -4  -8   2   17.61    2.54
   4  -8  -2   15.32    2.39
   4   8  -2   16.75    3.26
  -4   8   2   16.73    2.48
   3  -8  -2   10.85    1.76
   3  -8  -2   10.23    2.61
  -3  -8   2   13.69    1.86
  -3   8   2   11.15    1.81
   3   8  -2    9.01    2.41
  -3   8   2   10.11    1.58
   2  -8  -2   40.19    3.35
  -2  -8   2   34.31    3.18
   2  -8  -2   33.96    3.56
  -2   8   2   47.16    3.52
   2   8  -2   44.67    3.93
  -1  -8   2   20.54    2.24
   1  -8  -2   21.30    2.28
  -1   8   2   17.68    2.38
   1   8  -2   14.03    2.22
   0  -8  -2   49.83    3.97
   0  -8  -2   50.16    3.86
   0  -8   2   52.91    4.00
   0  -8   2   49.77    3.79
   0   8   2   58.22    4.51
   0   8  -2   63.37    4.03
  -1  -8  -2   38.12    3.36
   1  -8   2   42.78    3.44
  -1  -8  -2   36.89    3.16
   1   8   2   46.28    4.11
  -2  -8  -2   33.76    3.15
   2  -8   2   36.51    3.16
  -2  -8  -2   34.60    2.96
   2   8   2   30.38    4.01
  -2   8  -2   30.59    3.23
  -3  -8  -2   64.76    4.69
   3  -8   2   68.48    4.97
  -3  -8  -2   64.29    5.02
   3   8   2   66.10    5.99
  -3   8  -2   68.21    5.11
  -4  -8  -2   11.60    1.86
  -4  -8  -2   11.11    2.16
  -4   8  -2   12.13    2.47
   4   8   2    9.57    3.20
  -5  -8  -2   26.70    3.25
  -5  -8  -2   30.16    3.97
   5   8   2   21.53    4.53
  -5   8  -2   33.59    4.34
  -6  -8  -2   19.03    3.62
  -6  -8  -2   16.30    2.80
   6   8   2   25.69    5.03
  -6   8  -2   31.66    4.30
   6  -9  -2   13.82    2.75
  -6  -9   2   19.48    2.27
  -6  -9   2   17.02    2.93
   6   9  -2   16.90    4.27
  -6   9   2   13.61    3.07
  -5  -9   2   10.00    2.33
  -5  -9   2    9.10    1.91
   5  -9  -2   12.20    2.34
   5   9  -2   10.34    3.74
  -5   9   2   10.68    2.44
  -4  -9   2   15.60    2.16
   4  -9  -2   20.01    2.97
  -4  -9   2   17.81    2.53
  -4   9   2   19.54    2.69
  -3  -9   2   25.16    3.81
   3  -9  -2   36.20    3.43
   3   9  -2   32.67    4.36
   2  -9  -2    8.15    1.71
  -2  -9   2    5.55    1.66
  -2   9   2    8.43    2.00
   2   9  -2    5.81    2.27
  -1  -9   2   56.58    4.54
   1  -9  -2   59.02    4.61
   1   9  -2   64.78    4.85
  -1   9   2   61.61    4.95
   0  -9   2   16.34    2.18
   0  -9  -2   19.94    2.61
   0  -9  -2   17.45    2.43
   0   9   2   14.06    2.67
   0   9  -2   14.07    2.22
  -1  -9  -2   39.76    3.59
   1  -9   2   44.84    4.64
  -1  -9  -2   42.61    3.72
   1   9   2   42.96    4.55
  -2  -9  -2   57.10    4.72
   2  -9   2   57.61    4.76
  -2  -9  -2   61.88    4.48
   2   9   2   58.15    5.73
  -2   9  -2   64.00    4.89
  -3  -9  -2    7.45    1.77
  -3  -9  -2    4.16    1.81
   3  -9   2    5.32    1.95
  -3   9  -2    5.08    2.13
   3   9   2    2.45    3.08
  -4  -9  -2   53.33    4.96
  -4  -9  -2   53.80    4.47
   4  -9   2   56.87    4.90
   4   9   2   47.44    6.52
  -4   9  -2   54.05    5.10
  -5  -9  -2   18.45    2.71
  -5  -9  -2   18.26    3.11
  -5   9  -2   20.73    3.66
   4 -10  -2   47.60    4.51
  -4 -10   2   41.34    4.14
  -4 -10   2   45.72    4.43
   4  10  -2   47.69    6.35
  -3 -10   2    3.68    2.07
   3 -10  -2    6.71    2.04
   3  10  -2    2.54    3.00
   2 -10  -2   77.85    5.73
  -2 -10   2   69.71    5.66
   2  10  -2   77.38    6.40
   1 -10  -2    7.86    2.11
  -1 -10   2   10.14    2.19
  -1  10   2   10.32    2.77
   1  10  -2    9.62    2.55
   0 -10  -2   61.12    5.10
   0 -10   2   59.46    5.04
   0 -10  -2   67.01    4.92
   0  10   2   65.88    5.84
   1 -10   2   30.75    3.71
  -1 -10  -2   27.50    3.42
  -1 -10  -2   29.99    3.48
   1  10   2   33.40    4.89
  -2 -10  -2   13.23    2.45
   2 -10   2   14.44    2.52
  -2 -10  -2   14.60    2.23
   2  10   2    8.73    3.43
  -3 -10  -2   51.81    4.24
  -3 -10  -2   43.88    4.68
   3 -10   2   45.55    4.61
  -3  10  -2   43.52    4.72
   3  10   2   33.07    5.24
  -2 -11   2   10.74    2.58
   2 -11  -2   13.23    2.69
   2  11  -2   16.78    3.57
   1 -11  -2   38.27    4.46
  -1 -11   2   36.79    4.36
   0 -11   2   15.25    2.98
   0 -11  -2   22.52    2.95
   0 -11  -2   17.70    3.10
   0  11   2   23.25    3.85
  -1 -11  -2   11.89    2.52
   1 -11   2   11.78    2.77
  -1 -11  -2   11.26    2.67
 -10   0   3   60.54    6.76
  10   0  -3   62.91    6.10
   9   0  -3    7.48    2.67
  -9   0   3    9.38    2.95
  -8   0   3   59.50    5.30
   8   0  -3   60.85    4.89
  -7   0   3   29.45    3.40
   7   0  -3   26.33    2.94
   6   0  -3   26.34    2.49
  -6   0   3   25.81    2.91
  -5   0   3   90.05    6.16
   5   0  -3  102.02    6.32
  -5   0   3   92.08    5.96
   5   0  -3   95.75    6.00
  -4   0   3   10.96    1.36
   4   0  -3    8.97    1.13
  -4   0   3   10.54    1.15
   4   0  -3   11.17    1.62
  -3   0   3   54.05    3.24
  -3   0   3   51.05    3.25
   3   0  -3   51.16    3.27
   3   0  -3   48.76    3.38
  -2   0   3   24.91    1.75
   2   0  -3   28.59    1.68
   2   0  -3   25.00    1.73
  -2   0   3   25.50    1.59
   2   0  -3   24.64    1.97
   2   0  -3   25.87    1.63
   1   0  -3   59.29    3.73
   1   0  -3   62.41    3.96
  -1   0   3   66.23    3.70
   1   0  -3   60.62    3.73
  -1   0   3   59.09    3.83
   0   0   3    2.25    0.35
   0   0  -3    1.75    0.53
   0   0  -3    1.53    0.44
   0   0   3    1.70    0.49
   0   0  -3    1.98    0.52
   0   0   3    1.64    0.47
  -1   0  -3   32.61    2.47
  -1   0  -3   35.15    2.56
   1   0   3   31.42    2.32
   1   0   3   32.60    2.32
  -1   0  -3   36.29    2.42
  -2   0  -3   21.67    2.40
  -2   0  -3   23.61    2.03
   2   0   3   21.75    1.87
   2   0   3   22.12    2.01
  -2   0  -3   22.17    1.75
   2   0   3   20.34    1.86
   3   0   3   26.74    2.38
   3   0   3   27.31    2.37
  -3   0  -3   29.65    2.48
  -3   0  -3   29.81    3.02
  -3   0  -3   26.59    2.22
   3   0   3   28.33    2.68
  -4   0  -3   48.62    3.54
  -4   0  -3   42.29    3.36
  -4   0  -3   44.42    4.06
   4   0   3   47.82    3.63
  -5   0  -3  167.52   10.56
  -5   0  -3  179.78   11.20
   5   0   3  167.29   10.78
  -6   0  -3    5.40    1.84
   6   0   3    4.68    2.24
  -6   0  -3    3.48    2.44
  -7   0  -3  125.52    8.45
  -7   0  -3  135.84    9.49
   7   0   3  124.68    9.13
  -8   0  -3   14.20    3.94
   8   0   3   16.11    3.94
 -10  -1   3    1.82    3.29
  10  -1  -3    5.28    3.05
  10   1  -3    2.08    3.14
 -10   1   3    3.44    3.50
   9  -1  -3   53.69    4.84
  -9  -1   3   47.62    5.43
  -9   1   3   46.64    5.33
   9   1  -3   39.72    6.67
  -8  -1   3   12.59    2.82
   8  -1  -3   12.80    2.28
  -8   1   3   12.30    2.68
   8   1  -3   11.86    2.36
   7  -1  -3   50.84    3.99
  -7  -1   3   55.68    4.55
   7   1  -3   49.48    4.16
  -7   1   3   47.45    4.36
   6  -1  -3   47.90    3.66
  -6  -1   3   53.27    4.22
  -6   1   3   51.19    3.99
   6   1  -3   51.90    3.89
  -5  -1   3   39.04    3.23
   5  -1  -3   39.92    2.77
   5  -1  -3   41.76    3.68
   5   1  -3   35.96    2.91
  -5   1   3   40.55    2.94
   5   1  -3   31.76    3.03
  -5   1   3   36.93    2.86
  -4  -1   3  106.19    7.03
  -4  -1   3  107.02    7.18
   4  -1  -3  109.04    6.72
   4  -1  -3  108.07    7.05
   4   1  -3  115.65    7.08
  -4   1   3  126.22    6.98
   4   1  -3  119.54    7.10
  -4   1   3  129.43    7.05
  -3  -1   3   74.92    5.41
   3  -1  -3   78.87    5.23
  -3  -1   3   83.98    5.21
   3  -1  -3   79.83    5.00
   3  -1  -3   80.24    5.14
   3   1  -3   86.61    5.24
  -3   1   3   88.14    5.12
  -3   1   3   92.40    5.17
   3   1  -3   98.46    5.17
   2  -1  -3  116.86    7.29
  -2  -1   3  116.07    7.30
   2  -1  -3  125.84    7.23
   2  -1  -3  121.64    7.58
  -2  -1   3  130.50    7.30
   2  -1  -3  120.33    7.21
  -2   1   3  127.12    7.41
   2   1  -3  127.80    7.18
   2   1  -3  119.15    7.32
  -2   1   3  127.57    7.23
  -1  -1   3  161.55    9.88
  -1  -1   3  162.69    9.86
   1  -1  -3  159.81    9.80
   1  -1  -3  163.01    9.77
   1  -1  -3  164.16    9.77
  -1   1   3  182.45    9.81
  -1   1   3  180.28   10.02
  -1   1   3  176.67    9.77
   1   1  -3  162.98    9.85
   1   1  -3  175.19    9.96
   1   1  -3  165.49    9.87
   0  -1  -3   35.38    2.28
   0  -1  -3   33.16    2.03
   0  -1   3   31.92    2.16
   0  -1   3   26.97    2.26
   0  -1  -3   34.02    2.09
   0   1  -3   29.55    2.04
   0   1  -3   32.55    2.02
   0   1   3   36.93    2.06
   0   1   3   35.95    2.11
   0   1  -3   25.75    2.19
   0   1   3   31.24    2.26
   0   1  -3   31.71    2.16
  -1  -1  -3   88.07    5.43
  -1  -1  -3   88.14    5.65
   1  -1   3   80.18    5.40
  -1  -1  -3   93.01    5.42
   1  -1   3   89.89    5.54
   1   1   3  100.43    5.46
   1   1   3   99.62    5.43
   1   1   3   91.01    5.58
  -1   1  -3   85.79    5.49
  -1   1  -3   81.64    5.55
  -1   1  -3   85.35    5.41
  -2  -1  -3   11.66    1.29
   2  -1   3    9.75    1.45
  -2  -1  -3   12.56    1.36
  -2  -1  -3   11.51    1.44
   2  -1   3   11.78    1.21
   2  -1   3   10.90    1.54
   2   1   3   12.65    1.37
  -2   1  -3   10.36    1.59
   2   1   3   11.03    1.45
  -2   1  -3   10.88    1.51
   2   1   3   12.26    1.35
   3  -1   3   73.24    5.26
   3  -1   3   80.54    5.30
  -3  -1  -3   69.65    5.15
   3  -1   3   74.18    4.83
  -3  -1  -3   72.84    5.04
  -3  -1  -3   77.26    4.86
  -3   1  -3   80.87    4.76
   3   1   3   61.00    4.79
  -3   1  -3   82.58    5.02
   3   1   3   79.77    5.09
   3   1   3   75.91    5.32
  -3   1  -3   69.79    5.25
  -4  -1  -3   40.78    4.04
   4  -1   3   45.38    3.57
  -4  -1  -3   47.83    3.58
  -4   1  -3   53.53    3.70
  -4   1  -3   49.38    3.42
  -4   1  -3   51.75    4.22
   4   1   3   47.91    3.87
  -5  -1  -3   22.60    2.60
   5  -1   3   23.01    2.76
  -5  -1  -3   25.10    3.31
  -5   1  -3   21.19    3.08
  -5   1  -3   14.20    2.75
   5   1   3   18.50    2.62
  -5   1  -3   19.76    2.34
  -6  -1  -3   62.76    4.98
  -6  -1  -3   66.09    5.83
   6  -1   3   68.37    5.30
   6   1   3   62.04    5.52
  -6   1  -3   74.58    6.13
  -6   1  -3   62.88    5.01
   7  -1   3   -1.02    2.55
  -7  -1  -3    4.07    2.79
  -7  -1  -3    0.23    1.93
  -7   1  -3    0.53    2.90
   7   1   3    2.12    2.91
  -7   1  -3    3.25    2.16
   8  -1   3   51.91    6.17
  -8  -1  -3   57.76    6.35
  -8  -1  -3   68.46    6.77
  -8   1  -3   52.03    5.40
   8   1   3   66.19    6.73
  -8   1  -3   57.29    6.64
 -10  -2   3   30.42    4.55
  10  -2  -3   29.68    4.23
 -10   2   3   31.79    4.68
  10   2  -3   22.25    4.34
   9  -2  -3    0.16    2.17
  -9  -2   3    1.34    2.86
   9   2  -3    3.19    2.56
  -9   2   3    0.63    2.55
  -8  -2   3   77.10    6.41
   8  -2  -3   81.00    5.84
   8   2  -3   77.06    6.13
  -8   2   3   76.99    6.22
   7  -2  -3   31.97    2.68
   7  -2  -3   32.14    3.04
  -7  -2   3   31.63    3.79
  -7   2   3   29.16    3.40
   7   2  -3   32.12    3.34
   6  -2  -3   75.86    4.30
   6  -2  -3   75.15    4.59
  -6  -2   3   64.85    5.15
   6   2  -3   62.60    4.90
  -6   2   3   63.59    4.79
  -6   2   3   62.48    4.68
   5  -2  -3  218.20   12.62
  -5  -2   3  184.12   12.88
   5  -2  -3  218.27   12.43
  -5   2   3  221.39   12.61
  -5   2   3  220.39   12.78
   5   2  -3  219.65   13.61
   5   2  -3  207.11   12.90
  -4  -2   3   31.27    2.57
   4  -2  -3   32.48    2.32
   4  -2  -3   31.95    2.45
  -4  -2   3   29.49    2.53
   4  -2  -3   31.73    2.46
   4   2  -3   37.78    2.41
  -4   2   3   37.37    2.33
   4   2  -3   33.13    2.61
  -4   2   3   37.12    2.45
   3  -2  -3  216.17   12.71
  -3  -2   3  222.14   12.60
   3  -2  -3  221.54   12.62
  -3  -2   3  217.35   12.71
   3  -2  -3  217.79   12.59
  -3   2   3  207.71   12.61
   3   2  -3  204.17   12.73
   3   2  -3  213.12   12.53
  -2  -2   3  187.31   10.78
   2  -2  -3  184.19   10.84
   2  -2  -3  192.86   11.03
  -2  -2   3  189.49   10.80
   2  -2  -3  185.50   10.82
   2  -2  -3  188.54   10.89
   2  -2  -3  189.16   10.96
  -2  -2   3  186.76   10.93
  -2   2   3  181.04   10.85
  -2   2   3  188.28   11.01
   2   2  -3  174.51   10.94
   2   2  -3  180.38   10.76
   1  -2  -3   20.09    1.35
  -1  -2   3   19.65    1.53
   1  -2  -3   19.52    1.59
  -1  -2   3   18.29    1.23
   1  -2  -3   19.74    1.33
   1  -2  -3   19.62    1.35
  -1   2   3   19.94    1.35
  -1   2   3   21.15    1.43
   1   2  -3   18.30    1.37
   1   2  -3   18.07    1.37
  -1   2   3   19.10    1.58
   0  -2  -3  295.06   18.03
   0  -2   3  308.98   18.12
   0  -2  -3  318.45   18.23
   0  -2   3  300.33   18.00
   0  -2  -3  312.35   18.05
   0   2  -3  293.63   17.99
   0   2  -3  325.14   18.09
   0   2  -3  319.33   18.12
   0   2   3  318.61   18.26
   0   2  -3  301.62   17.98
   0   2   3  329.86   18.08
   1  -2   3    9.69    1.23
  -1  -2  -3    9.25    0.99
   1  -2   3   10.37    1.13
   1  -2   3    9.41    0.94
  -1  -2  -3    8.68    1.02
  -1  -2  -3    8.92    1.20
   1   2   3   11.16    1.02
   1   2   3   10.14    1.31
  -1   2  -3   11.44    0.98
  -1   2  -3    9.79    1.24
   1   2   3    9.79    1.01
  -1   2  -3    8.64    0.96
   2  -2   3   94.76    5.71
   2  -2   3   85.91    5.36
  -2  -2  -3   89.97    5.40
  -2  -2  -3   89.65    5.76
  -2  -2  -3   93.52    5.55
  -2   2  -3   79.95    5.57
   2   2   3   89.97    5.47
  -2   2  -3   85.51    5.57
  -2   2  -3   87.87    5.34
   2   2   3   85.79    5.73
   2   2   3   89.13    5.52
  -3  -2  -3   27.75    2.38
  -3  -2  -3   27.53    2.10
   3  -2   3   27.24    2.02
  -3   2  -3   20.38    2.43
  -3   2  -3   24.20    2.41
   3   2   3   25.23    2.60
   4  -2   3   19.85    2.07
  -4  -2  -3   13.87    2.17
  -4  -2  -3   19.32    2.04
   4   2   3   20.86    2.65
  -4   2  -3   15.95    2.37
  -4   2  -3   21.95    1.84
  -4   2  -3   21.79    2.40
  -5  -2  -3   21.10    2.58
   5  -2   3   23.55    2.55
  -5  -2  -3   18.08    2.72
   5   2   3   18.78    2.80
  -5   2  -3   19.44    2.77
  -5   2  -3   18.36    2.19
   6  -2   3    9.15    2.12
  -6  -2  -3    4.32    2.48
  -6  -2  -3    6.02    1.97
   6   2   3    5.96    2.55
  -6   2  -3   11.62    2.17
  -6   2  -3    8.43    2.83
   7  -2   3   16.02    2.93
  -7  -2  -3   15.94    2.68
  -7  -2  -3   10.88    3.39
  -7   2  -3   15.13    2.70
   7   2   3   12.93    4.21
  -7   2  -3   20.39    3.70
  -8  -2  -3   -1.39    3.24
  -8  -2  -3    3.95    3.91
  -8   2  -3    7.05    3.93
  -8   2  -3    0.46    2.57
   8   2   3    4.22    3.84
   9  -3  -3   38.71    4.14
  -9  -3   3   45.32    5.37
  -9   3   3   28.94    4.32
   9   3  -3   28.84    4.31
  -8  -3   3    2.69    2.64
   8  -3  -3    4.05    1.79
  -8   3   3    0.15    2.06
   7  -3  -3   48.94    3.50
   7  -3  -3   41.05    3.45
  -7  -3   3   32.49    4.32
   7   3  -3   41.43    4.03
  -7   3   3   42.61    3.90
   6  -3  -3   94.67    6.59
  -6  -3   3   87.46    6.53
   6  -3  -3  106.83    6.01
   6  -3  -3  100.05    6.04
   6   3  -3   86.69    6.47
  -6   3   3   91.50    6.00
  -6   3   3   96.26    6.32
   5  -3  -3    4.74    0.85
   5  -3  -3    4.52    1.05
   5  -3  -3    4.44    0.84
  -5  -3   3    3.42    1.15
  -5   3   3    4.91    1.10
   5   3  -3    2.20    1.13
   5   3  -3    5.36    1.04
  -5   3   3    3.55    0.85
  -4  -3   3  287.47   16.65
   4  -3  -3  279.07   16.65
   4  -3  -3  281.34   16.47
   4  -3  -3  293.40   16.52
   4  -3  -3  283.08   16.67
  -4   3   3  279.30   16.63
   4   3  -3  274.99   16.87
   4   3  -3  283.46   16.55
   3  -3  -3   95.74    6.05
   3  -3  -3   98.94    5.89
   3  -3  -3  100.45    5.99
  -3  -3   3   93.32    5.90
  -3  -3   3   93.35    6.06
  -3  -3   3   92.06    5.79
  -3   3   3  105.12    6.05
  -3   3   3  102.51    5.99
   3   3  -3   99.44    6.19
   3   3  -3   98.97    5.88
  -2  -3   3  182.84   10.46
  -2  -3   3  193.48   10.62
  -2  -3   3  176.94   10.58
   2  -3  -3  173.25   10.51
   2  -3  -3  178.66   10.66
   2  -3  -3  171.22   10.52
  -2   3   3  174.66   10.69
   2   3  -3  185.24   10.46
  -2   3   3  176.69   10.53
   2   3  -3  175.03   10.64
   1  -3  -3  250.64   14.85
  -1  -3   3  241.47   14.93
   1  -3  -3  261.06   14.87
  -1  -3   3  264.92   14.87
   1  -3  -3  257.65   15.03
  -1  -3   3  244.81   14.78
  -1  -3   3  239.45   14.76
   1   3  -3  250.47   14.85
  -1   3   3  258.85   15.04
   1   3  -3  259.44   14.89
  -1   3   3  273.73   14.87
   0  -3  -3   70.69    4.47
   0  -3   3   71.71    4.39
   0  -3  -3   71.93    4.52
   0  -3   3   76.57    4.56
   0  -3  -3   73.58    4.71
   0   3  -3   70.17    4.43
   0   3   3   72.22    4.78
   0   3   3   75.94    4.54
   0   3  -3   75.68    4.48
   0   3   3   74.82    4.50
   0   3  -3   73.21    4.42
   1  -3   3  218.49   12.42
  -1  -3  -3  214.90   12.44
  -1  -3  -3  212.82   12.60
   1  -3   3  222.36   12.48
  -1  -3  -3  206.40   12.35
  -1   3  -3  202.93   12.45
   1   3   3  210.46   12.67
  -1   3  -3  201.24   12.36
  -1   3  -3  210.48   12.28
  -1   3  -3  206.62   12.22
   1   3   3  212.49   12.38
   1   3   3  208.71   12.42
  -2  -3  -3   12.10    1.42
  -2  -3  -3   12.89    1.30
   2  -3   3   16.55    1.69
  -2   3  -3   12.55    1.64
   2   3   3   12.44    1.89
  -2   3  -3   14.72    1.50
   2   3   3   13.55    1.48
   2   3   3   14.62    1.50
  -3  -3  -3   96.56    6.21
  -3  -3  -3   97.15    6.46
  -3   3  -3  101.00    6.50
  -3   3  -3  107.22    6.55
   3   3   3  105.98    6.81
  -4  -3  -3   24.74    2.59
  -4  -3  -3   21.87    2.17
   4  -3   3   24.10    2.02
  -4   3  -3   20.89    2.73
  -4   3  -3   25.39    2.65
   4   3   3   28.58    3.63
   5  -3   3   27.67    2.65
  -5  -3  -3   32.34    3.56
  -5  -3  -3   29.73    2.83
  -5   3  -3   24.07    3.62
  -5   3  -3   30.05    2.42
  -5   3  -3   30.61    3.21
   5   3   3   28.66    3.77
  -6  -3  -3   18.08    2.53
   6  -3   3   21.98    2.82
   6   3   3   20.03    3.43
  -6   3  -3   17.98    3.44
  -6   3  -3   23.06    2.88
  -7  -3  -3   -0.98    2.20
  -7  -3  -3   -4.43    2.81
  -7   3  -3    1.67    4.42
   7   3   3   -1.42    3.00
  -8  -3  -3    8.29    3.41
  -8  -3  -3    3.60    3.88
   8   3   3    5.21    4.08
  -8   3  -3   13.50    4.40
  -8   3  -3   11.95    3.19
  -9  -4   3   -1.50    3.22
   9  -4  -3    4.04    2.94
   9   4  -3    1.67    3.14
  -9   4   3    5.45    3.21
   8  -4  -3   14.79    2.24
  -8  -4   3    9.66    3.08
   8   4  -3   17.70    3.13
  -8   4   3   13.05    2.66
  -7  -4   3   17.78    2.79
   7  -4  -3   11.01    2.66
   7  -4  -3   19.44    2.36
  -7   4   3   24.93    3.08
   7   4  -3   16.51    2.85
   6  -4  -3   -0.20    0.89
   6  -4  -3    0.92    1.26
  -6  -4   3    1.29    1.42
   6   4  -3   -0.01    1.46
  -6   4   3    2.15    1.32
   5  -4  -3   28.19    2.55
  -5  -4   3   30.64    1.96
   5  -4  -3   27.96    2.25
  -5  -4   3   31.14    2.65
   5   4  -3   31.71    2.97
  -5   4   3   30.05    2.58
   4  -4  -3   14.00    1.64
   4  -4  -3   13.11    1.43
   4  -4  -3   13.53    1.24
  -4  -4   3   13.78    1.19
  -4  -4   3   11.74    1.48
   4   4  -3    8.35    1.60
  -4   4   3    9.52    1.34
  -3  -4   3   98.84    6.14
   3  -4  -3   99.77    5.89
   3  -4  -3   94.67    6.05
  -3  -4   3   94.66    6.12
   3  -4  -3   92.09    6.01
  -3  -4   3   97.96    5.85
   3   4  -3   95.83    6.29
   3   4  -3   98.05    5.91
  -3   4   3   98.67    6.04
  -3   4   3  101.34    6.06
  -2  -4   3   84.47    4.93
  -2  -4   3   81.75    4.93
   2  -4  -3   83.48    5.07
   2  -4  -3   80.21    4.99
  -2  -4   3   83.25    5.05
  -2  -4   3   80.68    4.92
   2  -4  -3   84.54    5.14
  -2   4   3   73.52    5.01
  -2   4   3   79.66    5.13
   2   4  -3   76.86    4.89
   2   4  -3   76.84    5.17
   1  -4  -3  146.06    8.68
   1  -4  -3  147.84    8.82
  -1  -4   3  147.19    8.64
  -1  -4   3  146.61    8.59
   1  -4  -3  139.13    8.61
  -1  -4   3  149.40    8.61
  -1  -4   3  140.71    8.57
   1  -4  -3  139.09    8.64
   1   4  -3  153.12    8.75
   1   4  -3  143.05    8.63
  -1   4   3  144.38    8.66
  -1   4   3  143.39    8.83
   0  -4  -3  174.57   10.47
   0  -4  -3  185.03   10.73
   0  -4   3  182.09   10.46
   0  -4   3  178.06   10.48
   0  -4   3  163.35   11.08
   0  -4   3  186.44   10.37
   0  -4  -3  176.85   10.54
   0   4  -3  175.82   10.54
   0   4   3  176.13   10.86
   0   4  -3  168.00   10.45
   0   4  -3  181.45   10.45
  -1  -4  -3   40.83    3.04
   1  -4   3   42.82    3.04
  -1  -4  -3   39.55    2.93
  -1   4  -3   46.35    3.00
   1   4   3   46.57    3.29
  -1   4  -3   51.63    3.18
   1   4   3   46.96    3.46
  -2  -4  -3  195.80   12.24
  -2  -4  -3  202.49   12.10
   2   4   3  204.48   12.59
  -2   4  -3  208.10   12.22
  -2   4  -3  213.69   12.32
  -3  -4  -3    9.51    1.41
  -3  -4  -3    8.54    1.14
  -3   4  -3    8.76    1.42
   3   4   3    5.49    1.72
  -3   4  -3    9.19    1.58
  -4  -4  -3  104.00    6.47
  -4  -4  -3  104.09    6.87
  -4   4  -3  100.41    6.85
   4   4   3   96.04    7.23
  -4   4  -3  111.18    7.00
  -5  -4  -3   29.31    2.84
  -5  -4  -3   30.64    3.52
   5   4   3   32.31    4.11
  -5   4  -3   30.30    3.50
  -5   4  -3   33.24    3.82
  -6  -4  -3    5.93    2.56
  -6  -4  -3    5.74    1.87
  -6   4  -3    5.80    2.33
  -6   4  -3    5.43    2.77
   6   4   3   10.30    3.24
  -7  -4  -3   22.32    4.16
  -7  -4  -3   29.74    4.25
  -7   4  -3   33.79    3.83
  -7   4  -3   23.92    4.55
   7   4   3   38.50    5.69
  -9  -5   3   16.88    4.35
  -9   5   3   27.88    4.25
   9   5  -3   26.87    4.43
  -8  -5   3   13.66    3.35
   8  -5  -3   15.24    2.31
   8   5  -3   12.60    3.27
  -8   5   3    8.70    2.80
  -7  -5   3   19.72    3.02
   7  -5  -3   18.99    2.46
  -7   5   3   29.41    3.28
   7   5  -3   26.01    3.67
  -6  -5   3   40.79    3.69
   6  -5  -3   42.17    3.00
  -6  -5   3   39.79    2.70
   6  -5  -3   34.69    3.43
   6   5  -3   44.61    4.26
  -6   5   3   40.92    3.55
   5  -5  -3   15.78    2.15
  -5  -5   3   13.79    1.63
   5  -5  -3   15.18    2.11
  -5  -5   3   16.91    2.13
  -5  -5   3   15.14    1.67
   5   5  -3   18.42    2.71
  -5   5   3   17.93    2.07
   4  -5  -3   46.86    3.33
   4  -5  -3   47.79    3.43
  -4  -5   3   45.75    3.17
  -4  -5   3   49.19    3.41
  -4   5   3   52.06    3.50
   4   5  -3   45.81    3.90
   3  -5  -3   12.92    1.63
  -3  -5   3   12.80    1.44
   3  -5  -3   12.50    1.42
  -3  -5   3   12.21    1.36
  -3   5   3    8.79    1.43
   3   5  -3   10.43    1.36
   3   5  -3    9.42    1.64
   2  -5  -3   31.14    2.39
  -2  -5   3   29.00    2.41
  -2  -5   3   29.45    2.10
   2  -5  -3   27.11    2.16
  -2  -5   3   28.77    2.17
  -2  -5   3   25.38    2.29
   2   5  -3   28.26    2.50
   2   5  -3   26.70    2.06
  -2   5   3   28.04    2.33
  -2   5   3   26.95    2.17
   1  -5  -3   25.19    1.99
   1  -5  -3   27.08    2.27
  -1  -5   3   24.85    2.05
  -1  -5   3   23.43    1.85
  -1  -5   3   23.22    1.96
   1  -5  -3   25.21    1.92
  -1  -5   3   25.07    1.90
   1   5  -3   23.80    2.14
  -1   5   3   23.46    2.22
   0  -5  -3   40.41    2.67
   0  -5   3   40.42    2.67
   0  -5  -3   36.28    3.89
   0  -5   3   39.98    2.74
   0  -5  -3   42.28    2.79
   0   5   3   36.67    3.11
   0   5  -3   38.27    2.68
   0   5  -3   35.94    2.68
   0   5  -3   34.40    2.77
  -1  -5  -3  124.38    7.27
  -1  -5  -3  126.70    7.41
  -1   5  -3  110.90    7.29
   1   5   3  116.45    7.71
  -1   5  -3  118.54    7.41
  -2  -5  -3   38.99    2.82
  -2  -5  -3   43.72    3.05
  -2   5  -3   38.54    3.00
  -2   5  -3   41.29    3.13
   2   5   3   36.05    3.53
  -3  -5  -3  148.85    8.91
  -3  -5  -3  155.11    8.65
  -3   5  -3  130.36    8.88
  -3   5  -3  136.76    8.83
   3   5   3  136.77    9.34
  -4  -5  -3   26.78    3.04
  -4  -5  -3   24.93    2.57
  -4   5  -3   33.65    3.29
   4   5   3   32.48    3.91
  -4   5  -3   38.45    3.35
  -5  -5  -3   44.46    4.80
  -5  -5  -3   53.08    3.83
   5   5   3   46.65    5.60
  -5   5  -3   48.70    4.68
  -5   5  -3   48.98    4.44
  -6  -5  -3   61.53    4.90
  -6  -5  -3   59.21    5.74
   6   5   3   64.12    6.49
  -6   5  -3   58.70    5.56
  -6   5  -3   68.54    6.08
  -7  -5  -3   -1.56    4.86
  -7  -5  -3   -0.43    3.12
  -7   5  -3    0.37    2.85
   7   5   3    0.38    3.88
  -7   5  -3   -0.26    3.64
  -8   6   3   65.94    5.87
   8   6  -3   57.43    6.32
  -7  -6   3   21.66    3.08
   7  -6  -3   17.16    2.49
  -7   6   3   16.47    2.73
   7   6  -3   18.88    3.40
   6  -6  -3   64.57    4.24
  -6  -6   3   55.00    3.87
  -6  -6   3   56.39    4.65
   6   6  -3   48.96    5.16
  -6   6   3   68.15    4.70
  -5  -6   3   75.81    4.64
  -5  -6   3   60.08    4.62
  -5  -6   3   69.81    4.99
   5  -6  -3   72.10    4.88
  -5   6   3   79.00    5.09
   5   6  -3   72.17    5.69
  -4  -6   3    6.06    1.31
   4  -6  -3    7.80    1.06
  -4  -6   3    8.66    1.39
   4  -6  -3    8.34    1.35
   4  -6  -3    8.39    1.43
  -4   6   3    9.11    1.40
   4   6  -3   11.50    2.17
   3  -6  -3   91.59    5.91
   3  -6  -3   89.36    5.88
  -3  -6   3   86.30    5.82
   3   6  -3   91.83    6.33
  -3   6   3   97.49    5.90
  -3   6   3   94.37    5.93
   2  -6  -3   21.10    3.05
   2  -6  -3   22.32    2.04
  -2  -6   3   21.03    1.95
   2   6  -3   23.32    2.57
  -2   6   3   25.19    2.33
   1  -6  -3   43.24    3.04
  -1  -6   3   43.61    3.02
   1  -6  -3   43.78    3.12
  -1  -6   3   43.28    3.00
  -1   6   3   37.92    3.32
   1   6  -3   45.19    3.34
   0  -6   3   55.44    3.59
   0  -6  -3   54.59    3.54
   0  -6   3   51.71    3.35
   0  -6  -3   54.02    3.66
   0   6  -3   48.32    3.54
   0   6  -3   51.69    3.54
   0   6   3   50.84    4.05
   1  -6   3   24.68    2.13
  -1  -6  -3   24.75    2.02
  -1  -6  -3   23.27    2.16
   1   6   3   21.28    2.69
  -1   6  -3   23.98    2.17
  -1   6  -3   18.62    2.27
  -2  -6  -3   63.04    4.02
  -2  -6  -3   64.36    4.24
   2   6   3   55.74    4.74
  -2   6  -3   54.53    4.15
  -2   6  -3   57.16    4.31
  -3  -6  -3   46.96    3.36
  -3  -6  -3   43.51    3.64
  -3   6  -3   45.86    3.70
   3   6   3   43.28    4.43
  -3   6  -3   44.65    3.86
  -4  -6  -3   31.84    3.66
  -4  -6  -3   33.85    2.79
  -4   6  -3   21.77    2.96
  -4   6  -3   25.14    3.26
   4   6   3   26.78    4.12
  -5  -6  -3   41.38    3.61
  -5  -6  -3   47.28    4.37
  -5   6  -3   30.53    4.33
   5   6   3   36.25    5.20
  -5   6  -3   45.02    4.51
  -6  -6  -3    3.03    2.46
  -6  -6  -3    7.95    2.88
  -6   6  -3    0.75    2.67
   6   6   3    1.87    3.48
  -6   6  -3    4.14    3.05
  -7  -6  -3   23.71    4.32
  -8  -7   3    6.94    3.27
   8   7  -3    3.54    3.86
  -8   7   3    6.57    2.92
  -7  -7   3   61.17    6.02
  -7   7   3   79.34    5.92
   7   7  -3   72.83    7.01
  -6  -7   3   47.08    4.36
  -6  -7   3   48.02    3.58
  -6   7   3   56.33    4.42
   6   7  -3   47.97    5.41
  -5  -7   3   19.45    2.55
   5  -7  -3   16.08    2.41
  -5  -7   3   17.05    2.03
  -5   7   3   23.82    2.63
   5   7  -3   14.65    2.95
   4  -7  -3   93.05    5.41
  -4  -7   3   81.55    5.75
   4  -7  -3   87.60    5.79
   4  -7  -3   80.52    5.69
   4   7  -3   78.43    6.43
  -4   7   3   91.76    5.63
  -4   7   3   88.48    5.87
   3  -7  -3    6.79    1.36
   3  -7  -3    3.53    2.20
  -3  -7   3    5.94    1.29
   3   7  -3    4.00    1.87
  -3   7   3    6.57    1.44
  -3   7   3    6.80    1.37
  -2  -7   3   59.39    3.94
   2  -7  -3   61.81    4.04
   2   7  -3   51.31    4.36
  -2   7   3   49.17    4.12
  -1  -7   3   45.31    3.96
  -1  -7   3   51.67    3.62
   1  -7  -3   54.48    3.64
   1  -7  -3   52.05    3.72
  -1   7   3   50.68    4.03
   1   7  -3   50.07    3.96
   0  -7   3    0.18    0.97
   0  -7  -3    1.54    0.91
   0  -7  -3    1.59    0.93
   0  -7   3    0.13    0.79
   0   7  -3    0.83    1.05
   0   7   3    0.58    1.55
  -1  -7  -3   44.00    3.36
  -1  -7  -3   43.68    3.18
   1  -7   3   43.27    3.30
   1   7   3   37.83    3.93
  -1   7  -3   43.20    3.37
  -2  -7  -3   19.83    2.22
   2  -7   3   18.97    2.30
  -2  -7  -3   21.81    2.48
   2   7   3   23.30    3.36
  -2   7  -3   24.66    2.61
  -3  -7  -3   10.70    1.60
  -3  -7  -3    7.97    1.75
   3   7   3    6.85    2.42
  -3   7  -3   11.68    2.15
  -3   7  -3   10.27    1.98
  -4  -7  -3   35.44    3.20
  -4  -7  -3   32.68    3.67
  -4   7  -3   33.61    3.99
   4   7   3   30.86    4.80
  -5  -7  -3   -0.87    2.06
  -5  -7  -3    2.38    2.80
  -5   7  -3    2.83    2.48
   5   7   3    3.03    3.35
  -5   7  -3    2.86    2.57
  -6  -7  -3   32.11    4.82
  -6  -7  -3   26.46    3.14
   6   7   3   15.39    4.62
  -6   7  -3   23.06    3.84
  -6   7  -3   35.66    5.37
  -7  -8   3   20.21    3.32
   7   8  -3    8.01    3.96
  -7   8   3   17.39    3.12
  -6  -8   3   36.08    4.08
   6  -8  -3   41.22    4.03
  -6  -8   3   43.60    3.32
  -6   8   3   38.77    4.16
   6   8  -3   29.02    4.64
   5  -8  -3   58.22    4.50
  -5  -8   3   58.95    4.55
  -5  -8   3   58.94    4.08
  -5   8   3   51.40    4.54
   5   8  -3   45.10    5.98
   4  -8  -3    3.62    1.78
  -4  -8   3    2.74    1.44
   4  -8  -3    4.07    1.05
   4   8  -3    4.89    2.54
  -4   8   3    6.21    1.47
  -4   8   3    1.74    1.74
  -3  -8   3   51.32    3.84
   3  -8  -3   53.09    3.97
  -3   8   3   49.46    3.99
   3   8  -3   42.46    4.63
  -2  -8   3    5.15    1.38
   2  -8  -3    4.27    1.42
   2   8  -3    4.62    1.87
  -2   8   3    3.12    1.76
   1  -8  -3   28.80    2.81
  -1  -8   3   28.92    2.79
   1  -8  -3   23.91    2.60
  -1   8   3   34.56    3.42
   1   8  -3   35.09    3.22
   0  -8  -3   23.89    2.56
   0  -8   3   22.29    2.64
   0  -8   3   24.71    2.23
   0  -8  -3   22.94    2.45
   0   8  -3   28.55    2.51
   0   8   3   21.15    3.04
   1  -8   3   19.31    2.50
  -1  -8  -3   19.17    2.55
  -1  -8  -3   20.31    2.27
   1   8   3   18.30    2.94
  -1   8  -3   19.48    2.58
  -2  -8  -3   40.15    4.56
  -2  -8  -3   46.20    3.67
   2  -8   3   48.59    3.94
  -2   8  -3   57.40    4.09
   2   8   3   45.44    4.92
  -3  -8  -3   10.32    2.05
   3   8   3    3.89    2.78
  -4  -8  -3   36.59    4.06
  -4  -8  -3   31.39    3.45
  -4   8  -3   44.79    4.37
   4   8   3   26.97    4.52
  -5  -8  -3   33.86    3.74
  -5  -8  -3   26.98    3.62
  -5   8  -3   31.87    4.86
   5   8   3   27.36    5.07
  -6  -9   3   18.58    2.90
  -6  -9   3   13.22    2.08
   6  -9  -3   13.64    2.64
   6   9  -3    9.75    4.09
  -6   9   3   16.19    3.03
   5  -9  -3   12.20    2.34
  -5  -9   3   13.01    1.94
  -5  -9   3   11.90    2.40
   5   9  -3   13.20    3.73
  -5   9   3   10.15    2.39
   4  -9  -3   30.66    3.31
  -4   9   3   22.61    3.18
   4   9  -3   18.19    3.71
   3  -9  -3    5.39    1.79
  -3  -9   3    3.56    1.61
   3   9  -3    0.76    2.45
  -3   9   3    6.79    1.89
   2  -9  -3   45.86    3.87
  -2  -9   3   42.80    3.69
   2   9  -3   41.39    4.41
  -2   9   3   41.79    4.15
   1  -9  -3   13.04    2.00
   1  -9  -3   12.76    2.06
  -1  -9   3   12.18    2.01
   1   9  -3   14.63    2.30
  -1   9   3    9.83    2.57
   0  -9   3   32.70    3.32
   0  -9  -3   37.65    3.49
   0  -9  -3   30.43    3.19
   0   9  -3   37.71    3.36
   0   9   3   36.98    4.29
  -1  -9  -3   44.74    3.77
   1  -9   3   49.18    4.18
  -1  -9  -3   47.12    3.96
   1   9   3   34.00    4.90
  -2  -9  -3   13.31    2.03
  -2  -9  -3   16.09    2.41
   2  -9   3   14.64    2.41
  -2   9  -3   19.59    2.68
   2   9   3   14.58    3.33
  -3  -9  -3   59.92    4.91
  -3  -9  -3   55.11    4.53
   3  -9   3   54.31    4.83
  -3   9  -3   59.65    5.14
   3   9   3   49.90    6.36
  -4  -9  -3   14.18    2.38
  -4  -9  -3   12.11    2.69
   4  -9   3   13.16    2.69
  -4   9  -3   14.53    3.04
   4   9   3   10.46    3.94
  -4 -10   3    7.10    2.10
  -4 -10   3    1.58    2.05
   4 -10  -3    3.26    2.17
   4  10  -3    7.94    3.58
   3 -10  -3   48.22    4.33
  -3 -10   3   37.27    4.15
   3  10  -3   41.23    5.40
  -2 -10   3   29.01    3.57
   2 -10  -3   31.59    3.74
  -2  10   3   29.62    3.85
   2  10  -3   26.60    3.70
   1 -10  -3   29.92    3.38
   1 -10  -3   26.55    3.54
  -1 -10   3   26.02    3.46
  -1  10   3   28.50    4.40
   1  10  -3   23.56    3.22
   0 -10  -3   54.42    4.74
   0 -10   3   55.68    4.92
   0 -10  -3   63.44    5.09
   0  10   3   71.87    6.48
   1 -10   3   12.93    2.45
  -1 -10  -3    9.74    2.06
  -1 -10  -3   11.17    2.28
   1  10   3   10.72    3.44
  -2 -10  -3   67.41    5.08
  -2 -10  -3   63.66    5.37
   2 -10   3   64.39    5.45
   2  10   3   52.45    6.76
   3 -10   3    0.06    2.30
  -3 -10  -3    3.07    2.28
  -3 -10  -3    0.69    2.03
  -3  10  -3   -0.83    2.48
   1 -11  -3   53.69    5.18
  -1 -11   3   48.85    5.11
   1 -11  -3   56.73    5.01
  10   0  -4   21.09    3.68
 -10   0   4   23.26    3.99
   9   0  -4   17.80    2.97
  -9   0   4   13.88    3.22
  -8   0   4  105.47    7.52
   8   0  -4  105.10    7.33
  -7   0   4   -0.30    1.54
   7   0  -4   -1.90    1.23
  -6   0   4  133.00    8.43
   6   0  -4  133.12    8.32
  -5   0   4    1.32    0.95
   5   0  -4    2.32    1.19
   5   0  -4    1.97    0.82
  -4   0   4  152.44    8.87
   4   0  -4  151.62    9.35
  -4   0   4  151.19    9.15
   4   0  -4  140.61    8.94
  -3   0   4   38.96    2.34
   3   0  -4   36.76    2.41
   3   0  -4   38.32    2.75
   3   0  -4   38.68    2.62
  -3   0   4   39.27    2.61
  -3   0   4   42.04    2.43
   3   0  -4   38.46    2.60
   2   0  -4  120.33    7.34
   2   0  -4  114.21    7.12
   2   0  -4  117.18    7.19
  -2   0   4  125.84    7.22
  -2   0   4  124.82    7.05
   1   0  -4   18.79    1.44
  -1   0   4   17.95    1.32
   1   0  -4   15.86    1.30
   1   0  -4   17.53    1.51
  -1   0   4   17.19    1.53
   0   0   4   35.68    2.75
   0   0  -4   42.82    2.80
   0   0   4   40.89    2.69
   0   0  -4   41.50    2.80
   0   0   4   41.34    2.52
   0   0  -4   38.88    2.80
   1   0   4   44.42    3.19
  -1   0  -4   41.77    3.27
  -1   0  -4   48.94    3.25
   1   0   4   52.50    3.09
   1   0   4   42.08    3.12
  -1   0  -4   44.74    3.11
   2   0   4   -0.57    0.96
   2   0   4    1.33    0.92
  -2   0  -4   -1.63    1.11
   2   0   4   -0.79    0.79
  -2   0  -4    0.27    0.96
  -2   0  -4   -0.63    0.65
  -3   0  -4   66.95    4.50
  -3   0  -4   66.59    5.09
  -3   0  -4   69.24    4.69
   3   0   4   65.61    4.68
  -4   0  -4   22.00    3.23
  -4   0  -4   19.44    2.52
   4   0   4   17.58    2.56
  -5   0  -4    0.75    2.22
   5   0   4    0.17    1.87
  -5   0  -4    0.43    1.57
  -6   0  -4   49.52    5.66
   6   0   4   40.98    4.61
  -6   0  -4   38.21    4.09
  -7   0  -4   18.54    4.00
   7   0   4   18.91    3.72
  -8   0  -4   11.44    4.20
 -10  -1   4   28.63    4.29
  10  -1  -4   30.28    4.66
  10   1  -4   24.06    4.10
 -10   1   4   29.57    4.29
   9  -1  -4   39.08    4.20
  -9  -1   4   34.91    4.55
   9   1  -4   31.72    4.46
   8  -1  -4   16.92    2.63
  -8  -1   4   22.61    3.07
   8   1  -4   21.76    3.26
  -8   1   4   20.15    2.97
   7  -1  -4  106.90    7.06
  -7  -1   4  117.40    7.48
   7   1  -4  109.67    7.24
  -7   1   4   98.31    7.21
   6  -1  -4    0.97    0.96
  -6  -1   4    0.47    1.36
   6   1  -4    2.87    1.14
  -6   1   4    2.94    1.23
   5  -1  -4  139.96    8.94
  -5  -1   4  156.10    9.00
   5  -1  -4  138.44    8.76
  -5   1   4  153.02    8.81
   5   1  -4  141.57    8.88
  -5   1   4  143.86    8.90
   5   1  -4  139.91    8.87
   4  -1  -4   16.77    1.79
   4  -1  -4   17.74    1.33
   4  -1  -4   17.72    1.67
  -4  -1   4   16.29    1.63
  -4  -1   4   19.02    1.78
   4  -1  -4   17.53    1.56
  -4   1   4   22.31    1.54
   4   1  -4   22.34    1.76
  -4   1   4   21.22    1.62
   3  -1  -4  106.62    6.38
  -3  -1   4  102.81    6.25
   3  -1  -4  105.94    6.04
   3  -1  -4  100.44    6.24
   3  -1  -4  111.78    6.14
  -3  -1   4  103.56    6.13
  -3   1   4   99.94    6.21
   3   1  -4   93.93    6.24
  -3   1   4  100.38    6.08
   3   1  -4  100.95    6.04
   2  -1  -4   79.96    5.19
   2  -1  -4   81.72    5.23
  -2  -1   4   87.28    5.27
   2  -1  -4   76.61    5.18
  -2  -1   4   80.66    5.33
   2  -1  -4   78.68    5.33
   2  -1  -4   84.91    5.52
   2   1  -4   95.03    5.51
  -2   1   4   94.03    5.32
   2   1  -4   96.29    5.39
  -2   1   4   98.61    5.56
  -2   1   4   96.97    5.20
   2   1  -4   99.22    5.33
   1  -1  -4  110.14    6.29
   1  -1  -4  101.35    5.94
  -1  -1   4  108.77    6.13
  -1  -1   4   97.35    6.15
   1  -1  -4  103.67    6.02
  -1   1   4  100.33    5.92
  -1   1   4   99.92    6.26
  -1   1   4  100.40    5.99
   1   1  -4   95.13    6.17
   1   1  -4   93.00    6.03
   0  -1   4  120.76    7.20
   0  -1  -4  121.24    7.37
   0  -1  -4  115.61    7.11
   0  -1   4  113.55    7.29
   0  -1  -4  109.57    7.33
   0  -1   4  111.96    7.29
   0   1  -4  104.97    7.34
   0   1  -4  119.51    7.27
   0   1  -4  126.27    7.31
   0   1   4  139.94    7.14
   0   1   4  137.18    7.22
   1  -1   4   42.73    2.99
   1  -1   4   40.03    2.98
   1  -1   4   36.62    2.81
  -1  -1  -4   41.32    2.79
  -1  -1  -4   41.91    2.96
  -1  -1  -4   40.37    2.81
   1   1   4   44.43    2.75
   1   1   4   45.91    2.87
  -1   1  -4   41.13    2.82
  -1   1  -4   37.10    2.87
  -1   1  -4   39.48    3.05
   1   1   4   40.58    2.98
  -2  -1  -4   53.17    3.82
  -2  -1  -4   56.91    3.82
   2  -1   4   54.30    3.63
   2  -1   4   57.44    3.91
  -2  -1  -4   56.90    3.65
   2   1   4   47.54    3.77
   2   1   4   54.72    3.62
  -2   1  -4   46.95    3.49
  -2   1  -4   49.29    3.79
   3  -1   4   36.10    3.03
  -3  -1  -4   38.70    3.08
  -3  -1  -4   36.66    3.46
   3   1   4   42.73    3.34
  -3   1  -4   38.56    3.58
  -3   1  -4   40.49    3.25
  -3   1  -4   39.39    2.89
   4  -1   4   11.53    1.90
  -4  -1  -4   14.33    2.37
  -4  -1  -4   11.55    1.93
  -4   1  -4   11.98    2.36
  -4   1  -4   12.22    1.87
  -4   1  -4    7.77    1.49
   4   1   4   12.53    2.13
  -5  -1  -4   59.36    5.63
   5  -1   4   60.96    5.09
  -5  -1  -4   59.19    4.98
   5   1   4   69.38    5.43
  -5   1  -4   75.86    5.89
  -5   1  -4   75.69    5.11
  -6  -1  -4   -0.16    1.91
   6  -1   4   -0.04    2.29
   6   1   4    3.09    2.62
  -6   1  -4   -4.44    3.15
  -6   1  -4   -0.52    1.96
  -7  -1  -4   47.59    5.66
   7  -1   4   42.00    5.19
   7   1   4   38.12    5.15
  -7   1  -4   39.53    5.87
  -7   1  -4   40.73    4.62
  10  -2  -4    5.21    3.63
 -10  -2   4   10.46    3.42
  10   2  -4    5.15    3.25
 -10   2   4    3.69    3.22
   9  -2  -4   49.83    4.44
  -9  -2   4   43.70    5.94
  -9   2   4   35.68    4.84
   9   2  -4   35.54    4.79
  -8  -2   4   19.87    3.07
   8  -2  -4   23.41    2.95
   8   2  -4   17.35    2.82
  -8   2   4   14.44    2.71
  -7  -2   4   52.37    4.54
   7  -2  -4   48.76    3.44
   7  -2  -4   50.73    3.87
  -7   2   4   49.58    4.16
   7   2  -4   52.99    4.32
   6  -2  -4  113.98    6.70
   6  -2  -4  114.67    6.37
  -6  -2   4  103.37    7.14
   6   2  -4   93.47    6.90
  -6   2   4  100.15    6.76
   5  -2  -4    3.35    0.83
   5  -2  -4    3.65    0.64
   5  -2  -4    3.62    1.10
   5  -2  -4    3.75    1.09
  -5  -2   4    3.43    1.32
  -5   2   4    5.41    0.98
   5   2  -4    2.33    1.01
   5   2  -4    2.67    0.89
  -5   2   4    3.43    0.89
   4  -2  -4  186.31   10.56
   4  -2  -4  189.86   10.75
   4  -2  -4  195.60   10.78
  -4  -2   4  176.85   10.83
   4  -2  -4  185.29   10.90
   4   2  -4  168.09   10.87
   4   2  -4  178.05   10.63
  -4   2   4  180.69   10.74
  -4   2   4  165.73   10.72
   3  -2  -4  151.11    8.64
   3  -2  -4  146.56    8.56
   3  -2  -4  147.32    8.70
  -3  -2   4  144.28    8.75
   3  -2  -4  145.77    8.87
  -3  -2   4  147.99    8.55
   3   2  -4  134.02    8.50
  -3   2   4  151.99    8.86
   3   2  -4  144.21    8.51
  -3   2   4  145.86    8.62
   2  -2  -4  132.93    7.79
   2  -2  -4  125.01    7.49
   2  -2  -4  121.05    7.47
  -2  -2   4  123.97    7.58
   2  -2  -4  127.51    7.52
  -2  -2   4  130.23    7.68
   2   2  -4  126.59    7.68
   2   2  -4  128.95    7.48
  -1  -2   4  364.19   21.24
   1  -2  -4  399.28   21.35
   1  -2  -4  362.61   21.23
  -1  -2   4  346.85   21.30
  -1  -2   4  345.48   21.07
   1  -2  -4  374.30   21.20
   1  -2  -4  391.82   21.50
  -1   2   4  374.25   21.21
   1   2  -4  359.64   21.35
   1   2  -4  349.55   21.24
  -1   2   4  355.83   21.48
   1   2  -4  371.19   21.28
   0  -2   4   23.22    1.78
   0  -2   4   21.27    1.98
   0  -2   4   22.01    1.78
   0  -2  -4   23.94    1.71
   0  -2  -4   26.44    2.05
   0  -2  -4   23.91    1.74
   0   2  -4   22.32    1.64
   0   2  -4   25.17    1.97
   0   2   4   28.00    1.75
   0   2  -4   22.24    1.60
   0   2   4   23.42    2.04
   0   2  -4   25.13    1.86
   0   2   4   26.45    1.77
  -1  -2  -4  189.85   11.63
  -1  -2  -4  189.76   11.66
   1  -2   4  185.86   11.65
   1  -2   4  182.25   11.93
   1  -2   4  194.81   11.79
  -1  -2  -4  199.32   12.32
   1   2   4  217.86   11.69
   1   2   4  209.69   11.72
  -1   2  -4  210.97   11.91
  -1   2  -4  179.60   11.80
   1   2   4  206.93   11.98
  -1   2  -4  201.15   11.65
   2  -2   4  116.38    8.45
  -2  -2  -4  130.54    8.30
   2  -2   4  125.84    8.17
  -2  -2  -4  126.49    8.17
  -2   2  -4  150.40    8.42
  -2   2  -4  136.86    8.44
   2   2   4  144.94    8.60
  -2   2  -4  148.42    8.19
   2   2   4  141.17    8.30
  -3  -2  -4   25.44    2.64
  -3  -2  -4   25.97    2.32
   3  -2   4   24.48    2.34
  -3   2  -4   26.76    2.85
   3   2   4   28.28    2.87
  -3   2  -4   30.83    2.20
  -3   2  -4   27.00    2.71
   4  -2   4   67.46    4.52
  -4  -2  -4   60.00    4.50
  -4  -2  -4   58.76    4.95
  -4   2  -4   69.25    4.88
   4   2   4   67.91    5.07
  -4   2  -4   56.59    5.10
  -4   2  -4   68.45    4.35
  -5  -2  -4   -1.91    2.07
  -5  -2  -4   -0.58    1.51
   5  -2   4    1.48    1.72
   5   2   4   -0.51    2.05
  -5   2  -4    3.56    1.37
  -5   2  -4    0.43    1.82
  -5   2  -4   -3.92    2.12
  -6  -2  -4   26.19    3.63
  -6  -2  -4   30.13    4.07
   6  -2   4   28.78    3.77
  -6   2  -4   28.83    3.88
   6   2   4   33.50    4.65
   7  -2   4    6.02    2.99
  -7  -2  -4    1.78    3.39
  -7  -2  -4    2.28    3.32
  -7   2  -4    4.06    2.59
   7   2   4    2.35    3.45
  -7   2  -4    4.00    3.58
 -10  -3   4   29.35    4.59
  10  -3  -4   30.66    4.78
 -10   3   4   29.66    4.62
  10   3  -4   30.00    4.59
  -9  -3   4   -4.45    3.05
   9  -3  -4    3.13    2.24
  -9   3   4   -0.12    2.59
   9   3  -4   -0.83    2.59
   8  -3  -4   39.25    3.58
  -8  -3   4   33.89    4.47
  -8   3   4   33.18    3.93
   7  -3  -4   21.89    2.47
   7  -3  -4   16.70    2.23
  -7  -3   4   15.80    2.69
  -7   3   4   17.04    2.66
   7   3  -4   17.34    2.53
  -6  -3   4   17.33    2.65
   6  -3  -4   19.87    1.81
   6  -3  -4   18.93    1.95
  -6   3   4   17.84    2.17
   6   3  -4   18.89    2.53
  -5  -3   4   86.08    5.69
   5  -3  -4   92.56    5.46
   5  -3  -4   86.94    5.31
   5  -3  -4   86.49    5.74
   5   3  -4   82.77    5.82
   5   3  -4   81.73    5.43
  -5   3   4   88.99    5.56
  -4  -3   4   30.32    2.28
   4  -3  -4   28.71    2.50
   4  -3  -4   32.85    2.22
   4   3  -4   27.82    2.09
   4   3  -4   28.35    2.52
  -4   3   4   33.59    2.29
   3  -3  -4  116.17    6.96
   3  -3  -4  114.28    6.74
   3  -3  -4  112.19    6.74
   3  -3  -4  111.92    6.71
  -3  -3   4  109.83    6.87
  -3  -3   4  113.69    6.64
   3  -3  -4  112.14    6.66
  -3  -3   4  119.00    6.78
  -3   3   4  103.25    6.71
  -3   3   4  109.70    6.90
   3   3  -4  102.53    6.89
   2  -3  -4  305.66   17.16
  -2  -3   4  287.89   16.78
  -2  -3   4  291.38   16.95
  -2  -3   4  300.94   16.79
  -2  -3   4  292.09   16.88
   2  -3  -4  290.35   16.87
   2  -3  -4  287.23   16.89
   2  -3  -4  290.38   16.89
   2   3  -4  281.96   16.99
  -2   3   4  297.55   17.14
   2   3  -4  272.93   16.82
   2   3  -4  280.18   16.76
  -1  -3   4    7.99    0.99
   1  -3  -4    8.94    0.92
  -1  -3   4    6.74    0.70
   1  -3  -4    9.12    0.94
  -1  -3   4    7.86    0.90
   1  -3  -4    8.67    0.94
  -1  -3   4    8.25    0.83
   1  -3  -4    8.69    1.32
  -1   3   4    7.24    0.88
  -1   3   4    5.50    1.10
   1   3  -4    5.05    0.80
   1   3  -4    6.26    1.01
  -1   3   4    6.28    0.84
   0  -3   4  290.82   17.55
   0  -3  -4  322.64   17.87
   0  -3  -4  287.72   17.44
   0  -3   4  310.23   17.45
   0  -3  -4  306.61   17.49
   0   3  -4  287.51   17.38
   0   3   4  293.06   17.46
   0   3  -4  294.35   17.53
   0   3   4  293.60   17.76
   0   3  -4  316.75   17.70
   0   3  -4  267.49   17.35
   0   3   4  322.05   17.51
  -1  -3  -4   66.14    4.30
  -1  -3  -4   64.94    4.23
   1  -3   4   65.62    4.33
   1   3   4   72.04    4.62
   1   3   4   65.78    4.67
  -1   3  -4   77.56    4.67
  -1   3  -4   63.87    4.07
  -1   3  -4   63.69    4.45
  -2  -3  -4  183.50   11.12
   2  -3   4  181.67   10.92
  -2  -3  -4  190.73   11.01
   2  -3   4  195.45   11.30
  -2   3  -4  185.84   10.82
  -2   3  -4  181.17   11.10
  -2   3  -4  203.24   11.26
   2   3   4  175.32   11.44
  -2   3  -4  166.89   11.21
   3  -3   4  105.32    6.34
  -3  -3  -4  104.45    6.69
  -3  -3  -4  104.64    6.45
  -3   3  -4   96.22    6.74
  -3   3  -4  105.64    6.78
   3   3   4  101.07    7.00
  -4  -3  -4   40.58    3.34
  -4  -3  -4   39.82    3.81
   4  -3   4   45.23    3.29
  -4   3  -4   47.25    3.12
   4   3   4   42.96    4.17
  -4   3  -4   43.73    3.93
  -4   3  -4   38.49    3.96
   5  -3   4   53.02    4.48
  -5  -3  -4   55.54    5.18
  -5  -3  -4   52.41    4.42
  -5   3  -4   63.37    4.84
  -5   3  -4   54.07    5.25
   5   3   4   64.58    5.39
  -6  -3  -4    3.55    2.87
   6  -3   4    8.02    2.24
  -6  -3  -4    6.92    2.29
  -6   3  -4    6.36    3.14
   6   3   4    5.62    3.31
  -7  -3  -4   22.91    3.45
  -7  -3  -4   18.73    4.33
  -7   3  -4   34.68    4.77
  -7   3  -4   30.22    3.70
   7   3   4   25.21    4.53
  -9  -4   4   18.11    4.14
   9  -4  -4   30.37    3.93
   9   4  -4   32.37    5.03
  -9   4   4   27.22    3.95
   8  -4  -4   18.27    2.85
  -8  -4   4   15.66    3.27
   8   4  -4   17.81    3.08
   7  -4  -4    4.69    1.37
  -7  -4   4    3.31    2.08
   7   4  -4    3.79    1.91
  -7   4   4    2.42    1.63
   6  -4  -4   44.99    3.03
  -6  -4   4   35.62    3.53
  -6   4   4   39.27    3.31
   6   4  -4   34.90    3.64
  -5  -4   4   16.11    1.95
   5  -4  -4   17.98    1.66
   5  -4  -4   16.49    2.66
   5   4  -4   13.77    1.88
   5   4  -4   11.90    2.01
  -5   4   4   16.06    1.85
   4  -4  -4   15.19    1.39
  -4  -4   4   15.22    1.49
   4  -4  -4   13.60    1.90
  -4  -4   4   14.71    1.31
   4   4  -4   10.47    1.70
   4   4  -4   10.63    1.35
  -4   4   4   12.23    1.50
  -3  -4   4   27.70    1.97
  -3  -4   4   24.84    1.95
   3  -4  -4   23.72    2.08
   3  -4  -4   26.45    2.02
   3  -4  -4   26.09    2.04
   3  -4  -4   27.48    2.02
   3  -4  -4   28.01    2.35
   3   4  -4   24.89    2.37
  -3   4   4   28.25    2.10
  -3   4   4   29.02    2.32
   3   4  -4   26.71    1.91
  -2  -4   4    7.21    0.94
   2  -4  -4    7.03    1.02
  -2  -4   4    8.89    1.24
  -2  -4   4    8.06    1.14
   2  -4  -4    7.33    1.04
  -2  -4   4    8.62    1.03
   2  -4  -4    7.10    1.23
   2   4  -4   11.52    1.14
   1  -4  -4   84.64    5.23
  -1  -4   4   80.96    5.17
  -1  -4   4   84.00    5.43
   1  -4  -4   85.83    5.56
   1  -4  -4   84.20    5.26
  -1  -4   4   79.19    5.14
  -1  -4   4   81.63    5.12
   1   4  -4   86.36    5.28
  -1   4   4   92.85    5.52
  -1   4   4   85.94    5.58
   1   4  -4   90.01    5.33
   0  -4   4   16.43    1.32
   0  -4  -4   14.75    1.42
   0  -4   4   15.70    1.44
   0  -4  -4   14.90    1.48
   0   4   4   16.79    1.60
   0   4  -4   16.64    1.39
   0   4  -4   14.78    1.47
   0   4  -4   18.01    1.70
   0   4   4   15.54    1.95
   0   4  -4   14.40    1.56
   1  -4   4  137.45    8.67
  -1  -4  -4  138.94    8.69
  -1  -4  -4  133.39    8.58
  -1   4  -4  142.78    8.61
   1   4   4  141.29    9.08
  -1   4  -4  155.32    8.47
  -1   4  -4  146.27    8.80
  -1   4  -4  148.62    8.52
  -2  -4  -4   26.24    2.13
  -2  -4  -4   28.31    2.31
   2   4   4   27.60    2.82
  -2   4  -4   25.04    2.26
  -2   4  -4   25.20    2.48
  -3  -4  -4   95.44    6.20
  -3  -4  -4   95.85    6.46
  -3   4  -4   93.73    6.53
   3   4   4   99.11    6.97
  -3   4  -4  108.47    6.51
  -4  -4  -4   66.34    5.07
  -4  -4  -4   68.34    4.62
  -4   4  -4   64.65    5.12
  -4   4  -4   70.16    5.21
   4   4   4   63.73    5.51
  -5  -4  -4   25.35    3.80
  -5  -4  -4   25.14    3.05
  -5   4  -4   24.83    3.60
  -5   4  -4   26.48    4.07
   5   4   4   25.90    3.75
  -6  -4  -4   55.80    6.06
  -6  -4  -4   65.49    5.31
   6   4   4   64.86    6.64
  -6   4  -4   58.26    6.48
  -6   4  -4   76.29    5.86
  -7  -4  -4    4.50    2.89
  -7  -4  -4   -3.99    3.35
   7   4   4    1.67    3.85
  -7   4  -4    3.27    2.94
  -7   4  -4    0.59    3.92
  -9  -5   4    7.42    3.82
  -9   5   4   17.38    3.48
   9   5  -4    7.37    3.43
  -8  -5   4    6.22    3.00
   8  -5  -4   10.91    2.12
  -8   5   4   10.05    2.54
   8   5  -4   11.67    3.22
   7  -5  -4   31.92    3.00
  -7  -5   4   27.27    3.94
   7   5  -4   36.62    4.27
  -7   5   4   42.56    3.72
   6  -5  -4    2.40    1.03
   6  -5  -4    1.84    1.88
  -6  -5   4   -0.61    1.43
  -6   5   4    3.30    1.33
   6   5  -4    1.29    1.80
  -5  -5   4   30.75    2.82
  -5  -5   4   31.64    2.26
   5  -5  -4   33.35    2.53
   5  -5  -4   33.53    3.14
  -5  -5   4   30.42    2.42
  -5   5   4   39.55    2.92
   5   5  -4   35.85    3.44
  -4  -5   4   24.06    1.93
  -4  -5   4   22.64    2.07
   4  -5  -4   25.27    1.96
   4  -5  -4   25.13    2.10
  -4   5   4   22.53    2.25
  -4   5   4   22.17    2.11
   4   5  -4   23.56    2.71
   4   5  -4   18.77    2.01
  -3  -5   4   37.48    3.03
   3  -5  -4   40.56    3.12
  -3  -5   4   37.87    3.04
  -3  -5   4   42.79    3.06
   3  -5  -4   44.08    3.54
  -3   5   4   51.04    3.25
  -3   5   4   53.12    3.45
   3   5  -4   49.42    3.06
   3   5  -4   51.52    3.63
   2  -5  -4   54.51    3.77
  -2  -5   4   59.31    3.74
   2  -5  -4   56.75    4.10
  -2  -5   4   56.70    3.82
   2  -5  -4   55.84    3.75
  -2  -5   4   58.15    3.83
  -2  -5   4   57.76    3.69
  -2   5   4   57.39    4.06
   2   5  -4   57.84    4.09
  -1  -5   4   20.06    1.87
   1  -5  -4   23.76    1.90
  -1  -5   4   23.64    1.85
   1  -5  -4   23.96    1.97
  -1  -5   4   21.50    1.81
   1   5  -4   25.87    2.09
   1   5  -4   23.68    2.40
  -1   5   4   29.53    2.48
   0  -5  -4   57.58    3.90
   0  -5  -4   58.06    3.80
   0  -5   4   60.98    3.66
   0  -5   4   59.37    3.80
   0   5  -4   56.70    3.76
   0   5  -4   57.62    3.87
   0   5  -4   59.42    3.81
   0   5   4   55.78    4.33
   0   5  -4   57.55    3.96
  -1  -5  -4    0.50    0.76
  -1  -5  -4    0.71    0.71
  -1   5  -4    1.32    0.84
  -1   5  -4    1.52    0.62
   1   5   4    1.16    1.29
  -1   5  -4    0.79    0.68
  -1   5  -4    0.23    0.96
  -2  -5  -4   71.21    4.79
  -2  -5  -4   74.09    5.00
  -2   5  -4   74.38    5.15
   2   5   4   73.00    5.50
  -2   5  -4   77.56    4.97
  -3  -5  -4   17.96    2.22
  -3  -5  -4   16.16    2.29
  -3   5  -4   14.58    2.22
  -3   5  -4   18.54    2.38
   3   5   4   16.85    2.73
  -4  -5  -4   41.22    3.76
  -4  -5  -4   41.22    3.19
  -4   5  -4   31.74    3.84
  -4   5  -4   39.36    3.86
   4   5   4   26.16    4.49
  -5  -5  -4   52.06    4.06
  -5  -5  -4   51.53    4.71
   5   5   4   38.00    5.23
  -5   5  -4   42.79    4.71
  -6  -5  -4    1.36    2.28
  -6  -5  -4    7.79    3.02
  -6   5  -4    2.94    3.22
   6   5   4    5.09    3.59
  -6   5  -4    4.81    2.71
  -8  -6   4   18.12    3.61
   8   6  -4   15.39    3.67
  -8   6   4   21.01    3.18
  -7  -6   4   17.30    2.87
   7  -6  -4   16.86    2.38
  -7   6   4   15.92    2.53
   7   6  -4   14.27    3.17
  -6  -6   4   95.41    5.94
  -6  -6   4   92.94    6.67
   6  -6  -4   99.92    6.22
   6   6  -4  100.09    7.35
  -6   6   4   98.35    6.63
   5  -6  -4    3.70    1.67
  -5  -6   4    4.39    1.29
   5  -6  -4    2.80    1.20
   5  -6  -4    3.16    0.95
  -5  -6   4    4.95    0.96
  -5   6   4    3.39    1.31
   5   6  -4    3.50    1.97
   4  -6  -4  152.53    8.93
   4  -6  -4  148.57    9.13
   4  -6  -4  139.60    9.23
  -4  -6   4  145.51    9.07
  -4  -6   4  129.27    8.95
  -4   6   4  167.25    9.21
   4   6  -4  145.61    9.61
  -4   6   4  154.16    9.25
   3  -6  -4   33.00    2.81
  -3  -6   4   33.86    2.73
  -3   6   4   39.45    3.31
  -3   6   4   41.26    2.93
   3   6  -4   34.36    3.37
   2  -6  -4   55.27    3.93
   2  -6  -4   53.75    3.84
  -2  -6   4   54.40    3.81
  -2   6   4   66.06    4.32
   2   6  -4   59.45    4.30
  -1  -6   4   75.66    5.04
   1  -6  -4   79.03    5.13
  -1  -6   4   77.31    5.09
   1  -6  -4   78.47    5.21
  -1   6   4   89.43    5.68
   1   6  -4   85.39    5.42
   0  -6  -4   -0.27    0.81
   0  -6   4    1.12    0.82
   0  -6   4    0.98    0.68
   0  -6  -4    0.32    0.77
   0   6  -4    0.49    1.04
   0   6  -4    1.82    1.00
   0   6  -4    1.64    0.91
   0   6   4   -1.13    1.27
  -1  -6  -4   54.40    3.84
   1  -6   4   57.58    3.75
  -1  -6  -4   53.60    3.67
  -1   6  -4   50.46    3.73
   1   6   4   48.01    4.40
  -1   6  -4   50.02    3.96
  -2  -6  -4    7.21    1.30
  -2  -6  -4    8.27    1.50
   2   6   4    7.43    2.18
  -2   6  -4    6.57    1.75
  -2   6  -4    9.76    1.62
  -3  -6  -4   24.71    2.76
  -3  -6  -4   20.68    2.37
   3   6   4   25.50    3.68
  -3   6  -4   16.95    2.59
  -3   6  -4   19.44    2.82
  -4  -6  -4   29.66    2.92
  -4  -6  -4   28.76    3.34
   4   6   4   21.05    3.63
  -4   6  -4   20.81    3.16
  -4   6  -4   32.08    3.72
  -5  -6  -4    6.26    1.96
  -5  -6  -4    9.44    2.66
  -5   6  -4    5.12    2.67
  -5   6  -4    9.54    2.92
   5   6   4    5.31    3.33
  -6  -6  -4   31.88    4.08
  -6  -6  -4   22.74    3.97
   6   6   4   19.72    4.78
  -6   6  -4   24.22    4.36
  -6   6  -4   29.19    3.98
  -8  -7   4   29.40    4.43
   8   7  -4   26.76    4.58
  -8   7   4   41.55    4.79
  -7   7   4   88.61    6.42
   7   7  -4   76.06    7.33
   6  -7  -4   13.52    2.16
  -6  -7   4   11.15    1.50
   6  -7  -4   14.03    2.02
  -6  -7   4   13.34    2.31
   6   7  -4   15.14    3.21
  -6   7   4   13.79    2.21
  -5  -7   4  183.05   10.48
   5  -7  -4  186.12   10.50
  -5  -7   4  167.34   10.82
   5  -7  -4  181.72   10.89
   5   7  -4  155.61   11.46
  -5   7   4  169.81   10.89
   4  -7  -4    6.51    1.19
  -4  -7   4    6.03    1.37
   4  -7  -4    6.95    1.42
  -4   7   4    8.89    1.63
   4   7  -4    5.61    2.23
  -4   7   4    5.96    1.50
   3  -7  -4  133.58    8.24
  -3  -7   4  127.28    8.09
  -3   7   4  137.17    8.36
   3   7  -4  122.31    8.66
  -2  -7   4   48.92    3.70
   2  -7  -4   50.55    3.82
   2  -7  -4   47.19    3.71
   2   7  -4   56.55    4.38
  -2   7   4   61.30    4.27
  -1  -7   4   24.95    2.27
  -1  -7   4   21.60    2.26
   1  -7  -4   24.80    2.41
   1  -7  -4   22.99    2.27
   1   7  -4   28.11    2.85
  -1   7   4   27.05    3.09
   0  -7   4   68.60    4.81
   0  -7  -4   66.82    4.87
   0  -7  -4   71.83    4.76
   0  -7   4   70.42    4.48
   0   7   4   71.12    5.50
   0   7  -4   77.91    4.78
  -1  -7  -4   12.16    1.77
   1  -7   4   12.12    1.71
  -1  -7  -4   13.91    1.90
   1   7   4   13.28    2.72
  -1   7  -4   13.75    2.11
  -1   7  -4   11.22    1.95
  -2  -7  -4   12.63    2.02
  -2  -7  -4   14.45    1.85
   2   7   4   13.01    2.68
  -2   7  -4   19.77    2.61
  -2   7  -4   18.48    2.55
  -3  -7  -4   35.50    3.46
  -3  -7  -4   32.65    3.11
   3   7   4   29.99    4.46
  -3   7  -4   33.59    3.50
  -3   7  -4   31.05    3.64
  -4  -7  -4   -0.20    1.61
  -4  -7  -4   -1.14    1.83
  -4   7  -4    2.69    2.47
   4   7   4    3.22    2.97
  -4   7  -4    0.80    2.20
  -5  -7  -4   19.11    2.73
  -5  -7  -4   21.01    3.43
  -5   7  -4   22.69    3.50
   5   7   4   14.73    4.14
  -5   7  -4   16.32    3.59
  -7  -8   4   19.83    3.36
   7  -8  -4   17.42    2.82
  -7   8   4   15.86    2.93
   7   8  -4   14.89    4.14
   6  -8  -4   62.49    4.81
  -6  -8   4   56.39    4.11
  -6   8   4   58.13    4.87
   6   8  -4   43.50    6.09
  -5  -8   4    6.07    1.84
  -5  -8   4    7.57    1.55
   5  -8  -4    7.96    1.91
   5  -8  -4    8.77    1.44
  -5   8   4   10.73    2.01
   5   8  -4    6.68    3.31
   4  -8  -4  106.57    6.90
   4  -8  -4  115.02    6.46
  -4  -8   4  100.82    6.71
  -4   8   4   92.86    6.96
   4   8  -4   87.47    7.50
  -4   8   4   98.52    6.74
  -3  -8   4   20.30    2.50
   3  -8  -4   20.30    2.60
  -3   8   4   19.55    2.59
   3   8  -4   20.59    3.07
   2  -8  -4   56.39    4.11
  -2  -8   4   54.09    3.92
   2  -8  -4   57.08    3.97
   2   8  -4   46.04    4.48
  -2   8   4   44.65    4.37
   1  -8  -4   47.34    3.62
   1  -8  -4   42.22    3.36
  -1  -8   4   44.70    3.47
   1   8  -4   38.64    3.79
  -1   8   4   38.68    4.17
   0  -8   4    5.27    1.44
   0  -8  -4    4.05    1.22
   0  -8  -4    3.70    1.41
   0   8  -4    3.72    1.75
   0   8   4    6.05    2.21
   1  -8   4   37.09    3.26
   1   8   4   27.76    4.22
  -1   8  -4   34.63    3.35
  -2  -8  -4    3.82    1.64
   2  -8   4    5.33    1.60
  -2  -8  -4    4.80    1.45
   2   8   4   -2.06    2.82
  -2   8  -4    1.49    1.77
   3  -8   4   25.12    3.26
  -3  -8  -4   24.12    3.01
  -3  -8  -4   25.96    3.43
   3   8   4   23.50    3.92
  -3   8  -4   28.94    3.75
  -4  -8  -4   15.79    2.97
  -4  -8  -4   18.14    2.61
  -4   8  -4   26.43    3.43
   4   8   4   19.11    4.30
  -4   8  -4   17.12    3.59
   6  -9  -4    3.35    2.13
  -6  -9   4    6.19    2.38
   6   9  -4   -6.00    3.56
  -6   9   4    1.96    2.28
   5  -9  -4   22.65    3.47
  -5  -9   4   24.09    2.96
  -5  -9   4   26.66    3.02
   5   9  -4   20.93    4.29
  -5   9   4   24.82    3.57
  -4  -9   4    7.93    1.96
   4  -9  -4    9.95    2.12
   4  -9  -4   10.53    1.66
   4   9  -4    3.27    3.08
  -4   9   4    8.58    2.12
   3  -9  -4   24.57    3.01
   3  -9  -4   25.04    3.09
  -3  -9   4   20.90    2.87
   3   9  -4   19.66    3.53
  -3   9   4   19.65    2.92
   2  -9  -4   11.86    1.99
   2  -9  -4   18.39    2.75
  -2  -9   4   13.88    2.09
  -2   9   4   13.63    2.71
   2   9  -4   14.97    2.81
   1  -9  -4    8.27    1.91
   1  -9  -4    8.09    1.71
  -1  -9   4   10.73    1.94
  -1   9   4    8.86    2.66
   1   9  -4    8.94    2.26
   0  -9  -4   28.81    3.24
   0  -9  -4   25.73    2.92
   0  -9   4   25.61    3.16
   0   9   4   24.98    3.70
  -1  -9  -4    3.88    1.53
  -1  -9  -4    1.42    1.65
   1  -9   4    3.63    2.79
   1   9   4    1.86    2.98
  -2  -9  -4   32.22    3.77
  -2  -9  -4   35.40    3.36
   2  -9   4   31.91    3.69
  -2   9  -4   32.14    3.89
   2   9   4   25.47    4.51
  -3  -9  -4    9.04    2.41
   3  -9   4    9.32    2.31
  -3  -9  -4    7.15    2.08
  -3   9  -4    1.12    2.42
   3   9   4    3.43    3.46
   4 -10  -4    9.39    2.50
  -4 -10   4   11.46    2.44
   4  10  -4    8.38    3.70
   3 -10  -4   15.21    2.51
   3 -10  -4   17.31    2.79
  -3 -10   4   14.52    2.54
   3  10  -4   19.79    3.65
   2 -10  -4    5.53    2.04
  -2 -10   4    4.36    1.97
   2 -10  -4    8.29    1.98
  -2  10   4    6.55    2.87
   2  10  -4    5.40    2.70
  -1 -10   4   41.61    4.26
   1 -10  -4   45.36    4.00
   1 -10  -4   39.29    4.31
  -1  10   4   54.31    5.55
   0 -10  -4    4.39    2.00
   0 -10  -4    3.33    1.90
   0 -10   4    5.80    2.15
   0  10   4    2.62    3.16
  -1 -10  -4   46.90    4.28
  -1 -10  -4   57.01    4.82
   1 -10   4   42.87    4.64
   1  10   4   46.40    6.30
   2 -10   4   24.96    3.21
  -2 -10  -4   19.09    2.69
  -2 -10  -4   18.17    3.00
   2  10   4   13.31    4.32
  -2  10  -4   14.54    3.35
  10   0  -5   21.08    3.61
 -10   0   5   16.61    3.68
   9   0  -5   76.21    8.06
  -9   0   5   77.49    6.34
  -8   0   5    0.35    1.78
   8   0  -5    2.03    1.81
   7   0  -5  126.75    8.21
  -7   0   5  129.77    8.30
  -6   0   5   88.28    5.91
   6   0  -5   96.41    6.22
   6   0  -5   87.78    5.91
   5   0  -5   39.94    3.13
   5   0  -5   47.31    3.41
  -5   0   5   45.82    3.07
   4   0  -5  168.23   10.06
  -4   0   5  172.05    9.85
   4   0  -5  163.09   10.07
   3   0  -5    0.94    0.52
   3   0  -5    0.96    0.55
  -3   0   5    0.69    0.31
   2   0  -5  144.48    8.78
  -2   0   5  145.43    8.75
   2   0  -5  136.35    8.56
   2   0  -5  140.67    8.58
  -2   0   5  150.92    8.46
  -1   0   5    5.22    0.78
   1   0  -5    5.27    0.86
   1   0  -5    5.25    0.99
  -1   0   5    5.04    0.98
   0   0   5   98.85    6.00
   0   0  -5   96.36    6.12
   0   0   5   93.36    6.14
   0   0  -5   89.69    6.00
   0   0   5  103.64    5.80
   0   0  -5   98.51    6.12
  -1   0  -5    4.56    1.31
  -1   0  -5    2.37    0.91
  -1   0  -5    2.70    1.09
   1   0   5    2.88    1.05
   1   0   5    4.33    0.80
  -2   0  -5   60.04    4.29
  -2   0  -5   57.08    4.09
   2   0   5   60.46    4.17
  -2   0  -5   59.86    4.59
   2   0   5   57.56    4.22
  -3   0  -5    2.11    1.79
   3   0   5    1.12    1.35
  -3   0  -5    0.91    1.34
  -4   0  -5   24.60    3.09
   4   0   5   19.27    3.09
  -4   0  -5   24.94    3.74
  -5   0  -5   31.42    3.71
   5   0   5   32.54    4.19
  -5   0  -5   39.31    4.77
  -6   0  -5   -1.71    2.59
  -6   0  -5   -1.78    2.91
   6   0   5    0.54    2.93
  -7   0  -5   12.94    3.87
  -7   0  -5   17.44    3.11
   7   0   5    5.66    3.87
  10  -1  -5   13.38    3.23
 -10  -1   5   10.94    3.36
  10   1  -5   13.65    3.38
 -10   1   5    5.94    3.19
   9  -1  -5   16.85    2.88
  -9  -1   5   14.20    2.91
   9   1  -5   16.52    3.02
  -9   1   5   12.29    2.88
   8  -1  -5   71.38    5.09
  -8  -1   5   65.89    5.31
  -8   1   5   61.02    5.09
   8   1  -5   60.08    5.15
   7  -1  -5   30.68    2.87
  -7  -1   5   31.74    3.27
   7   1  -5   25.91    2.97
  -7   1   5   27.59    2.88
  -6  -1   5   82.14    5.24
   6  -1  -5   77.76    5.05
  -6   1   5   74.51    5.00
   6   1  -5   67.98    5.10
   5  -1  -5   83.38    5.05
  -5  -1   5   85.78    5.06
   5  -1  -5   78.41    5.15
  -5   1   5   74.16    4.88
   5   1  -5   73.69    4.96
   5   1  -5   71.75    5.06
   4  -1  -5   60.35    4.69
   4  -1  -5   64.64    4.32
  -4  -1   5   68.84    4.17
   4  -1  -5   70.93    4.27
   4  -1  -5   63.01    4.03
   4   1  -5   65.38    4.38
  -4   1   5   65.93    4.14
   4   1  -5   71.32    4.15
  -4   1   5   75.36    4.76
   3  -1  -5  129.02    7.64
  -3  -1   5  136.62    7.61
  -3  -1   5  122.95    7.84
   3  -1  -5  121.74    7.59
   3  -1  -5  119.72    7.80
   3  -1  -5  127.97    7.65
   3   1  -5  129.44    7.86
   3   1  -5  126.80    8.06
  -3   1   5  130.86    7.61
  -3   1   5  138.33    7.64
   3   1  -5  143.27    7.70
  -2  -1   5   33.85    2.04
   2  -1  -5   29.79    2.08
   2  -1  -5   29.76    1.81
  -2  -1   5   31.67    2.10
   2  -1  -5   32.00    2.00
   2  -1  -5   28.84    1.85
   2  -1  -5   27.62    2.31
  -2   1   5   25.64    1.89
   2   1  -5   23.28    2.14
   2   1  -5   26.79    2.23
  -2   1   5   26.17    2.28
   2   1  -5   26.09    2.04
  -1  -1   5  119.40    7.74
   1  -1  -5  128.62    7.88
  -1  -1   5  131.37    7.67
   1  -1  -5  125.87    7.60
   1  -1  -5  121.86    7.44
  -1   1   5  122.47    7.84
   1   1  -5  128.16    7.81
  -1   1   5  135.41    7.46
  -1   1   5  131.45    7.57
   1   1  -5  123.71    7.60
   0  -1   5   40.44    2.78
   0  -1   5   38.00    2.98
   0  -1  -5   40.57    2.89
   0  -1   5   38.80    3.18
   0  -1  -5   41.81    2.76
   0   1   5   48.04    2.75
   0   1  -5   45.32    2.77
   0   1  -5   37.68    3.15
   0   1  -5   45.21    3.04
  -1  -1  -5  126.69    7.79
  -1  -1  -5  130.26    7.77
  -1  -1  -5  120.19    7.87
   1  -1   5  116.12    7.78
   1  -1   5  130.00    7.76
  -1   1  -5  126.61    7.77
   1   1   5  137.13    7.65
  -1   1  -5  126.15    7.97
   1   1   5  120.99    7.93
  -1   1  -5  127.78    7.81
   2  -1   5   57.73    6.10
  -2  -1  -5   65.70    4.88
   2  -1   5   67.89    4.91
  -2  -1  -5   73.27    5.15
  -2   1  -5   75.69    4.86
  -2   1  -5   81.30    5.19
   2   1   5   81.05    5.20
  -2   1  -5   74.48    5.22
   2   1   5   81.92    4.92
  -3  -1  -5   24.37    2.69
  -3  -1  -5   29.42    3.27
   3  -1   5   26.07    2.73
   3   1   5   27.22    2.98
  -3   1  -5   23.46    2.44
  -3   1  -5   27.24    3.22
  -3   1  -5   27.29    2.94
   4  -1   5   33.14    3.50
  -4  -1  -5   34.32    4.13
  -4  -1  -5   40.70    3.53
   4   1   5   33.22    3.90
  -4   1  -5   34.50    3.55
  -4   1  -5   42.49    4.24
  -5  -1  -5    8.38    2.14
  -5  -1  -5    6.95    2.76
   5  -1   5   10.46    2.44
  -5   1  -5    8.57    2.95
  -5   1  -5    6.76    2.16
   5   1   5    7.25    2.70
   6  -1   5   17.69    3.33
  -6  -1  -5   16.71    3.68
  -6  -1  -5   13.15    3.45
   6   1   5   14.55    3.59
  -6   1  -5   20.32    3.72
  -6   1  -5   14.58    2.86
  -7  -1  -5   13.14    3.03
  -7  -1  -5   21.52    4.16
   7  -1   5   14.13    3.79
   7   1   5   12.19    4.17
  -7   1  -5   16.73    3.33
  -7   1  -5   22.52    4.38
 -10  -2   5   18.75    3.91
  10  -2  -5   16.74    3.41
  10   2  -5   19.75    3.99
 -10   2   5   18.06    3.66
   9  -2  -5   18.32    2.88
  -9  -2   5   13.82    3.09
   9   2  -5   17.25    3.12
  -8  -2   5   23.51    3.72
   8  -2  -5   25.67    3.10
  -8   2   5   25.84    3.34
   8   2  -5   32.92    3.67
  -7  -2   5   57.03    4.77
   7  -2  -5   55.65    4.30
   7   2  -5   61.13    4.70
  -7   2   5   63.03    4.47
  -6  -2   5   14.04    2.05
   6  -2  -5   11.89    1.32
   6  -2  -5   11.62    1.28
   6  -2  -5   14.33    1.77
   6   2  -5   11.58    1.61
   6   2  -5   11.60    1.80
  -6   2   5   12.62    1.81
   5  -2  -5  154.84    9.09
  -5  -2   5  157.92    9.24
   5  -2  -5  149.53    8.79
   5  -2  -5  149.77    9.33
   5   2  -5  149.85    8.93
  -5   2   5  145.72    9.01
   5   2  -5  138.79    9.22
   4  -2  -5   63.35    3.67
   4  -2  -5   53.42    4.16
   4  -2  -5   61.79    3.50
  -4  -2   5   50.73    3.72
   4  -2  -5   61.90    3.73
   4   2  -5   52.54    3.44
  -4   2   5   54.14    3.60
   4   2  -5   49.76    3.78
   3  -2  -5  132.87    7.65
   3  -2  -5  137.47    7.68
   3  -2  -5  131.76    8.06
  -3  -2   5  130.13    7.85
   3  -2  -5  139.78    7.70
   3  -2  -5  136.73    7.84
   3   2  -5  122.26    7.60
  -3   2   5  123.78    7.65
  -3   2   5  121.11    7.99
   3   2  -5  116.82    7.83
   2  -2  -5  172.33    9.43
   2  -2  -5  188.87   10.32
   2  -2  -5  168.17    9.36
  -2  -2   5  170.11    9.52
  -2  -2   5  171.83    9.53
   2   2  -5  156.60    9.44
  -2   2   5  143.84    9.69
  -2   2   5  145.75    9.37
   2   2  -5  140.04    9.59
   2   2  -5  141.55    9.48
   1  -2  -5    8.57    1.03
  -1  -2   5    6.96    1.12
   1  -2  -5   10.03    1.48
   1  -2  -5    9.43    0.90
   1   2  -5    7.71    1.15
  -1   2   5   11.64    1.50
  -1   2   5    8.28    1.04
   1   2  -5    8.48    1.00
   1   2  -5   10.48    1.41
  -1   2   5   10.65    0.96
   0  -2   5  151.03   10.38
   0  -2   5  166.51   10.18
   0  -2  -5  181.99   10.64
   0  -2  -5  179.09   10.11
   0  -2  -5  179.79   10.06
   0   2  -5  150.85   10.24
   0   2   5  169.69   10.14
   0   2  -5  163.64    9.94
   0   2   5  191.81   10.08
   0   2  -5  168.66   10.07
   0   2   5  166.52   10.40
   0   2  -5  166.75   10.21
   1  -2   5   81.33    5.97
   1  -2   5   88.74    5.88
  -1  -2  -5   96.25    5.68
  -1  -2  -5   95.60    5.66
  -1   2  -5   76.07    5.87
   1   2   5   95.61    6.04
  -1   2  -5   93.28    5.65
  -1   2  -5   92.35    5.70
   1   2   5   91.59    5.62
   2  -2   5   42.36    3.59
   2  -2   5   39.61    3.07
  -2  -2  -5   43.58    2.98
  -2  -2  -5   45.97    3.16
  -2   2  -5   33.25    3.29
  -2   2  -5   35.91    2.88
   2   2   5   39.36    3.40
  -2   2  -5   33.20    3.11
  -3  -2  -5  142.99    8.83
  -3  -2  -5  130.52    8.51
   3  -2   5  136.18    8.53
  -3   2  -5  126.69    8.81
  -3   2  -5  138.96    8.78
  -3   2  -5  139.40    8.41
   3   2   5  142.77    9.01
   4  -2   5    7.03    1.81
  -4  -2  -5    9.77    2.22
  -4  -2  -5    8.94    1.77
  -4   2  -5    8.71    1.53
   4   2   5    7.23    2.34
  -4   2  -5    5.70    2.34
  -4   2  -5    9.21    2.03
  -5  -2  -5   58.41    5.87
   5  -2   5   59.11    5.04
  -5  -2  -5   57.12    5.00
   5   2   5   64.02    5.74
  -5   2  -5   68.76    5.27
  -5   2  -5   62.24    5.89
   6  -2   5   11.43    2.91
  -6  -2  -5   11.01    2.68
  -6  -2  -5   10.82    3.62
   6   2   5   15.26    4.17
  -6   2  -5   13.12    3.73
  -6   2  -5   14.85    2.97
  -7  -2  -5   10.51    3.11
  -7  -2  -5   13.44    4.09
  -7   2  -5    6.78    4.00
  -7   2  -5    6.34    3.05
   7   2   5    9.60    4.21
 -10  -3   5   11.20    3.80
  10  -3  -5   10.67    3.73
 -10   3   5   16.14    3.57
  10   3  -5   10.31    3.53
   9  -3  -5   35.67    4.10
  -9  -3   5   33.18    4.89
  -9   3   5   33.28    4.43
   9   3  -5   31.71    4.71
   8  -3  -5   37.29    3.57
  -8  -3   5   33.20    4.37
   8   3  -5   34.70    4.14
  -8   3   5   45.22    3.97
   7  -3  -5   31.41    2.57
   7  -3  -5   28.68    2.88
  -7   3   5   34.69    3.11
   7   3  -5   29.39    3.47
  -6  -3   5   70.94    5.55
   6  -3  -5   87.13    4.92
   6  -3  -5   89.07    5.20
  -6   3   5   78.71    5.23
   6   3  -5   71.29    5.50
   6   3  -5   68.25    5.29
   5  -3  -5    1.71    0.65
   5  -3  -5    1.26    0.75
  -5  -3   5    1.10    1.13
   5   3  -5    0.54    0.98
   5   3  -5    0.96    0.70
  -5   3   5    0.80    0.82
   4  -3  -5   90.37    5.51
   4  -3  -5   89.63    5.57
   4  -3  -5   88.83    5.36
  -4  -3   5   92.03    5.45
   4   3  -5   88.04    5.30
  -4   3   5   81.75    5.44
   4   3  -5   84.01    5.71
  -3  -3   5   47.31    2.83
   3  -3  -5   46.73    3.09
  -3  -3   5   46.58    3.06
   3  -3  -5   46.52    2.97
   3  -3  -5   50.80    3.03
   3  -3  -5   44.43    2.96
  -3  -3   5   45.09    2.84
   3  -3  -5   48.60    3.47
   3   3  -5   41.16    2.79
  -3   3   5   48.05    3.39
   3   3  -5   41.10    3.17
  -3   3   5   43.46    2.98
   3   3  -5   43.20    2.90
   2  -3  -5   13.56    1.23
   2  -3  -5   13.90    1.82
  -2  -3   5   13.25    1.06
  -2  -3   5   13.10    1.28
  -2  -3   5   13.93    1.36
   2  -3  -5   13.24    1.28
  -2  -3   5   14.53    1.59
   2   3  -5   14.74    1.59
  -2   3   5   12.88    1.76
   2   3  -5   14.21    1.43
   1  -3  -5  173.12    9.31
  -1  -3   5  157.56    9.12
   1  -3  -5  165.13    9.30
  -1  -3   5  165.24    9.19
  -1  -3   5  166.21    9.32
  -1  -3   5  150.11    9.47
   1  -3  -5  156.78    9.30
   1   3  -5  141.83    9.11
  -1   3   5  157.18    9.28
  -1   3   5  151.58    9.64
   1   3  -5  145.21    9.41
   1   3  -5  147.73    9.30
   1   3  -5  152.15    9.36
   0  -3  -5   62.15    3.96
   0  -3   5   60.86    3.97
   0  -3  -5   61.29    3.95
   0   3  -5   61.40    4.06
   0   3  -5   60.09    3.87
   0   3   5   65.10    3.98
   0   3  -5   59.63    3.81
   0   3   5   61.57    4.39
   0   3  -5   61.59    4.18
  -1  -3  -5   55.09    3.55
  -1  -3  -5   54.77    3.61
   1  -3   5   58.11    3.83
   1  -3   5   54.03    3.59
  -1   3  -5   53.17    3.40
  -1   3  -5   49.23    3.51
  -1   3  -5   47.84    3.86
   1   3   5   49.72    4.03
  -1   3  -5   53.81    3.58
  -2  -3  -5  119.01    7.40
  -2  -3  -5  121.88    7.54
   2  -3   5  117.92    7.38
  -2   3  -5  108.96    7.69
  -2   3  -5  120.20    7.20
  -2   3  -5  123.79    7.51
   2   3   5  119.07    7.95
  -2   3  -5  126.19    7.35
  -3  -3  -5   -0.20    1.27
   3  -3   5    1.86    1.43
  -3  -3  -5    2.06    1.10
  -3   3  -5    3.47    1.61
  -3   3  -5    1.06    1.64
  -3   3  -5    0.44    0.97
   3   3   5    0.69    1.71
  -4  -3  -5  124.96    8.17
   4  -3   5  131.65    8.09
  -4  -3  -5  124.36    8.59
  -4   3  -5  127.34    7.89
  -4   3  -5  128.69    8.74
  -4   3  -5  126.58    8.52
   4   3   5  127.26    8.90
   5  -3   5   16.02    2.37
  -5  -3  -5   12.68    2.36
  -5   3  -5    4.24    3.20
   5   3   5   11.58    3.18
  -6  -3  -5   42.92    6.00
  -6  -3  -5   50.00    4.99
  -6   3  -5   44.77    6.05
   6   3   5   48.67    6.13
  -6   3  -5   49.67    5.26
  -7  -3  -5   17.95    4.53
  -7  -3  -5   18.52    3.65
  -7   3  -5   18.78    3.74
  -7   3  -5   22.15    4.87
   9  -4  -5   42.05    4.38
   9   4  -5   44.89    5.47
  -9   4   5   39.80    4.90
   8  -4  -5   22.12    2.80
  -8   4   5   20.44    2.80
   8   4  -5   15.63    3.03
   7  -4  -5   62.07    4.27
  -7  -4   5   49.28    4.93
  -7   4   5   65.02    4.62
   7   4  -5   53.61    4.94
  -6  -4   5   11.99    2.02
   6  -4  -5   11.97    1.83
  -6   4   5   13.57    2.02
   6   4  -5   12.04    2.18
   5  -4  -5   25.35    2.08
  -5  -4   5   27.18    2.66
   5  -4  -5   25.87    2.19
   5   4  -5   23.74    2.09
  -5   4   5   26.72    2.29
   5   4  -5   23.73    2.75
  -4  -4   5   29.21    2.21
  -4  -4   5   26.93    2.25
   4  -4  -5   28.68    2.31
   4  -4  -5   30.75    2.26
   4  -4  -5   29.13    2.29
   4   4  -5   31.02    2.16
   4   4  -5   30.78    2.74
  -4   4   5   32.88    2.39
  -4   4   5   32.01    2.66
   3  -4  -5    4.67    0.81
   3  -4  -5    5.42    0.93
   3  -4  -5    4.77    0.90
  -3  -4   5    6.07    0.96
  -3  -4   5    5.25    0.76
   3  -4  -5    4.89    0.85
  -3  -4   5    5.06    0.77
   3   4  -5    4.23    1.09
  -3   4   5    3.72    0.82
  -3   4   5    5.00    1.27
   3   4  -5    3.91    1.10
   3   4  -5    4.11    0.67
   2  -4  -5   36.35    2.36
  -2  -4   5   34.59    2.17
  -2  -4   5   33.75    2.53
  -2  -4   5   33.76    2.41
   2  -4  -5   34.59    2.39
   2  -4  -5   34.98    2.36
  -2  -4   5   33.40    2.20
   2   4  -5   25.52    2.32
  -2   4   5   28.13    2.76
   2   4  -5   26.13    2.48
   1  -4  -5    1.86    0.67
   1  -4  -5    3.14    0.80
  -1  -4   5    2.38    0.52
   1  -4  -5    2.20    0.70
  -1  -4   5    1.44    0.67
  -1  -4   5    0.87    0.67
   1   4  -5    1.46    0.88
   1   4  -5    1.06    0.73
  -1   4   5    1.97    1.09
  -1   4   5    2.49    0.78
   1   4  -5    3.99    0.97
   0  -4  -5   39.74    2.66
   0  -4   5   38.44    2.68
   0  -4  -5   37.83    2.70
   0   4  -5   34.21    2.70
   0   4  -5   34.44    2.86
   0   4   5   35.18    3.20
   0   4  -5   37.46    2.60
  -1  -4  -5   39.52    2.79
   1  -4   5   43.61    3.50
  -1  -4  -5   39.92    2.89
  -1   4  -5   39.04    2.78
  -1   4  -5   35.55    3.10
  -1   4  -5   36.82    2.80
  -1   4  -5   35.43    2.58
   1   4   5   36.35    3.40
  -2  -4  -5   23.33    2.47
  -2  -4  -5   22.44    2.21
  -2   4  -5   20.98    2.77
  -2   4  -5   30.12    2.38
  -2   4  -5   27.84    1.93
   2   4   5   25.43    3.15
  -2   4  -5   28.06    2.49
  -3  -4  -5   67.45    4.91
  -3  -4  -5   67.61    4.56
  -3   4  -5   72.46    4.95
  -3   4  -5   68.12    4.16
   3   4   5   56.84    5.33
  -3   4  -5   59.78    5.06
  -4  -4  -5    4.42    1.52
  -4  -4  -5    3.35    1.88
   4   4   5    4.04    2.40
  -4   4  -5    5.83    2.62
  -4   4  -5    7.49    2.30
  -5  -4  -5   46.15    5.69
  -5  -4  -5   54.64    5.67
  -5   4  -5   74.16    5.56
   5   4   5   58.74    6.21
  -5   4  -5   65.13    7.31
  -6  -4  -5    7.33    2.85
  -6  -4  -5    7.09    3.58
   6   4   5    9.28    3.91
  -6   4  -5   14.15    3.14
  -6   4  -5    8.30    3.65
  -9  -5   5   10.87    3.88
  -9   5   5   15.11    3.15
   9   5  -5   10.21    3.47
   8  -5  -5   45.30    3.99
  -8   5   5   48.53    4.63
   8   5  -5   45.52    5.18
  -7  -5   5   -0.39    1.96
   7  -5  -5    7.22    1.50
   7   5  -5    4.82    2.13
  -7   5   5    3.63    1.68
  -6  -5   5   48.67    4.23
   6  -5  -5   52.71    3.85
  -6   5   5   60.16    4.15
   6   5  -5   55.42    4.79
   5  -5  -5   37.77    2.77
  -5  -5   5   30.92    2.55
  -5  -5   5   33.52    2.89
   5  -5  -5   31.88    2.81
   5   5  -5   40.16    3.61
  -5   5   5   39.17    2.99
   4  -5  -5   26.17    2.18
  -4  -5   5   22.85    2.13
   4  -5  -5   22.64    2.11
  -4  -5   5   24.50    2.19
   4  -5  -5   23.97    2.12
   4   5  -5   25.31    2.25
   4   5  -5   26.56    2.85
  -4   5   5   26.96    2.26
  -4   5   5   25.12    2.54
   3  -5  -5   33.72    2.64
  -3  -5   5   34.04    2.57
  -3  -5   5   33.88    2.78
  -3  -5   5   36.46    2.59
   3  -5  -5   33.61    2.67
  -3   5   5   41.06    3.18
   3   5  -5   38.13    2.54
   3   5  -5   40.80    3.22
   2  -5  -5   15.63    1.66
  -2  -5   5   15.86    1.52
   2  -5  -5   15.76    1.61
  -2  -5   5   15.47    1.58
   2   5  -5   20.84    1.85
  -2   5   5   16.34    2.20
   2   5  -5   19.25    2.11
   1  -5  -5   33.64    2.76
  -1  -5   5   33.03    2.60
   1  -5  -5   34.90    2.74
  -1  -5   5   33.02    2.67
  -1  -5   5   36.59    2.69
  -1   5   5   45.33    3.42
   1   5  -5   46.31    3.02
   1   5  -5   41.78    2.90
   1   5  -5   46.24    3.00
   0  -5   5   15.35    1.50
   0  -5  -5   15.48    1.69
   0  -5   5   13.46    1.98
   0  -5  -5   12.55    1.53
   0   5   5   11.31    1.95
   0   5  -5   11.58    1.54
   0   5  -5   12.94    1.64
   0   5  -5   12.73    1.70
   0   5  -5   10.77    1.63
  -1  -5  -5   23.90    2.45
   1   5   5   28.97    3.22
  -1   5  -5   28.26    2.41
  -1   5  -5   29.53    2.37
  -1   5  -5   29.29    2.19
  -1   5  -5   28.05    2.81
  -2  -5  -5   18.37    2.00
  -2  -5  -5   17.36    2.23
  -2   5  -5   15.45    2.33
  -2   5  -5   16.35    2.20
   2   5   5   14.95    2.63
  -3  -5  -5   11.36    1.70
  -3  -5  -5   10.97    2.02
  -3   5  -5   10.81    2.30
  -3   5  -5   13.09    2.08
   3   5   5    7.83    2.53
  -4  -5  -5   46.36    3.93
  -4   5  -5   48.20    4.59
  -4   5  -5   47.95    4.75
   4   5   5   47.24    5.14
  -5  -5  -5    4.02    2.05
  -5  -5  -5    2.97    2.55
  -5   5  -5    4.21    3.10
  -5   5  -5    1.72    2.64
   5   5   5   -4.05    3.07
  -6  -5  -5   43.88    6.01
  -6  -5  -5   42.65    4.93
   6   5   5   33.55    5.44
  -6   5  -5   43.76    5.96
  -6   5  -5   45.15    5.63
  -8  -6   5   -0.64    2.89
   8  -6  -5    4.06    2.32
   8   6  -5    2.35    2.86
  -8   6   5    4.96    2.26
  -7  -6   5   52.75    4.93
   7  -6  -5   60.11    4.04
   7   6  -5   43.46    5.33
  -7   6   5   49.17    4.50
   6  -6  -5    4.39    1.30
  -6  -6   5    6.44    1.72
  -6  -6   5    5.05    0.97
   6   6  -5    1.56    2.11
  -6   6   5    2.26    1.53
   5  -6  -5   91.39    5.43
  -5  -6   5   78.90    5.52
   5  -6  -5   84.19    5.57
   5   6  -5   73.90    6.19
  -5   6   5   85.12    5.64
  -4  -6   5   51.80    3.59
   4  -6  -5   49.94    3.57
   4  -6  -5   53.70    3.71
   4  -6  -5   50.54    3.60
  -4   6   5   47.69    3.96
  -4   6   5   47.40    3.69
   4   6  -5   46.20    4.35
  -3  -6   5   84.12    5.36
   3  -6  -5   81.53    5.39
   3  -6  -5   83.66    5.49
  -3   6   5   86.68    5.81
   3   6  -5   84.13    5.98
   2  -6  -5  162.32    9.61
  -2  -6   5  143.81    9.61
  -2  -6   5  153.22    9.42
   2  -6  -5  153.77    9.49
   2   6  -5  157.59    9.86
  -2   6   5  170.67    9.98
  -1  -6   5    5.33    1.05
   1  -6  -5    6.84    1.22
   1  -6  -5    3.89    0.99
  -1   6   5    6.26    1.74
   1   6  -5    5.33    1.36
   1   6  -5    4.58    1.48
   0  -6   5  130.15    8.16
   0  -6  -5  128.13    8.20
   0  -6  -5  127.80    8.31
   0   6  -5  137.88    8.43
   0   6   5  136.27    8.86
   0   6  -5  131.55    8.31
   0   6  -5  138.31    8.21
   0   6  -5  139.19    8.17
  -1  -6  -5   30.18    2.55
  -1  -6  -5   29.20    2.73
  -1   6  -5   28.42    3.04
   1   6   5   22.66    3.51
  -1   6  -5   27.68    2.68
  -1   6  -5   31.18    2.34
  -2  -6  -5   29.61    3.00
  -2  -6  -5   29.43    2.72
  -2   6  -5   30.87    3.50
  -2   6  -5   29.44    2.95
   2   6   5   28.13    3.93
  -3  -6  -5   40.18    3.65
  -3  -6  -5   39.66    3.29
  -3   6  -5   41.11    3.73
  -3   6  -5   29.70    4.37
   3   6   5   26.37    4.47
  -4  -6  -5    1.87    2.07
  -4  -6  -5    3.36    1.75
   4   6   5    3.35    3.06
  -4   6  -5    2.35    2.55
  -4   6  -5    1.88    2.48
  -5  -6  -5   20.17    2.94
  -5  -6  -5   19.49    3.55
   5   6   5   23.28    4.34
  -5   6  -5   25.27    3.86
  -5   6  -5   15.00    3.66
  -8  -7   5   36.75    5.22
   8   7  -5   21.01    4.31
  -8   7   5   28.05    3.60
   7  -7  -5    4.19    1.79
  -7  -7   5    2.00    2.45
   7  -7  -5    4.57    2.42
  -7   7   5    3.37    2.02
   7   7  -5    0.84    2.92
  -6  -7   5   75.77    5.02
  -6  -7   5   66.66    5.64
   6  -7  -5   82.38    5.26
   6  -7  -5   81.21    5.62
  -6   7   5   87.93    5.76
   6   7  -5   70.34    6.55
  -5  -7   5   24.36    2.73
   5  -7  -5   25.15    2.44
   5  -7  -5   26.08    2.78
  -5   7   5   25.02    2.86
   5   7  -5   22.45    3.41
   4  -7  -5   87.33    5.93
  -4  -7   5   84.50    5.79
   4  -7  -5   88.89    5.72
   4  -7  -5   86.42    5.83
  -4   7   5   93.21    6.16
  -4   7   5   94.92    6.00
   4   7  -5   80.16    6.56
  -3  -7   5  131.37    8.04
   3  -7  -5  137.26    8.13
   3  -7  -5  136.07    8.24
  -3   7   5  129.73    8.47
   3   7  -5  112.14    8.56
   2  -7  -5   18.41    2.08
  -2  -7   5   19.89    2.11
   2  -7  -5   18.02    2.26
  -2   7   5   23.41    3.56
   2   7  -5   17.46    2.51
  -1  -7   5  167.19   10.61
   1  -7  -5  174.30   10.75
  -1  -7   5  186.26   10.72
   1  -7  -5  184.22   10.91
  -1   7   5  173.65   11.34
   1   7  -5  176.17   11.14
   0  -7  -5    0.80    1.18
   0  -7  -5    2.59    1.09
   0  -7   5    2.82    1.21
   0  -7   5    2.13    1.25
   0   7  -5    1.76    1.52
   0   7   5    1.67    1.91
   0   7  -5    2.23    1.20
  -1  -7  -5   96.46    6.18
  -1  -7  -5   99.79    6.43
   1  -7   5  101.50    6.24
  -1   7  -5   90.84    6.59
  -1   7  -5   92.81    6.27
   1   7   5   82.91    7.00
   2   7   5   30.17    5.27
  -2   7  -5   30.55    3.92
  -2   7  -5   34.23    3.38
  -3  -7  -5    4.42    1.66
  -3  -7  -5    6.49    2.07
  -3   7  -5    4.91    2.23
   3   7   5    0.23    2.78
  -3   7  -5    3.86    2.38
  -4  -7  -5   18.54    2.56
  -4  -7  -5   20.64    3.18
   4   7   5   18.49    4.30
  -4   7  -5   15.04    3.58
  -4   7  -5   25.33    3.39
  -5  -7  -5    4.04    2.42
  -5  -7  -5   -2.00    2.80
   5   7   5    4.61    4.16
  -5   7  -5    8.60    3.73
  -5   7  -5    2.67    3.18
  -7  -8   5   37.74    4.81
   7  -8  -5   42.20    4.31
  -7   8   5   45.99    4.70
   7   8  -5   41.84    6.22
  -6  -8   5    6.24    2.23
   6  -8  -5    9.24    2.02
   6   8  -5    6.61    3.39
  -6   8   5    5.19    1.97
  -5  -8   5   53.06    4.43
   5  -8  -5   60.51    4.63
   5  -8  -5   60.11    4.13
  -5   8   5   53.27    4.58
   5   8  -5   47.08    5.71
   4  -8  -5   41.16    3.67
  -4  -8   5   37.21    3.79
   4  -8  -5   42.71    4.18
   4  -8  -5   36.63    3.69
  -4   8   5   44.06    4.05
   4   8  -5   40.47    4.83
   3  -8  -5   39.31    4.14
  -3  -8   5   35.48    3.22
  -3   8   5   38.68    4.01
   3   8  -5   35.17    4.35
   2  -8  -5  106.31    6.77
  -2  -8   5   98.56    6.54
  -2   8   5   98.95    7.19
   2   8  -5   97.06    7.19
  -1  -8   5    3.54    1.36
   1  -8  -5    5.90    1.58
   1  -8  -5    3.48    1.50
   1   8  -5    4.66    1.91
  -1   8   5    7.08    2.42
   0  -8   5   88.29    5.53
   0  -8  -5   75.75    6.73
   0  -8  -5   81.08    5.39
   0   8  -5   72.25    5.37
   0   8   5   74.06    6.41
  -1  -8  -5   10.48    2.00
   1  -8   5   10.67    1.90
  -1  -8  -5   10.67    1.77
   1   8   5    8.62    3.43
  -1   8  -5    9.43    1.95
  -2  -8  -5   28.07    3.50
   2  -8   5   29.01    3.22
  -2  -8  -5   32.69    3.10
  -2   8  -5   19.85    3.28
  -2   8  -5   23.96    3.40
   2   8   5   18.17    3.78
  -3  -8  -5   23.86    3.18
  -3  -8  -5   23.45    3.21
  -3   8  -5   20.94    3.62
   3   8   5   24.81    4.64
  -3   8  -5   19.76    3.08
  -4  -8  -5    6.03    2.28
  -4  -8  -5    4.32    2.64
  -4   8  -5    5.71    2.92
   4   8   5   -2.77    3.85
  -4   8  -5    4.11    3.48
  -6  -9   5   20.50    2.91
   6  -9  -5   22.28    3.01
  -6   9   5   19.92    3.14
   5  -9  -5   16.19    2.56
   5  -9  -5   19.77    2.78
   5   9  -5   18.31    4.18
   4  -9  -5    7.95    1.99
  -4  -9   5    7.01    2.10
   4  -9  -5    5.04    1.96
   4  -9  -5    5.12    1.63
   4   9  -5    7.70    3.45
  -4   9   5    3.56    2.25
   3  -9  -5   33.19    3.42
  -3  -9   5   26.86    3.23
   3  -9  -5   27.64    3.46
   3   9  -5   28.19    4.01
  -3   9   5   31.66    4.14
   2  -9  -5    7.02    1.98
   2  -9  -5    8.42    1.87
  -2  -9   5    6.17    1.80
  -2   9   5    7.57    2.63
   2   9  -5    6.96    2.66
  -1  -9   5   29.50    3.31
   1  -9  -5   28.97    3.28
   1  -9  -5   34.31    3.53
  -1   9   5   33.78    4.57
   1   9  -5   30.42    3.80
   0  -9  -5    7.01    1.73
   0  -9   5    6.96    1.91
   0  -9  -5    6.46    1.97
   0   9   5    3.33    2.88
  -1  -9  -5   24.23    3.01
  -1  -9  -5   22.18    3.43
   1   9   5   18.11    3.78
  -2  -9  -5   12.23    2.28
  -2  -9  -5   17.78    2.80
   2  -9   5   11.74    2.53
   2   9   5   10.53    3.87
  -2   9  -5   14.07    2.64
   3  -9   5   11.87    2.72
  -3  -9  -5   15.59    2.96
  -3  -9  -5    9.37    2.47
  -3   9  -5   11.26    2.91
   4 -10  -5    9.19    2.52
  -4 -10   5    7.54    2.26
   4 -10  -5    9.00    2.31
   3 -10  -5    0.86    2.08
   3 -10  -5    1.74    2.04
  -3 -10   5    2.14    1.90
   3  10  -5    5.10    3.36
  -3  10   5    8.93    2.80
   2 -10  -5   12.77    2.55
  -2 -10   5   12.76    2.34
   2 -10  -5   15.40    2.39
  -2  10   5   15.42    3.51
   2  10  -5    5.23    4.33
   1 -10  -5    0.69    1.82
  -1 -10   5    0.21    1.95
   1 -10  -5    3.96    2.06
  -1  10   5    2.11    3.30
   0 -10  -5   16.27    2.80
   0 -10  -5   13.23    2.39
   0 -10   5   14.61    2.55
   0  10   5   11.58    3.95
  -1 -10  -5   14.85    2.56
   1 -10   5   15.70    2.83
  -1 -10  -5   18.79    3.02
  10   0  -6   31.47    4.17
 -10   0   6   22.85    3.71
   9   0  -6    4.71    2.31
  -9   0   6    3.68    2.31
   8   0  -6   45.79    4.03
  -8   0   6   40.27    3.95
   7   0  -6   35.72    3.30
  -7   0   6   38.19    3.23
  -6   0   6   14.68    1.80
   6   0  -6   12.28    1.84
   6   0  -6   16.54    2.40
   5   0  -6  235.36   13.75
  -5   0   6  234.24   13.54
   5   0  -6  222.72   13.80
   4   0  -6    7.92    0.98
   4   0  -6    7.49    1.16
   3   0  -6  207.48   13.13
   3   0  -6  226.69   13.24
  -3   0   6  234.44   13.00
   2   0  -6   72.46    4.92
  -2   0   6   78.07    5.09
  -2   0   6   83.25    4.74
   2   0  -6   72.77    4.84
  -1   0   6   83.87    5.61
   1   0  -6   84.18    5.34
   1   0  -6   81.18    5.51
   1   0  -6   83.11    5.77
  -1   0   6   93.18    5.39
   0   0   6  105.93    6.06
   0   0   6  101.29    6.49
   0   0  -6   89.78    6.26
   0   0  -6  101.49    6.45
  -1   0  -6   17.80    2.48
  -1   0  -6   14.98    2.01
   1   0   6   18.02    1.73
   1   0   6   15.53    2.13
  -2   0  -6   58.40    4.41
  -2   0  -6   57.12    4.68
   2   0   6   56.69    4.38
   3   0   6    8.42    2.05
  -3   0  -6    4.94    2.26
  -3   0  -6    4.40    1.80
   4   0   6   33.84    4.01
  -4   0  -6   32.06    3.81
  -4   0  -6   35.31    4.60
  -5   0  -6   -0.26    2.86
  -5   0  -6    3.36    2.33
   5   0   6    1.20    2.76
   6   0   6   22.32    4.22
  -6   0  -6   20.23    3.44
  -6   0  -6   28.28    4.37
 -10  -1   6    9.38    3.20
  10  -1  -6   17.24    3.26
 -10   1   6   13.45    3.17
  10   1  -6   11.18    3.41
  -9  -1   6   28.29    3.96
  -9   1   6   23.93    3.29
   9   1  -6   25.96    4.00
   8  -1  -6    4.14    1.80
  -8  -1   6    3.63    1.85
  -8   1   6    3.15    1.74
   8   1  -6    2.44    1.85
  -7  -1   6   51.06    4.23
   7  -1  -6   52.54    4.20
   7   1  -6   60.19    4.42
  -7   1   6   60.45    4.15
   6  -1  -6   81.51    5.23
  -6  -1   6   79.15    5.12
   6  -1  -6   70.27    5.49
  -6   1   6   80.60    5.04
   6   1  -6   77.65    5.29
   6   1  -6   74.72    5.10
  -5  -1   6   44.11    2.89
   5  -1  -6   38.87    2.72
   5  -1  -6   41.71    3.12
   5  -1  -6   42.94    3.20
   5   1  -6   43.83    3.21
  -5   1   6   47.71    2.94
   4  -1  -6  153.86    9.12
  -4  -1   6  153.36    9.01
   4  -1  -6  152.79    9.36
   4  -1  -6  176.14    9.60
   4   1  -6  144.14    9.38
  -4   1   6  147.32    9.08
   4   1  -6  157.32    9.09
   3  -1  -6   34.84    2.44
   3  -1  -6   38.41    2.80
  -3  -1   6   41.27    2.59
   3  -1  -6   33.29    2.81
  -3   1   6   42.16    3.09
  -3   1   6   40.68    2.56
   3   1  -6   46.17    2.86
   3   1  -6   43.49    2.86
   2  -1  -6  148.51    9.18
   2  -1  -6  154.38    9.11
   2  -1  -6  148.91    8.88
  -2  -1   6  171.72    9.11
   2  -1  -6  170.23    9.12
  -2   1   6  152.20    9.03
   2   1  -6  147.94    9.16
  -2   1   6  148.31    9.42
   2   1  -6  148.84    9.56
   2   1  -6  132.22    9.22
  -1  -1   6   40.84    3.26
   1  -1  -6   43.27    2.83
  -1  -1   6   48.71    3.21
   1  -1  -6   43.80    3.11
   1   1  -6   46.72    3.38
  -1   1   6   45.76    3.06
  -1   1   6   45.69    3.40
  -1   1   6   46.90    2.86
   1   1  -6   38.70    3.41
   1   1  -6   46.10    3.05
   0  -1   6   86.74    5.81
   0  -1   6  100.60    5.80
   0  -1  -6   95.02    5.73
   0  -1  -6   97.10    5.61
   0   1  -6   83.13    5.56
   0   1  -6   89.35    5.50
   0   1   6   91.63    5.45
   0   1  -6   88.79    5.84
   0   1  -6   77.54    5.89
   0   1   6   82.60    5.90
  -1  -1  -6   47.91    3.41
   1  -1   6   47.74    3.57
   1  -1   6   43.71    3.23
  -1  -1  -6   46.70    3.45
  -1   1  -6   39.33    3.40
  -1   1  -6   42.14    3.47
   1   1   6   44.99    3.62
  -1   1  -6   44.20    3.71
   1   1   6   44.76    3.11
  -2  -1  -6   31.80    3.35
  -2  -1  -6   33.50    2.93
   2  -1   6   32.38    3.02
  -2   1  -6   25.52    3.83
   2   1   6   30.33    3.17
  -2   1  -6   27.91    3.12
  -3  -1  -6   75.39    5.65
  -3  -1  -6   76.33    6.17
   3  -1   6   80.51    5.80
   3   1   6   78.82    5.94
  -3   1  -6   83.06    6.17
  -3   1  -6   84.73    5.85
  -4  -1  -6   13.98    3.04
  -4  -1  -6   13.05    2.41
   4  -1   6    8.75    2.51
  -4   1  -6   15.10    2.55
  -4   1  -6   16.33    3.04
   4   1   6   13.98    2.79
  -5  -1  -6   35.78    4.44
   5  -1   6   43.87    4.72
  -5   1  -6   39.91    4.40
  -5   1  -6   37.41    5.16
   5   1   6   33.50    4.93
   6  -1   6   13.29    4.14
  -6  -1  -6   10.59    2.93
  -6  -1  -6   11.76    3.78
   6   1   6   15.40    3.99
  -6   1  -6   10.24    3.83
  -6   1  -6   12.14    3.08
 -10  -2   6   21.40    3.61
  10  -2  -6   18.44    3.46
 -10   2   6   15.94    3.50
  10   2  -6   20.88    3.76
  -9  -2   6    5.33    2.50
   9  -2  -6    2.47    2.20
  -9   2   6   -0.18    2.13
   9   2  -6    2.64    2.55
  -8  -2   6   35.14    3.88
   8  -2  -6   37.10    3.60
  -8   2   6   34.19    3.54
  -7  -2   6   14.55    2.12
   7  -2  -6   14.04    2.15
   7   2  -6    9.92    1.98
  -7   2   6   13.74    1.89
   6  -2  -6   65.56    4.23
  -6  -2   6   69.65    4.80
   6  -2  -6   67.91    4.67
   6  -2  -6   64.51    4.19
   6   2  -6   72.03    4.95
  -6   2   6   72.15    4.59
   6   2  -6   69.04    4.50
   5  -2  -6   24.53    2.07
  -5  -2   6   22.20    1.95
   5  -2  -6   20.84    1.97
   5  -2  -6   19.00    1.61
   5   2  -6   19.64    1.80
   5   2  -6   19.57    2.13
  -5   2   6   20.68    1.79
   4  -2  -6   75.08    4.79
   4  -2  -6   75.84    4.82
  -4  -2   6   74.04    4.75
   4  -2  -6   76.12    5.03
   4  -2  -6   78.98    4.88
   4   2  -6   83.75    5.18
   4   2  -6   82.98    4.72
  -4   2   6   82.04    4.84
   3  -2  -6  117.49    7.14
  -3  -2   6  127.72    7.24
   3  -2  -6  115.22    7.21
   3  -2  -6  115.04    7.37
   3  -2  -6  114.73    7.16
  -3   2   6  124.81    7.66
  -3   2   6  121.53    7.20
   3   2  -6  119.61    7.42
   3   2  -6  128.91    7.24
  -2  -2   6   20.08    1.98
   2  -2  -6   17.52    1.45
   2  -2  -6   18.28    1.47
  -2  -2   6   20.00    1.93
   2  -2  -6   19.88    1.68
   2   2  -6   19.04    2.26
   2   2  -6   21.14    1.75
   2   2  -6   23.31    1.92
  -2   2   6   22.44    1.63
  -2   2   6   20.85    2.16
   1  -2  -6  203.94   11.65
  -1  -2   6  188.81   11.88
   1  -2  -6  204.00   11.77
   1   2  -6  201.31   12.04
  -1   2   6  212.21   11.65
   1   2  -6  187.71   11.92
  -1   2   6  195.96   12.12
   1   2  -6  190.31   11.75
   0  -2  -6   56.26    3.70
   0  -2   6   60.94    4.00
   0  -2  -6   61.85    3.84
   0   2  -6   53.53    4.33
   0   2   6   59.71    3.69
   0   2  -6   56.70    3.55
   0   2  -6   55.83    3.70
   0   2  -6   44.32    4.12
   0   2   6   58.23    4.24
  -1  -2  -6   67.60    4.49
  -1  -2  -6   63.57    4.45
   1  -2   6   70.91    4.66
   1  -2   6   66.49    4.60
  -1   2  -6   66.60    4.33
   1   2   6   65.61    4.39
   1   2   6   68.99    4.92
  -1   2  -6   73.68    4.45
  -1   2  -6   55.31    4.77
  -2  -2  -6  123.75    7.70
   2  -2   6  121.54    7.78
  -2  -2  -6  125.62    7.87
  -2   2  -6  127.70    7.83
  -2   2  -6  117.42    7.66
   2   2   6  116.98    8.08
  -2   2  -6  120.03    8.00
  -3  -2  -6    7.23    2.07
  -3  -2  -6    5.89    1.65
   3  -2   6    7.74    1.79
   3   2   6    6.56    2.15
  -3   2  -6    4.79    2.03
  -3   2  -6    8.47    2.07
  -4  -2  -6   71.35    5.95
  -4  -2  -6   68.48    5.20
   4  -2   6   67.34    5.22
  -4   2  -6   59.31    5.76
  -4   2  -6   58.01    5.32
   4   2   6   64.58    5.80
  -5  -2  -6   32.62    4.21
  -5  -2  -6   32.15    4.43
   5  -2   6   29.41    4.25
   5   2   6   39.07    6.49
  -5   2  -6   33.05    4.32
  -5   2  -6   41.92    5.53
  -6  -2  -6    7.40    2.97
   6  -2   6   14.20    3.64
  -6  -2  -6    7.20    3.68
   6   2   6   13.52    4.22
  -6   2  -6    9.13    3.93
  -6   2  -6    9.13    3.09
   9  -3  -6   58.90    4.99
  -9  -3   6   58.07    5.66
  -9   3   6   53.27    5.89
   9   3  -6   61.37    5.81
   8  -3  -6    7.65    1.88
  -8  -3   6    4.91    2.42
   8  -3  -6    5.21    1.06
   8   3  -6    3.64    2.11
  -8   3   6    8.07    1.96
   7  -3  -6   76.49    4.85
   7  -3  -6   74.74    4.75
  -7  -3   6   72.54    5.65
   7  -3  -6   77.70    5.26
  -7   3   6   77.62    5.29
   6  -3  -6   18.04    1.76
   6  -3  -6   14.85    1.60
   6  -3  -6   15.46    2.01
  -6  -3   6   17.04    2.56
   6   3  -6   19.07    2.47
  -6   3   6   21.08    2.08
   6   3  -6   18.42    1.89
  -5  -3   6   91.59    6.59
   5  -3  -6  113.57    6.62
   5  -3  -6  104.10    6.34
   5   3  -6  103.91    6.83
   5   3  -6  106.19    6.30
  -5   3   6  106.58    6.49
   4  -3  -6   40.00    2.80
   4  -3  -6   40.21    2.98
   4  -3  -6   43.51    2.92
  -4  -3   6   41.36    2.80
   4  -3  -6   43.73    2.84
  -4   3   6   41.86    2.86
   4   3  -6   40.75    2.69
  -4   3   6   43.21    3.33
   4   3  -6   39.26    3.15
  -3  -3   6   61.08    3.86
   3  -3  -6   58.10    3.68
   3  -3  -6   55.83    3.84
   3  -3  -6   57.91    3.72
   3  -3  -6   57.76    3.70
  -3   3   6   57.32    4.22
   3   3  -6   55.97    3.93
   2  -3  -6  101.29    5.98
   2  -3  -6   99.98    6.03
   2  -3  -6   97.78    5.98
  -2   3   6   99.95    6.48
   2   3  -6   90.76    6.10
   2   3  -6   99.25    6.08
   1  -3  -6    0.47    0.67
   1  -3  -6    0.37    0.58
  -1  -3   6    0.55    0.38
  -1  -3   6    0.84    0.79
   1  -3  -6    1.07    0.61
   1   3  -6    2.29    1.01
   1   3  -6    0.49    0.65
   1   3  -6    1.32    1.19
  -1   3   6    0.71    1.11
   1   3  -6    0.57    0.41
  -1   3   6    0.09    0.65
   0  -3  -6   79.92    4.63
   0  -3  -6   77.34    4.65
   0  -3   6   74.43    4.76
   0   3   6   70.55    4.61
   0   3  -6   66.50    4.78
   0   3  -6   67.99    4.53
   0   3  -6   69.50    4.42
   0   3  -6   64.58    4.89
  -1  -3  -6   85.77    5.13
   1  -3   6   84.86    5.23
   1  -3   6   73.33    5.47
  -1  -3  -6   87.98    5.24
   1   3   6   78.09    5.66
  -1   3  -6   66.23    5.46
  -1   3  -6   73.95    5.16
  -1   3  -6   78.65    4.97
  -1   3  -6   76.79    5.01
  -2  -3  -6    5.61    1.42
   2  -3   6    5.83    1.44
  -2  -3  -6    6.85    1.31
  -2   3  -6    2.60    1.38
  -2   3  -6    3.87    1.25
   2   3   6    1.16    1.67
  -2   3  -6    0.96    1.61
  -2   3  -6    4.72    0.96
  -3  -3  -6   79.04    5.46
   3  -3   6   84.28    5.53
  -3  -3  -6   85.13    5.91
  -3   3  -6   77.42    5.80
  -3   3  -6   71.14    6.04
   3   3   6   75.21    6.22
   4  -3   6   21.95    3.15
  -4  -3  -6   17.98    3.12
  -4  -3  -6   24.87    3.09
  -4   3  -6   15.14    3.10
   4   3   6   19.23    3.54
   5  -3   6   31.00    4.20
  -5  -3  -6   26.20    4.22
  -5  -3  -6   27.94    4.02
  -5   3  -6   22.89    4.87
  -5   3  -6   40.14    4.52
   5   3   6   33.40    5.28
  -6  -3  -6   44.78    6.30
  -6  -3  -6   41.59    5.21
   6   3   6   30.10    5.31
  -6   3  -6   37.57    5.20
  -6   3  -6   36.97    4.44
  -9  -4   6    2.27    3.12
   9  -4  -6    9.28    2.31
  -9   4   6    9.55    2.66
   9   4  -6    4.17    2.88
   8  -4  -6  107.02    6.92
  -8  -4   6   88.98    7.49
   8  -4  -6   99.65    6.50
   8   4  -6   96.55    7.66
  -8   4   6  115.04    7.17
  -7  -4   6   17.62    2.71
   7  -4  -6   17.76    2.44
   7  -4  -6   20.22    2.02
  -7   4   6   20.17    2.58
   7   4  -6   15.23    3.84
  -6  -4   6   75.29    6.39
   6  -4  -6   89.36    5.51
   6  -4  -6   92.67    5.77
   6   4  -6   89.02    6.31
  -6   4   6   93.25    5.80
   6   4  -6   82.71    5.59
  -5  -4   6   72.12    4.97
   5  -4  -6   71.20    4.77
   5  -4  -6   74.43    4.86
   5  -4  -6   71.05    4.69
   5   4  -6   72.03    4.61
  -5   4   6   81.38    4.87
   5   4  -6   70.77    5.20
   4  -4  -6   24.92    1.90
   4  -4  -6   20.87    1.87
  -4  -4   6   22.11    1.76
   4  -4  -6   22.14    2.00
  -4  -4   6   22.05    1.73
  -4  -4   6   21.93    1.98
   4   4  -6   19.05    2.31
   4   4  -6   18.33    1.62
  -4   4   6   19.80    2.39
  -4   4   6   19.38    1.90
  -3  -4   6   34.01    3.04
   3  -4  -6   42.13    3.03
   3  -4  -6   39.83    2.89
   3  -4  -6   38.97    2.86
  -3  -4   6   38.68    2.65
   3   4  -6   46.59    3.23
   3   4  -6   45.14    2.92
  -3   4   6   46.96    3.48
  -2  -4   6   14.47    1.18
   2  -4  -6   14.49    1.46
   2  -4  -6   13.03    1.74
   2  -4  -6   13.49    1.47
   2   4  -6   13.91    1.68
  -2   4   6   14.04    2.26
   2   4  -6   13.19    1.69
  -1  -4   6   11.71    1.10
   1  -4  -6   10.30    1.37
   1  -4  -6   12.20    1.40
  -1  -4   6   11.05    1.43
   1   4  -6   11.71    1.52
  -1   4   6   11.35    1.90
   1   4  -6    9.86    1.56
   1   4  -6   10.96    1.55
   1   4  -6   11.24    1.13
   0  -4  -6    8.30    1.22
   0  -4   6    5.55    1.28
   0  -4  -6    9.31    1.59
   0   4  -6    8.44    1.38
   0   4  -6    9.18    1.24
   0   4  -6    8.46    1.12
   0   4  -6    8.31    1.51
   0   4   6   12.23    2.00
  -1  -4  -6    1.53    0.88
  -1  -4  -6    0.48    0.96
   1  -4   6    3.42    1.60
  -1   4  -6    0.20    0.95
  -1   4  -6    0.81    1.07
   1   4   6    1.05    1.51
  -1   4  -6    0.31    0.82
  -1   4  -6    2.72    1.49
  -2  -4  -6   27.11    2.44
  -2  -4  -6   27.20    2.72
   2   4   6   19.53    3.25
  -2   4  -6   22.00    2.59
  -2   4  -6   18.68    2.63
  -2   4  -6   24.01    2.32
  -3  -4  -6    2.51    1.72
  -3  -4  -6    3.24    1.45
   3   4   6    3.85    2.46
  -3   4  -6    4.17    2.16
  -3   4  -6    4.59    1.88
   4  -4   6   41.21    4.02
  -4  -4  -6   42.98    4.30
  -4   4  -6   50.01    4.80
   4   4   6   42.98    5.39
  -4   4  -6   49.33    4.84
  -5  -4  -6   10.38    3.32
  -5  -4  -6   15.14    2.80
  -5   4  -6    9.00    3.06
  -5   4  -6   13.31    3.48
   5   4   6   12.66    3.99
  -6  -4  -6   15.35    3.33
  -6  -4  -6   11.14    4.22
  -6   4  -6   20.25    4.36
  -6   4  -6   14.35    3.67
  -9  -5   6   64.28    7.72
   9  -5  -6   75.67    5.48
  -9   5   6   59.04    5.87
   9   5  -6   58.16    6.54
   8  -5  -6   -0.85    1.61
   8  -5  -6    0.18    1.90
  -8  -5   6    1.17    2.75
   8   5  -6   -2.20    2.35
  -8   5   6    3.38    1.84
   7  -5  -6   79.94    4.94
   7  -5  -6   80.72    4.73
  -7  -5   6   52.98    5.44
   7   5  -6   55.83    5.66
  -7   5   6   65.04    5.06
  -6  -5   6   17.50    2.32
   6  -5  -6   18.84    2.12
   6  -5  -6   18.88    2.25
  -6   5   6   23.39    2.46
   6   5  -6   22.39    2.97
  -5  -5   6   25.53    2.42
   5  -5  -6   29.19    2.38
   5  -5  -6   25.71    2.31
   5  -5  -6   29.98    2.31
  -5  -5   6   24.22    2.19
  -5   5   6   19.21    2.37
   5   5  -6   19.15    3.00
   5   5  -6   19.89    2.21
   4  -5  -6   54.70    3.91
  -4  -5   6   51.85    3.77
  -4  -5   6   50.39    3.71
   4  -5  -6   52.29    3.93
   4  -5  -6   50.76    3.83
   4   5  -6   65.11    4.52
  -4   5   6   66.81    4.45
  -4   5   6   66.29    4.03
   4   5  -6   60.81    3.71
   3  -5  -6    8.24    1.22
   3  -5  -6    7.78    1.19
  -3  -5   6    8.55    1.25
  -3  -5   6    9.58    1.35
  -3   5   6    9.34    1.71
   3   5  -6    6.92    1.24
   3   5  -6   10.40    1.71
   2  -5  -6   51.31    3.56
  -2  -5   6   50.15    3.35
  -2  -5   6   46.61    3.39
   2  -5  -6   50.19    3.55
   2   5  -6   54.60    3.70
  -2   5   6   54.29    4.20
   2   5  -6   56.19    3.92
   1  -5  -6   22.57    1.99
  -1  -5   6   19.05    1.96
  -1  -5   6   19.84    2.00
   1  -5  -6   18.18    1.90
  -1  -5   6   21.34    1.75
  -1   5   6   20.51    2.79
   1   5  -6   15.93    2.27
   1   5  -6   20.26    2.23
   1   5  -6   23.56    2.36
   0  -5   6   36.25    2.90
   0  -5   6   38.80    3.24
   0  -5  -6   38.31    3.13
   0  -5  -6   38.32    3.06
   0   5   6   41.73    3.88
   0   5  -6   44.48    3.16
   0   5  -6   43.12    2.99
   0   5  -6   47.76    3.52
   0   5  -6   41.64    3.25
  -1  -5  -6   39.29    2.98
  -1  -5  -6   33.39    3.07
  -1   5  -6   38.25    3.52
  -1   5  -6   33.67    3.19
  -1   5  -6   39.36    2.93
  -1   5  -6   38.24    2.92
   1   5   6   32.94    3.81
  -2  -5  -6   13.82    1.83
  -2  -5  -6   13.50    2.07
  -2   5  -6   14.72    2.49
  -2   5  -6   15.55    1.81
  -2   5  -6   13.39    2.00
   2   5   6   14.75    2.81
  -3  -5  -6   21.22    3.64
  -3  -5  -6   27.08    3.46
   3   5   6   25.07    3.85
  -3   5  -6   33.00    3.40
  -3   5  -6   24.67    3.38
  -4  -5  -6    5.62    2.61
  -4  -5  -6    3.78    1.94
  -4   5  -6    7.75    2.93
   4   5   6    4.36    3.27
  -4   5  -6   -0.06    2.61
  -5  -5  -6   14.48    2.96
  -5  -5  -6   15.14    3.74
  -5   5  -6   16.27    3.77
   5   5   6   18.28    4.43
  -5   5  -6   16.75    3.69
  -8  -6   6   26.77    4.15
   8  -6  -6   41.02    3.90
   8  -6  -6   34.88    3.41
  -8   6   6   37.18    4.13
   8   6  -6   25.59    4.20
  -7  -6   6    3.13    2.24
   7  -6  -6    5.90    1.61
   7  -6  -6    5.23    1.57
   7   6  -6    2.02    2.53
  -7   6   6    5.06    1.91
   6  -6  -6   35.87    3.10
   6  -6  -6   38.28    3.23
  -6  -6   6   34.99    3.45
   6  -6  -6   37.12    3.10
  -6   6   6   31.11    3.23
  -5  -6   6   38.47    3.20
   5  -6  -6   42.63    3.19
   5  -6  -6   41.93    3.16
   5  -6  -6   43.82    3.29
  -5   6   6   32.41    3.25
   5   6  -6   34.21    4.07
   4  -6  -6   12.97    1.65
   4  -6  -6   13.05    1.91
  -4  -6   6   13.33    1.64
   4  -6  -6   12.52    1.91
   4   6  -6   16.12    2.51
  -4   6   6   17.28    2.37
  -3  -6   6   80.99    5.47
   3  -6  -6   91.10    5.66
  -3  -6   6   89.15    5.49
   3  -6  -6   89.17    5.60
   3   6  -6   78.85    6.09
  -3   6   6   87.38    6.14
  -2  -6   6    3.76    0.99
   2  -6  -6    4.28    1.10
   2  -6  -6    4.21    1.08
  -2  -6   6    1.94    1.12
   2   6  -6    2.43    1.58
   2   6  -6    5.26    1.37
  -2   6   6    3.78    1.75
   1  -6  -6  127.76    8.08
   1  -6  -6  122.74    7.98
  -1  -6   6  122.83    7.86
   1   6  -6  145.12    8.23
   1   6  -6  128.96    8.22
  -1   6   6  129.28    8.66
   0  -6  -6   42.73    3.30
   0  -6   6   42.80    3.20
   0  -6  -6   41.80    3.41
   0   6  -6   43.99    3.26
   0   6  -6   45.70    3.44
   0   6  -6   43.44    3.79
   0   6  -6   39.75    3.45
   0   6   6   40.79    4.28
  -1  -6  -6   47.45    3.59
  -1  -6  -6   46.68    3.81
  -1   6  -6   49.43    3.67
  -1   6  -6   50.75    4.32
  -1   6  -6   43.46    3.47
   1   6   6   45.33    4.78
  -2  -6  -6   84.10    5.89
  -2   6  -6   77.98    6.43
   2   6   6   78.41    7.07
  -2   6  -6   81.98    5.84
  -3  -6  -6    2.60    2.01
  -3  -6  -6    3.06    1.64
  -3   6  -6    3.09    2.14
   3   6   6    0.86    2.84
  -3   6  -6    1.80    2.37
  -4  -6  -6   46.58    4.50
  -4  -6  -6   45.67    5.27
   4   6   6   54.14    6.75
  -4   6  -6   59.28    5.30
  -4   6  -6   51.57    5.78
  -5  -6  -6    8.39    2.77
  -5  -6  -6    5.35    3.33
  -5   6  -6   -2.68    3.47
  -5   6  -6    2.46    3.53
   7  -7  -6   10.27    2.16
   7  -7  -6   11.46    2.48
  -7  -7   6   16.92    2.85
   7  -7  -6   16.30    2.22
  -7   7   6   16.31    2.47
   7   7  -6   15.02    3.57
   6  -7  -6   13.07    2.03
   6  -7  -6   14.65    2.32
   6  -7  -6   14.17    2.12
  -6  -7   6   11.33    2.17
   6   7  -6    7.34    2.98
  -6   7   6   10.80    2.04
   5  -7  -6   20.05    2.40
   5  -7  -6   17.52    2.53
  -5  -7   6   22.13    2.58
   5  -7  -6   17.88    2.55
  -5   7   6   20.68    2.70
   5   7  -6   16.38    3.09
  -5   7   6   18.81    2.59
   4  -7  -6   74.25    5.06
   4  -7  -6   81.26    5.26
   4  -7  -6   75.05    5.09
  -4  -7   6   72.53    4.99
   4   7  -6   62.33    5.87
  -4   7   6   75.35    5.61
   3  -7  -6    7.61    1.53
   3  -7  -6    5.60    1.38
  -3  -7   6    6.03    1.33
  -3   7   6    8.99    2.13
   3   7  -6    7.20    2.25
   2  -7  -6  144.21    9.00
  -2  -7   6  142.80    8.77
   2  -7  -6  144.04    8.89
   2   7  -6  136.58    9.35
  -2   7   6  148.33    9.54
  -1  -7   6   14.14    2.15
   1  -7  -6   18.65    2.38
   1  -7  -6   15.41    2.18
   1   7  -6   24.36    3.00
   1   7  -6   20.22    2.72
  -1   7   6   20.45    2.99
   0  -7   6   90.16    6.20
   0  -7  -6   93.26    6.41
   0   7  -6   92.88    6.44
   0   7  -6   96.92    6.43
   0   7   6   98.73    7.31
   0   7  -6  103.26    6.74
  -1  -7  -6   79.12    5.44
  -1  -7  -6   73.80    5.81
   1  -7   6   73.90    5.36
  -1   7  -6   86.04    5.59
  -1   7  -6   85.89    6.13
   1   7   6   73.55    6.63
  -2  -7  -6   13.81    2.22
  -2  -7  -6   22.43    3.22
  -2   7  -6   21.26    3.11
  -2   7  -6   21.76    3.15
   2   7   6   18.90    3.59
  -3  -7  -6   77.00    6.16
  -3  -7  -6   85.01    5.76
  -3   7  -6   71.28    6.71
   3   7   6   70.99    7.49
  -4  -7  -6    0.85    2.62
  -4  -7  -6    4.14    2.28
  -4   7  -6    9.63    3.14
  -4   7  -6    0.61    3.54
   4   7   6    4.04    3.92
   6  -8  -6   20.78    3.17
  -6  -8   6   14.24    2.60
   6  -8  -6   21.04    2.81
   6  -8  -6   16.83    2.47
   6   8  -6   16.95    3.83
  -6   8   6   23.47    2.91
   5  -8  -6   35.06    3.13
  -5  -8   6   26.12    3.26
   5  -8  -6   27.07    3.33
   5  -8  -6   33.20    3.44
  -5   8   6   37.19    3.84
   5   8  -6   27.59    4.19
   4  -8  -6    8.64    1.69
  -4  -8   6    4.48    1.54
   4  -8  -6    7.85    1.88
   4  -8  -6    7.87    1.73
  -4   8   6    4.95    2.36
   4   8  -6    5.91    2.87
  -3  -8   6   72.73    5.19
   3  -8  -6   79.52    5.30
   3  -8  -6   77.52    5.51
   3   8  -6   62.12    6.09
  -3   8   6   80.12    6.03
   2  -8  -6    4.53    1.49
   2  -8  -6    3.39    2.53
  -2  -8   6    2.69    1.42
   2   8  -6    6.19    2.36
  -2   8   6    8.19    2.49
  -1  -8   6   89.93    6.02
   1  -8  -6   92.30    6.10
   1  -8  -6   93.96    6.31
   1   8  -6   92.26    6.55
  -1   8   6   80.14    7.03
   0  -8  -6   33.31    3.59
   0  -8   6   34.66    3.34
   0  -8  -6   37.08    3.23
   0   8   6   34.21    4.91
  -1  -8  -6   40.65    3.70
  -1  -8  -6   43.28    4.07
   1  -8   6   43.39    3.80
   1   8   6   32.95    5.34
  -1   8  -6   37.67    3.84
  -1   8  -6   38.68    4.62
  -2  -8  -6   50.29    4.68
   2  -8   6   45.83    4.79
  -2  -8  -6   53.23    4.29
  -2   8  -6   40.01    5.38
   2   8   6   47.63    6.23
  -2   8  -6   38.25    6.13
  -3  -8  -6    3.63    2.41
  -3  -8  -6   -0.11    2.06
  -3   8  -6    0.98    2.47
   3   8   6   -0.54    3.94
  -3   8  -6   -3.47    3.21
   5  -9  -6   10.49    2.34
   5  -9  -6   11.73    2.30
  -5  -9   6    6.23    2.16
   5  -9  -6   10.33    2.08
  -5   9   6    9.34    3.40
   5   9  -6   12.95    4.08
   4  -9  -6   35.56    3.83
  -4  -9   6   31.03    3.55
   4  -9  -6   35.56    3.69
  -4   9   6   36.91    4.52
  -3  -9   6    4.65    1.68
   3  -9  -6    5.59    1.95
   3  -9  -6    5.66    1.93
   3   9  -6    5.89    2.94
  -3   9   6    4.16    2.76
   2  -9  -6   20.76    2.74
  -2  -9   6   17.95    2.35
   2  -9  -6   16.48    2.43
   2   9  -6   31.58    4.25
  -2   9   6   17.64    3.92
   1  -9  -6   11.58    2.33
  -1  -9   6    7.11    1.96
   1  -9  -6   10.18    2.04
  -1   9   6    8.92    3.33
   0  -9  -6   11.94    2.06
   0  -9  -6   11.44    2.38
   0  -9   6   10.59    2.22
   0   9   6    7.46    3.47
   1  -9   6    9.37    2.40
  -1  -9  -6    9.89    2.19
  -1  -9  -6   13.83    2.58
   1   9   6   12.88    4.14
   2 -10  -6    2.44    2.16
  -2 -10   6    1.95    1.99
   2 -10  -6    2.14    1.89
  10   0  -7   20.09    3.61
  -9   0   7   68.73    5.53
   9   0  -7   69.71    5.86
  -8   0   7    6.12    1.75
   8   0  -7    4.66    1.82
   7   0  -7   84.60    5.75
   7   0  -7   77.69    6.09
  -7   0   7   83.84    5.45
   6   0  -7   68.43    4.79
   6   0  -7   68.78    4.71
  -5   0   7    2.10    0.55
   5   0  -7    2.63    0.94
   5   0  -7    2.99    0.99
   4   0  -7   63.52    4.33
  -4   0   7   64.06    3.95
   4   0  -7   66.25    4.27
  -3   0   7   86.87    5.05
   3   0  -7   83.98    5.30
   3   0  -7   75.42    5.29
   2   0  -7   15.34    1.59
  -2   0   7   13.76    1.97
  -2   0   7   13.63    1.52
   2   0  -7   14.06    1.76
   1   0  -7  153.67    9.76
   1   0  -7  155.80    9.57
  -1   0   7  163.72    9.88
   0   0  -7    9.18    1.78
   0   0   7    9.87    1.23
   0   0   7   11.81    1.79
   0   0  -7    9.09    1.60
   1   0   7   80.35    5.86
   1   0   7   90.23    6.19
  -1   0  -7   95.32    6.22
  -1   0  -7   91.43    6.16
   2   0   7   17.49    2.54
  -2   0  -7   14.59    2.29
  -2   0  -7   13.63    2.62
  -3   0  -7   42.66    4.38
  -3   0  -7   56.30    4.91
   3   0   7   40.83    4.48
  -4   0  -7    8.15    2.54
  -4   0  -7   13.80    3.35
   4   0   7   11.21    3.06
  -5   0  -7   22.24    3.95
  -5   0  -7   14.10    3.10
   5   0   7   16.59    3.70
  -6   0  -7    9.92    3.35
  -6   0  -7    8.19    4.04
 -10  -1   7   31.32    4.56
  10  -1  -7   40.93    4.96
 -10   1   7   31.73    4.61
  10   1  -7   34.12    5.10
   9  -1  -7    6.09    2.83
  -9  -1   7    3.87    2.27
   9   1  -7    8.75    2.61
  -9   1   7    4.63    2.13
  -8  -1   7   44.91    3.95
   8  -1  -7   43.82    4.09
  -8   1   7   46.65    3.81
  -7  -1   7    6.82    1.52
   7  -1  -7    8.12    1.58
   7   1  -7    4.50    1.50
   7   1  -7    4.76    1.58
  -7   1   7    5.83    1.36
  -6  -1   7   40.22    2.89
   6  -1  -7   38.96    3.50
   6  -1  -7   41.25    3.29
   6   1  -7   40.05    3.34
   6   1  -7   40.38    3.00
  -6   1   7   44.27    2.96
   5  -1  -7   63.80    4.17
   5  -1  -7   68.19    4.47
   5  -1  -7   69.46    4.54
   5   1  -7   66.29    4.55
  -5   1   7   65.99    4.14
   4  -1  -7   31.85    2.39
   4  -1  -7   33.71    2.55
  -4  -1   7   33.70    2.14
   4   1  -7   30.46    2.57
   4   1  -7   30.35    2.43
  -4   1   7   33.01    2.21
   3  -1  -7  101.63    6.55
   3  -1  -7  103.31    6.47
  -3  -1   7  106.87    6.34
  -3   1   7  100.79    6.80
   3   1  -7  108.67    6.61
   3   1  -7  106.78    6.57
   2  -1  -7   97.43    5.88
   2  -1  -7   97.40    5.88
  -2  -1   7  100.46    5.81
   2   1  -7   84.42    5.80
  -2   1   7   91.00    6.19
   2   1  -7   82.80    6.11
  -1  -1   7   45.07    3.62
   1  -1  -7   44.84    3.47
   1  -1  -7   46.94    3.16
   1   1  -7   44.94    3.82
  -1   1   7   53.10    3.16
  -1   1   7   49.50    3.78
   1   1  -7   48.01    3.33
   0  -1  -7  123.95    8.21
   0  -1   7  127.83    8.36
   0  -1  -7  130.46    8.96
   0  -1   7  132.84    7.87
   0   1   7  136.66    7.91
   0   1  -7  126.71    8.06
   0   1  -7  137.44    8.51
   0   1  -7  139.78    7.97
   0   1   7  126.31    8.46
   1  -1   7    1.02    1.46
  -1  -1  -7    2.67    1.35
  -1  -1  -7    1.74    1.49
  -1   1  -7    6.81    1.54
  -1   1  -7    4.10    1.71
   1   1   7    4.55    1.57
   1   1   7    2.04    1.03
  -2  -1  -7   85.56    6.83
   2  -1   7   96.89    6.56
  -2  -1  -7   90.91    6.47
  -2   1  -7   91.44    6.53
  -2   1  -7   98.70    6.63
   2   1   7   90.74    6.64
   3  -1   7    7.57    2.30
  -3  -1  -7    8.00    2.11
  -3  -1  -7    7.28    2.69
   3   1   7    7.26    2.47
  -3   1  -7    7.10    2.61
  -3   1  -7    5.87    2.17
  -4  -1  -7   37.68    4.31
   4  -1   7   39.46    4.63
  -4  -1  -7   40.44    5.12
   4   1   7   36.86    4.96
  -4   1  -7   35.82    4.39
  -4   1  -7   38.16    5.11
  -5  -1  -7   21.35    4.15
  -5  -1  -7   23.60    3.60
   5  -1   7   23.83    3.90
   5   1   7   33.85    4.66
  -5   1  -7   25.39    4.35
  -5   1  -7   33.08    4.41
 -10  -2   7   -0.34    2.78
  10  -2  -7    2.68    2.76
 -10   2   7    1.31    2.60
  10   2  -7   -3.42    3.01
   9  -2  -7   18.76    2.82
  -9  -2   7   17.27    2.85
   9   2  -7   13.94    3.14
  -9   2   7   18.33    2.81
   8  -2  -7   13.09    2.21
  -8  -2   7   11.16    2.15
  -8   2   7   12.35    2.09
   8   2  -7   10.61    2.40
  -7  -2   7   20.25    2.72
   7  -2  -7   17.14    2.62
   7   2  -7   31.64    3.11
   7   2  -7   24.81    2.61
  -7   2   7   31.11    2.57
  -6  -2   7   20.46    2.07
   6  -2  -7   18.34    2.61
   6  -2  -7   20.90    2.21
   6   2  -7   24.67    1.90
   6   2  -7   19.17    2.38
  -6   2   7   22.33    2.06
   5  -2  -7   33.32    2.62
   5  -2  -7   37.40    3.01
   5  -2  -7   40.53    2.89
   5  -2  -7   36.09    2.66
  -5   2   7   44.50    2.79
   5   2  -7   43.65    3.16
  -4  -2   7   65.99    4.10
   4  -2  -7   65.84    4.11
   4  -2  -7   67.25    4.25
   4  -2  -7   64.92    4.19
   4  -2  -7   67.07    4.46
   4   2  -7   64.56    4.52
   4   2  -7   69.99    4.18
  -3  -2   7   24.48    1.96
   3  -2  -7   24.62    1.69
   3  -2  -7   26.02    1.74
   3  -2  -7   22.68    2.07
   3  -2  -7   23.02    1.94
   3   2  -7   23.63    2.09
  -3   2   7   21.93    2.47
   3   2  -7   19.32    2.05
   2  -2  -7  125.34    7.61
   2  -2  -7  121.83    7.39
   2  -2  -7  123.44    7.41
   2   2  -7  121.60    7.65
  -2   2   7  127.49    8.04
   2   2  -7  128.11    7.78
   1  -2  -7   30.17    2.27
   1   2  -7   20.89    2.60
   1   2  -7   22.14    2.04
  -1   2   7   23.58    1.85
  -1   2   7   22.88    2.73
   0  -2  -7   61.26    4.05
   0  -2  -7   61.13    3.93
   0  -2   7   62.27    3.89
   0  -2   7   57.52    4.24
   0   2   7   57.57    4.46
   0   2  -7   56.36    3.88
   0   2  -7   46.26    4.41
   0   2   7   55.71    3.85
   0   2  -7   56.82    3.67
  -1  -2  -7   86.74    5.88
  -1  -2  -7   95.67    5.94
   1  -2   7   96.03    6.10
   1  -2   7   93.37    5.87
  -1   2  -7   82.27    6.23
  -1   2  -7   85.33    5.68
   1   2   7   87.31    6.31
  -1   2  -7   80.95    5.62
  -2  -2  -7    1.71    1.43
   2  -2   7    2.62    1.91
  -2  -2  -7    0.10    1.71
  -2   2  -7    3.41    2.02
   2   2   7   -0.66    1.83
  -2   2  -7   -0.48    2.13
   3  -2   7   75.23    5.73
  -3  -2  -7   70.46    6.04
  -3  -2  -7   66.42    5.50
  -3   2  -7   77.06    5.98
   3   2   7   76.84    6.25
  -3   2  -7   79.11    5.99
  -4  -2  -7   21.13    3.05
  -4  -2  -7   18.91    3.77
   4  -2   7   26.81    4.23
  -4   2  -7   27.23    3.89
   4   2   7   24.98    4.81
  -4   2  -7   28.17    3.37
  -5  -2  -7   23.83    4.30
  -5  -2  -7   17.34    3.24
   5  -2   7   15.04    3.53
   5   2   7   14.92    4.14
  -5   2  -7   17.73    3.40
  -5   2  -7   15.62    3.94
  -9  -3   7    9.93    2.83
  -9   3   7   10.78    2.53
   9   3  -7   15.09    3.16
  -8  -3   7   49.32    4.55
   8  -3  -7   52.46    4.37
   8   3  -7   48.54    4.86
  -8   3   7   56.10    4.30
   7  -3  -7   69.85    4.77
   7  -3  -7   65.46    4.16
  -7  -3   7   64.49    4.91
   7   3  -7   56.75    5.11
  -7   3   7   66.70    4.62
   6  -3  -7   45.46    3.47
   6  -3  -7   42.37    3.01
  -6  -3   7   49.57    4.07
   6   3  -7   43.77    3.77
   6   3  -7   43.17    3.04
  -6   3   7   43.99    3.29
   5  -3  -7   90.48    5.91
   5  -3  -7   93.55    5.69
   5  -3  -7   94.98    5.89
   5  -3  -7   86.05    5.63
   5   3  -7   89.74    6.11
  -5   3   7   92.95    5.73
   4  -3  -7   21.22    1.86
  -4  -3   7   23.58    1.93
   4  -3  -7   21.96    1.78
   4  -3  -7   22.18    1.90
   4  -3  -7   22.20    2.08
   4   3  -7   21.28    2.73
  -4   3   7   19.84    2.53
   4   3  -7   21.52    2.25
   3  -3  -7  136.98    8.40
   3  -3  -7  135.27    8.48
   3  -3  -7  141.37    8.66
  -3  -3   7  153.03    9.41
   3  -3  -7  137.56    8.40
  -3   3   7  148.41    9.03
   3   3  -7  133.04    8.66
   3   3  -7  143.74    8.49
   2  -3  -7    0.12    0.66
   2  -3  -7    0.83    0.77
   2  -3  -7   -0.13    0.61
  -2   3   7    1.77    1.20
   2   3  -7    0.96    1.08
   2   3  -7    1.24    0.85
   1  -3  -7  103.87    6.46
   1  -3  -7  101.48    6.55
  -1   3   7  104.12    7.08
   1   3  -7  104.26    6.83
   1   3  -7  100.49    6.55
  -1   3   7  116.38    6.73
   0  -3   7   21.39    2.68
   0  -3  -7   25.37    2.32
   0  -3  -7   25.35    2.27
   0   3   7   27.17    3.00
   0   3  -7   26.35    2.25
   0   3  -7   27.64    2.04
   0   3  -7   24.80    2.95
  -1  -3  -7   26.76    2.48
   1  -3   7   20.26    2.66
  -1  -3  -7   23.58    2.49
   1  -3   7   23.93    3.15
  -1   3  -7   23.82    2.16
   1   3   7   18.32    3.09
  -1   3  -7   21.91    3.09
  -1   3  -7   23.27    2.23
  -2  -3  -7   56.99    4.25
  -2  -3  -7   60.17    4.49
   2  -3   7   55.67    4.42
  -2   3  -7   47.86    4.87
  -2   3  -7   52.32    4.25
   2   3   7   55.84    4.99
  -2   3  -7   56.00    3.93
   3  -3   7    3.23    2.03
  -3  -3  -7    3.46    2.30
   3   3   7    5.08    2.61
  -3   3  -7    2.63    2.94
  -3   3  -7    2.07    2.12
  -4  -3  -7   24.03    3.06
   4  -3   7   26.48    3.91
  -4  -3  -7   25.75    4.91
  -4   3  -7   18.74    3.45
   4   3   7   18.84    3.81
  -4   3  -7   19.82    3.42
  -5  -3  -7   24.98    3.57
  -5   3  -7   28.26    3.90
   5   3   7   25.66    4.68
  -5   3  -7   23.86    4.23
  -9  -4   7   64.42    5.90
  -9   4   7   65.44    5.52
   9   4  -7   59.23    6.38
  -8  -4   7   17.14    2.96
   8  -4  -7   19.63    2.89
   8  -4  -7   19.19    2.17
  -8   4   7   20.47    2.99
   8   4  -7   15.57    3.03
  -7  -4   7   63.75    5.39
   7  -4  -7   68.51    4.65
   7  -4  -7   75.39    5.13
   7   4  -7   72.17    5.68
  -7   4   7   74.32    5.07
   6  -4  -7   99.80    6.46
   6  -4  -7  106.51    6.63
   6  -4  -7   95.11    6.32
   6   4  -7   96.83    7.03
  -6   4   7  108.12    6.57
   6   4  -7  102.94    6.29
  -5  -4   7   12.83    2.06
  -5  -4   7   16.40    1.79
   5  -4  -7   21.03    2.08
   5  -4  -7   16.33    1.89
   5  -4  -7   18.94    1.88
  -5   4   7   17.68    1.89
   5   4  -7   15.80    2.51
  -4  -4   7  140.83    9.40
   4  -4  -7  154.87    9.39
   4  -4  -7  155.18    9.40
   4  -4  -7  155.21    9.57
   4   4  -7  153.79    9.76
  -4   4   7  172.10    9.98
   4   4  -7  161.34    9.33
   3  -4  -7   31.88    2.41
   3  -4  -7   34.18    2.67
   3  -4  -7   32.52    2.50
   3   4  -7   29.27    2.74
  -3   4   7   30.64    3.19
   3   4  -7   30.39    2.60
   2  -4  -7   62.28    4.32
   2  -4  -7   61.85    4.27
  -2   4   7   73.56    5.09
   2   4  -7   66.97    4.51
   2   4  -7   66.05    4.55
  -1  -4   7   32.49    2.36
  -1  -4   7   36.88    2.89
   1  -4  -7   34.18    2.73
   1  -4  -7   35.66    2.81
   1   4  -7   39.71    2.91
   1   4  -7   34.97    2.41
   1   4  -7   37.04    3.17
  -1   4   7   39.94    3.65
   0  -4  -7   17.90    1.95
   0  -4  -7   18.45    2.00
   0   4  -7   15.73    2.25
   0   4  -7   15.12    1.74
   0   4  -7   14.15    1.94
   0   4   7   15.41    2.45
  -1  -4  -7   23.55    2.35
  -1  -4  -7   23.76    2.48
  -1   4  -7   19.53    2.21
  -1   4  -7   18.30    2.62
  -1   4  -7   14.55    2.53
  -1   4  -7   24.67    2.91
   1   4   7   18.11    2.77
  -2  -4  -7    3.52    1.70
  -2  -4  -7    3.12    1.45
  -2   4  -7    2.81    1.58
  -2   4  -7    2.30    2.07
   2   4   7    5.01    2.30
  -2   4  -7    4.00    1.27
  -3  -4  -7    9.13    2.38
   3  -4   7    7.35    2.06
  -3  -4  -7    6.95    1.90
  -3   4  -7    6.64    2.27
  -3   4  -7    5.28    1.52
   3   4   7    6.99    3.05
  -3   4  -7    7.63    2.52
  -4  -4  -7    9.33    3.04
  -4  -4  -7    9.03    2.40
  -4   4  -7    4.92    2.96
   4   4   7    5.81    3.49
  -4   4  -7    5.47    2.95
  -5  -4  -7    6.62    3.83
  -5  -4  -7    2.92    2.84
  -5   4  -7   -1.72    3.22
   5   4   7    1.67    4.10
  -5   4  -7    4.59    3.52
  -9  -5   7   -0.69    3.07
  -9   5   7    1.39    2.37
   8  -5  -7   65.10    4.47
  -8  -5   7   54.72    5.61
   8  -5  -7   69.60    4.94
   8   5  -7   61.34    5.98
  -8   5   7   55.22    5.23
   7  -5  -7   52.81    4.21
  -7  -5   7   51.52    6.14
   7  -5  -7   57.77    4.29
   7  -5  -7   57.40    4.02
   7   5  -7   47.26    5.13
  -7   5   7   56.15    4.36
   6  -5  -7   23.90    2.55
   6  -5  -7   21.78    2.33
  -6  -5   7   19.35    2.89
   6  -5  -7   21.04    2.37
  -6   5   7   22.81    2.54
   6   5  -7   22.69    3.33
   5  -5  -7  123.34    7.11
  -5  -5   7  106.88    6.91
   5  -5  -7  120.53    6.95
   5  -5  -7  121.38    7.02
   5   5  -7  100.75    7.44
  -5   5   7  103.10    6.97
   5   5  -7   96.65    6.69
   4  -5  -7    5.75    1.13
   4  -5  -7    4.39    1.11
   4  -5  -7    3.72    1.15
  -4  -5   7    3.70    0.90
  -4  -5   7    2.93    0.93
   4   5  -7    2.00    1.53
  -4   5   7    4.22    1.75
   3  -5  -7   79.75    4.99
  -3  -5   7   76.77    4.72
   3  -5  -7   78.35    4.99
  -3  -5   7   77.48    4.71
   3   5  -7   71.66    5.38
  -3   5   7   74.36    5.59
   3   5  -7   71.21    5.02
  -2  -5   7   21.84    2.13
   2  -5  -7   23.73    2.31
   2  -5  -7   24.94    2.28
  -2  -5   7   21.12    1.91
   2   5  -7   31.69    2.66
  -2   5   7   32.58    3.35
   2   5  -7   29.51    2.72
  -1  -5   7   25.02    2.43
  -1  -5   7   25.92    2.03
   1  -5  -7   28.94    2.41
   1  -5  -7   28.03    2.38
   1   5  -7   21.58    2.72
   1   5  -7   20.26    2.51
  -1   5   7   22.03    3.01
   0  -5  -7   22.67    2.50
   0  -5  -7   22.69    2.54
   0  -5   7   23.16    3.01
   0  -5   7   21.55    2.20
   0   5  -7   28.65    3.19
   0   5  -7   28.86    2.33
   0   5  -7   30.12    3.16
   0   5   7   26.46    3.54
   0   5  -7   31.78    2.72
  -1  -5  -7   -1.30    1.08
  -1  -5  -7    0.10    1.28
  -1   5  -7    0.18    1.21
   1   5   7    1.73    2.13
  -1   5  -7   -0.06    1.29
  -1   5  -7    0.78    2.01
  -2  -5  -7   28.51    3.13
  -2  -5  -7   27.89    3.39
   2   5   7   29.12    4.37
  -2   5  -7   25.53    3.53
  -2   5  -7   34.34    3.27
  -2   5  -7   30.83    2.87
  -3  -5  -7    3.90    2.32
  -3  -5  -7    5.22    1.98
  -3   5  -7    1.29    2.74
   3   5   7    4.78    3.09
  -3   5  -7    4.47    2.23
  -4  -5  -7   18.81    2.93
  -4  -5  -7   16.36    3.36
   4   5   7   14.59    4.21
  -4   5  -7   15.49    3.69
  -4   5  -7   17.54    3.40
   8  -6  -7    3.77    2.00
  -8  -6   7    6.01    2.98
   8  -6  -7    4.70    1.90
   8  -6  -7    7.06    1.78
  -8   6   7    5.57    2.26
   8   6  -7    2.34    3.10
   7  -6  -7   20.67    2.80
   7  -6  -7   18.83    2.67
   7  -6  -7   23.35    3.03
  -7  -6   7   20.65    3.05
  -7   6   7   19.26    3.16
   7   6  -7   14.33    3.36
  -6  -6   7   39.29    3.68
   6  -6  -7   42.53    3.34
   6  -6  -7   42.30    3.46
   6  -6  -7   41.37    3.37
   6   6  -7   32.85    4.39
  -6   6   7   30.76    3.38
   5  -6  -7    5.38    1.44
   5  -6  -7    3.66    1.33
  -5  -6   7    4.39    1.36
   5  -6  -7    4.24    1.32
   5   6  -7    5.25    2.13
  -5   6   7    4.89    1.87
   4  -6  -7   65.47    4.40
   4  -6  -7   69.86    4.47
  -4  -6   7   64.87    4.22
   4  -6  -7   62.68    4.48
   4   6  -7   48.99    4.99
  -4   6   7   59.17    5.01
   3  -6  -7    7.05    1.36
  -3  -6   7    5.35    1.10
   3  -6  -7    5.64    1.31
   3   6  -7    4.77    1.50
   3   6  -7    1.75    1.72
  -3   6   7    6.05    2.07
   2  -6  -7   47.04    3.68
   2  -6  -7   50.60    3.76
  -2  -6   7   50.11    3.47
   2   6  -7   53.49    4.06
  -2   6   7   49.26    4.63
   2   6  -7   52.11    4.23
  -1  -6   7   34.23    4.65
  -1  -6   7   45.54    3.12
   1  -6  -7   46.09    3.38
   1  -6  -7   45.40    3.43
   1   6  -7   42.02    3.82
   1   6  -7   36.48    3.71
  -1   6   7   39.63    4.33
   0  -6  -7   21.24    2.70
   0  -6   7   25.55    2.46
   0  -6  -7   21.91    2.75
   0   6   7   25.76    3.86
   0   6  -7   28.01    3.12
   0   6  -7   29.03    2.57
   0   6  -7   31.77    3.52
  -1  -6  -7   95.12    6.55
  -1  -6  -7   98.65    6.40
  -1   6  -7   89.47    6.31
  -1   6  -7   96.30    7.16
   1   6   7   93.20    7.52
  -1   6  -7   97.14    6.30
  -2  -6  -7    0.73    1.80
  -2  -6  -7    3.74    1.68
   2   6   7   -1.81    2.71
  -2   6  -7    2.39    1.85
  -2   6  -7   -0.49    2.45
  -3  -6  -7   59.50    4.93
  -3  -6  -7   62.56    5.50
  -3   6  -7   41.44    6.04
   3   6   7   53.60    6.61
  -3   6  -7   66.45    5.28
  -4  -6  -7   19.58    3.61
  -4  -6  -7   17.03    2.99
   4   6   7   12.08    4.50
  -4   6  -7   10.08    3.93
  -4   6  -7   16.80    3.42
  -7  -7   7    3.87    2.44
   7  -7  -7   -0.23    1.93
   7  -7  -7    1.99    1.79
   7  -7  -7    1.20    1.72
  -7   7   7    3.46    1.95
   7   7  -7   -2.03    2.96
   6  -7  -7    7.60    3.03
  -6  -7   7    1.99    1.85
   6  -7  -7    7.07    1.80
   6  -7  -7    5.11    1.63
   6   7  -7    2.38    2.81
  -6   7   7    3.53    1.75
   5  -7  -7    8.93    1.82
   5  -7  -7    7.90    1.73
   5  -7  -7    9.28    1.74
  -5  -7   7   10.48    1.67
  -5   7   7    7.52    2.34
   4  -7  -7    1.87    1.30
  -4  -7   7    1.47    1.28
   4  -7  -7    2.33    1.36
   4  -7  -7    1.18    1.32
   4   7  -7   -0.02    2.22
  -4   7   7    1.03    2.07
  -3  -7   7   22.03    2.34
   3  -7  -7   25.01    2.74
   3  -7  -7   21.65    3.31
   3   7  -7   23.43    3.22
  -3   7   7   24.77    3.65
   2  -7  -7   19.40    2.54
   2  -7  -7   26.49    2.65
  -2  -7   7   21.02    2.25
   2   7  -7   15.45    2.75
  -2   7   7   20.04    3.23
   2   7  -7   19.35    2.54
   1  -7  -7   34.12    3.28
  -1  -7   7   33.17    2.87
   1  -7  -7   33.02    3.04
  -1   7   7   34.11    5.93
   1   7  -7   31.34    3.74
   1   7  -7   31.36    3.75
   0  -7   7   81.61    5.35
   0  -7  -7   85.22    5.77
   0  -7  -7   84.98    5.50
   0   7  -7   73.50    5.54
   0   7  -7   71.72    5.75
   0   7  -7   79.00    6.17
   0   7   7   67.69    6.50
  -1  -7  -7    7.52    2.05
   1  -7   7   11.14    1.86
  -1  -7  -7    8.37    1.87
  -1   7  -7    6.63    2.72
  -1   7  -7    7.37    1.90
   1   7   7    7.51    3.13
  -2  -7  -7   98.03    6.50
  -2  -7  -7   89.18    6.74
   2   7   7   79.70    7.93
  -2   7  -7   92.71    6.50
  -2   7  -7   87.31    7.44
  -3  -7  -7    7.59    2.61
  -3  -7  -7   11.09    2.45
  -3   7  -7    5.62    3.58
  -3   7  -7    2.59    2.56
   3   7   7    4.80    3.93
   6  -8  -7   24.55    3.45
   6  -8  -7   25.21    3.19
   6  -8  -7   27.34    3.39
   6   8  -7   27.49    4.41
  -5  -8   7    2.73    1.67
   5  -8  -7    2.29    1.70
   5  -8  -7    1.79    1.77
   5  -8  -7    4.14    1.84
  -5   8   7    5.34    2.40
   5   8  -7    3.19    3.07
  -4  -8   7   34.26    3.54
   4  -8  -7   40.37    3.88
   4  -8  -7   41.08    3.71
   4  -8  -7   47.01    3.81
  -4   8   7   45.49    4.82
   4   8  -7   46.31    5.36
  -3  -8   7    5.48    1.56
   3  -8  -7    6.58    1.67
   3  -8  -7    4.81    2.60
   3   8  -7    4.41    2.79
  -3   8   7    5.85    2.69
  -2  -8   7   27.84    2.95
   2  -8  -7   31.64    3.83
   2  -8  -7   31.23    3.32
  -2   8   7   27.93    4.05
   2   8  -7   26.52    3.60
  -1  -8   7   31.20    3.24
   1  -8  -7   38.77    3.65
   1  -8  -7   37.11    3.47
   1   8  -7   34.07    4.24
  -1   8   7   33.10    5.09
   0  -8  -7    8.39    2.13
   0  -8  -7   11.17    1.96
   0  -8   7   10.92    2.00
   0   8  -7   12.52    2.76
   0   8   7   14.77    3.58
   1  -8   7   61.06    4.90
  -1  -8  -7   68.08    5.01
  -1  -8  -7   65.33    5.30
  -1   8  -7   58.74    6.18
   1   8   7   50.37    6.79
  -1   8  -7   62.64    5.00
   2  -8   7    0.50    2.05
  -2  -8  -7    1.01    2.10
  -2  -8  -7    1.50    2.33
   2   8   7    3.76    3.99
  -2   8  -7   -0.48    2.27
  -2   8  -7    3.05    3.54
  -4  -9   7    0.81    1.62
   4  -9  -7   -0.12    2.15
   4  -9  -7    2.69    1.92
   4  -9  -7    3.01    1.84
   4   9  -7   -3.47    3.81
  -4   9   7   -0.83    3.13
   3  -9  -7   36.05    3.67
   3  -9  -7   36.84    3.89
  -3  -9   7   32.12    3.46
  -3   9   7   31.49    5.04
   3   9  -7   37.59    5.40
   2  -9  -7   18.95    2.53
   2  -9  -7   17.14    2.71
  -2  -9   7   19.03    2.92
  -2   9   7   19.32    4.02
   1  -9  -7    6.82    2.19
  -1  -9   7    8.35    1.98
   1  -9  -7    5.59    1.98
  -1   9   7   10.89    3.74
   0  -9  -7   21.94    2.89
   0  -9   7   26.60    3.57
   0  -9  -7   31.81    3.94
   0   9   7   25.59    4.66
 -10   0   8   49.68    4.94
  -9   0   8    3.53    1.90
   9   0  -8    1.78    2.26
   8   0  -8  102.94    7.20
  -8   0   8  100.58    6.65
   7   0  -8   17.79    2.43
  -7   0   8   20.54    2.07
   6   0  -8   23.42    2.43
  -6   0   8   20.62    1.78
   5   0  -8  104.85    6.49
  -5   0   8   99.92    5.93
   5   0  -8   91.92    6.21
   4   0  -8   13.98    1.74
  -4   0   8   11.33    1.26
   4   0  -8   12.99    1.69
   3   0  -8   50.89    3.53
   3   0  -8   45.23    3.88
  -2   0   8   84.46    6.32
   2   0  -8   82.90    5.39
   2   0  -8   80.14    5.67
   1   0  -8    0.99    0.80
   1   0  -8   -1.70    1.39
  -1   0   8   -0.24    1.29
   0   0   8  113.42    7.61
   0   0  -8  112.41    7.57
   0   0   8  113.74    6.88
  -1   0  -8   41.99    3.77
   1   0   8   38.80    3.86
   1   0   8   29.38    3.56
  -1   0  -8   33.97    3.74
  -2   0  -8   10.29    2.45
  -2   0  -8   15.36    2.84
   2   0   8   17.06    2.84
  -3   0  -8   54.61    5.24
   3   0   8   56.74    5.58
  -3   0  -8   55.04    5.70
   4   0   8    2.66    3.25
  -4   0  -8   -2.31    3.58
  -4   0  -8   -1.20    2.52
  -5   0  -8   25.54    3.91
   5   0   8   26.06    5.28
  -5   0  -8   40.74    6.04
  -9  -1   8   57.77    5.13
   9  -1  -8   56.90    5.23
  -9   1   8   53.16    4.71
   9   1  -8   56.45    5.39
  -8  -1   8   21.88    2.80
   8  -1  -8   25.52    3.18
   8   1  -8   21.63    3.35
  -8   1   8   27.59    2.79
  -7  -1   8   47.41    3.30
   7  -1  -8   46.47    3.86
   7   1  -8   42.36    3.82
  -7   1   8   43.30    3.32
   6  -1  -8   53.53    3.46
   6  -1  -8   46.20    3.96
   6  -1  -8   54.30    3.93
   6   1  -8   50.83    3.99
   5  -1  -8    2.75    1.00
   5  -1  -8    1.70    0.93
  -5  -1   8    2.75    0.60
   5   1  -8    4.33    0.93
   5   1  -8    4.01    1.16
   4  -1  -8   70.53    4.83
   4  -1  -8   67.02    4.69
  -4  -1   8   71.38    4.45
  -4   1   8   71.63    4.49
   4   1  -8   77.14    4.77
   4   1  -8   73.08    4.87
   3  -1  -8   30.16    2.44
   3  -1  -8   29.03    2.57
  -3   1   8   27.52    2.84
   3   1  -8   25.20    2.39
   3   1  -8   28.81    2.79
   2  -1  -8   29.56    2.49
   2  -1  -8   27.39    2.75
   2   1  -8   32.40    2.52
   2   1  -8   25.38    3.10
  -2   1   8   31.21    3.09
   1  -1  -8   81.24    5.34
  -1  -1   8   82.82    5.50
   1  -1  -8   79.50    5.02
   1   1  -8   74.96    5.06
   1   1  -8   70.24    5.53
  -1   1   8   73.31    5.54
  -1   1   8   75.24    4.72
   0  -1   8   35.81    3.47
   0  -1  -8   34.71    3.34
   0  -1  -8   38.78    3.46
   0  -1   8   34.15    2.58
   0   1  -8   40.44    2.84
   0   1   8   32.13    2.66
   0   1   8   34.16    3.59
   0   1  -8   34.65    2.89
   0   1  -8   39.00    3.79
  -1  -1  -8   65.60    5.11
   1  -1   8   62.09    4.58
  -1  -1  -8   55.16    5.24
   1  -1   8   69.59    5.30
   1   1   8   67.13    5.41
  -1   1  -8   76.76    5.44
  -1   1  -8   74.26    4.93
   2  -1   8   39.53    4.28
  -2  -1  -8   36.67    3.89
  -2  -1  -8   35.71    4.47
  -2   1  -8   42.61    4.22
   2   1   8   33.60    4.25
  -2   1  -8   35.55    4.08
  -3  -1  -8   38.16    5.00
  -3  -1  -8   33.86    4.19
   3  -1   8   34.22    4.62
  -3   1  -8   35.40    4.30
  -3   1  -8   30.77    3.99
   3   1   8   35.74    4.84
  -4  -1  -8   32.54    4.26
   4  -1   8   52.13    5.48
   4   1   8   37.35    5.78
  -4   1  -8   43.70    5.02
  -4   1  -8   43.41    5.98
  -5  -1  -8   -1.96    2.88
   5  -1   8   10.09    5.30
  -5  -1  -8    3.40    3.72
  -5   1  -8   -5.27    3.68
   5   1   8    4.13    4.14
  -5   1  -8    9.83    3.29
  -9  -2   8   22.64    3.50
   9  -2  -8   28.61    3.84
  -9   2   8   23.47    3.43
   9   2  -8   17.92    3.47
  -8  -2   8   14.75    2.06
   8   2  -8    8.55    2.23
  -8   2   8   10.17    1.87
  -7  -2   8   24.67    2.55
   7  -2  -8   34.17    2.99
  -7   2   8   24.92    2.49
   6  -2  -8    4.43    0.91
   6  -2  -8    4.77    0.92
   6  -2  -8    5.22    1.36
   6   2  -8    1.59    1.33
  -6   2   8    3.37    0.92
   5  -2  -8   33.23    2.63
  -5  -2   8   32.32    2.25
   5  -2  -8   32.95    2.80
   5  -2  -8   29.74    2.52
   5   2  -8   36.20    3.02
   5   2  -8   36.94    2.41
   4  -2  -8    1.24    0.70
   4  -2  -8    0.83    0.88
   4  -2  -8    0.97    0.55
   4  -2  -8    1.20    0.86
  -4  -2   8    1.91    0.76
   4   2  -8    0.79    0.92
  -4   2   8    0.40    1.74
   4   2  -8    0.47    0.93
   3  -2  -8   53.89    3.69
   3  -2  -8   56.90    4.12
   3  -2  -8   53.50    3.68
   3  -2  -8   54.68    4.00
  -3   2   8   68.55    4.70
   3   2  -8   68.31    4.20
   3   2  -8   64.73    4.20
   2  -2  -8   16.19    1.49
   2  -2  -8   14.60    1.44
   2  -2  -8   16.53    1.89
   2  -2  -8   17.26    2.01
   2   2  -8   16.42    1.87
   2   2  -8   16.08    2.18
  -2   2   8   19.61    2.57
   1  -2  -8   53.06    4.08
   1  -2  -8   53.97    3.80
   1   2  -8   57.25    3.98
   1   2  -8   51.88    4.54
  -1   2   8   63.53    4.67
  -1   2   8   60.49    3.73
   0  -2   8   84.96    5.52
   0  -2  -8   83.98    5.93
   0  -2   8   86.20    6.16
   0  -2  -8   88.65    5.83
   0   2  -8   92.15    5.75
   0   2   8   83.97    5.68
   0   2   8   93.71    6.48
   0   2  -8   86.45    6.42
   0   2  -8   95.32    5.51
  -1  -2  -8   18.06    2.52
   1  -2   8   22.32    2.57
   1  -2   8   24.24    3.16
  -1  -2  -8   16.94    2.37
  -1   2  -8   20.83    2.43
  -1   2  -8   19.46    2.79
  -1   2  -8   16.68    2.21
   1   2   8   18.73    2.91
   2  -2   8   91.22    6.65
  -2  -2  -8   69.46    6.35
  -2  -2  -8   83.28    6.57
  -2   2  -8   91.93    6.20
  -2   2  -8   92.37    7.00
   2   2   8   85.11    6.78
   3  -2   8   22.75    3.23
  -3  -2  -8   18.09    2.83
  -3  -2  -8   13.98    3.38
  -3   2  -8   20.23    3.27
  -3   2  -8   19.91    3.14
   3   2   8   15.98    4.74
  -4  -2  -8   16.76    3.99
  -4  -2  -8   21.45    3.55
   4  -2   8   25.10    3.85
   4   2   8   21.54    4.35
  -4   2  -8   24.89    3.96
  -4   2  -8   27.39    3.74
  -5  -2  -8   30.90    4.50
  -5  -2  -8   36.15    5.33
  -5   2  -8   34.49    4.52
  -5   2  -8   46.44    6.19
   9  -3  -8   10.77    2.46
   9   3  -8   10.60    3.08
  -9   3   8   11.53    2.25
  -8  -3   8   26.55    3.33
  -8   3   8   35.23    3.27
   8   3  -8   30.68    4.10
   7  -3  -8    1.81    0.90
   7  -3  -8   -0.25    1.37
  -7  -3   8    1.21    1.38
  -7   3   8    0.80    1.14
   7   3  -8   -0.40    1.59
   6  -3  -8   80.74    5.12
   6  -3  -8   84.23    5.19
   6  -3  -8   86.04    5.56
  -6   3   8   78.56    5.22
   6   3  -8   73.92    5.76
  -5  -3   8   25.75    1.86
   5  -3  -8   23.28    2.45
   5  -3  -8   24.02    2.12
   5  -3  -8   23.74    2.34
   5  -3  -8   24.54    2.00
   5   3  -8   20.70    2.60
   5   3  -8   24.00    2.09
   4  -3  -8   91.91    5.90
   4  -3  -8   95.12    5.85
   4  -3  -8   94.18    6.01
   4  -3  -8   97.39    6.22
  -4  -3   8   97.14    6.29
   4   3  -8   91.53    6.30
  -4   3   8  102.25    6.68
   4   3  -8   94.96    5.93
   3  -3  -8   45.70    3.07
   3  -3  -8   44.70    3.38
   3  -3  -8   41.73    3.05
   3  -3  -8   48.49    3.32
   3   3  -8   43.72    3.47
   3   3  -8   46.27    3.45
  -3   3   8   47.90    4.04
   2  -3  -8   80.07    4.97
   2  -3  -8   75.58    4.94
   2  -3  -8   79.32    5.17
  -2   3   8   80.73    5.78
   2   3  -8   82.52    5.43
   2   3  -8   74.85    5.21
   1  -3  -8   85.79    5.34
   1  -3  -8   84.29    5.14
   1   3  -8   81.15    5.28
  -1   3   8   71.35    5.30
   1   3  -8   81.66    5.74
  -1   3   8   73.43    5.92
   0  -3   8   27.13    2.72
   0  -3  -8   27.01    2.75
   0  -3  -8   29.29    2.72
   0   3  -8   21.17    3.07
   0   3  -8   27.49    2.80
   0   3  -8   28.65    2.63
   0   3   8   35.58    3.54
  -1  -3  -8   89.03    5.80
  -1  -3  -8   82.73    5.85
   1  -3   8   75.54    5.83
  -1   3  -8   82.32    5.37
  -1   3  -8   67.55    6.24
   1   3   8   83.50    6.42
  -1   3  -8   82.68    5.42
  -2  -3  -8    1.42    1.73
   2  -3   8   -0.28    2.01
  -2  -3  -8   -1.21    1.98
  -2   3  -8    0.30    2.32
  -2   3  -8    3.08    1.78
  -2   3  -8    0.14    1.24
  -3  -3  -8   25.74    3.89
   3  -3   8   33.23    4.31
  -3  -3  -8   31.83    4.02
  -3   3  -8   33.32    3.31
  -3   3  -8   34.32    4.66
   3   3   8   33.02    5.30
  -3   3  -8   43.86    4.35
  -4  -3  -8   14.67    3.10
  -4  -3  -8   17.09    3.98
   4  -3   8   19.76    3.85
  -4   3  -8   15.70    3.65
  -4   3  -8   12.27    4.58
   4   3   8   24.68    4.52
   9  -4  -8   18.29    2.88
  -9   4   8   18.26    2.80
   9   4  -8   17.43    3.64
   8  -4  -8   29.13    4.76
   8   4  -8   29.63    4.20
  -8   4   8   25.18    3.27
   7  -4  -8   85.72    5.80
   7  -4  -8   90.37    6.11
   7  -4  -8   88.09    5.59
  -7   4   8   89.53    5.91
   7   4  -8   82.73    6.59
   6  -4  -8    0.48    0.96
   6  -4  -8    2.08    1.03
   6  -4  -8    3.14    1.48
   6   4  -8    0.81    1.76
  -6   4   8    0.91    1.03
   5  -4  -8  159.51    9.91
   5  -4  -8  164.48   10.16
   5  -4  -8  164.48    9.91
   5   4  -8  167.66   10.43
   4  -4  -8   36.06    3.03
   4  -4  -8   32.54    2.66
   4  -4  -8   36.45    2.82
   4   4  -8   37.08    2.83
  -4   4   8   39.02    3.66
   4   4  -8   35.98    3.25
   3  -4  -8  104.53    6.93
   3  -4  -8  112.09    7.15
   3  -4  -8  109.67    6.85
  -3   4   8  115.50    7.66
   3   4  -8  112.16    7.22
   3   4  -8  111.68    7.00
   2  -4  -8  105.08    7.11
   2  -4  -8  105.95    7.01
   2   4  -8  123.95    7.34
   2   4  -8  120.38    7.31
  -2   4   8  113.36    7.78
  -1  -4   8   17.44    1.66
   1  -4  -8   23.67    2.11
   1  -4  -8   20.34    2.24
  -1   4   8   17.78    2.99
   1   4  -8   15.62    2.22
   1   4  -8   11.55    2.23
   0  -4  -8   55.53    4.44
   0  -4  -8   54.70    4.44
   0   4   8   63.52    5.31
   0   4  -8   66.45    4.12
   0   4  -8   67.85    4.47
   0   4  -8   64.01    5.13
  -1  -4  -8    9.20    1.98
  -1   4  -8    7.88    2.62
  -1   4  -8   10.20    1.71
  -1   4  -8   15.10    2.16
  -2  -4  -8   19.59    2.58
  -2  -4  -8   19.79    2.89
  -2   4  -8   14.32    3.22
   2   4   8   19.17    3.54
  -2   4  -8   23.61    3.14
  -2   4  -8   21.87    2.69
  -3  -4  -8   11.40    2.56
  -3  -4  -8    8.92    3.01
  -3   4  -8    9.87    2.63
  -3   4  -8   13.78    3.21
   3   4   8   10.51    3.77
  -4  -4  -8    8.10    3.65
  -4  -4  -8    7.24    2.88
   4   4   8    7.10    4.01
  -4   4  -8    5.73    3.41
  -4   4  -8    7.13    3.27
   8  -5  -8   30.99    2.91
   8  -5  -8   29.63    3.74
   8   5  -8   23.18    3.93
   7  -5  -8   27.62    2.88
   7  -5  -8   26.53    2.70
   7  -5  -8   29.19    3.33
   7   5  -8   28.38    4.12
  -7   5   8   27.05    3.06
   6  -5  -8  114.83    7.41
   6  -5  -8  117.24    7.26
   6  -5  -8  116.06    7.16
   6   5  -8  106.08    7.90
  -6   5   8  110.24    7.42
   5  -5  -8    4.68    1.24
   5  -5  -8    1.67    1.36
   5  -5  -8    1.14    1.12
   5   5  -8    2.81    1.77
  -5   5   8    3.20    1.85
   4  -5  -8  110.89    6.85
   4  -5  -8  108.00    6.87
   4  -5  -8  115.38    7.09
   4   5  -8   98.36    7.32
   4   5  -8  106.21    6.83
  -4   5   8  111.16    7.57
   3  -5  -8   44.78    3.29
   3  -5  -8   43.85    3.24
   3   5  -8   43.25    3.50
   3   5  -8   39.91    3.68
  -3   5   8   40.06    4.11
   2  -5  -8   31.87    2.71
   2  -5  -8   28.87    2.58
  -2   5   8   23.77    3.70
   2   5  -8   29.18    3.00
   2   5  -8   25.65    3.04
  -1  -5   8   68.58    5.36
   1  -5  -8   84.95    5.40
   1  -5  -8   85.82    5.45
   1   5  -8   79.58    5.54
  -1   5   8   72.99    6.24
   1   5  -8   84.56    5.83
   0  -5  -8    3.42    1.49
   0  -5   8    2.32    1.06
   0   5  -8    1.28    1.17
   0   5  -8    1.36    2.05
   0   5  -8    2.04    1.46
  -1  -5  -8   48.67    3.97
  -1  -5  -8   51.68    3.83
  -1   5  -8   40.87    3.65
   1   5   8   42.63    4.87
  -1   5  -8   28.67    4.06
  -1   5  -8   36.38    3.46
  -2  -5  -8    9.43    2.13
  -2  -5  -8    8.39    3.26
  -2   5  -8    3.94    3.07
  -2   5  -8   13.88    2.56
   2   5   8    6.63    3.22
  -3  -5  -8    9.29    3.11
  -3  -5  -8   11.49    2.61
   3   5   8   14.73    3.90
  -3   5  -8    5.86    2.62
  -3   5  -8    8.49    3.42
   8  -6  -8   25.17    3.32
   8  -6  -8   28.90    3.53
  -8   6   8   31.91    3.79
   7  -6  -8   18.66    2.72
   7  -6  -8   23.29    2.98
   7  -6  -8   20.63    3.86
   7   6  -8   21.15    3.62
   6  -6  -8    4.07    1.50
   6  -6  -8    6.91    1.73
   6  -6  -8    5.47    1.55
   6   6  -8    5.24    2.51
   5  -6  -8   37.33    3.33
   5  -6  -8   38.37    3.32
   5  -6  -8   38.79    3.46
  -5   6   8   39.92    4.16
   5   6  -8   36.89    5.63
   4  -6  -8   12.84    2.00
   4  -6  -8   12.29    1.76
   4  -6  -8   12.98    1.77
  -4   6   8   13.60    2.61
   4   6  -8   10.07    2.37
   3  -6  -8   23.97    2.56
   3  -6  -8   26.36    2.55
   3   6  -8   22.86    3.31
  -3   6   8   19.05    3.07
   3   6  -8   22.49    2.97
  -2  -6   8   41.64    2.94
   2  -6  -8   41.25    3.74
   2  -6  -8   44.11    3.39
   2   6  -8   36.49    3.82
  -2   6   8   34.92    4.38
   2   6  -8   33.86    3.98
   1  -6  -8    6.10    1.54
  -1  -6   8    5.95    1.26
   1  -6  -8    6.52    1.56
   1   6  -8    6.03    2.02
   1   6  -8    3.44    2.06
  -1   6   8    6.40    2.54
   0  -6   8   40.34    3.35
   0  -6  -8   46.25    3.88
   0  -6  -8   53.31    3.95
   0   6  -8   37.38    4.01
   0   6  -8   38.97    3.38
   0   6  -8   42.72    4.57
   0   6   8   38.43    5.00
  -1  -6  -8    2.16    1.67
  -1   6  -8    5.56    1.74
  -1   6  -8    1.65    2.73
   1   6   8    3.29    2.98
  -2  -6  -8   41.05    4.50
  -2  -6  -8   40.43    4.09
   2   6   8   36.54    5.95
  -2   6  -8   35.00    4.62
  -2   6  -8   36.15    5.03
  -3  -6  -8   20.52    3.20
  -3  -6  -8   25.14    3.76
  -3   6  -8   22.68    4.40
   3   6   8   20.30    4.76
   7  -7  -8    9.71    2.29
   7  -7  -8    5.30    2.02
   7  -7  -8   10.55    2.07
   7   7  -8    5.78    3.41
  -7   7   8    5.55    2.20
   6  -7  -8    4.96    1.79
   6  -7  -8    2.82    1.65
   6   7  -8    6.42    3.02
   5  -7  -8    5.87    1.67
   5  -7  -8    2.24    1.93
   5   7  -8    1.00    2.62
  -5   7   8    4.36    2.77
   4  -7  -8    8.94    1.83
   4  -7  -8   11.01    1.90
   4   7  -8   10.79    2.81
  -3  -7   8    0.05    1.34
   3  -7  -8    0.74    1.35
   3  -7  -8    1.97    1.45
   3   7  -8    4.08    2.49
  -3   7   8    1.06    2.26
   2  -7  -8    7.11    1.71
  -2  -7   8    6.62    1.42
   2  -7  -8    8.62    1.80
  -2   7   8    6.44    2.88
   2   7  -8    5.35    2.42
   2   7  -8    5.65    2.26
   1  -7  -8   15.26    2.14
  -1  -7   8   14.37    1.86
   1  -7  -8   14.22    2.67
  -1   7   8   22.21    3.47
   1   7  -8   18.23    2.89
   1   7  -8   12.07    2.69
   0  -7  -8    0.52    1.76
   0  -7   8    0.60    1.43
   0  -7  -8    2.93    1.75
   0   7   8    1.84    3.17
   0   7  -8   -1.29    2.56
  -1  -7  -8   36.63    4.09
   1  -7   8   33.90    3.44
  -1  -7  -8   31.86    3.76
  -1   7  -8   34.62    3.62
  -1   7  -8   31.64    4.32
   1   7   8   30.10    4.85
  -2  -7  -8   13.56    2.90
  -2  -7  -8   10.89    2.54
  -2   7  -8   13.63    2.92
  -2   7  -8   14.88    4.12
   2   7   8    6.83    4.32
   5  -8  -8   35.82    3.71
   5  -8  -8   29.20    3.66
   5  -8  -8   34.64    3.74
  -5   8   8   46.22    4.90
   5   8  -8   37.79    4.97
   4  -8  -8   10.03    2.07
   4  -8  -8   10.01    2.08
   4  -8  -8   13.63    2.40
   4   8  -8   10.37    4.07
  -4   8   8   13.81    3.17
   3  -8  -8   21.53    3.09
   3  -8  -8   16.55    2.40
   3   8  -8   18.27    3.54
  -3   8   8   21.52    3.64
   2  -8  -8   29.20    3.44
   2  -8  -8   28.19    3.47
  -2   8   8   28.71    4.30
   2   8  -8   32.88    4.85
   1  -8  -8    1.69    1.75
   1  -8  -8    2.63    1.87
   1   8  -8    2.03    2.58
  -1   8   8   10.28    3.52
   0  -8  -8   35.30    4.13
   0  -8  -8   37.52    3.99
   0  -8   8   32.41    3.52
   0   8  -8   46.26    5.30
   0   8   8   29.83    5.12
   9   0  -9   45.28    4.87
   8   0  -9   71.26    5.64
   7   0  -9   31.37    3.36
   6   0  -9  181.96   11.05
   6   0  -9  188.28   11.53
   5   0  -9   -0.86    1.20
   5   0  -9   -0.53    0.97
  -5   0   9    0.48    1.31
   4   0  -9  125.70    7.98
   4   0  -9  125.74    8.00
   3   0  -9   26.33    3.24
   3   0  -9   32.66    2.77
   2   0  -9   14.72    1.99
  -2   0   9   13.79    2.30
   2   0  -9   15.03    2.36
   1   0  -9   31.29    2.80
  -1   0   9   30.36    3.59
   1   0  -9   30.06    3.52
   0   0   9    9.24    1.22
   0   0  -9    8.86    2.22
   0   0  -9    6.80    1.86
   0   0   9    8.76    2.29
   1   0   9   12.25    3.36
  -1   0  -9   12.06    2.46
  -1   0  -9    9.67    2.60
  -2   0  -9   54.50    5.29
  -2   0  -9   54.46    5.28
   2   0   9   53.12    5.68
  -3   0  -9    3.19    3.07
  -3   0  -9   -2.49    2.63
   4   0   9   28.23    4.69
  -4   0  -9   23.11    4.48
  -4   0  -9   21.02    3.90
   9  -1  -9   29.94    4.23
   9   1  -9   35.24    4.41
   8  -1  -9   28.03    3.46
  -8   1   9   22.92    2.60
   8   1  -9   28.86    3.67
   7  -1  -9   83.75    5.68
   7   1  -9   72.11    5.68
  -7   1   9   75.74    4.94
   6  -1  -9   13.65    1.93
   6  -1  -9   13.93    1.99
   6   1  -9   11.72    1.87
   5  -1  -9  113.02    6.95
   5  -1  -9  109.07    6.69
  -5  -1   9   99.98    6.35
   5   1  -9  102.60    6.91
   5   1  -9  102.88    6.56
   4  -1  -9    8.80    1.56
   4  -1  -9   10.18    1.81
   4   1  -9    9.50    1.53
   4   1  -9   12.49    1.79
   3  -1  -9   49.27    3.64
   3  -1  -9   41.69    3.76
   3   1  -9   49.62    4.29
   3   1  -9   47.92    3.59
  -3   1   9   48.79    4.12
   2  -1  -9   57.18    4.46
   2  -1  -9   56.04    4.20
   2   1  -9   57.47    4.78
   2   1  -9   58.73    4.16
  -2   1   9   61.40    4.81
  -1  -1   9    5.72    1.98
   1  -1  -9    4.72    1.30
   1  -1  -9    5.01    1.74
   1  -1  -9    4.06    1.60
  -1   1   9    3.81    1.93
   1   1  -9    6.57    1.35
  -1   1   9    3.93    0.87
   1   1  -9    5.58    2.11
   0  -1   9   42.55    4.40
   0  -1  -9   45.92    4.28
   0  -1  -9   45.63    4.31
   0   1  -9   46.18    3.65
   0   1   9   51.45    4.57
   0   1  -9   49.26    4.65
  -1  -1  -9   26.53    3.98
   1  -1   9   22.69    3.31
  -1   1  -9   20.06    3.11
   1   1   9   22.21    3.48
  -1   1  -9   21.05    4.18
  -2  -1  -9    9.81    2.69
   2  -1   9   12.08    3.12
  -2  -1  -9   10.63    3.20
  -2   1  -9   16.73    3.08
  -2   1  -9   18.69    2.98
   2   1   9   18.36    4.22
   3  -1   9   38.77    5.52
  -3  -1  -9   42.16    5.88
  -3  -1  -9   42.36    4.96
  -3   1  -9   43.27    5.09
  -3   1  -9   38.72    5.28
   3   1   9   34.89    4.98
  -4  -1  -9    6.92    3.85
  -4  -1  -9    0.01    3.22
   4  -1   9    3.06    5.33
   4   1   9    1.01    4.12
  -4   1  -9    5.10    3.29
  -4   1  -9    5.41    4.38
  -9   2   9    9.13    2.64
   9   2  -9   11.24    2.80
   8  -2  -9   39.79    4.09
   8   2  -9   42.98    4.43
  -8   2   9   39.23    4.60
   7  -2  -9   19.61    2.73
   7  -2  -9   18.58    1.93
   7  -2  -9   19.07    2.00
  -7   2   9   18.92    2.06
   7   2  -9   19.10    2.63
   6  -2  -9   32.81    2.93
   6  -2  -9   28.84    2.16
   6  -2  -9   25.84    2.43
   6   2  -9   23.06    3.65
   5  -2  -9   21.41    2.35
   5  -2  -9   20.35    2.20
   5  -2  -9   21.62    2.11
   5  -2  -9   20.10    1.69
   5   2  -9   18.34    2.52
   5   2  -9   19.74    2.04
   4  -2  -9    8.86    1.54
   4  -2  -9    9.94    1.16
   4  -2  -9   10.47    1.60
   4   2  -9    8.32    1.66
   4   2  -9    9.87    1.57
  -4   2   9    8.93    1.96
   3  -2  -9   25.79    2.49
   3  -2  -9   26.31    1.92
   3  -2  -9   22.94    2.55
  -3   2   9   23.72    3.14
   3   2  -9   24.42    2.87
   3   2  -9   23.05    2.54
   2  -2  -9    5.46    1.52
   2  -2  -9    8.48    1.66
   2  -2  -9    6.60    1.36
   2  -2  -9    6.75    0.96
   2   2  -9    7.40    2.04
   2   2  -9    8.32    1.50
  -2   2   9    7.94    2.02
   1  -2  -9   39.28    3.37
   1  -2  -9   38.98    2.95
  -1   2   9   32.65    3.75
   1   2  -9   31.77    3.80
  -1   2   9   29.25    2.56
   1   2  -9   29.66    2.87
   0  -2  -9    5.85    1.85
   0  -2  -9    3.73    1.74
   0  -2   9    3.23    1.98
   0   2  -9    4.75    2.35
   0   2  -9    5.89    1.46
   0   2  -9    1.74    1.91
   0   2   9    3.97    2.38
  -1  -2  -9   48.33    4.34
  -1  -2  -9   43.23    4.62
  -1   2  -9   44.63    3.74
  -1   2  -9   35.37    5.74
   1   2   9   45.90    5.45
  -1   2  -9   47.01    3.71
  -2  -2  -9    4.88    3.08
  -2  -2  -9   10.91    2.61
   2  -2   9   12.55    2.92
  -2   2  -9    9.02    2.37
  -2   2  -9   10.35    1.92
  -2   2  -9    8.98    3.08
   2   2   9    8.22    3.16
  -3  -2  -9   30.35    4.45
   3  -2   9   31.98    5.04
  -3  -2  -9   21.09    3.55
  -3   2  -9   29.45    3.97
  -3   2  -9   31.68    4.72
   3   2   9   27.72    4.66
  -4  -2  -9   25.69    4.11
  -4  -2  -9   23.50    4.94
  -4   2  -9   40.93    5.37
  -4   2  -9   28.87    4.72
   9  -3  -9   29.94    3.85
   9   3  -9   19.75    3.61
  -9   3   9   18.04    2.60
   8  -3  -9    4.12    1.88
   8   3  -9    1.30    2.14
  -8   3   9    1.90    1.49
   7  -3  -9   36.84    3.53
   7  -3  -9   36.89    2.87
   7  -3  -9   34.75    2.81
  -7   3   9   33.99    3.03
   7   3  -9   33.36    3.88
   6  -3  -9   17.51    1.80
   6  -3  -9   16.82    1.97
   6  -3  -9   17.40    2.40
   6   3  -9   10.99    2.19
   5  -3  -9   23.42    2.03
   5  -3  -9   24.42    2.37
   5  -3  -9   24.44    2.66
   5   3  -9   25.51    2.24
   5   3  -9   25.60    2.83
   4  -3  -9   59.95    4.14
   4  -3  -9   62.09    3.84
   4  -3  -9   60.90    4.30
   4  -3  -9   60.73    3.91
   4   3  -9   56.14    4.07
   4   3  -9   52.88    4.38
  -4   3   9   54.29    4.84
   3  -3  -9    0.57    1.15
   3  -3  -9    1.92    0.81
   3  -3  -9    2.06    1.11
   3  -3  -9    1.93    0.88
   3   3  -9   -0.23    1.13
  -3   3   9    0.76    1.65
   3   3  -9    2.77    1.48
   2  -3  -9   77.79    5.04
   2  -3  -9   70.64    4.91
   2  -3  -9   76.57    5.24
   2   3  -9   83.80    5.62
   2   3  -9   72.26    5.24
  -2   3   9   80.00    5.98
   1  -3  -9    1.03    1.37
   1  -3  -9    1.25    1.15
   1   3  -9    2.78    1.30
  -1   3   9    0.91    2.57
   1   3  -9    4.87    2.03
   0  -3  -9   72.07    5.55
   0  -3  -9   85.34    5.57
   0   3  -9   74.74    5.39
   0   3   9   76.74    7.37
   0   3  -9   77.46    5.39
  -1  -3  -9   15.43    2.59
   1  -3   9   17.17    2.73
  -1  -3  -9   13.54    2.45
  -1   3  -9   13.77    3.17
   1   3   9   14.09    3.17
  -1   3  -9   13.27    1.91
  -1   3  -9   14.37    2.09
   2  -3   9   45.94    5.48
  -2  -3  -9   55.18    5.35
  -2  -3  -9   44.25    4.69
  -2   3  -9   51.00    4.39
  -2   3  -9   38.69    5.44
   2   3   9   53.12    5.98
  -2   3  -9   49.28    4.11
  -3  -3  -9   26.44    4.46
   3  -3   9   23.44    4.15
  -3  -3  -9   24.95    3.78
   3   3   9   36.47    5.08
  -3   3  -9   40.32    5.67
  -3   3  -9   32.88    3.70
  -3   3  -9   32.18    4.30
   8  -4  -9   15.25    2.14
   8  -4  -9   17.39    2.59
  -8   4   9   17.36    2.25
   8   4  -9   14.97    3.04
   7  -4  -9    5.07    1.37
   7  -4  -9    7.57    1.45
   7  -4  -9    5.85    1.79
   7   4  -9    6.87    2.26
  -7   4   9    6.43    1.50
   6  -4  -9   65.17    4.44
   6  -4  -9   66.70    4.47
   6   4  -9   62.70    5.26
   5  -4  -9   18.41    2.04
   5  -4  -9   21.61    2.59
   5  -4  -9   20.96    2.33
   5   4  -9   21.27    2.89
   5   4  -9   19.20    2.25
   4  -4  -9   52.04    3.86
   4  -4  -9   53.58    4.07
   4  -4  -9   55.57    3.67
   4   4  -9   46.85    4.20
  -4   4   9   54.81    4.68
   4   4  -9   50.71    4.23
   3  -4  -9  120.65    7.68
   3  -4  -9  121.21    8.04
   3  -4  -9  121.84    7.86
  -3   4   9  129.57    8.64
   3   4  -9  131.14    7.95
   3   4  -9  125.37    8.13
   2  -4  -9    3.39    1.41
   2  -4  -9    4.30    1.17
   2   4  -9    2.82    1.78
   2   4  -9    2.94    1.44
  -2   4   9    4.46    2.17
   1  -4  -9  170.91   10.15
   1  -4  -9  168.66   10.26
   1   4  -9  170.10   10.31
   1   4  -9  164.15   10.65
  -1   4   9  138.87   12.76
   0  -4  -9   23.65    3.05
   0  -4  -9   27.05    3.02
   0   4  -9   22.45    2.93
   0   4   9   30.35    4.27
   0   4  -9   22.90    2.34
  -1  -4  -9   61.17    4.74
  -1  -4  -9   58.03    4.55
   1   4   9   42.67    5.47
  -1   4  -9   51.40    4.66
  -1   4  -9   50.54    4.18
  -1   4  -9   36.57    4.74
  -2  -4  -9   28.13    4.13
  -2  -4  -9   33.82    4.66
  -2   4  -9   36.46    3.83
   2   4   9   34.77    5.62
  -2   4  -9   34.32    3.67
  -2   4  -9   32.62    4.38
  -3  -4  -9   10.73    3.54
  -3  -4  -9    8.56    2.95
  -3   4  -9    7.81    2.96
   3   4   9   12.93    4.33
  -3   4  -9    7.94    3.64
   8  -5  -9   20.51    2.78
   8  -5  -9   19.92    2.88
  -8   5   9   21.82    3.11
   8   5  -9   16.30    3.61
   7  -5  -9   47.82    3.80
   7  -5  -9   50.52    4.21
   7  -5  -9   47.67    3.91
   7   5  -9   41.26    5.10
  -7   5   9   51.09    4.01
   6  -5  -9    1.06    1.30
   6  -5  -9    5.86    2.29
   6  -5  -9    4.08    1.38
   6   5  -9    0.42    2.04
   5  -5  -9   69.21    4.58
   5  -5  -9   64.04    4.48
  -5   5   9   61.38    7.46
   5   5  -9   59.34    6.07
   4  -5  -9   69.63    4.59
   4  -5  -9   69.52    4.47
   4   5  -9   58.77    4.66
   4   5  -9   55.25    5.03
   3  -5  -9   22.22    3.41
   3  -5  -9   23.05    2.51
   3  -5  -9   24.16    3.40
  -3   5   9   22.86    4.35
   3   5  -9   29.78    3.22
   3   5  -9   29.19    3.22
   2  -5  -9  101.93    7.66
   2  -5  -9  120.03    7.16
   2   5  -9  109.39    7.48
  -2   5   9  107.08    8.05
   2   5  -9  113.46    7.51
   1  -5  -9    0.03    1.37
   1  -5  -9    2.34    1.49
   1   5  -9   -0.54    2.13
  -1   5   9    2.43    2.37
   1   5  -9    0.62    1.67
   0  -5  -9   78.45    5.12
   0  -5  -9   73.06    5.11
   0   5   9   65.03    6.16
   0   5  -9   52.62    5.81
   0   5  -9   58.24    4.46
   0   5  -9   64.27    5.06
  -1  -5  -9   20.17    2.92
  -1  -5  -9   17.41    2.64
   1   5   9   14.04    3.67
  -1   5  -9   18.41    3.56
  -1   5  -9   19.49    2.34
  -1   5  -9   19.73    2.76
  -2  -5  -9   13.37    2.70
  -2  -5  -9   20.04    3.19
  -2   5  -9   15.94    2.59
   2   5   9   14.59    4.12
  -2   5  -9    5.55    3.68
   7  -6  -9    8.51    3.38
   7  -6  -9    5.06    1.72
   7  -6  -9    3.18    1.84
   7   6  -9    3.01    2.89
   6  -6  -9   46.96    3.92
   6  -6  -9   46.36    4.06
   6  -6  -9   45.59    3.85
   6   6  -9   49.11    5.33
   5  -6  -9    2.63    1.70
   5  -6  -9    1.47    1.70
   5  -6  -9    3.20    1.65
  -5   6   9    3.53    2.38
   5   6  -9    2.82    2.38
   4  -6  -9   37.88    3.16
   4  -6  -9   35.98    3.79
   4  -6  -9   35.37    3.41
  -4   6   9   28.12    4.37
   4   6  -9   29.30    3.98
   4   6  -9   28.80    3.58
   3  -6  -9   28.74    2.91
   3  -6  -9   30.61    3.13
   3   6  -9   30.83    3.93
   3   6  -9   28.20    3.56
  -3   6   9   26.11    3.71
   2  -6  -9    2.96    1.59
   2  -6  -9    4.14    1.54
  -2   6   9    3.01    2.72
   2   6  -9    4.17    2.22
   2   6  -9    4.87    2.16
   1  -6  -9   41.31    4.52
   1  -6  -9   36.77    3.64
   1   6  -9   35.01    4.94
   1   6  -9   34.32    4.10
  -1   6   9   40.71    5.04
   0  -6  -9    8.31    2.13
   0  -6  -9    9.76    2.07
   0   6  -9   10.53    2.43
   0   6  -9    8.04    3.02
   0   6   9    4.43    3.21
  -1  -6  -9   22.86    2.95
  -1  -6  -9   25.05    3.79
  -1   6  -9   23.15    4.06
   1   6   9   15.64    4.16
  -1   6  -9   23.79    3.37
  -2  -6  -9   20.83    3.23
   6  -7  -9    2.64    1.86
   6  -7  -9   -0.08    1.67
   6  -7  -9   -0.04    1.72
   6   7  -9   -0.93    3.13
   5  -7  -9   16.70    2.43
   5  -7  -9   17.43    3.31
   5  -7  -9   16.22    2.47
   5   7  -9   15.27    3.57
  -5   7   9   20.26    3.39
   4  -7  -9   -0.09    1.61
   4  -7  -9    0.17    1.56
   4  -7  -9    1.23    2.06
   4   7  -9    1.90    3.02
  -4   7   9   -0.45    2.71
   3  -7  -9   13.58    2.26
   3  -7  -9   12.53    2.03
   3   7  -9   12.22    2.47
   3   7  -9   13.82    3.07
  -3   7   9   11.60    3.23
   2  -7  -9    3.62    1.80
   2   7  -9    7.64    2.55
   2   7  -9    4.40    2.64
  -2   7   9    1.45    3.03
   1  -7  -9    1.31    1.80
   1  -7  -9   -0.09    1.83
  -1   7   9   -0.43    3.14
   1   7  -9    2.30    2.71
   1   7  -9    4.29    2.65
   0  -7  -9   10.64    2.44
   0  -7  -9    9.86    2.27
   0   7  -9   11.05    3.38
   0   7   9    4.75    3.81
   4  -8  -9   25.33    3.44
   3  -8  -9   22.30    2.90
   3  -8  -9   22.98    2.93
  -3   8   9   25.46    4.28
   3   8  -9   28.39    4.17
   2  -8  -9    1.20    1.95
   2  -8  -9    6.10    2.08
   2   8  -9    3.95    2.69
  -2   8   9    3.59    3.59
   9   0 -10   32.04    4.54
   8   0 -10    1.74    2.06
   7   0 -10   99.98    7.00
   6   0 -10    5.61    1.48
   6   0 -10    6.89    1.71
   5   0 -10  115.45    7.47
   4   0 -10   79.64    5.60
   4   0 -10   72.95    5.31
   3   0 -10   31.64    3.72
   3   0 -10   34.02    3.11
   2   0 -10  155.18   10.29
  -2   0  10  161.76   10.46
   2   0 -10  156.52    9.91
   1   0 -10    2.71    1.42
   1   0 -10   -2.18    2.04
  -1   0  10    2.39    2.26
   0   0 -10   67.05    5.01
   0   0 -10   61.33    4.89
   0   0  10   67.10    5.88
   0   0 -10   67.80    5.85
  -1   0 -10   16.94    2.88
  -1   0 -10   16.56    3.36
  -2   0 -10    1.13    2.93
   2   0  10    6.83    3.48
  -2   0 -10    2.30    2.90
   3   0  10   25.52    4.74
  -3   0 -10   18.91    4.65
  -3   0 -10   15.02    3.59
   9  -1 -10    1.15    2.30
   9   1 -10   -0.53    2.47
   8  -1 -10   70.33    5.60
   8   1 -10   64.09    5.58
   7  -1 -10    7.05    1.95
   7   1 -10    6.84    1.99
   6  -1 -10   79.07    5.43
   6  -1 -10   72.50    5.13
   6   1 -10   70.93    5.44
   5  -1 -10   46.61    3.90
   5  -1 -10   42.34    4.18
   5   1 -10   51.47    3.72
   4  -1 -10   52.36    3.97
   4  -1 -10   53.88    4.24
   4   1 -10   48.71    4.03
   4   1 -10   51.27    4.22
   3  -1 -10   72.57    5.64
   3  -1 -10   80.37    5.42
  -3   1  10   82.06    6.00
   3   1 -10   70.92    5.75
   3   1 -10   75.04    5.36
   2  -1 -10   10.54    1.75
   2  -1 -10    7.40    2.20
  -2   1  10   14.49    2.60
   2   1 -10    8.16    2.45
   2   1 -10    9.98    1.80
   1  -1 -10   60.52    5.18
  -1  -1  10   67.06    5.33
   1  -1 -10   63.92    4.55
   1   1 -10   51.85    5.26
   1   1 -10   52.36    4.43
  -1   1  10   56.29    5.35
   0  -1  10   15.23    3.08
   0  -1 -10   12.03    2.67
   0  -1 -10    9.78    2.71
   0   1 -10   12.23    1.82
   0   1 -10   12.13    2.08
   0   1 -10   11.76    3.05
   0   1  10   16.93    4.22
  -1  -1 -10   19.13    3.24
   1  -1  10   20.44    3.50
  -1  -1 -10   16.51    3.19
  -1   1 -10   23.10    3.37
  -1   1 -10   22.16    3.10
  -1   1 -10   19.88    3.59
   1   1  10   17.30    3.87
  -2  -1 -10   21.69    3.59
  -2  -1 -10   21.44    3.87
  -2   1 -10   39.14    5.02
  -2   1 -10   22.48    3.46
   2   1  10   25.35    4.40
  -3  -1 -10    2.77    3.12
  -3   1 -10    3.04    3.18
  -3   1 -10   -2.19    3.33
   8  -2 -10    3.12    1.91
   8   2 -10    4.77    2.33
   7  -2 -10   51.07    4.16
   7  -2 -10   45.16    4.64
   7   2 -10   38.87    4.22
   6  -2 -10   31.25    3.25
   6  -2 -10   33.26    2.94
   6   2 -10   31.35    3.47
   5  -2 -10   32.06    2.97
   5  -2 -10   34.47    3.02
   5   2 -10   24.01    2.67
   5   2 -10   22.05    3.43
   4  -2 -10   36.61    3.43
   4   2 -10   36.85    3.41
   4   2 -10   39.11    3.40
   3  -2 -10   15.03    2.72
   3  -2 -10   12.51    2.11
   3   2 -10    9.67    2.14
   3   2 -10   13.54    1.98
   2  -2 -10   20.10    2.67
   2   2 -10   22.71    2.69
   2   2 -10   21.82    3.01
   1  -2 -10    8.41    2.26
   1  -2 -10   11.88    2.10
   1   2 -10    9.22    2.79
   1   2 -10   13.74    1.99
  -1   2  10   11.45    2.84
   0  -2 -10   13.42    2.73
   0  -2 -10   11.76    2.62
   0  -2  10   14.81    2.90
   0   2 -10   16.59    3.26
   0   2  10   20.29    3.52
   0   2 -10   18.36    2.71
  -1  -2 -10   13.46    3.01
  -1  -2 -10   16.91    3.34
   1  -2  10   14.43    3.31
  -1   2 -10   14.57    2.35
   1   2  10   21.51    4.02
  -1   2 -10   17.90    2.34
  -1   2 -10   10.36    4.05
  -2  -2 -10    7.86    3.01
   2  -2  10   10.75    3.39
  -2  -2 -10   10.76    3.77
   2   2  10   12.15    3.94
  -2   2 -10   10.08    2.32
  -2   2 -10   11.54    2.87
  -2   2 -10   14.97    3.50
   8  -3 -10   33.19    3.78
   8   3 -10   26.82    4.21
   7  -3 -10    8.39    1.51
   7  -3 -10   10.51    2.05
   7   3 -10    7.94    2.30
   6  -3 -10   12.05    1.68
   6  -3 -10   10.65    2.00
   6  -3 -10    9.72    1.64
   6   3 -10    9.50    2.18
   5  -3 -10   24.02    2.71
   5  -3 -10   25.04    2.15
   5  -3 -10   24.07    2.84
   5   3 -10   23.49    2.56
   5   3 -10   26.07    3.06
   4  -3 -10    1.01    1.41
   4  -3 -10   -1.15    1.27
   4  -3 -10   -0.24    0.90
   4   3 -10    1.58    1.51
  -4   3  10    0.47    1.86
   4   3 -10    0.46    1.45
   3  -3 -10   47.28    3.32
   3  -3 -10   49.63    3.95
   3  -3 -10   46.21    3.85
  -3   3  10   42.36    4.54
   3   3 -10   43.24    4.85
   3   3 -10   46.69    3.96
   2  -3 -10   20.48    2.89
   2  -3 -10   16.86    2.61
   2  -3 -10   19.88    2.37
  -2   3  10   15.66    2.91
   2   3 -10   18.70    2.86
   2   3 -10   18.30    2.60
   1  -3 -10   30.38    3.11
   1  -3 -10   31.70    3.51
  -1   3  10   25.86    4.14
   1   3 -10   25.10    3.53
   1   3 -10   25.82    3.06
   0  -3 -10   35.20    4.00
   0  -3 -10   34.48    4.16
   0   3  10   34.82    5.07
   0   3 -10   31.98    4.26
   0   3 -10   36.95    3.58
  -1  -3 -10    7.43    2.88
  -1  -3 -10    3.95    2.53
  -1   3 -10   10.29    3.43
   1   3  10    8.57    3.56
  -1   3 -10   13.90    2.25
   2  -3  10   46.33    5.40
  -2  -3 -10   39.91    5.91
  -2  -3 -10   36.56    5.09
  -2   3 -10   42.86    4.16
   2   3  10   35.41    5.36
  -2   3 -10   47.28    5.86
   8  -4 -10    3.30    2.05
   8   4 -10    6.88    2.87
   7  -4 -10   21.94    2.73
   7  -4 -10   27.85    2.67
   7  -4 -10   19.82    3.19
   7   4 -10   22.66    3.39
   6  -4 -10    2.92    1.60
   6  -4 -10    3.83    1.26
   6  -4 -10    6.20    1.46
   6   4 -10    3.41    2.14
   5  -4 -10   26.63    2.89
   5  -4 -10   27.73    2.75
   5  -4 -10   24.11    3.08
   5   4 -10   30.84    3.56
   5   4 -10   30.22    2.91
   4  -4 -10   49.08    4.10
   4  -4 -10   53.85    4.05
   4  -4 -10   50.11    3.62
   4   4 -10   46.40    5.07
   4   4 -10   51.21    4.03
  -4   4  10   46.57    4.86
   3  -4 -10    5.19    1.61
   3  -4 -10    2.47    1.50
   3  -4 -10    3.61    1.21
  -3   4  10    3.86    2.36
   3   4 -10    4.10    1.89
   3   4 -10    3.15    1.77
   2  -4 -10   83.21    5.90
   2  -4 -10   81.52    5.52
   2   4 -10   88.72    6.32
   2   4 -10   80.01    5.88
  -2   4  10   81.33    6.74
   1  -4 -10   22.08    2.98
   1  -4 -10   23.45    3.37
   1   4 -10   24.50    3.27
  -1   4  10   30.45    4.48
   1   4 -10   23.28    3.44
   0  -4 -10   51.12    4.34
   0  -4 -10   39.50    4.29
   0   4 -10   34.16    4.47
   0   4  10   44.91    5.54
   0   4 -10   38.70    4.03
  -1  -4 -10   84.18    6.49
  -1  -4 -10   74.22    6.17
  -1   4 -10   76.90    5.79
   1   4  10   79.70    7.49
  -1   4 -10   60.44    7.00
  -2  -4 -10    1.56    3.46
  -2  -4 -10    5.31    2.83
  -2   4 -10    3.62    3.73
   7  -5 -10    6.30    1.74
   7  -5 -10    6.74    2.01
   7  -5 -10    4.62    1.69
   7   5 -10    5.86    2.74
   6  -5 -10   51.24    4.27
   6  -5 -10   49.53    3.92
   6  -5 -10   49.78    5.30
   6   5 -10   37.76    4.85
   5  -5 -10   19.25    2.70
   5  -5 -10   18.12    2.46
   5  -5 -10   15.98    2.32
   5   5 -10   14.74    2.89
   5   5 -10   13.94    2.19
  -5   5  10   23.26    3.31
   4  -5 -10   30.41    2.90
   4  -5 -10   34.07    3.38
   4   5 -10   28.66    4.03
   4   5 -10   30.77    3.67
  -4   5  10   33.92    4.38
   3  -5 -10   68.87    5.74
   3  -5 -10   72.81    5.25
   3  -5 -10   66.71    4.96
  -3   5  10   73.28    6.35
   3   5 -10   73.20    5.64
   3   5 -10   76.24    5.50
   2  -5 -10    6.67    1.75
   2  -5 -10    7.52    1.94
   2   5 -10    7.51    2.66
  -2   5  10    6.96    2.83
   2   5 -10    7.58    2.17
   1  -5 -10   78.74    5.70
   1  -5 -10   69.00    5.44
   1   5 -10   73.85    6.33
  -1   5  10   69.63    6.93
   1   5 -10   78.85    5.87
   0  -5 -10   36.61    4.23
   0  -5 -10   38.71    4.08
   0   5  10   29.96    4.71
   0   5 -10   34.01    4.00
   0   5 -10   33.01    4.34
  -1  -5 -10   17.57    3.15
  -1  -5 -10   17.22    2.99
  -1   5 -10   10.40    3.82
   1   5  10   15.51    4.07
   6  -6 -10   21.85    3.39
   6  -6 -10   26.62    3.45
   6  -6 -10   24.26    3.33
   6   6 -10   29.65    4.75
   5  -6 -10   25.64    3.13
   5  -6 -10   26.13    3.04
   5  -6 -10   26.52    3.31
  -5   6  10   28.14    3.83
   5   6 -10   27.45    3.83
   4  -6 -10   33.31    3.62
   4  -6 -10   28.77    3.54
   4  -6 -10   36.61    3.71
   4   6 -10   36.25    4.76
  -4   6  10   40.86    4.99
   4   6 -10   40.00    4.02
   3  -6 -10    4.95    1.96
   3  -6 -10    5.03    1.75
   3  -6 -10    6.58    1.89
  -3   6  10    4.26    2.98
   3   6 -10    8.64    2.63
   3   6 -10    6.00    2.33
   2  -6 -10   37.91    3.65
   2  -6 -10   40.86    3.84
  -2   6  10   29.21    4.56
   2   6 -10   40.30    4.50
   2   6 -10   28.98    3.76
   1  -6 -10   10.07    2.14
   1  -6 -10    5.45    2.26
  -1   6  10    3.59    3.48
   1   6 -10    7.27    2.65
   1   6 -10    7.00    3.06
   0  -6 -10   21.65    4.15
   0  -6 -10   14.95    2.83
   0   6  10   19.02    4.45
   0   6 -10   21.93    4.00
   4  -7 -10   10.65    2.42
   4  -7 -10    7.62    2.24
   4  -7 -10    8.90    2.13
  -4   7  10   12.96    3.57
   4   7 -10    7.96    3.14
   3  -7 -10   19.07    3.50
   3  -7 -10   18.07    2.63
   3   7 -10   26.64    3.41
  -3   7  10   24.22    4.20
   3   7 -10   20.82    4.40
   2  -7 -10    3.82    2.10
   2  -7 -10    2.84    2.02
   2   7 -10    8.36    2.98
   2   7 -10    3.39    2.97
  -2   7  10    1.13    3.59
   8   0 -11   10.03    2.52
   7   0 -11   22.02    3.41
   6   0 -11   25.27    3.13
   6   0 -11   24.14    3.08
   5   0 -11  102.44    6.83
   5   0 -11   94.54    6.77
   4   0 -11   18.46    2.68
   4   0 -11   15.21    2.29
   3   0 -11  126.11    8.82
   3   0 -11  132.06    8.47
   2   0 -11    0.57    2.60
  -2   0  11    2.73    2.39
   2   0 -11    2.43    1.54
   1   0 -11   87.89    7.01
   1   0 -11   83.66    6.23
  -1   0  11   87.34    7.15
   0   0 -11   47.91    4.30
   0   0 -11   42.25    5.37
   0   0  11   37.11    5.42
  -1   0 -11   13.55    3.62
  -1   0 -11   16.39    2.76
   1   0  11   10.80    3.74
   8  -1 -11    6.25    2.35
   8   1 -11    5.79    2.49
   7  -1 -11   26.26    3.44
   7   1 -11   27.95    3.62
   6  -1 -11   37.75    3.80
   6  -1 -11   40.51    3.85
   6   1 -11   41.75    3.91
   6   1 -11   40.27    3.97
   5  -1 -11   15.47    2.16
   5  -1 -11   13.78    2.29
   5   1 -11   10.97    2.08
   5   1 -11   11.71    2.20
   4  -1 -11   75.61    5.55
   4  -1 -11   76.84    5.94
   4   1 -11   76.40    5.61
   4   1 -11   80.38    5.85
   3  -1 -11    3.41    2.37
   3  -1 -11    4.41    1.68
   3   1 -11    6.41    1.77
   3   1 -11    7.57    2.55
  -3   1  11   10.83    2.65
   2  -1 -11   84.28    5.84
   2  -1 -11   71.50    7.77
   2   1 -11   69.50    6.47
  -2   1  11   83.96    6.70
   2   1 -11   83.50    5.85
   1  -1 -11   24.28    3.14
  -1  -1  11   29.93    4.54
   1  -1 -11   25.02    3.70
   1   1 -11   21.64    3.19
   1   1 -11   28.44    3.82
  -1   1  11   24.29    3.90
   0  -1 -11   36.34    4.91
   0  -1  11   30.78    5.07
   0  -1 -11   36.10    4.01
   0   1 -11   40.64    5.32
   0   1 -11   27.06    3.74
   0   1  11   43.80    5.38
   1  -1  11   34.72    4.70
  -1  -1 -11   33.22    4.42
  -1   1 -11   26.62    4.29
  -1   1 -11   36.94    4.16
   1   1  11   34.25    4.81
   8  -2 -11   63.83    5.45
   8   2 -11   61.95    5.71
   7  -2 -11   23.66    3.35
   7   2 -11   22.83    3.67
   6  -2 -11   14.65    2.30
   6  -2 -11   12.18    2.93
   6   2 -11   11.14    2.30
   5  -2 -11   51.09    4.20
   5  -2 -11   40.19    4.24
   5   2 -11   49.36    3.97
   5   2 -11   52.05    4.36
   4  -2 -11    2.53    1.55
   4  -2 -11    4.55    1.92
  -4   2  11    6.54    2.43
   4   2 -11    3.41    1.71
   4   2 -11    3.52    1.95
   3  -2 -11   46.20    4.33
   3  -2 -11   45.15    3.80
  -3   2  11   38.84    4.67
   3   2 -11   39.91    4.32
   3   2 -11   34.30    3.78
   2  -2 -11   17.60    2.79
   2  -2 -11   11.57    2.73
   2   2 -11   14.75    2.53
  -2   2  11   18.55    3.29
   2   2 -11   12.98    2.94
   1  -2 -11   18.51    2.66
   1  -2 -11   24.29    3.28
  -1   2  11   18.64    3.73
   1   2 -11   11.40    3.27
   1   2 -11    9.78    3.04
   0  -2  11   15.68    3.56
   0  -2 -11   16.65    3.41
   0   2 -11   20.80    3.25
   0   2 -11   15.03    3.54
   0   2  11   20.60    4.00
   1  -2  11    4.75    3.31
  -1  -2 -11    1.72    3.18
  -1   2 -11    3.04    3.47
   1   2  11    2.31    3.53
  -1   2 -11    5.14    2.26
   7  -3 -11   38.13    4.07
   7   3 -11   39.20    4.50
   6  -3 -11   30.64    3.76
   6  -3 -11   35.37    3.34
   6   3 -11   25.28    3.79
   5  -3 -11   19.16    2.51
   5  -3 -11   10.85    2.29
   5   3 -11   15.62    2.67
   5   3 -11   21.50    2.73
   4  -3 -11   28.80    3.25
   4  -3 -11   27.48    3.41
  -4   3  11   25.91    3.74
   4   3 -11   29.00    3.47
   4   3 -11   28.51    3.41
   3  -3 -11    5.27    1.81
   3  -3 -11    2.46    3.13
   3   3 -11    4.48    2.22
   3   3 -11    3.87    1.86
  -3   3  11    1.51    2.48
   2  -3 -11   -0.41    1.97
   2  -3 -11    4.82    1.85
  -2   3  11    3.82    2.81
   2   3 -11   10.79    4.41
   1  -3 -11   17.65    3.05
   1  -3 -11   16.41    3.08
  -1   3  11   22.28    3.85
   1   3 -11   18.53    3.47
   1   3 -11   19.54    3.74
   0  -3 -11   -3.96    2.51
   0  -3 -11    2.72    2.96
   0   3 -11    2.15    2.52
   0   3 -11    0.59    3.12
   0   3  11   -3.85    3.30
  -1  -3 -11   17.44    4.30
  -1  -3 -11   19.18    3.55
  -1   3 -11   22.28    4.36
   7  -4 -11    3.73    1.95
   7   4 -11    0.97    2.46
   6  -4 -11   31.25    3.59
   6  -4 -11   26.95    3.19
   6   4 -11   25.47    4.08
   5  -4 -11    6.20    1.78
   5  -4 -11    9.41    2.15
   5   4 -11    9.87    1.91
   5   4 -11    5.97    2.33
   4  -4 -11   12.88    2.22
   4  -4 -11    9.42    2.15
  -4   4  11    8.11    2.93
   4   4 -11   12.06    2.29
   4   4 -11   12.58    2.40
   3  -4 -11   34.64    3.81
   3  -4 -11   34.46    3.70
   3   4 -11   34.08    3.94
   3   4 -11   35.48    4.07
  -3   4  11   33.83    4.44
   2  -4 -11    6.61    2.09
   2  -4 -11    3.25    2.13
   2  -4 -11    7.16    1.91
  -2   4  11    7.34    3.11
   2   4 -11    7.78    2.77
   1  -4 -11   23.20    3.19
   1  -4 -11   26.66    3.80
   1   4 -11   25.27    3.84
   1   4 -11   21.87    3.00
  -1   4  11   20.34    4.10
   0  -4 -11   52.91    5.21
   0  -4 -11   50.42    5.23
   0   4 -11   31.53    4.89
   0   4  11   36.20    5.39
   0   4 -11   43.22    4.53
   6  -5 -11   16.10    2.38
   6  -5 -11   15.43    2.58
   6   5 -11   17.31    3.35
   5  -5 -11   16.70    2.44
   5  -5 -11   18.06    2.70
   5   5 -11   19.33    3.23
  -5   5  11   17.03    3.35
   4  -5 -11   29.34    4.11
   4  -5 -11   31.16    3.82
  -4   5  11   37.12    5.02
   4   5 -11   34.44    4.39
   4   5 -11   43.21    4.00
   3  -5 -11   -0.65    1.61
   3  -5 -11    1.18    1.85
   3  -5 -11   -1.25    1.75
   3   5 -11   -1.31    2.21
   3   5 -11   -1.19    2.79
  -3   5  11    2.79    2.93
   2  -5 -11   39.52    4.64
   2  -5 -11   39.77    4.26
  -2   5  11   30.80    4.82
   2   5 -11   38.55    6.04
   2   5 -11   44.66    4.92
   1  -5 -11   18.03    2.84
   1  -5 -11   20.61    3.09
   1   5 -11   18.02    3.07
  -1   5  11   17.85    4.08
   1   5 -11   14.30    3.62
   7   0 -12    1.15    2.07
   6   0 -12   13.24    2.49
   5   0 -12    2.43    1.80
   5   0 -12   -2.23    2.17
   4   0 -12   35.69    3.78
   4   0 -12   33.46    4.66
   3   0 -12   24.59    3.39
   3   0 -12   24.89    3.78
   2   0 -12   51.19    4.62
  -2   0  12   45.72    5.61
   2   0 -12   50.65    5.80
   1   0 -12   68.21    5.72
  -1   0  12   70.47    6.79
   1   0 -12   70.07    6.77
   0   0 -12    9.74    3.62
   7  -1 -12   33.58    4.05
   7   1 -12   35.03    4.24
   6  -1 -12    0.03    2.40
   6  -1 -12   -1.53    1.78
   6   1 -12   -0.71    1.87
   5  -1 -12   33.99    4.70
   5  -1 -12   48.63    4.33
   5   1 -12   48.80    4.47
   5   1 -12   47.28    4.39
   4  -1 -12    0.74    2.43
   4  -1 -12    8.68    2.09
   4   1 -12    9.62    2.23
   4   1 -12    7.08    2.56
   3  -1 -12   34.55    4.65
   3  -1 -12   34.72    3.76
  -3   1  12   31.90    5.00
   3   1 -12   30.35    3.65
   3   1 -12   27.73    4.96
   2  -1 -12   31.29    3.63
   2  -1 -12   20.17    3.74
   2   1 -12   26.73    3.67
   2   1 -12   27.37    4.07
  -2   1  12   24.99    4.04
  -1  -1  12   17.38    3.75
   1  -1 -12   14.23    3.55
   1  -1 -12   16.66    2.64
   1   1 -12   15.69    3.57
   1   1 -12   16.57    2.83
  -1   1  12   21.48    4.05
   6  -2 -12   65.45    5.34
   6  -2 -12   62.80    5.75
   6   2 -12   63.13    5.58
   5  -2 -12    7.63    2.43
   5  -2 -12    3.31    1.84
   5   2 -12    5.48    2.15
   5   2 -12    4.89    2.14
   4  -2 -12   49.54    4.40
   4   2 -12   48.14    4.65
   4   2 -12   46.18    4.51
   3  -2 -12   21.85    3.45
   3  -2 -12   19.96    3.23
   3   2 -12   21.76    2.96
  -3   2  12   25.18    3.92
   3   2 -12   23.93    3.51
   2  -2 -12   15.44    3.24
   2  -2 -12   13.58    2.50
  -2   2  12   12.70    3.61
   2   2 -12   14.33    3.32
   2   2 -12   11.28    2.49
   1  -2 -12   33.14    3.95
   1  -2 -12   25.91    4.00
   1   2 -12   27.41    4.06
  -1   2  12   27.37    4.47
   1   2 -12   22.57    4.15
   6  -3 -12   15.02    2.54
   6  -3 -12   11.05    2.50
   6   3 -12   13.06    2.80
   5  -3 -12   49.52    4.63
   5   3 -12   44.33    4.84
   5   3 -12   53.77    5.62
   4  -3 -12   10.89    2.58
   4  -3 -12    7.61    2.19
   4   3 -12    7.82    2.43
  -4   3  12    7.53    2.86
   4   3 -12    7.56    2.34
   3  -3 -12   24.67    3.50
   3  -3 -12   28.47    3.63
  -3   3  12   26.45    4.05
   3   3 -12   32.72    3.81
   3   3 -12   28.24    3.88
   2  -3 -12   17.90    3.21
   2  -3 -12   23.98    3.68
   2   3 -12   21.71    3.17
  -2   3  12   17.55    4.05
   2   3 -12   17.84    3.62
   1  -3 -12    2.49    2.93
   4  -4 -12   30.64    4.01
   4  -4 -12   27.84    3.77
   4   4 -12   28.11    3.84
   4   4 -12   24.24    3.57
  -4   4  12   24.81    4.04
   3  -4 -12   -1.48    1.90
   3  -4 -12    2.88    2.80
   3   4 -12    0.39    2.38
   3   4 -12   -1.18    2.60
  -3   4  12   -2.41    2.83
   0   0   0    0.00    0.00
;
_shelx_hkl_checksum              32132
_olex2_submission_original_sample_id ACR11_024_100K
_olex2_submission_special_instructions 'No special instructions were received'
loop_
_space_group_symop_operation_xyz
'x, y, z'
'-x, y+1/2, -z'
loop_
_atom_site_label
_atom_site_type_symbol
_atom_site_fract_x
_atom_site_fract_y
_atom_site_fract_z
_atom_site_U_iso_or_equiv
_atom_site_adp_type
_atom_site_occupancy
_atom_site_site_symmetry_order
_atom_site_calc_flag
_atom_site_refinement_flags_posn
Au1 Au -0.29504(4) -0.42621(3) -0.81015(3) 0.01352(10) Uani 1 1 d .
O4 O -0.8359(10) -0.2434(9) -0.6140(8) 0.028(2) Uani 1 1 d .
O2 O -0.6464(8) -0.3311(7) -0.6844(6) 0.0190(16) Uani 1 1 d .
Br2 Br -0.33824(16) -0.64304(12) -0.71414(12) 0.0227(3) Uani 1 1 d .
O3 O -0.9043(9) -0.3292(8) -0.8113(7) 0.035(2) Uani 1 1 d .
O1 O -0.4034(9) -0.0605(7) -0.6608(6) 0.0220(17) Uani 1 1 d .
N3 N -0.8081(11) -0.2976(9) -0.7036(9) 0.020(2) Uani 1 1 d .
C11 C -0.1727(15) -0.1549(11) -0.3937(12) 0.025(3) Uani 1 1 d .
H11A H -0.074767 -0.144615 -0.311470 0.037 Uiso 1 1 calc GR
H11B H -0.267547 -0.108826 -0.382771 0.037 Uiso 1 1 calc GR
H11C H -0.151573 -0.110656 -0.467684 0.037 Uiso 1 1 calc GR
Br1 Br -0.23804(15) -0.56838(12) -0.97447(11) 0.0224(3) Uani 1 1 d .
C6 C -0.3582(14) -0.1558(11) -0.7152(11) 0.016(3) Uani 1 1 d .
C4 C -0.2213(13) -0.0857(11) -1.0444(9) 0.019(2) Uani 1 1 d .
H4 H -0.187119 -0.073162 -1.117421 0.023 Uiso 1 1 calc R
N1 N -0.2745(10) -0.2367(8) -0.8932(8) 0.0131(19) Uani 1 1 d .
N2 N -0.3355(10) -0.2951(9) -0.6757(8) 0.0131(18) Uani 1 1 d .
C10 C -0.2448(12) -0.3819(11) -0.3089(9) 0.022(3) Uani 1 1 d .
H10A H -0.143042 -0.382077 -0.228930 0.034 Uiso 1 1 calc GR
H10B H -0.282696 -0.479381 -0.332491 0.034 Uiso 1 1 calc GR
H10C H -0.330494 -0.327828 -0.291399 0.034 Uiso 1 1 calc GR
C1 C -0.3154(11) -0.1260(11) -0.8347(9) 0.014(2) Uani 1 1 d .
C5 C -0.2271(13) -0.2174(12) -0.9974(10) 0.019(3) Uani 1 1 d .
H5 H -0.197819 -0.296653 -1.037953 0.023 Uiso 1 1 calc R
C3 C -0.2649(12) 0.0319(10) -0.9869(9) 0.022(3) Uani 1 1 d .
H3 H -0.262763 0.124336 -1.020749 0.027 Uiso 1 1 calc R
C8 C -0.5266(11) -0.2932(11) -0.5527(9) 0.016(2) Uani 1 1 d .
H8A H -0.551795 -0.342396 -0.481680 0.019 Uiso 1 1 calc R
H8B H -0.526570 -0.189848 -0.537848 0.019 Uiso 1 1 calc R
C12 C -0.0553(11) -0.3856(10) -0.4326(9) 0.023(3) Uani 1 1 d .
H12A H 0.038858 -0.372323 -0.348334 0.034 Uiso 1 1 calc GR
H12B H -0.030035 -0.342865 -0.505357 0.034 Uiso 1 1 calc GR
H12C H -0.076310 -0.486985 -0.449761 0.034 Uiso 1 1 calc GR
C9 C -0.2107(13) -0.3139(11) -0.4238(10) 0.019(2) Uani 1 1 d .
C7 C -0.3594(12) -0.3422(10) -0.5547(9) 0.016(2) Uani 1 1 d .
H7 H -0.367911 -0.447629 -0.562347 0.019 Uiso 1 1 calc R
C2 C -0.3113(11) 0.0104(11) -0.8792(10) 0.019(2) Uani 1 1 d .
H2 H -0.339792 0.088272 -0.836516 0.022 Uiso 1 1 calc R
loop_
_atom_site_aniso_label
_atom_site_aniso_U_11
_atom_site_aniso_U_22
_atom_site_aniso_U_33
_atom_site_aniso_U_23
_atom_site_aniso_U_13
_atom_site_aniso_U_12
Au1 0.01682(19) 0.01348(18) 0.01301(17) -0.0004(2) 0.00875(13) 0.0014(2)
O4 0.020(5) 0.039(6) 0.030(5) -0.013(4) 0.015(4) -0.002(4)
O2 0.011(4) 0.028(4) 0.018(4) -0.004(3) 0.006(3) 0.002(3)
Br2 0.0337(8) 0.0156(6) 0.0250(6) 0.0020(5) 0.0180(6) 0.0009(6)
O3 0.017(4) 0.050(6) 0.029(5) -0.017(4) 0.000(4) 0.000(4)
O1 0.034(5) 0.018(4) 0.020(4) -0.001(3) 0.016(3) 0.009(4)
N3 0.013(5) 0.023(5) 0.024(5) 0.000(4) 0.005(4) -0.004(4)
C11 0.031(8) 0.021(7) 0.027(7) -0.007(5) 0.015(6) 0.004(6)
Br1 0.0308(7) 0.0199(6) 0.0219(6) -0.0042(5) 0.0159(5) 0.0012(5)
C6 0.020(7) 0.014(6) 0.014(5) -0.003(5) 0.007(5) -0.003(5)
C4 0.028(7) 0.020(6) 0.012(5) 0.001(4) 0.011(5) 0.004(5)
N1 0.012(5) 0.014(5) 0.015(5) -0.003(4) 0.007(4) 0.001(4)
N2 0.015(5) 0.006(5) 0.018(4) -0.001(4) 0.007(4) -0.002(4)
C10 0.022(6) 0.034(7) 0.012(5) 0.000(4) 0.007(5) 0.000(5)
C1 0.008(6) 0.018(5) 0.014(5) 0.001(4) 0.001(4) -0.004(4)
C5 0.021(6) 0.026(6) 0.009(5) -0.001(5) 0.004(5) -0.001(5)
C3 0.024(6) 0.012(7) 0.028(6) 0.002(4) 0.007(5) -0.002(4)
C8 0.010(6) 0.022(6) 0.018(5) -0.006(4) 0.008(5) -0.003(5)
C12 0.020(6) 0.025(7) 0.023(6) 0.003(4) 0.009(5) 0.004(5)
C9 0.020(6) 0.024(6) 0.016(6) -0.003(4) 0.009(5) 0.002(5)
C7 0.028(6) 0.011(5) 0.014(5) 0.000(4) 0.014(5) -0.001(4)
C2 0.018(6) 0.020(5) 0.021(6) -0.006(4) 0.011(5) -0.001(5)
loop_
_atom_type_symbol
_atom_type_description
_atom_type_scat_dispersion_real
_atom_type_scat_dispersion_imag
_atom_type_scat_source
C C 0.0033 0.0016 'International Tables Vol C Tables 4.2.6.8 and 6.1.1.4'
Au Au -2.0133 8.8022 'International Tables Vol C Tables 4.2.6.8 and 6.1.1.4'
Br Br -0.2901 2.4595 'International Tables Vol C Tables 4.2.6.8 and 6.1.1.4'
N N 0.0061 0.0033 'International Tables Vol C Tables 4.2.6.8 and 6.1.1.4'
O O 0.0106 0.0060 'International Tables Vol C Tables 4.2.6.8 and 6.1.1.4'
H H 0.0000 0.0000 'International Tables Vol C Tables 4.2.6.8 and 6.1.1.4'
loop_
_geom_angle_atom_site_label_1
_geom_angle_atom_site_label_2
_geom_angle_atom_site_label_3
_geom_angle
Br2 Au1 Br1 87.28(4)
N1 Au1 Br2 175.9(2)
N1 Au1 Br1 95.0(2)
N2 Au1 Br2 96.5(2)
N2 Au1 Br1 176.1(2)
N2 Au1 N1 81.3(3)
N3 O2 C8 114.0(7)
O4 N3 O2 118.6(9)
O3 N3 O4 128.2(9)
O3 N3 O2 113.2(8)
O1 C6 N2 126.3(10)
O1 C6 C1 120.4(9)
N2 C6 C1 113.3(8)
C5 C4 C3 120.7(9)
C1 N1 Au1 113.3(6)
C1 N1 C5 120.5(9)
C5 N1 Au1 126.2(7)
C6 N2 Au1 113.7(6)
C6 N2 C7 121.0(8)
C7 N2 Au1 124.9(6)
N1 C1 C6 117.2(8)
N1 C1 C2 121.2(8)
C2 C1 C6 121.6(9)
N1 C5 C4 120.3(10)
C2 C3 C4 118.2(9)
O2 C8 C7 104.3(7)
C11 C9 C12 108.3(8)
C10 C9 C11 109.2(8)
C10 C9 C12 107.9(8)
C10 C9 C7 108.8(8)
C7 C9 C11 113.7(9)
C7 C9 C12 108.7(8)
N2 C7 C8 111.9(8)
N2 C7 C9 114.5(8)
C8 C7 C9 114.1(8)
C1 C2 C3 119.0(9)
loop_
_geom_bond_atom_site_label_1
_geom_bond_atom_site_label_2
_geom_bond_distance
Au1 Br2 2.3902(12)
Au1 Br1 2.4238(11)
Au1 N1 2.041(8)
Au1 N2 2.040(8)
O4 N3 1.198(10)
O2 N3 1.382(10)
O2 C8 1.461(10)
O3 N3 1.191(10)
O1 C6 1.220(12)
C11 C9 1.547(14)
C6 N2 1.375(12)
C6 C1 1.500(13)
C4 C5 1.353(14)
C4 C3 1.394(13)
N1 C1 1.339(12)
N1 C5 1.351(12)
N2 C7 1.469(11)
C10 C9 1.524(13)
C1 C2 1.381(13)
C3 C2 1.384(13)
C8 C7 1.537(13)
C12 C9 1.549(13)
C9 C7 1.543(13)
loop_
_geom_hbond_atom_site_label_D
_geom_hbond_atom_site_label_H
_geom_hbond_atom_site_label_A
_geom_hbond_distance_DH
_geom_hbond_distance_HA
_geom_hbond_distance_DA
_geom_hbond_angle_DHA
_geom_hbond_site_symmetry_A
_geom_hbond_publ_flag
C4 H4 O3 0.95 2.65 3.285(12) 124.9 2_453 yes
C5 H5 Br1 0.95 2.71 3.330(11) 123.1 . yes
C12 H12B O4 0.98 2.57 3.481(12) 154.3 1_655 yes
C7 H7 Br2 1.00 2.55 3.366(9) 138.8 . yes
