#------------------------------------------------------------------------------
#$Date: 2018-01-31 02:16:12 +0200 (Wed, 31 Jan 2018) $
#$Revision: 205917 $
#$URL: file:///home/coder/svn-repositories/cod/cif/4/12/71/4127114.cif $
#------------------------------------------------------------------------------
#
# This file is available in the Crystallography Open Database (COD),
# http://www.crystallography.net/
#
# All data on this site have been placed in the public domain by the
# contributors.
#
data_4127114
loop_
_publ_author_name
'Galley, Shane S.'
'Arico, Alexandra A.'
'Lee, Tsung-Han'
'Deng, Xiaoyu'
'Yao, Yong-Xin'
'Sperling, Joseph M.'
'Proust, Vanessa'
'Storbeck, Julia S.'
'Dobrosavljevic, Vladimir'
'Neu, Jennifer N.'
'Siegrist, Theo'
'Baumbach, Ryan E.'
'Albrecht-Schmitt, Thomas E'
'Kaltsoyannis, Nikolas'
'Lanat\`a, Nicola'
_publ_section_title
;
 Uncovering the Origin of Divergence in the CsM(CrO4)2 (M = La, Pr, Nd,
 Sm, Eu; Am) Family through Examination of the Chemical Bonding in a
 Molecular Cluster and by Band Structure Analysis.
;
_journal_name_full               'Journal of the American Chemical Society'
_journal_paper_doi               10.1021/jacs.7b09474
_journal_year                    2018
_chemical_formula_moiety         'Cr2 Nd O8, Cs'
_chemical_formula_sum            'Cr2 Cs Nd O8'
_chemical_formula_weight         509.15
_space_group_crystal_system      monoclinic
_space_group_IT_number           13
_space_group_name_Hall           '-P 2yc'
_space_group_name_H-M_alt        'P 1 2/c 1'
_symmetry_space_group_name_Hall  '-P 2yc'
_symmetry_space_group_name_H-M   'P 1 2/c 1'
_audit_creation_method           SHELXL-2017/1
_cell_angle_alpha                90
_cell_angle_beta                 98.785(6)
_cell_angle_gamma                90
_cell_formula_units_Z            2
_cell_length_a                   9.244(2)
_cell_length_b                   5.5676(14)
_cell_length_c                   7.795(2)
_cell_measurement_reflns_used    911
_cell_measurement_temperature    204(2)
_cell_measurement_theta_max      27.502
_cell_measurement_theta_min      2.229
_cell_volume                     396.48(17)
_computing_cell_refinement       'SAINT V8.37A (Bruker, 2016)'
_computing_data_collection       'Apex2 (Bruker, 2016)'
_computing_data_reduction        'SAINT V8.37A (Bruker, 2016)'
_computing_structure_refinement
;  
SHELXL-2016/6 (Sheldrick, 2015, 2016), 
SHELXLE Rev714 (H\"ubschle et al., 2011)
;
_computing_structure_solution    'SHELXS-97 (Sheldrick, 2008)'
_diffrn_ambient_temperature      204(2)
_diffrn_measured_fraction_theta_full 0.999
_diffrn_measured_fraction_theta_max 0.998
_diffrn_measurement_device_type  'Bruker ApexII CCD diffractometer'
_diffrn_measurement_method       '0.5 wide w/ exposures'
_diffrn_radiation_type           MoK\a
_diffrn_radiation_wavelength     0.71073
_diffrn_reflns_av_R_equivalents  0.0410
_diffrn_reflns_av_unetI/netI     0.0237
_diffrn_reflns_Laue_measured_fraction_full 0.999
_diffrn_reflns_Laue_measured_fraction_max 0.998
_diffrn_reflns_limit_h_max       12
_diffrn_reflns_limit_h_min       -12
_diffrn_reflns_limit_k_max       7
_diffrn_reflns_limit_k_min       -7
_diffrn_reflns_limit_l_max       10
_diffrn_reflns_limit_l_min       -10
_diffrn_reflns_number            5699
_diffrn_reflns_point_group_measured_fraction_full 0.999
_diffrn_reflns_point_group_measured_fraction_max 0.998
_diffrn_reflns_theta_full        25.242
_diffrn_reflns_theta_max         27.502
_diffrn_reflns_theta_min         2.229
_diffrn_source                   'I-mu-S microsource X-ray tube'
_exptl_absorpt_coefficient_mu    13.669
_exptl_absorpt_correction_T_max  0.7456
_exptl_absorpt_correction_T_min  0.3833
_exptl_absorpt_correction_type   multi-scan
_exptl_absorpt_process_details
;
 SADABS 2016/2: Krause, L., Herbst-Irmer, R., Sheldrick G.M. & Stalke D.,
 J. Appl. Cryst. 48 (2015) 3-10
;
_exptl_crystal_colour            green
_exptl_crystal_density_diffrn    4.265
_exptl_crystal_description       rod
_exptl_crystal_F_000             454
_exptl_crystal_size_max          0.08
_exptl_crystal_size_mid          0.06
_exptl_crystal_size_min          0.04
_refine_diff_density_max         1.013
_refine_diff_density_min         -1.976
_refine_diff_density_rms         0.356
_refine_ls_extinction_coef       0.066(2)
_refine_ls_extinction_expression Fc^*^=kFc[1+0.001xFc^2^\l^3^/sin(2\q)]^-1/4^
_refine_ls_extinction_method     'SHELXL-2017/1 (Sheldrick 2017)'
_refine_ls_goodness_of_fit_ref   0.742
_refine_ls_hydrogen_treatment    undef
_refine_ls_matrix_type           full
_refine_ls_number_parameters     57
_refine_ls_number_reflns         911
_refine_ls_number_restraints     0
_refine_ls_restrained_S_all      0.742
_refine_ls_R_factor_all          0.0214
_refine_ls_R_factor_gt           0.0203
_refine_ls_shift/su_max          0.001
_refine_ls_shift/su_mean         0.000
_refine_ls_structure_factor_coef Fsqd
_refine_ls_weighting_details
'w=1/[\s^2^(Fo^2^)+(0.0689P)^2^] where P=(Fo^2^+2Fc^2^)/3'
_refine_ls_weighting_scheme      calc
_refine_ls_wR_factor_gt          0.0552
_refine_ls_wR_factor_ref         0.0567
_reflns_Friedel_coverage         0.000
_reflns_number_gt                876
_reflns_number_total             911
_reflns_threshold_expression     'I > 2\s(I)'
_cod_data_source_file            ja7b09474_si_001.cif
_cod_data_source_block           AA32_NdCrO4Cr2O7_0m_a
_cod_original_cell_volume        396.51(18)
_cod_database_code               4127114
_shelx_shelxl_version_number     2017/1
_shelx_space_group_comment
;
The symmetry employed for this shelxl refinement is uniquely defined
by the following loop, which should always be used as a source of
symmetry information in preference to the above space-group names.
They are only intended as comments.
;
_shelx_res_file
;
TITL AA32_NdCrO4Cr2O7_0m_a.res in P2/c
    AA32_NdCrO4Cr2O7_0m_a.res
    created by SHELXL-2017/1 at 23:53:21 on 30-Aug-2017
REM Old TITL Integration of aa32_2
CELL  0.71073   9.2444   5.5676   7.7953   90.000   98.785   90.000
ZERR    2.000   0.0024   0.0014   0.0021    0.000    0.006    0.000
LATT  1
SYMM -X, Y, 1/2-Z
SFAC CR CS ND O
UNIT 4 2 2 16
ACTA
TEMP -69.400
L.S. 10
BOND $H
LIST 6
FMAP 2
PLAN 20
WGHT    0.068900
EXTI    0.065925
FVAR       0.61154
ND1   3    0.500000    0.903963    0.250000    10.50000    0.01101    0.00723 =
         0.01005    0.00000    0.00173    0.00000
CR1   1    0.282173    0.329902    0.318800    11.00000    0.00966    0.00706 =
         0.01276    0.00111    0.00187    0.00045
O1    4    0.315894    0.609823    0.267782    11.00000    0.01597    0.01247 =
         0.02275    0.00440    0.00117   -0.00089
CS1   2    0.000000    0.821371    0.250000    10.50000    0.01574    0.01409 =
         0.03787    0.00000    0.00865    0.00000
O3    4    0.427592    0.208378    0.448517    11.00000    0.01587    0.01523 =
         0.01245    0.00105    0.00096    0.00465
O2    4    0.133905    0.318787    0.404673    11.00000    0.01493    0.02001 =
         0.02506    0.00243    0.00897    0.00036
O4    4    0.266731    0.149879    0.149779    11.00000    0.01963    0.01538 =
         0.01803   -0.00447    0.00097    0.00035
HKLF 4




REM  AA32_NdCrO4Cr2O7_0m_a.res in P2/c
REM R1 =  0.0203 for     876 Fo > 4sig(Fo)  and  0.0214 for all     911 data
REM     57 parameters refined using      0 restraints

END

WGHT      0.0280      0.0000

REM Highest difference peak  1.013,  deepest hole -1.976,  1-sigma level  0.356
Q1    1   0.5000  0.0000  0.5000  10.50000  0.05    1.01
Q2    1   0.4977  0.9143  0.1267  11.00000  0.05    0.98
Q3    1   0.3219  0.3633  0.5234  11.00000  0.05    0.73
Q4    1   0.4365  0.1210  0.4318  11.00000  0.05    0.66
Q5    1   0.2916  0.4814  0.5037  11.00000  0.05    0.66
Q6    1   0.2178  0.6064  0.4758  11.00000  0.05    0.64
Q7    1   0.2846  0.2639  0.5479  11.00000  0.05    0.63
Q8    1   0.5223  0.1431  0.5199  11.00000  0.05    0.63
Q9    1   0.1960  0.3850  0.5066  11.00000  0.05    0.62
Q10   1   0.1753  0.5146  0.4988  11.00000  0.05    0.62
Q11   1   0.4442  0.1105  0.3121  11.00000  0.05    0.61
Q12   1   0.3513  0.2470  0.0039  11.00000  0.05    0.57
Q13   1   0.4655  0.2784  0.4374  11.00000  0.05    0.57
Q14   1   0.3022  0.1115  0.0270  11.00000  0.05    0.56
Q15   1   0.0070  0.8261  0.1235  11.00000  0.05    0.56
Q16   1   0.4457  0.2593  0.3927  11.00000  0.05    0.55
Q17   1   0.2591  0.1876  0.0005  11.00000  0.05    0.55
Q18   1   0.0000  1.0121  0.2500  10.50000  0.05    0.54
Q19   1   0.3561  0.3848  0.0277  11.00000  0.05    0.53
Q20   1  -0.0435  0.8047  0.0026  11.00000  0.05    0.52
;
_shelx_res_checksum              64016
_shelx_hkl_file
;
   0   0  -1    1.06    0.51
   0   0  -1    0.66    0.81
   0   0   1    0.93    0.83
   0   0   1    0.95    0.48
   0   0   1    0.63    0.73
   0   0   1    0.47    0.42
   0   0  -1    1.47    0.80
   0   0  -2 6606.16  236.46
   0   0  -2 5519.32  236.92
   0   0   2 5479.22  237.09
   0   0  -2 5301.87  236.94
   0   0  -2 6689.26  236.76
   0   0   3    0.25    1.36
   0   0   3    3.77    2.72
   0   0   3    4.85    1.56
   0   0   3    2.68    2.41
   0   0   4 4865.34  179.27
   0   0   4 5008.00  178.86
   0   0   4 3762.18  180.41
   0   0   4 4127.10  180.48
   0   0  -5   -2.17    5.01
   0   0   5    2.51    2.62
   0   0   5   -1.04    2.25
   0   0   5    3.64    4.95
   0   0   6 2161.14   87.95
   0   0  -6 2084.62   90.88
   0   0   6 1943.96   93.19
   0   0   6 2251.37   87.24
   0   0   7    4.21    3.72
   0   0   7    3.47    4.09
   0   0   7    2.40    7.27
   0   0   8  837.73   44.06
   0   0  -8  795.77   42.16
   0   0  -8  837.95   39.42
   0   0   9    2.73    6.45
   0   0  -9    5.38   10.43
   0   0   9  -23.80   11.95
   0   0  -9   -3.39    7.43
   0   0 -10  955.14   50.72
   0   1   0 1524.44   60.58
   0   1   0 1559.95   61.31
   0   1   0 1535.21   60.68
   0  -1   0 1464.73   60.43
   0  -1   0 1376.54   60.21
   0   1   1  910.25   41.79
   0   1  -1  999.56   41.79
   0   1  -1 1021.98   41.15
   0   1  -1 1036.09   42.00
   0   1   1 1098.52   42.42
   0   1  -1  882.62   42.71
   0  -1   1 1121.22   41.27
   0  -1   1 1047.83   41.84
   0  -1  -1 1018.94   41.84
   0  -1  -1 1113.92   41.10
   0  -1  -1  989.57   42.62
   0  -1   1 1054.70   42.13
   0   1   2 1939.70   76.11
   0   1  -2 1871.62   76.22
   0   1   2 1930.65   77.01
   0   1  -2 1955.85   76.48
   0   1   2 1890.61   78.01
   0  -1   2 1874.52   76.47
   0  -1  -2 1942.21   76.82
   0  -1   2 1907.62   76.94
   0  -1  -2 2016.81   75.77
   0  -1   2 1675.46   78.22
   0  -1   2 1823.15   76.50
   0   1   3 4759.73  202.92
   0   1   3 5361.94  201.56
   0   1  -3 5223.05  200.95
   0   1   3 4877.78  201.18
   0  -1   3 5409.80  201.77
   0  -1  -3 5327.26  201.51
   0  -1   3 4401.69  201.43
   0  -1  -3 4770.05  200.46
   0   1   4 2198.07   96.90
   0   1   4 2302.42   94.84
   0   1  -4 2422.63   94.36
   0  -1   4 2212.67   95.68
   0  -1   4 2458.91   95.45
   0  -1   4 2256.42   97.92
   0  -1  -4 2354.02   95.05
   0  -1  -4 2378.77   95.40
   0   1   5 3649.60  156.70
   0   1   5 4064.65  154.21
   0   1  -5 3434.72  157.82
   0   1  -5 3960.26  153.42
   0  -1  -5 3922.20  154.38
   0  -1   5 4119.18  154.79
   0  -1  -5 3645.29  154.56
   0  -1   5 3561.96  155.46
   0   1  -6 1843.98   86.72
   0   1  -6 2007.10   81.51
   0   1   6 2047.68   82.30
   0  -1   6 1971.28   82.84
   0  -1   6 1982.26   84.78
   0  -1  -6 1956.74   82.60
   0  -1  -6 2011.74   83.27
   0   1   7 3223.11  128.38
   0   1   7 3055.94  132.56
   0   1  -7 2810.02  133.04
   0   1  -7 3344.79  127.73
   0  -1  -7 3156.56  129.30
   0  -1   7 3020.08  131.67
   0  -1  -7 3201.60  129.09
   0  -1   7 3099.62  128.91
   0   1  -8 1453.72   59.54
   0   1   8 1404.05   66.26
   0   1   8 1409.60   60.19
   0   1  -8 1337.72   66.51
   0  -1  -8 1362.42   60.96
   0  -1  -8 1414.36   61.13
   0  -1   8 1301.72   60.54
   0  -1   8 1370.70   65.36
   0   1  -9 1115.12   60.91
   0   1   9 1176.75   54.15
   0   1   9 1264.83   62.17
   0   1  -9 1281.53   55.21
   0  -1  -9 1273.39   56.03
   0  -1   9 1232.79   61.59
   0  -1   9 1189.71   55.58
   0   2   0 2629.08  102.97
   0   2   0 2585.30  102.13
   0   2   0 2430.79  102.01
   0  -2   0 2335.17  101.31
   0  -2   0 2514.67  101.61
   0  -2   0 2527.49  102.91
   0   2   1 5800.57  202.87
   0   2  -1 4667.04  203.83
   0   2  -1 4931.32  204.76
   0   2   1 4975.79  204.60
   0   2   1 5157.34  203.96
   0  -2   1 4558.70  202.18
   0  -2  -1 5445.21  204.12
   0  -2   1 4949.98  204.29
   0   2   2  143.12    8.95
   0   2   2  124.01    8.62
   0   2  -2  123.95    5.88
   0   2  -2  121.64    7.34
   0  -2   2  131.40    9.72
   0  -2   2  118.53    6.67
   0  -2   2  137.86    8.05
   0  -2  -2  125.37    7.34
   0   2  -3 4135.07  163.97
   0   2   3 3928.98  166.12
   0   2   3 4305.12  165.30
   0   2  -3 3862.50  167.50
   0   2  -3 3924.05  162.90
   0  -2   3 3898.89  167.13
   0  -2   3 4148.18  163.71
   0  -2   3 3926.24  164.82
   0  -2  -3 4490.75  164.63
   0   2   4   13.74    3.84
   0   2   4    8.30    4.90
   0   2  -4   10.96    2.89
   0   2  -4    5.52    6.10
   0  -2   4    7.32    3.49
   0  -2  -4    9.22    2.84
   0  -2   4   11.22    3.28
   0   2  -5 2001.30   86.95
   0   2  -5 1993.49   80.73
   0   2   5 2004.21   82.16
   0   2   5 1898.84   84.53
   0  -2  -5 1977.37   81.64
   0  -2  -5 1943.29   79.06
   0  -2   5 1925.61   82.30
   0  -2   5 1950.02   82.33
   0  -2  -5 1984.12   79.51
   0   2   6   62.48    7.32
   0   2   6   56.08   10.18
   0   2  -6   52.35    5.82
   0   2  -6   58.12   11.25
   0  -2  -6   56.39    6.00
   0  -2   6   56.26    7.15
   0  -2  -6   52.95    7.02
   0  -2   6   46.28    8.30
   0   2   7  890.52   44.79
   0   2  -7  934.36   39.68
   0   2  -7  904.75   47.96
   0   2   7  882.47   41.25
   0  -2   7  875.47   41.65
   0  -2   7  951.28   47.21
   0  -2  -7  879.62   40.78
   0   2   8  184.92   14.82
   0   2   8  184.23   18.89
   0   2  -8  178.46   12.85
   0   2  -8  150.45   19.88
   0  -2  -8  172.63   13.72
   0  -2   8  173.53   14.77
   0  -2   8  169.08   17.74
   0   2   9  311.68   21.70
   0   2  -9  288.91   29.78
   0  -2   9  324.57   21.62
   0  -2  -9  330.80   20.67
   0  -2   9  327.19   28.05
   0   3   0  407.79   20.27
   0   3   0  414.70   21.34
   0  -3   0  425.63   19.73
   0  -3   0  421.86   21.14
   0   3  -1 2234.58   90.93
   0   3   1 2124.18   91.14
   0   3  -1 2252.82   90.85
   0   3   1 2364.87   89.05
   0  -3   1 2089.16   90.98
   0  -3   1 1909.61   87.94
   0  -3  -1 2185.45   90.23
   0  -3  -1 2135.09   90.59
   0  -3   1 2225.49   88.20
   0   3   2  608.39   27.89
   0   3  -2  641.30   29.54
   0   3   2  504.17   24.71
   0   3   2  568.97   28.50
   0   3  -2  577.85   27.41
   0   3  -2  597.92   25.04
   0   3   2  626.65   24.87
   0  -3   2  567.42   24.71
   0  -3  -2  621.63   27.51
   0  -3   2  582.69   28.24
   0   3   3 1256.27   55.60
   0   3   3 1295.53   56.05
   0   3  -3 1285.23   57.26
   0   3  -3 1282.02   51.54
   0   3  -3 1231.58   53.91
   0  -3   3 1250.21   52.00
   0  -3  -3 1259.64   54.00
   0  -3   3 1287.36   55.35
   0   3   4 1647.85   71.75
   0   3  -4 1611.20   68.82
   0   3  -4 1678.74   73.57
   0   3   4 1693.45   71.30
   0  -3  -4 1622.81   69.38
   0  -3   4 1596.96   70.45
   0  -3   4 1666.77   67.86
   0   3  -5 1504.11   70.34
   0   3   5 1485.25   68.29
   0   3  -5 1566.05   64.72
   0   3   5 1554.61   67.15
   0  -3  -5 1487.91   65.29
   0  -3   5 1523.35   66.71
   0  -3   5 1612.82   64.70
   0   3   6 1554.24   69.67
   0   3  -6 1606.33   67.37
   0   3   6 1529.58   71.61
   0   3  -6 1661.90   75.13
   0  -3   6 1703.76   68.38
   0  -3   6 1555.11   69.70
   0  -3  -6 1554.65   68.10
   0   3   7  651.28   36.96
   0   3   7  657.49   34.32
   0   3  -7  711.66   32.11
   0   3  -7  690.88   40.76
   0  -3   7  761.26   34.59
   0  -3   7  641.25   34.47
   0  -3  -7  670.67   32.71
   0   3   8 1012.04   50.83
   0   3   8 1152.51   55.15
   0   3  -8 1143.73   58.77
   0  -3  -8 1058.82   49.35
   0  -3   8 1080.67   51.34
   0   3   9  488.19   34.40
   0   3  -9  459.06   36.44
   0   3   9  410.42   27.43
   0  -3  -9  445.88   25.71
   0  -3   9  417.75   28.16
   0   4   0 3519.65  143.99
   0  -4   0 3574.23  143.04
   0  -4   0 3434.25  145.36
   0   4  -1  995.74   45.70
   0   4   1 1002.54   46.80
   0   4  -1 1026.94   45.90
   0   4   1 1061.56   43.97
   0  -4   1  968.90   42.74
   0  -4  -1 1021.04   46.19
   0  -4  -1 1014.01   44.77
   0  -4   1  991.86   46.41
   0   4   2 2605.52  110.38
   0   4   2 2418.86  104.78
   0   4  -2 2734.63  108.54
   0  -4  -2 2575.91  108.28
   0  -4   2 2733.31  104.50
   0  -4   2 2570.83  109.93
   0  -4  -2 2546.81  108.21
   0  -4   2 2470.40  104.36
   0   4  -3  169.90   13.97
   0   4   3  127.60   13.38
   0  -4   3  152.93   14.04
   0  -4  -3  151.58   14.00
   0  -4   3  152.89    8.18
   0  -4  -3  150.39   11.67
   0   4  -4  895.25   42.72
   0   4   4  904.03   45.20
   0   4   4  942.07   44.59
   0   4  -4 1005.37   47.00
   0  -4   4  927.31   44.68
   0  -4  -4  931.27   42.52
   0   4   5  129.82   15.37
   0   4  -5  121.18   12.12
   0   4  -5  147.28   17.58
   0   4   5  139.38   16.42
   0  -4   5  126.33   14.62
   0  -4  -5  129.08   11.37
   0   4  -6  424.30   30.04
   0   4  -6  388.48   23.23
   0   4   6  406.05   26.54
   0   4   6  416.69   26.74
   0  -4  -6  416.18   22.67
   0  -4   6  400.62   25.24
   0   4  -7  188.60   16.73
   0   4   7  203.28   19.92
   0   4   7  221.16   21.00
   0   4  -7  214.59   24.66
   0  -4  -7  191.20   15.43
   0  -4   7  187.73   18.85
   0   4   8  328.27   26.92
   0   4  -8  371.36   32.11
   0   4   8  365.43   27.38
   0  -4   8  346.77   26.45
   0  -4  -8  361.26   22.52
   0   5   0  510.94   27.72
   0   5   0  512.93   25.99
   0  -5   0  505.22   27.48
   0  -5   0  508.11   24.60
   0   5  -1   66.20    8.95
   0   5   1   59.26    7.72
   0   5  -1   57.92    8.92
   0   5   1   60.55   10.18
   0  -5   1   49.07    8.72
   0  -5  -1   50.47    8.03
   0  -5  -1   54.77    8.03
   0  -5   1   74.08    7.88
   0   5  -2  442.94   24.70
   0   5   2  446.41   21.42
   0   5  -2  451.24   25.04
   0   5   2  456.83   27.15
   0  -5   2  441.55   26.66
   0  -5  -2  411.37   24.53
   0  -5  -2  434.87   24.31
   0   5  -3  105.80   13.47
   0   5  -3  131.51   14.69
   0   5   3   86.39   12.99
   0  -5  -3  137.79   13.84
   0  -5   3  136.66   16.01
   0  -5  -3  126.98   13.59
   0   5   4   30.32   10.95
   0   5  -4   36.01   10.05
   0   5  -4   47.78    9.64
   0  -5  -4   53.52    9.47
   0  -5   4   47.79   11.02
   0  -5  -4   45.24   10.29
   0   5  -5  502.77   27.90
   0   5   5  463.23   32.06
   0   5  -5  495.55   31.32
   0  -5  -5  490.94   27.39
   0  -5  -5  470.82   30.55
   0  -5   5  457.69   30.23
   0   5  -6   25.90   12.06
   0   5   6   27.81   12.96
   0   5  -6   22.61   10.07
   0  -5  -6   15.67    8.81
   0  -5   6   25.09   11.93
   0  -5  -6   46.56   13.56
   0   5  -7  298.30   25.93
   0   5   7  277.52   29.32
   0  -5  -7  267.06   21.16
   0  -5   7  274.58   27.44
   0  -5  -7  274.46   28.16
   0   6   0  328.68   19.87
   0   6   0  305.49   22.18
   0  -6   0  328.87   21.75
   0   6  -1   27.20    8.11
   0   6  -1    5.98    8.43
   0   6   1    6.71    9.44
   0   6   1    6.95    8.68
   0  -6  -1   10.72    6.99
   0  -6   1   15.43    7.84
   0  -6  -1   20.57    7.00
   0   6  -2    1.65    8.32
   0   6   2   10.11    9.09
   0   6  -2   15.47    8.19
   0  -6  -2   14.92    7.84
   0  -6  -2   23.59    8.53
   0  -6   2   20.53   10.21
   0   6  -3    6.27    9.43
   0   6  -3    3.46    8.51
   0   6   3   11.25   10.81
   0  -6   3   -3.60    9.63
   0  -6  -3   -4.43    8.57
   0   6   4  251.88   26.87
   0   6  -4  288.09   23.06
   0   6  -4  261.31   20.61
   0  -6  -4  247.10   22.30
   0  -6   4  238.26   26.60
   0  -6  -4  215.55   21.21
   0   6  -5   57.33   12.47
   0   6   5   74.28   16.65
   0   6  -5   62.36   12.98
   0  -6   5   71.02   16.01
   0  -6  -5   65.26   14.01
   0  -6  -5   93.71   14.69
   0   7   0  348.69   26.44
   0  -7   0  383.42   25.82
   0   7   1  583.78   34.79
   0   7  -1  589.08   31.99
   0   7  -1  492.45   41.43
   0  -7   1  553.37   32.81
   0  -7  -1  562.43   32.52
   0   7  -2  197.53   20.22
   0   7   2  192.79   22.03
   0  -7  -2  173.45   18.84
   0  -7   2  185.65   21.63
  -1   0  10  911.20   43.15
   1   0 -10  944.87   45.66
   1   0 -10  823.24   48.68
  -1   0  10  919.93   54.60
  -1   0   9   15.27   13.30
  -1   0   9    5.56    6.40
   1   0  -9    6.45   12.17
   1   0  -9    2.37    7.60
  -1   0   8   55.90    7.50
  -1   0   8   68.77   13.24
   1   0  -8   60.97   11.82
   1   0  -8   64.21    8.57
  -1   0   7   -1.73    4.00
  -1   0   7    7.66    7.83
  -1   0   7    3.97    8.14
  -1   0   6  148.06    9.49
  -1   0   6  163.57   14.07
  -1   0   6  142.96   13.37
  -1   0   6  136.13    9.49
  -1   0   5    0.06    4.60
  -1   0   5   11.09    4.86
  -1   0   5    0.49    2.44
  -1   0   5    1.17    2.21
  -1   0   4   16.94    2.81
  -1   0   4   13.18    2.34
  -1   0   4   28.65    5.06
  -1   0   4   12.33    4.10
  -1   0   3    5.49    2.69
  -1   0   3    1.80    1.36
  -1   0   3    2.95    1.47
  -1   0   3    2.29    2.25
  -1   0   2  720.10   28.85
   1   0  -2  695.66   29.71
   1   0  -2  639.57   29.85
  -1   0   2  743.31   29.30
  -1   0   2  703.96   29.56
   1   0  -2  739.57   28.89
  -1   0   2  674.15   30.12
  -1   0   1    1.11    0.81
   1   0  -1    1.96    0.75
   1   0  -1    2.73    0.77
  -1   0   1    1.17    0.83
   1   0  -1    0.90    0.41
  -1   0   1    0.99    0.37
   1   0  -1    1.71    1.16
  -1   0   1    2.64    1.58
  -1   0   0  860.79   39.53
  -1   0   0  982.87   39.16
   1   0   0 1024.98   39.41
   1   0   0  944.34   39.40
   1   0   0 1034.26   39.22
  -1   0   0 1008.80   39.30
  -1   0  -1    1.58    1.05
  -1   0  -1    3.30    0.78
   1   0   1    4.19    1.12
  -1   0  -1    1.11    0.75
  -1   0  -1   -0.04    0.92
   1   0   1    5.94    1.32
   1   0   2 1966.40   70.23
  -1   0  -2 1637.42   71.34
  -1   0  -2 1838.33   70.21
   1   0   2 1535.76   71.67
   1   0   2 1746.90   71.29
  -1   0  -3   -0.24    1.47
   1   0   3    1.77    1.65
   1   0   3   11.42    2.68
   1   0   3    1.52    1.29
  -1   0  -3    0.61    2.41
   1   0   4 1526.39   67.05
   1   0   4 1717.99   66.28
   1   0   4 1635.94   68.50
  -1   0  -4 1613.42   68.57
  -1   0  -5   -1.62    4.36
   1   0   5    2.64    2.51
   1   0   5    1.21    2.34
   1   0   5   12.24    4.46
   1   0   6  865.01   38.43
  -1   0  -6  926.19   42.11
   1   0   6  932.36   41.86
   1   0   6  894.40   42.67
  -1   0  -7   -3.45    4.77
  -1   0  -7    7.94    6.65
   1   0   7    1.69    7.30
   1   0   7    0.97    3.74
   1   0   8  152.66   18.78
  -1   0  -8  143.03   14.91
  -1   0  -8  136.92   13.44
   1   0   8  118.81   11.09
  -1   0  -9   14.22   10.14
  -1   0  -9   -4.20    7.91
   1   0   9   -3.19   13.88
  -1  -1  10  126.27   20.24
  -1   1   9   43.39   13.41
  -1   1   9   29.93    7.69
   1   1  -9   22.37    7.33
   1   1  -9   25.08   14.23
  -1  -1   9   41.10   13.90
  -1  -1   9   19.64    7.30
   1  -1  -9   26.33    6.96
  -1   1   8  271.35   17.64
  -1   1   8  314.82   24.97
   1   1  -8  300.48   25.31
   1   1  -8  324.47   17.63
  -1  -1   8  279.41   17.78
   1  -1  -8  302.53   17.62
  -1  -1   8  301.26   23.28
   1  -1  -8  273.72   22.97
  -1   1   7  371.31   23.54
  -1   1   7  328.80   18.32
   1   1  -7  333.93   17.69
  -1  -1   7  350.84   24.78
  -1  -1   7  324.52   22.19
  -1  -1   7  311.67   18.19
   1  -1  -7  339.46   21.13
  -1   1   6  819.11   40.81
   1   1  -6  822.48   36.39
  -1   1   6  885.04   38.91
   1  -1  -6  820.66   36.70
  -1  -1   6  847.45   39.48
  -1  -1   6  842.41   41.29
  -1  -1   6  780.93   38.37
   1   1  -5   95.25    6.96
  -1   1   5  105.44    9.28
  -1   1   5  103.77   10.11
  -1   1   5   89.21    7.46
  -1  -1   5   90.87    7.10
  -1  -1   5  110.00   11.47
   1  -1  -5   94.89    7.05
  -1  -1   5   97.85    9.94
  -1   1   4 1642.45   66.75
  -1   1   4 1598.97   68.86
  -1   1   4 1548.01   66.32
   1   1  -4 1625.61   65.95
   1  -1  -4 1571.30   65.83
  -1  -1   4 1576.39   68.68
  -1  -1   4 1614.46   67.25
  -1  -1   4 1636.25   66.32
  -1   1   3  195.56    9.48
   1   1  -3  192.97    9.43
   1   1  -3  173.24    9.24
  -1   1   3  200.96   11.98
  -1  -1   3  180.47    9.45
  -1  -1   3  202.11   10.29
   1  -1  -3  180.64    9.08
   1  -1  -3  182.14    8.76
  -1  -1   3  207.24   11.52
  -1   1   2 1899.77   72.72
   1   1  -2 1859.57   72.47
  -1   1   2 1753.24   72.13
   1   1  -2 1786.34   71.77
   1  -1  -2 1821.32   72.09
  -1  -1   2 1605.19   73.31
   1  -1  -2 1916.29   71.75
  -1  -1   2 1647.87   72.05
  -1  -1   2 1762.34   72.40
  -1   1   1   31.86    2.07
  -1   1   1   35.80    4.50
   1   1  -1   34.12    2.67
   1   1  -1   30.59    3.35
   1   1  -1   34.99    3.60
  -1   1   1   35.62    2.78
   1  -1  -1   31.13    2.74
   1  -1  -1   21.65    3.33
   1  -1  -1   40.97    2.97
   1  -1  -1   32.07    2.11
  -1  -1   1   30.52    2.70
  -1  -1   1   33.68    3.24
  -1  -1   1   34.26    3.02
  -1   1   0  800.33   31.11
  -1   1   0  751.42   30.97
  -1   1   0  755.95   31.15
   1   1   0  765.92   30.79
   1   1   0  741.46   31.42
  -1   1   0  760.43   31.28
   1   1   0  727.53   30.55
   1  -1   0  736.32   31.20
  -1  -1   0  694.16   30.71
   1  -1   0  783.30   31.07
   1  -1   0  754.67   30.94
   1  -1   0  737.92   31.14
  -1  -1   0  760.48   30.61
  -1  -1   0  740.93   31.43
  -1  -1   0  747.51   31.36
  -1   1  -1 1401.24   59.44
   1   1   1 1486.81   59.00
   1   1   1 1384.55   60.58
  -1   1  -1 1384.16   60.86
   1   1   1 1552.87   60.11
  -1   1  -1 1704.07   60.45
  -1   1  -1 1260.35   59.65
  -1  -1  -1 1674.86   59.03
   1  -1   1 1302.57   59.45
  -1  -1  -1 1454.18   60.13
  -1  -1  -1 1445.92   60.89
   1  -1   1 1625.34   59.95
   1  -1   1 1463.41   59.63
  -1   1  -2  200.76   11.50
  -1   1  -2  180.06    9.01
   1   1   2  204.57    9.21
   1   1   2  193.73   10.14
   1   1   2  211.53    9.84
   1  -1   2  205.50    9.59
  -1  -1  -2  181.99    9.45
  -1  -1  -2  211.22    8.51
   1  -1   2  186.54    9.58
  -1   1  -3  622.03   25.45
   1   1   3  603.38   27.64
  -1   1  -3  609.18   29.19
  -1   1  -3  594.23   25.50
   1   1   3  610.78   26.30
  -1  -1  -3  627.41   25.65
   1  -1   3  632.16   26.87
   1  -1   3  619.76   26.81
  -1  -1  -3  612.26   26.09
  -1  -1  -3  585.28   26.51
   1   1   4    6.54    3.47
  -1   1  -4    5.71    4.62
  -1   1  -4    4.51    1.72
   1   1   4    7.17    2.38
   1  -1   4    5.18    3.67
  -1  -1  -4    2.23    2.37
  -1  -1  -4    5.19    2.35
   1  -1   4    5.80    2.73
  -1   1  -5  301.66   19.25
  -1   1  -5  293.13   14.02
   1   1   5  282.95   14.78
   1  -1   5  302.54   17.19
  -1  -1  -5  329.02   15.46
   1  -1   5  314.69   17.46
  -1  -1  -5  294.79   15.67
   1   1   6  340.79   20.56
  -1   1  -6  335.15   15.77
  -1   1  -6  311.88   21.96
   1   1   6  327.10   16.72
   1  -1   6  301.40   17.48
  -1  -1  -6  350.15   17.24
   1  -1   6  316.51   22.00
  -1   1  -7   32.37    5.02
   1   1   7   34.29    8.27
   1   1   7   29.94    7.16
  -1   1  -7   27.10    9.54
   1  -1   7   27.60    8.98
  -1  -1  -7   31.58    6.21
  -1  -1  -7   28.00    5.98
   1  -1   7   32.93    6.05
   1   1   8  446.31   29.76
  -1   1  -8  409.57   28.68
   1   1   8  430.24   22.86
  -1   1  -8  459.71   21.68
   1  -1   8  470.59   30.12
  -1  -1  -8  436.55   23.46
  -1  -1  -8  445.63   24.26
   1  -1   8  399.51   23.80
   1   1   9  236.41   17.00
   1   1   9  242.42   24.94
  -1   1  -9  213.39   25.41
   1  -1   9  225.00   27.81
   1  -1   9  254.02   18.20
  -1  -1  -9  240.23   18.72
   1   2  -9  591.32   30.06
  -1   2   9  614.60   40.05
   1   2  -9  530.56   39.61
  -1   2   9  572.60   31.49
   1  -2  -9  628.89   31.12
  -1  -2   9  664.84   36.92
  -1  -2   9  575.58   31.63
  -1   2   8  539.62   28.45
   1   2  -8  557.02   35.45
  -1   2   8  506.86   32.45
   1   2  -8  553.56   26.93
  -1  -2   8  510.45   28.55
   1  -2  -8  528.51   27.06
  -1  -2   8  596.98   32.03
  -1   2   7  311.97   21.81
  -1   2   7  238.14   15.95
   1   2  -7  240.48   14.54
   1   2  -7  238.49   23.19
  -1  -2   7  222.31   15.53
  -1  -2   7  298.05   18.93
   1  -2  -7  246.87   15.41
   1  -2  -7  240.84   14.67
   1   2  -6 1552.59   63.71
  -1   2   6 1551.14   68.86
  -1   2   6 1357.19   66.57
  -1  -2   6 1416.11   66.45
   1  -2  -6 1491.72   64.06
  -1  -2   6 1640.14   65.70
  -1  -2   6 1593.04   69.51
  -1   2   5   51.74    9.15
   1   2  -5   28.76    4.39
  -1   2   5   33.50    4.83
  -1  -2   5   34.75    7.51
   1  -2  -5   22.57    3.87
  -1  -2   5   24.22    4.86
  -1  -2   5   29.76    5.61
   1   2  -4 1919.28   78.31
  -1   2   4 1910.77   79.33
  -1   2   4 1924.49   77.56
  -1   2   4 1875.98   81.52
   1  -2  -4 1940.49   78.37
  -1  -2   4 1931.19   78.24
   1  -2  -4 1923.50   76.62
  -1  -2   4 1795.81   81.39
  -1  -2   4 1896.19   79.10
  -1   2   3  255.27   15.07
  -1   2   3  256.41   13.89
   1   2  -3  261.43   12.91
   1   2  -3  265.50   11.11
   1  -2  -3  264.15   12.68
   1  -2  -3  247.93   11.13
  -1  -2   3  275.42   11.91
  -1  -2   3  246.23   13.14
  -1   2   2 4016.75  146.19
  -1   2   2 3561.86  143.99
   1   2  -2 3813.46  145.35
   1  -2  -2 3958.96  143.97
   1  -2  -2 3443.24  145.03
   1  -2  -2 3103.98  146.90
  -1  -2   2 3559.54  146.72
  -1  -2   2 3281.17  145.82
  -1   2   1  276.62   13.43
  -1   2   1  274.26   12.16
   1   2  -1  249.70   12.72
  -1  -2   1  237.82   13.61
   1  -2  -1  246.41   12.01
   1  -2  -1  255.86   13.42
   1  -2  -1  261.54   13.87
  -1  -2   1  263.10   13.20
  -1  -2   1  275.66   10.86
  -1  -2   1  253.37   11.00
   1   2   0 1694.35   65.82
  -1   2   0 1581.96   67.01
   1   2   0 1673.23   67.89
  -1   2   0 1558.94   66.87
   1   2   0 1579.56   66.22
  -1  -2   0 1697.71   65.88
  -1  -2   0 1611.59   67.61
   1  -2   0 1584.70   67.12
  -1  -2   0 1650.77   66.19
   1  -2   0 1511.65   66.54
   1   2   1  968.09   40.77
  -1   2  -1  923.70   39.84
   1   2   1 1003.15   39.44
  -1   2  -1  931.55   41.15
   1  -2   1  977.47   40.17
  -1  -2  -1  960.93   39.93
  -1  -2  -1  916.94   40.73
   1  -2   1 1047.15   41.31
   1   2   2  912.14   39.47
  -1   2  -2  845.25   40.18
   1   2   2  887.64   38.70
  -1   2  -2  922.49   38.08
   1  -2   2  837.16   38.12
  -1  -2  -2  917.95   38.09
   1  -2   2  936.14   37.48
  -1   2  -3 2572.30  107.35
   1   2   3 2701.80  109.58
  -1   2  -3 2501.52  111.29
   1   2   3 2593.93  109.07
   1  -2   3 2642.35  107.92
  -1  -2  -3 2839.95  108.47
   1  -2   3 2704.86  108.73
   1   2   4  572.99   28.58
  -1   2  -4  624.89   31.46
   1   2   4  600.99   27.71
  -1   2  -4  623.74   25.97
   1  -2   4  613.85   27.45
  -1  -2  -4  584.96   27.02
   1  -2   4  574.69   27.46
   1   2   5  460.74   25.02
   1   2   5  449.20   22.11
  -1   2  -5  460.67   20.49
  -1   2  -5  459.63   27.29
   1  -2   5  438.33   22.41
   1  -2   5  479.80   23.31
  -1  -2  -5  448.33   19.01
  -1  -2  -5  462.04   19.19
  -1  -2  -5  412.84   21.54
   1   2   6  461.81   25.53
  -1   2  -6  454.92   28.43
   1   2   6  445.07   22.46
  -1   2  -6  450.05   20.78
  -1  -2  -6  469.97   19.67
   1  -2   6  474.35   25.28
  -1  -2  -6  403.00   22.07
   1  -2   6  437.00   23.31
  -1   2  -7  100.17   14.48
   1   2   7   74.81    8.72
  -1   2  -7   80.45    8.20
   1   2   7   83.33   12.29
   1  -2   7   85.26   12.66
   1  -2   7   68.64    9.32
  -1  -2  -7   70.39    9.05
   1   2   8  627.08   34.98
   1   2   8  564.07   29.92
  -1   2  -8  611.60   37.33
   1  -2   8  659.57   36.03
  -1  -2  -8  606.59   30.44
   1  -2   8  547.09   31.01
   1   2   9   17.27    8.89
  -1   2  -9   14.22   14.25
   1   2   9   -8.19   12.63
  -1  -2  -9   21.34    7.88
   1  -2   9    6.42    9.62
   1  -2   9   23.80   15.70
   1   3  -9  796.33   49.38
  -1   3   9  774.14   40.14
   1  -3  -9  788.12   38.21
  -1  -3   9  707.37   42.90
   1  -3  -9  799.01   49.11
  -1   3   8   91.15   11.90
  -1   3   8  104.84   15.42
   1   3  -8   97.89   17.25
   1   3  -8   94.13   10.24
   1  -3  -8   87.36   15.45
  -1  -3   8   77.61   11.48
   1  -3  -8   92.49   11.19
  -1   3   7  913.28   45.95
  -1   3   7  872.87   42.52
   1   3  -7  921.96   48.64
   1   3  -7  872.07   40.23
  -1  -3   7  894.25   42.41
   1  -3  -7  878.28   40.45
  -1   3   6    4.61    8.06
   1   3  -6   -4.72    7.85
  -1   3   6    8.00    6.04
   1   3  -6    4.19    4.39
  -1  -3   6   -3.37    5.08
   1  -3  -6    7.26    4.13
  -1  -3   6    1.77    5.09
   1   3  -5 1971.23   82.37
  -1   3   5 1969.23   84.35
  -1   3   5 1935.60   86.28
  -1  -3   5 2062.72   80.77
  -1  -3   5 1894.65   83.88
  -1  -3   5 2051.81   87.25
   1  -3  -5 1936.05   82.55
   1   3  -4   78.02    7.24
  -1   3   4   69.68    8.85
  -1   3   4   78.96   10.52
  -1  -3   4   80.10   10.20
   1  -3  -4   66.19    9.93
   1  -3  -4   64.72    7.10
  -1  -3   4   62.90    8.26
  -1   3   3 2017.51   83.83
   1   3  -3 2019.86   82.37
  -1   3   3 1922.27   79.79
  -1  -3   3 1973.26   83.76
   1  -3  -3 2009.20   85.30
  -1  -3   3 1934.58   84.55
   1  -3  -3 2051.00   79.96
   1  -3  -3 1903.02   82.17
  -1   3   2    6.79    2.23
  -1   3   2    7.47    3.89
   1   3  -2    1.56    3.12
   1  -3  -2    1.10    4.12
   1  -3  -2    6.29    3.12
  -1  -3   2   -1.41    3.75
   1  -3  -2   12.21    3.68
  -1  -3   2    7.04    3.99
  -1   3   1 2414.79  104.22
  -1   3   1 2477.52  102.53
   1   3  -1 2547.96  104.12
  -1  -3   1 2580.41  100.93
   1  -3  -1 2523.33  103.76
   1  -3  -1 2541.19  103.91
  -1  -3   1 2498.25  103.55
  -1  -3   1 2442.71  104.52
   1   3   0  649.21   31.17
  -1   3   0  649.00   30.63
  -1   3   0  648.28   30.11
  -1  -3   0  699.57   29.22
  -1  -3   0  686.19   29.60
   1  -3   0  643.36   30.72
  -1  -3   0  625.79   30.80
   1  -3   0  674.44   29.68
  -1   3  -1 3530.72  151.28
   1   3   1 3904.07  149.35
   1   3   1 3835.46  151.96
   1   3   1 3838.26  149.03
   1   3   1 3597.19  149.75
  -1   3  -1 3729.82  150.76
  -1  -3  -1 3397.84  150.55
   1  -3   1 3658.60  151.14
  -1   3  -2 4194.50  169.30
   1   3   2 4253.40  164.06
   1   3   2 4240.55  167.54
  -1   3  -2 4152.25  167.42
   1  -3   2 3923.90  167.74
  -1  -3  -2 4355.00  167.32
   1  -3   2 3647.34  165.45
  -1   3  -3 2590.28  109.65
  -1   3  -3 2534.35  106.14
   1   3   3 2601.55  107.41
   1   3   3 2612.67  108.49
   1  -3   3 2607.83  105.14
  -1  -3  -3 2629.41  106.31
   1  -3   3 2455.20  108.01
  -1   3  -4 2552.24  108.27
   1   3   4 2307.69  101.51
   1   3   4 2453.77  101.90
  -1   3  -4 2369.51   99.23
  -1  -3  -4 2367.02   99.80
   1  -3   4 2478.47  103.13
   1  -3   4 2366.96   99.17
   1   3   5 2075.52   92.44
  -1   3  -5 2235.44   95.97
   1   3   5 2172.97   92.40
  -1   3  -5 2211.39   89.21
  -1  -3  -5 2166.06   90.30
   1  -3   5 2010.92   91.05
   1  -3   5 2228.00   90.40
   1   3   6  163.47   16.23
   1   3   6  218.38   15.06
  -1   3  -6  172.68   11.50
  -1   3  -6  161.56   17.40
   1  -3   6  138.05   12.84
  -1  -3  -6  174.89   12.25
   1  -3   6  172.07   15.29
  -1   3  -7 1167.54   47.68
  -1   3  -7 1148.57   56.66
   1   3   7 1063.73   53.08
   1   3   7 1065.80   50.02
  -1  -3  -7 1047.13   48.80
   1  -3   7 1011.02   50.30
  -1   3  -8   11.65   13.17
   1   3   8   13.67   11.21
   1   3   8   -1.68    8.33
   1  -3   8    7.59    8.39
  -1  -3  -8   -0.04    6.29
   1   4  -8  262.80   28.79
   1   4  -8  232.56   19.46
  -1  -4   8  230.74   25.10
   1  -4  -8  256.37   27.62
   1  -4  -8  233.03   17.89
   1   4  -7 1488.88   69.49
  -1   4   7 1379.90   64.95
   1   4  -7 1307.62   61.01
   1  -4  -7 1380.32   61.33
   1  -4  -7 1377.06   68.37
  -1  -4   7 1402.24   64.47
   1   4  -6   90.93   14.02
   1   4  -6  135.43   12.63
  -1   4   6  117.43   14.13
   1  -4  -6  121.13   11.45
   1  -4  -6  131.64   16.46
  -1  -4   6  148.58   15.88
   1   4  -5 3592.44  147.71
  -1   4   5 3719.39  151.32
   1   4  -5 3677.22  152.99
   1  -4  -5 3481.54  147.67
  -1  -4   5 3535.62  150.50
   1  -4  -5 3499.65  152.06
   1   4  -4  160.50   12.54
   1   4  -4  162.86   16.08
  -1   4   4  150.56   15.38
   1  -4  -4  189.79   16.55
  -1  -4   4  147.83   15.24
   1   4  -3 4363.81  175.18
  -1   4   3 4238.41  171.04
  -1   4   3 4421.53  177.39
   1  -4  -3 4228.84  176.42
  -1  -4   3 4034.08  176.89
   1  -4  -3 4309.33  175.14
   1   4  -2  587.41   29.43
  -1   4   2  562.20   30.29
  -1   4   2  554.07   26.46
   1   4  -2  625.68   30.65
   1  -4  -2  648.49   29.76
  -1  -4   2  569.98   30.68
  -1   4   1 4517.69  188.37
   1   4  -1 4655.96  188.12
  -1   4   1 4690.32  186.15
   1   4  -1 4561.67  187.28
  -1  -4   1 4502.10  183.85
   1  -4  -1 4545.35  186.50
   1  -4  -1 4556.61  189.36
  -1  -4   1 4591.61  188.37
  -1  -4   1 4565.83  183.99
   1   4   0  672.73   33.87
   1   4   0  691.33   32.28
  -1   4   0  711.46   33.95
  -1   4   0  687.02   32.75
  -1  -4   0  713.26   31.32
  -1  -4   0  690.41   33.76
   1  -4   0  728.44   32.02
  -1   4  -1 1992.49   83.07
   1   4   1 1994.00   84.35
   1   4   1 2064.47   81.09
  -1   4  -1 2010.60   83.71
  -1  -4  -1 1854.87   83.42
  -1  -4  -1 1998.99   82.34
   1  -4   1 1839.04   83.65
   1  -4   1 1876.46   80.96
   1   4   2 1200.57   53.28
   1   4   2 1194.55   50.02
   1   4   2 1245.10   50.27
  -1   4  -2 1246.08   55.19
  -1   4  -2 1202.74   53.47
  -1  -4  -2 1220.37   54.30
   1  -4   2 1181.01   58.38
  -1   4  -3  325.95   18.62
  -1   4  -3  335.38   21.13
   1   4   3  332.54   19.36
   1   4   3  296.45   20.99
   1  -4   3  311.68   16.37
  -1  -4  -3  323.35   18.46
   1  -4   3  308.43   20.03
  -1   4  -4  942.74   47.65
  -1   4  -4  974.35   44.61
   1   4   4  990.40   46.30
   1   4   4  967.62   47.71
  -1  -4  -4  978.00   44.54
   1  -4   4 1036.71   42.81
   1  -4   4  983.82   46.71
   1   4   5 1154.01   56.66
  -1   4  -5 1218.88   58.50
  -1   4  -5 1177.79   53.41
   1   4   5 1173.83   55.99
   1  -4   5 1217.39   56.25
  -1  -4  -5 1154.30   53.53
   1  -4   5 1328.66   52.42
  -1   4  -6  580.78   29.83
   1   4   6  603.59   33.76
  -1   4  -6  567.45   35.22
   1   4   6  576.29   33.07
  -1  -4  -6  567.12   29.36
   1  -4   6  578.52   32.45
   1   4   7 1151.91   55.74
   1   4   7 1135.74   56.94
  -1   4  -7 1236.64   60.35
   1  -4   7 1132.07   55.59
  -1  -4  -7 1105.19   52.27
   1   4   8  330.82   26.56
   1   4   8  405.47   29.78
  -1   4  -8  383.41   31.50
  -1  -4  -8  328.29   24.60
   1  -4   8  343.46   26.84
   1   5  -7   35.73   11.45
  -1   5   7   45.93   15.33
   1   5  -7   52.94   15.90
   1  -5  -7   27.33    9.86
  -1  -5   7   32.01   13.88
   1  -5  -7   38.61   14.16
   1   5  -6 1094.49   53.95
   1   5  -6 1145.69   59.15
  -1   5   6 1167.22   59.16
  -1  -5   6 1127.09   58.59
   1  -5  -6 1195.27   54.18
   1  -5  -6 1177.76   57.95
  -1   5   5   -1.98   10.51
   1   5  -5    6.50    8.56
   1   5  -5   -7.14    9.92
   1  -5  -5    6.75    7.98
   1  -5  -5   13.75   10.61
  -1  -5   5   13.94    9.63
   1   5  -4 1405.52   62.83
   1   5  -4 1375.64   64.39
  -1   5   4 1348.04   65.57
   1  -5  -4 1347.81   62.32
   1  -5  -4 1409.80   63.68
  -1  -5   4 1388.31   65.71
   1   5  -3   99.60   12.64
  -1   5   3   90.29   13.82
   1   5  -3   94.84   11.59
   1  -5  -3  135.06   12.98
   1  -5  -3   82.61   11.33
  -1  -5   3   90.17   13.57
   1   5  -2 2295.98  100.26
   1   5  -2 2362.16  100.30
  -1   5   2 2301.39   96.88
  -1   5   2 2332.86  101.75
  -1  -5   2 2438.24  101.64
   1  -5  -2 2387.06   99.07
   1  -5  -2 2258.52   99.36
  -1   5   1  359.66   20.08
   1   5  -1  348.89   21.54
  -1   5   1  347.50   22.58
   1   5  -1  339.49   21.74
  -1  -5   1  356.70   22.09
  -1  -5   1  395.65   17.57
   1  -5  -1  382.93   20.29
   1  -5  -1  370.10   21.49
   1   5   0 2687.06  111.76
  -1   5   0 2753.03  112.62
  -1   5   0 2640.94  113.91
   1   5   0 2533.28  113.45
   1  -5   0 2754.29  111.01
  -1  -5   0 2663.07  113.61
   1  -5   0 2622.89  113.53
  -1  -5   0 2821.19  110.45
   1   5   1  963.18   45.61
  -1   5  -1  913.44   44.11
  -1   5  -1  946.95   44.46
   1   5   1  970.65   41.81
  -1  -5  -1  902.56   44.40
   1  -5   1  949.22   41.46
  -1  -5  -1  962.17   42.69
   1  -5   1  943.92   45.40
   1   5   2 4559.92  179.31
  -1   5  -2 4441.80  177.80
   1   5   2 4522.76  173.87
  -1   5  -2 4224.79  176.10
   1  -5   2 3974.68  178.07
   1  -5   2 4114.12  173.19
  -1  -5  -2 4206.30  176.09
  -1  -5  -2 4167.73  177.37
   1   5   3 1170.13   56.15
  -1   5  -3 1138.31   52.56
  -1   5  -3 1161.49   55.00
  -1  -5  -3 1179.04   53.86
   1  -5   3 1098.15   55.35
  -1  -5  -3 1193.37   54.11
  -1   5  -4 2934.34  124.13
  -1   5  -4 3064.10  128.24
   1   5   4 3000.92  125.93
   1   5   4 2911.78  128.49
  -1  -5  -4 2963.27  127.03
  -1  -5  -4 2958.73  125.53
   1  -5   4 2916.65  127.81
   1   5   5  515.87   29.86
   1   5   5  460.10   32.72
  -1   5  -5  483.19   30.82
  -1   5  -5  455.50   27.48
  -1  -5  -5  491.96   27.97
   1  -5   5  527.13   32.02
   1   5   6 1265.36   61.32
   1   5   6 1236.96   63.99
  -1  -5  -6 1294.91   58.72
   1   5   7  136.81   18.87
   1   5   7  107.28   18.93
  -1   5  -7  102.29   18.40
  -1  -5  -7  167.87   16.50
   1  -5   7  158.42   19.80
   1   6  -5  515.61   34.85
  -1   6   5  555.80   39.28
   1   6  -5  519.40   33.20
  -1  -6   5  583.93   37.68
   1  -6  -5  534.01   33.43
   1  -6  -5  560.85   34.63
   1   6  -4 2896.22  123.45
   1   6  -4 2824.18  121.62
  -1   6   4 2691.79  128.27
   1  -6  -4 2899.78  121.89
   1  -6  -4 2902.07  121.51
  -1  -6   4 2782.08  125.61
   1   6  -3  399.08   27.38
  -1   6   3  401.31   29.73
   1   6  -3  394.94   26.74
   1  -6  -3  429.07   26.06
  -1  -6   3  479.73   29.63
   1  -6  -3  426.05   25.60
   1   6  -2 2994.40  131.54
   1   6  -2 3024.86  131.29
  -1   6   2 3146.91  134.03
   1  -6  -2 3151.21  130.00
  -1  -6   2 3239.12  133.37
   1  -6  -2 3101.24  131.14
   1   6  -1  599.97   31.05
  -1   6   1  587.69   33.07
  -1   6   1  593.31   30.77
   1   6  -1  555.02   31.73
   1  -6  -1  595.44   31.76
  -1  -6   1  595.61   32.34
   1   6   0 2203.56   94.69
  -1   6   0 2298.03   95.70
   1   6   0 2198.52   97.51
  -1   6   0 2296.31   97.85
  -1  -6   0 2184.81   97.00
   1  -6   0 2292.83   93.52
   1  -6   0 2192.27   96.97
  -1   6  -1  636.34   32.48
   1   6   1  591.98   33.91
  -1   6  -1  628.05   33.24
   1  -6   1  602.27   33.59
  -1  -6  -1  590.45   32.54
  -1   6  -2  969.22   46.02
   1   6   2  946.09   48.21
  -1   6  -2  984.73   46.72
  -1  -6  -2  956.06   45.08
   1  -6   2  954.96   48.36
  -1  -6  -2  904.63   46.28
  -1   6  -3  226.85   18.91
   1   6   3  205.65   21.51
  -1   6  -3  228.96   20.28
   1  -6   3  248.16   22.94
  -1  -6  -3  246.65   19.94
  -1  -6  -3  241.65   20.30
  -1   6  -4  743.46   38.11
  -1   6  -4  759.30   40.92
  -1  -6  -4  725.38   40.37
  -1  -6  -4  759.25   40.37
  -1   6  -5  325.51   27.33
   1   6   5  325.01   30.53
  -1   6  -5  347.24   24.64
   1  -6   5  352.37   30.47
  -1  -6  -5  374.88   27.99
  -1  -6  -5  351.42   26.26
   1   7  -2   -8.86   10.07
   1   7  -2    8.83   10.80
  -1   7   2   32.63   13.37
  -1  -7   2    3.82   10.80
   1  -7  -2   14.92    9.57
   1   7  -1 1388.77   64.63
   1   7  -1 1382.79   65.69
  -1   7   1 1434.12   66.92
   1  -7  -1 1393.79   64.84
  -1  -7   1 1409.65   65.80
   1   7   0  269.89   23.19
  -1   7   0  225.33   28.45
  -1  -7   0  267.92   21.69
   1  -7   0  225.49   21.45
  -1   7  -1 2690.18  114.26
   1   7   1 2745.83  116.99
  -1   7  -1 2619.78  117.80
  -1  -7  -1 2647.62  115.35
   1  -7   1 2630.56  116.25
  -1   7  -2  336.69   26.30
  -1   7  -2  358.97   25.78
   1   7   2  394.96   28.09
  -1  -7  -2  349.51   25.22
   1  -7   2  354.81   27.78
   2   0 -10 1681.31   69.85
  -2   0  10 1602.23   68.21
   2   0 -10 1456.85   78.71
   2   0 -10 1375.12   74.05
   2   0  -9    3.95   14.30
  -2   0   9   -0.09    6.38
   2   0  -9   14.65   13.95
   2   0  -9    0.69    7.37
  -2   0   8 3626.12  149.81
  -2   0   8 3507.20  154.49
   2   0  -8 3894.43  150.75
  -2   0   8 3546.13  155.10
  -2   0   7    1.65    8.01
  -2   0   7   -0.21    4.10
  -2   0   7   -2.16    3.46
  -2   0   7    6.93    8.04
  -2   0   6 4805.76  177.30
  -2   0   6 4130.13  180.24
  -2   0   6 4179.72  180.92
  -2   0   5   -4.10    2.56
  -2   0   5    4.84    5.21
  -2   0   5    1.47    2.04
  -2   0   5    3.77    4.20
  -2   0   4 4719.03  181.60
   2   0  -4 4218.32  183.07
  -2   0   3   -1.01    1.59
   2   0  -3    4.97    3.20
   2   0  -3    2.27    1.50
  -2   0   3    2.27    2.09
  -2   0   3    3.27    1.41
  -2   0   2 2736.96  121.90
   2   0  -2 3138.25  120.90
  -2   0   2 3194.78  120.91
  -2   0   1    0.61    0.87
   2   0  -1   -0.02    1.10
  -2   0   1    0.92    1.67
  -2   0   1    3.30    0.67
  -2   0   1   -0.20    0.82
   2   0  -1    1.71    1.22
   2   0  -1    2.95    0.52
  -2   0   0 2433.47  109.76
  -2   0   0 2908.34  109.48
  -2   0   0 2421.64  109.78
   2   0   0 2705.01  109.81
   2   0   0 2946.96  109.51
  -2   0   0 2990.15  109.44
   2   0   1    1.11    0.95
   2   0   1    0.40    1.03
  -2   0  -1   -1.61    1.06
  -2   0  -1    0.95    0.94
   2   0   1    1.61    1.29
   2   0   2 2842.06  121.83
  -2   0  -2 2833.33  121.59
   2   0   2 3348.41  120.30
  -2   0  -3    1.94    2.20
   2   0   3    1.44    2.35
   2   0   3    4.76    1.29
  -2   0  -3    6.72    2.07
   2   0   3   -0.20    1.69
  -2   0  -4 5583.18  231.48
   2   0   4 5880.41  231.13
   2   0   4 6164.64  229.39
   2   0   4 5295.98  231.82
  -2   0  -5   -0.54    3.95
   2   0   5    0.28    2.15
   2   0   5   -0.75    2.87
   2   0   5    1.46    4.23
   2   0   6 6000.97  237.43
   2   0   6 6043.44  234.94
   2   0   6 5368.51  238.94
  -2   0  -6 5990.04  238.20
   2   0   7   -3.46    3.40
   2   0   7    2.26    7.06
  -2   0  -7   -1.74    6.36
  -2   0  -7   -7.34    5.41
   2   0   8 2261.40  101.75
  -2   0  -8 2292.40   98.35
  -2   0  -8 2327.87   98.81
  -2   0  -9   21.47   10.44
   2   0   9   -3.00   13.41
  -2   0  -9   -1.86    8.46
   2   1 -10  395.73   36.02
   2   1 -10  396.62   24.47
   2   1 -10  403.05   25.62
   2   1 -10  357.66   34.11
  -2   1  10  374.51   24.66
   2  -1 -10  433.04   40.03
   2  -1 -10  390.01   24.72
  -2  -1  10  397.44   24.93
   2   1  -9   60.23   16.70
   2   1  -9  119.42   18.91
   2   1  -9  106.17   13.26
  -2   1   9   85.04   10.52
  -2  -1   9   77.38    9.82
   2  -1  -9  103.50   18.41
   2  -1  -9   99.84   14.90
   2  -1  -9  102.19   12.18
  -2   1   8  530.64   27.77
   2   1  -8  562.44   27.78
  -2   1   8  603.86   35.29
  -2   1   8  576.70   31.42
  -2  -1   8  545.11   32.55
  -2  -1   8  537.48   33.98
  -2  -1   8  521.70   27.07
   2  -1  -8  551.68   36.20
   2  -1  -8  532.16   26.87
  -2   1   7  472.06   24.62
  -2   1   7  489.57   29.77
   2   1  -7  451.61   25.54
  -2   1   7  523.44   28.17
   2  -1  -7  479.45   23.40
  -2  -1   7  526.76   29.63
  -2   1   6 1788.51   73.18
   2   1  -6 1620.62   73.62
  -2   1   6 1685.28   74.08
  -2   1   6 1696.76   76.89
  -2  -1   6 1782.03   76.54
   2  -1  -6 1716.77   71.84
  -2  -1   6 1722.21   72.34
  -2  -1   6 1810.61   74.95
  -2   1   5 1581.42   69.03
  -2   1   5 1531.62   65.53
  -2   1   5 1553.98   66.20
   2   1  -5 1514.21   65.09
   2  -1  -5 1537.73   64.39
  -2  -1   5 1574.36   66.77
  -2  -1   5 1608.14   65.05
  -2  -1   5 1577.41   67.88
  -2   1   4 4066.20  184.27
   2   1  -4 5119.44  184.65
   2   1  -4 4242.49  185.57
  -2   1   4 5199.53  185.13
  -2  -1   4 4163.69  185.84
   2  -1  -4 4911.03  183.62
   2  -1  -4 3905.84  187.47
  -2  -1   4 4920.99  184.12
  -2   1   3 4838.51  185.05
   2   1  -3 4896.62  184.84
  -2   1   3 4251.93  184.36
   2   1  -3 4177.72  184.70
  -2  -1   3 4110.91  185.53
   2  -1  -3 5009.82  183.90
  -2  -1   3 4834.54  184.33
   2   1  -2 4042.89  190.94
  -2   1   2 5498.08  190.72
   2   1  -2 5521.37  191.83
  -2   1   2 4619.11  191.16
  -2  -1   2 4959.74  191.41
   2  -1  -2 4439.59  190.63
  -2  -1   2 4325.90  191.93
  -2   1   1 6543.29  234.16
   2   1  -1 6425.56  233.50
   2   1  -1 5130.48  234.59
   2  -1  -1 5729.17  233.67
  -2  -1   1 6545.35  234.54
  -2  -1   1 5681.86  233.62
   2  -1  -1 4892.86  234.85
   2   1   0 4587.76  213.29
   2   1   0 5405.12  213.02
  -2   1   0 5785.05  212.95
  -2   1   0 6033.15  212.99
  -2   1   0 5310.35  213.71
   2   1   0 5189.08  213.12
   2  -1   0 4489.66  213.49
  -2  -1   0 4956.55  212.95
   2  -1   0 5761.77  212.93
  -2  -1   0 4664.06  213.16
   2  -1   0 5962.94  212.99
  -2  -1   0 5796.07  213.19
  -2   1  -1 5199.24  211.53
  -2   1  -1 5992.66  209.75
   2   1   1 4714.06  209.93
   2  -1   1 4762.54  209.95
   2  -1   1 4614.50  210.56
  -2  -1  -1 6247.36  210.11
   2   1   2 3891.10  139.89
   2   1   2 3013.75  138.56
  -2   1  -2 3398.23  140.45
   2   1   2 3280.62  139.28
   2  -1   2 3289.70  139.21
  -2  -1  -2 3813.25  138.23
   2   1   3 3119.62  129.95
  -2   1  -3 2947.66  132.09
   2   1   3 3275.76  131.46
  -2   1  -3 3247.62  128.67
  -2  -1  -3 3341.59  129.50
  -2  -1  -3 3375.46  130.77
   2  -1   3 2944.83  130.78
   2  -1   3 3497.39  131.02
  -2   1  -4 1737.18   75.94
  -2   1  -4 1870.35   71.61
   2   1   4 1714.01   72.63
  -2   1  -4 1782.23   71.63
   2   1   4 1767.32   74.98
  -2  -1  -4 1718.35   73.84
  -2  -1  -4 1782.01   72.56
   2  -1   4 1869.47   74.24
   2  -1   4 1719.71   74.39
  -2   1  -5  172.26    8.75
   2   1   5  185.12   13.39
  -2   1  -5  195.09   14.61
   2   1   5  164.81    9.81
   2  -1   5  195.07   13.14
  -2  -1  -5  165.23   11.06
   2  -1   5  175.41   11.18
  -2  -1  -5  174.38   10.07
   2   1   6  999.94   42.78
  -2   1  -6 1002.93   41.54
  -2   1  -6  989.96   47.31
   2   1   6  987.64   46.76
  -2  -1  -6  984.03   42.93
   2  -1   6  982.54   44.49
   2  -1   6 1060.69   46.79
  -2  -1  -6  962.63   44.37
   2   1   7  312.90   16.62
  -2   1  -7  274.37   21.10
  -2   1  -7  318.76   15.28
   2   1   7  323.24   21.84
  -2  -1  -7  327.06   16.98
   2  -1   7  275.76   17.92
  -2  -1  -7  276.44   17.68
   2  -1   7  351.41   22.46
   2   1   8  533.96   26.67
   2   1   8  538.24   32.29
  -2   1  -8  546.19   31.89
   2  -1   8  586.97   34.04
  -2  -1  -8  526.80   28.54
   2  -1   8  526.16   28.49
  -2   1  -9  552.69   33.47
  -2  -1  -9  525.85   38.53
   2  -1   9  483.01   31.45
   2  -1   9  560.78   37.05
  -2   2   9 2405.61  102.99
   2   2  -9 2336.53  110.12
   2   2  -9 2497.18  101.69
  -2  -2   9 2326.89  102.27
   2  -2  -9 2454.17  111.83
   2  -2  -9 2393.48  101.24
  -2   2   8   91.59   11.17
   2   2  -8  137.69   15.68
   2   2  -8  112.01   11.53
   2  -2  -8  110.51   10.64
  -2  -2   8   95.74   12.17
   2  -2  -8  119.94   18.69
  -2  -2   8   89.78   15.79
   2   2  -7 4510.79  175.40
  -2   2   7 4460.51  173.21
  -2   2   7 4228.41  173.88
   2   2  -7 4218.08  172.48
   2  -2  -7 4099.44  171.96
  -2  -2   7 4189.04  173.19
   2  -2  -7 4058.73  179.83
  -2  -2   7 4045.72  177.87
  -2   2   6   47.68    7.08
  -2   2   6   61.93    7.59
   2   2  -6   43.96    5.72
   2   2  -6   50.37    8.51
  -2  -2   6   43.62    6.31
   2  -2  -6   73.73   12.18
  -2  -2   6   43.41    9.28
   2  -2  -6   48.44    5.73
   2   2  -5 3181.84  129.34
  -2   2   5 3084.68  130.21
  -2   2   5 2994.18  129.07
   2   2  -5 3387.24  129.93
   2  -2  -5 3065.35  134.63
  -2  -2   5 3145.77  129.64
   2  -2  -5 3304.78  128.86
  -2   2   4   83.17    6.94
  -2   2   4   88.33    6.67
   2   2  -4   87.07    5.53
   2   2  -4   80.34    6.44
   2   2  -4   80.66    6.88
   2  -2  -4   81.28    6.06
   2  -2  -4   90.74   11.58
  -2  -2   4   90.29    9.33
  -2  -2   4   82.61    6.94
   2   2  -3 3498.99  141.14
   2   2  -3 3687.67  141.13
  -2   2   3 3508.00  142.32
   2   2  -3 3854.07  143.55
  -2   2   3 3690.49  143.95
  -2  -2   3 3583.04  143.75
   2  -2  -3 3428.33  142.60
  -2  -2   3 3461.76  144.91
   2  -2  -3 3082.43  145.76
  -2   2   2  114.12    6.40
   2   2  -2  125.18    7.42
  -2   2   2   99.03    7.24
   2  -2  -2  111.00    9.16
  -2  -2   2  111.87    8.27
   2  -2  -2  116.48    7.60
  -2   2   1 4627.68  181.28
   2   2  -1 4674.02  179.49
   2   2  -1 4773.36  181.52
  -2   2   1 4660.22  181.01
  -2  -2   1 4475.19  181.29
  -2  -2   1 3767.30  182.11
  -2  -2   1 4480.12  179.46
   2   2   0   40.72    5.19
  -2   2   0   45.61    4.44
  -2   2   0   44.40    5.03
   2   2   0   36.20    3.37
  -2  -2   0   43.07    5.04
   2  -2   0   48.15    4.39
   2  -2   0   33.58    4.41
  -2  -2   0   37.69    3.65
  -2  -2   0   34.26    3.90
   2   2   1 3415.62  137.79
   2   2   1 3376.71  135.66
   2   2   1 3408.34  134.67
  -2   2  -1 2986.79  136.93
  -2   2  -1 3262.50  135.58
  -2  -2  -1 3511.31  134.69
  -2  -2  -1 3409.66  136.00
   2  -2   1 3624.10  136.03
   2  -2   1 3196.61  135.80
   2   2   2   21.47    3.57
   2   2   2   27.02    3.05
   2   2   2   16.50    4.55
  -2   2  -2   15.70    4.63
  -2   2  -2   20.89    3.36
   2  -2   2   29.45    3.79
   2  -2   2   24.45    3.35
  -2  -2  -2   23.78    3.53
   2  -2   2   15.88    3.17
   2   2   3 4372.21  180.40
   2   2   3 4478.40  180.38
  -2   2  -3 3850.22  181.68
  -2   2  -3 3964.63  178.33
   2   2   3 4738.88  177.75
   2  -2   3 4055.76  179.33
   2  -2   3 4901.08  180.04
  -2  -2  -3 4787.99  179.79
  -2  -2  -3 4954.28  177.10
   2  -2   3 4234.85  177.70
  -2   2  -4  227.11   10.80
   2   2   4  204.52   12.38
  -2   2  -4  214.49   17.62
   2   2   4  189.90   14.73
  -2  -2  -4  184.29   12.74
  -2  -2  -4  210.30    9.48
  -2  -2  -4  213.73   10.20
   2  -2   4  226.89   13.21
   2   2   5 3825.82  160.82
  -2   2  -5 3931.07  158.91
   2   2   5 4011.15  163.36
   2  -2   5 3887.36  161.86
  -2  -2  -5 4111.38  158.73
   2  -2   5 3753.07  162.10
  -2  -2  -5 3988.94  162.27
  -2  -2  -5 4078.59  158.22
   2   2   6  343.79   19.11
   2   2   6  358.34   22.38
  -2   2  -6  384.16   17.27
  -2   2  -6  362.56   24.15
  -2  -2  -6  382.93   16.39
  -2  -2  -6  355.01   19.41
   2  -2   6  376.01   22.24
   2  -2   6  330.11   20.08
   2   2   7 2413.07  105.36
  -2   2  -7 2472.03  111.62
   2   2   7 2563.95  110.03
   2  -2   7 2528.92  107.24
   2  -2   7 2632.77  109.69
  -2  -2  -7 2585.21  106.57
   2   2   8   -0.43    6.74
  -2   2  -8   -0.22   10.82
   2   2   8   10.80    9.90
   2  -2   8   -1.18   12.13
   2  -2   8    9.66    6.63
  -2  -2  -8    2.90    6.44
  -2   2  -9 1288.98   66.68
   2   2   9 1317.21   66.37
  -2  -2  -9 1341.48   60.75
   2  -2   9 1384.37   67.52
   2  -2   9 1268.90   60.86
   2   3  -9  567.35   40.43
  -2   3   9  529.40   40.33
   2   3  -9  588.08   30.44
   2  -3  -9  591.14   42.14
  -2  -3   9  552.26   31.99
   2  -3  -9  572.25   29.82
   2   3  -8    4.50    6.48
  -2   3   8    2.09    9.01
   2   3  -8  -12.10   12.37
   2  -3  -8  -14.36   12.62
  -2  -3   8   -5.02    7.48
   2  -3  -8    0.69    5.97
   2   3  -7  446.59   23.63
  -2   3   7  433.54   25.99
  -2  -3   7  503.90   30.80
  -2  -3   7  464.94   25.44
   2  -3  -7  451.32   23.21
   2  -3  -7  470.27   31.24
   2   3  -6  475.27   24.08
  -2   3   6  474.30   26.20
  -2  -3   6  484.15   28.60
   2  -3  -6  488.10   30.87
   2  -3  -6  488.83   23.70
  -2  -3   6  511.01   25.83
  -2   3   5  679.12   33.03
  -2   3   5  753.79   29.75
   2   3  -5  637.38   31.19
   2  -3  -5  692.03   36.76
   2  -3  -5  673.91   30.84
  -2  -3   5  612.65   34.56
  -2  -3   5  684.17   35.30
  -2   3   4 3476.75  140.54
   2   3  -4 3607.98  140.39
  -2   3   4 3432.31  137.20
  -2  -3   4 3277.29  141.58
   2  -3  -4 3384.04  138.58
  -2  -3   4 3285.26  140.51
   2  -3  -4 3309.01  142.79
  -2   3   3  720.93   31.81
  -2   3   3  734.49   35.15
   2   3  -3  769.73   33.78
   2  -3  -3  732.75   33.63
   2  -3  -3  774.72   36.29
  -2  -3   3  773.92   35.54
  -2  -3   3  744.27   35.31
  -2   3   2 3938.85  147.12
   2   3  -2 3839.46  146.37
  -2   3   2 3545.90  144.71
   2  -3  -2 3610.22  147.64
  -2  -3   2 3048.20  147.02
   2  -3  -2 3520.90  146.27
  -2  -3   2 3534.04  146.70
  -2   3   1  861.86   37.67
  -2   3   1  854.49   38.52
  -2  -3   1  835.64   37.63
   2  -3  -1  805.81   38.03
  -2  -3   1  891.02   39.61
  -2  -3   1  879.32   35.28
   2  -3  -1  875.56   38.72
  -2   3   0 4747.68  188.43
   2   3   0 4944.92  189.83
   2   3   0 4831.04  186.51
  -2   3   0 4405.91  188.44
   2  -3   0 4209.73  187.71
  -2  -3   0 4711.83  189.27
  -2  -3   0 4855.14  187.16
   2  -3   0 4360.49  188.19
  -2   3  -1 1255.00   54.91
   2   3   1 1285.15   54.16
   2   3   1 1339.61   56.83
  -2   3  -1 1238.73   56.11
   2  -3   1 1372.50   55.57
  -2  -3  -1 1357.11   53.28
   2  -3   1 1176.19   54.29
  -2  -3  -1 1251.48   55.19
   2   3   2 2876.52  118.12
  -2   3  -2 3041.90  120.70
  -2   3  -2 2748.75  122.90
   2   3   2 2953.41  123.09
   2   3   2 2956.44  120.94
  -2  -3  -2 3166.33  121.25
  -2  -3  -2 2917.56  119.17
   2  -3   2 2594.42  120.02
   2  -3   2 3251.96  121.80
   2   3   3  653.93   33.46
  -2   3  -3  681.33   34.63
  -2   3  -3  694.00   30.85
   2   3   3  681.76   31.88
  -2  -3  -3  687.75   31.23
   2  -3   3  678.11   31.02
   2  -3   3  684.98   32.00
  -2   3  -4  429.41   21.00
   2   3   4  436.13   23.89
  -2   3  -4  388.61   24.37
   2   3   4  434.09   23.14
   2  -3   4  391.35   21.72
   2  -3   4  445.10   21.83
  -2  -3  -4  416.31   21.18
   2   3   5  943.83   44.38
   2   3   5  911.17   46.53
  -2   3  -5  973.86   47.81
  -2   3  -5  963.72   41.31
   2  -3   5  952.80   43.19
   2  -3   5  934.54   43.45
  -2  -3  -5  909.20   42.10
  -2   3  -6  146.34   11.32
  -2   3  -6  115.76   15.50
   2   3   6  134.87   13.93
   2   3   6  163.13   14.15
   2  -3   6  146.70   15.28
  -2  -3  -6  120.90   11.05
   2  -3   6  115.69   13.02
  -2   3  -7  586.96   37.61
   2   3   7  601.23   34.48
   2   3   7  617.28   31.57
  -2  -3  -7  576.45   30.29
   2  -3   7  671.40   35.15
   2  -3   7  596.90   32.19
  -2   3  -8   31.67   15.01
   2   3   8   18.97    9.23
   2   3   8   14.98   11.54
   2  -3   8   26.12   14.27
  -2  -3  -8   16.83    7.72
   2  -3   8   34.21   12.70
   2   4  -8  649.87   42.34
   2   4  -8  672.09   34.28
  -2   4   8  664.85   38.15
   2  -4  -8  637.38   33.17
  -2  -4   8  652.05   37.47
   2  -4  -8  629.81   40.56
  -2   4   7  176.98   18.74
   2   4  -7  168.91   20.34
   2   4  -7  193.10   16.39
  -2  -4   7  169.59   18.46
   2  -4  -7  186.82   20.82
   2  -4  -7  188.38   14.71
   2   4  -6 1046.43   47.28
  -2   4   6 1052.70   50.81
   2  -4  -6 1018.40   46.99
  -2  -4   6 1016.50   50.06
   2  -4  -6 1053.51   52.96
  -2  -4   6 1048.24   52.35
   2   4  -5   39.55    7.24
  -2   4   5   42.87    9.63
   2  -4  -5   43.85    7.63
  -2  -4   5   49.21    9.29
  -2  -4   5   55.94   10.07
   2  -4  -5   55.30   11.14
  -2   4   4  785.81   32.17
  -2   4   4  782.67   38.44
   2   4  -4  722.34   35.29
  -2  -4   4  750.21   37.55
   2  -4  -4  724.36   35.42
  -2  -4   4  736.72   38.28
   2  -4  -4  744.65   37.81
   2   4  -3  130.54   17.29
  -2   4   3  162.22   10.21
  -2   4   3  179.62   15.02
   2  -4  -3  170.13   14.77
  -2  -4   3  168.82   15.29
  -2   4   2  642.36   33.15
  -2   4   2  608.06   29.52
   2   4  -2  633.05   31.71
   2  -4  -2  666.66   32.19
  -2  -4   2  627.11   33.29
   2  -4  -2  715.52   31.46
  -2   4   1  115.59   11.72
   2   4  -1  134.33   12.27
  -2   4   1  121.49   10.40
   2  -4  -1  145.43   11.68
  -2  -4   1  134.02   10.65
   2  -4  -1  140.42   11.39
  -2  -4   1  140.85    8.42
  -2  -4   1  138.02    8.13
  -2  -4   1  133.67   12.11
   2   4   0  244.19   16.94
  -2   4   0  285.50   17.41
  -2   4   0  286.74   17.18
  -2  -4   0  278.84   15.59
  -2  -4   0  276.26   17.26
   2  -4   0  291.77   15.90
  -2  -4   0  280.01   15.06
  -2   4  -1  425.18   22.44
   2   4   1  427.64   23.93
  -2   4  -1  399.45   22.62
   2   4   1  406.78   20.59
   2   4   1  408.49   20.09
   2  -4   1  389.71   20.92
  -2  -4  -1  432.88   20.08
   2  -4   1  411.23   22.90
  -2  -4  -1  425.08   24.95
  -2   4  -2  780.81   38.02
   2   4   2  778.33   38.08
   2   4   2  818.94   32.66
  -2   4  -2  806.61   35.81
   2   4   2  719.14   32.29
   2   4   2  797.95   35.42
   2  -4   2  687.17   34.34
   2  -4   2  729.96   39.40
  -2   4  -3   67.42    8.04
   2   4   3   57.29   10.60
  -2   4  -3   64.33   10.25
   2   4   3   56.22    8.44
   2  -4   3   58.10    7.84
  -2  -4  -3   62.22    7.77
   2  -4   3   74.04    9.57
  -2   4  -4 1579.70   64.43
   2   4   4 1353.93   67.67
  -2   4  -4 1529.75   69.03
   2   4   4 1412.09   65.84
   2  -4   4 1540.77   67.11
   2  -4   4 1515.91   64.36
  -2  -4  -4 1513.43   65.17
  -2   4  -5  164.04   13.79
  -2   4  -5  158.81   17.21
   2   4   5  146.36   15.36
   2   4   5  149.68   17.02
   2  -4   5  147.05   14.64
  -2  -4  -5  163.86   12.88
   2  -4   5  155.71   15.48
   2   4   6 1057.43   53.43
   2   4   6 1100.35   55.23
  -2   4  -6 1208.93   57.54
   2  -4   6 1157.28   54.09
  -2  -4  -6 1104.38   51.07
  -2   4  -7   56.98   24.73
   2   4   7   66.50   12.29
   2   4   7   42.33   11.41
  -2  -4  -7   47.13    8.72
   2   5  -7   61.06   12.38
   2   5  -7   58.37   15.78
  -2   5   7   64.86   16.65
   2  -5  -7   75.62   12.20
  -2  -5   7   70.16   15.67
   2  -5  -7   64.27   14.90
  -2   5   6  572.36   36.25
   2   5  -6  544.14   30.30
   2   5  -6  532.66   34.95
   2  -5  -6  498.36   32.74
  -2  -5   6  552.85   35.28
   2  -5  -6  546.47   31.05
   2   5  -5   26.65   10.85
  -2   5   5   14.36   10.82
   2   5  -5   13.42    8.43
   2  -5  -5    0.35    9.63
   2  -5  -5   15.60    7.49
  -2  -5   5   20.00   10.73
  -2   5   4   75.29   14.20
   2   5  -4   86.29   13.07
   2   5  -4   67.86   10.74
  -2  -5   4   64.27   13.20
   2  -5  -4   65.66   10.40
   2  -5  -4   90.85   13.03
   2   5  -3  307.12   21.56
   2   5  -3  326.56   22.28
  -2   5   3  328.85   23.38
   2  -5  -3  311.89   19.46
   2  -5  -3  310.49   20.50
  -2  -5   3  330.37   23.66
  -2   5   2  161.95   15.34
   2   5  -2  154.54   15.03
  -2   5   2  132.22   12.43
   2   5  -2  134.12   14.96
   2  -5  -2  147.69   13.27
  -2  -5   2  150.76   15.60
   2  -5  -2  142.70   13.59
   2   5  -1  984.55   46.59
   2   5  -1  988.53   47.88
  -2   5   1  990.49   48.34
  -2   5   1 1030.59   46.20
   2  -5  -1 1039.96   47.11
  -2  -5   1 1041.80   48.09
   2  -5  -1 1017.98   45.96
  -2   5   0    9.66    6.58
   2   5   0    7.47    5.75
  -2   5   0    3.19    6.63
   2   5   0    1.67    6.59
   2  -5   0   13.25    5.79
   2  -5   0    5.43    5.93
  -2  -5   0    8.72    5.64
  -2  -5   0    0.23    5.07
  -2   5  -1 1065.14   47.85
   2   5   1 1002.28   44.59
  -2   5  -1 1036.30   47.53
   2   5   1  989.65   48.22
  -2  -5  -1 1002.70   45.78
  -2  -5  -1 1038.68   48.09
   2  -5   1 1050.25   45.38
   2  -5   1  951.63   47.84
   2   5   2   83.95   12.20
   2   5   2  100.86   11.96
  -2   5  -2   93.44   10.88
  -2   5  -2   82.80   11.05
  -2  -5  -2   84.44   10.94
   2  -5   2   86.93   10.93
  -2  -5  -2   68.45   10.07
   2  -5   2   60.04   10.70
   2   5   3   41.30   11.22
   2   5   3   49.19    9.08
  -2   5  -3   46.76   10.18
   2  -5   3   44.30    8.34
  -2  -5  -3   40.79    8.88
   2  -5   3   37.89    9.05
  -2   5  -4  672.61   37.19
  -2   5  -4  707.88   42.65
   2   5   4  649.00   34.73
   2   5   4  635.53   38.04
  -2  -5  -4  663.94   34.62
   2  -5   4  631.33   35.98
  -2   5  -5   94.85   14.53
   2   5   5   61.84   14.58
   2   5   5   81.50   13.04
  -2  -5  -5   82.10   11.48
   2  -5   5   69.26   12.32
   2   5   6  555.68   33.40
   2   5   6  540.19   36.98
  -2   5  -6  551.09   34.78
   2  -5   6  520.65   34.45
  -2  -5  -6  556.40   40.72
  -2   6   5  101.36   17.57
   2   6  -5   68.14   15.96
   2   6  -5   76.65   14.61
   2  -6  -5   83.84   13.88
   2  -6  -5   69.59   11.99
  -2  -6   5   88.14   17.87
   2   6  -4   99.53   14.67
   2   6  -4  103.54   14.93
  -2   6   4  106.49   25.49
  -2  -6   4  106.05   18.73
   2  -6  -4   96.42   12.75
   2  -6  -4   97.37   13.12
   2   6  -3   51.80   11.73
   2   6  -3   48.51   11.15
  -2   6   3   47.24   12.63
  -2  -6   3   46.07   11.27
   2  -6  -3   49.80   10.42
   2  -6  -3   65.02   10.54
   2   6  -2  376.17   25.59
   2   6  -2  372.00   25.24
  -2   6   2  373.33   27.11
   2  -6  -2  396.98   23.46
  -2  -6   2  395.58   25.57
   2  -6  -2  395.31   23.76
  -2   6   1   38.58    9.46
  -2   6   1   55.08   12.16
   2   6  -1   50.62   10.18
   2   6  -1   46.53   10.31
  -2  -6   1   61.30   10.29
   2  -6  -1   56.89    8.87
   2  -6  -1   54.28    9.41
   2   6   0  659.43   33.95
  -2   6   0  711.88   35.55
  -2   6   0  675.71   37.24
   2   6   0  669.61   36.54
   2  -6   0  705.56   36.21
   2  -6   0  728.33   33.44
  -2  -6   0  700.88   36.36
  -2   6  -1  220.08   19.29
   2   6   1  222.25   19.74
  -2   6  -1  179.32   18.15
   2  -6   1  210.15   19.51
  -2  -6  -1  195.24   21.27
  -2  -6  -1  214.37   17.79
  -2   6  -2  237.39   20.44
   2   6   2  236.06   21.62
  -2   6  -2  233.63   19.23
   2  -6   2  217.57   21.68
  -2  -6  -2  242.94   19.10
  -2  -6  -2  262.14   20.43
   2   6   3    2.98   10.21
  -2   6  -3   13.08    9.31
  -2   6  -3   15.78    9.57
   2  -6   3    8.18   10.66
  -2  -6  -3   22.33   10.62
  -2  -6  -3    8.80    9.93
  -2   6  -4   12.34   10.41
   2   6   4   24.06   13.54
  -2   6  -4   17.97   11.25
  -2  -6  -4   14.95   11.79
  -2  -6  -4   19.39   12.62
   2  -6   4   18.56   12.53
  -2   6  -5    9.58   11.51
   2   6   5  -15.07   13.19
  -2  -6  -5   11.95   13.67
  -2  -6  -5   22.91   11.16
   2  -6   5   35.10   14.44
  -2   7   2    6.20   12.35
   2   7  -2   57.93   13.85
   2   7  -2   16.09   11.29
   2  -7  -2   20.16    9.88
  -2  -7   2   33.81   10.61
   2  -7  -2   28.40    9.95
  -2   7   1  188.96   21.49
   2   7  -1  159.53   20.14
  -2  -7   1  164.41   18.48
   2  -7  -1  158.87   18.21
   2   7   0  123.28   15.97
   2  -7   0  102.71   14.85
  -2  -7   0  106.49   14.19
  -2   7  -1   90.40   15.04
  -2   7  -1   90.32   13.51
   2   7   1  100.47   14.50
  -2  -7  -1   84.83   13.17
   2  -7   1   79.60   14.00
   3   0 -10   11.22   16.67
  -3   0  10   30.06    9.69
   3   0 -10   27.29    9.40
   3   0 -10   38.59   18.80
   3   0  -9   -9.89    6.70
  -3   0   9    6.58    7.08
   3   0  -9   -5.26   13.70
  -3   0   9   19.65   13.48
  -3   0   8  397.08   23.31
  -3   0   8  508.92   30.16
   3   0  -8  421.43   22.89
   3   0  -8  453.19   31.17
  -3   0   7    0.21    7.71
   3   0  -7  -10.00    8.86
  -3   0   7    5.46    4.31
  -3   0   6 1426.42   61.67
   3   0  -6 1409.12   63.78
  -3   0   6 1344.97   59.09
  -3   0   6 1375.38   57.81
   3   0  -5    6.89    6.11
  -3   0   5    4.04    4.04
  -3   0   5    1.71    3.05
  -3   0   5    2.01    2.02
  -3   0   4 1310.50   58.27
  -3   0   4 1423.21   56.24
  -3   0   4 1391.65   57.77
   3   0  -4 1385.99   59.87
  -3   0   3    3.40    1.98
  -3   0   3    0.55    1.10
   3   0  -3    3.41    3.07
  -3   0   3   -0.21    2.10
   3   0  -3    1.94    1.44
  -3   0   2  866.53   35.87
  -3   0   2  880.09   34.06
   3   0  -2  747.84   34.35
  -3   0   2  865.72   35.72
   3   0  -2  882.68   36.29
   3   0  -1    1.13    0.76
  -3   0   1    1.90    1.32
  -3   0   1    2.69    0.93
   3   0  -1    1.48    1.46
  -3   0   1    4.61    1.51
  -3   0   0  533.89   22.28
   3   0   0  547.54   22.94
  -3   0   0  508.21   22.16
   3   0   0  546.86   22.39
  -3   0   0  536.69   22.94
   3   0   0  530.86   22.34
  -3   0  -1    2.41    1.36
  -3   0  -1    2.80    1.45
   3   0   1    0.48    0.97
   3   0   1    0.83    1.26
   3   0   2  642.37   25.56
   3   0   2  589.01   26.83
  -3   0  -2  627.48   25.39
   3   0   2  626.72   27.49
  -3   0  -2  628.51   27.12
  -3   0  -3   -0.12    2.04
   3   0   3   -0.97    2.44
  -3   0  -3    4.10    2.18
   3   0   3   -3.18    2.07
   3   0   3    1.51    1.12
  -3   0  -4  569.93   27.14
   3   0   4  654.66   29.50
   3   0   4  630.57   25.89
   3   0   4  636.23   28.30
  -3   0  -4  634.74   28.51
  -3   0  -5    4.77    3.84
   3   0   5   11.98    6.16
   3   0   5    1.11    5.16
   3   0   5    0.61    2.11
   3   0   6  300.12   19.34
   3   0   6  275.05   13.26
  -3   0  -6  277.61   17.16
   3   0   7   11.40    8.62
  -3   0  -7    2.90    7.07
  -3   0  -7   -8.83    5.26
  -3   0  -8  489.02   27.78
   3   0   8  462.28   31.75
  -3   0  -8  481.67   27.20
  -3   0  -9  -13.60    8.91
  -3   0  -9    6.35    9.79
   3   0   9  -11.36   23.02
  -3   1   9   17.46    7.77
   3   1  -9   33.69    8.36
  -3   1   9   14.98   12.86
   3   1  -9   47.26   14.36
  -3  -1   9   34.23   13.68
   3  -1  -9   30.42   16.14
   3  -1  -9   17.89    7.26
  -3  -1   9   26.39    7.39
   3   1  -8  390.61   27.16
  -3   1   8  341.91   21.68
  -3   1   8  431.39   30.37
   3   1  -8  387.76   21.69
   3  -1  -8  375.64   29.91
  -3  -1   8  382.05   28.13
  -3  -1   8  372.99   20.40
  -3   1   7  223.40   17.85
   3   1  -7  200.73   13.94
  -3   1   7  210.27   14.15
  -3  -1   7  202.54   12.81
  -3  -1   7  194.14   18.94
   3  -1  -7  205.14   12.40
   3  -1  -7  241.91   21.68
  -3   1   6   98.53    9.30
   3   1  -6  121.05   12.87
  -3   1   6   98.02   11.16
   3   1  -6   97.78    8.88
  -3  -1   6  108.97   11.59
  -3  -1   6  111.11    8.37
   3  -1  -6   98.42   15.44
   3  -1  -6  103.29    7.65
   3   1  -5 1608.70   66.76
   3   1  -5 1610.82   68.01
  -3   1   5 1576.72   67.43
   3  -1  -5 1512.24   70.67
  -3  -1   5 1600.82   68.73
  -3  -1   5 1645.36   65.93
   3  -1  -5 1553.79   65.12
  -3   1   4  210.91   11.79
   3   1  -4  226.54   12.06
   3   1  -4  191.68   11.13
  -3   1   4  194.64   11.37
  -3  -1   4  229.18   13.10
  -3  -1   4  194.13   10.27
   3  -1  -4  205.36    9.77
   3  -1  -4  197.80   14.84
   3   1  -3  543.67   25.28
  -3   1   3  583.12   25.28
  -3   1   3  558.08   25.51
   3   1  -3  591.95   24.88
   3  -1  -3  601.61   23.76
   3  -1  -3  583.43   23.76
  -3  -1   3  559.09   26.06
  -3  -1   3  552.39   24.36
   3  -1  -3  573.34   27.94
   3   1  -2  495.87   20.79
  -3   1   2  481.62   21.47
   3   1  -2  472.68   21.56
  -3   1   2  478.92   21.65
  -3   1   2  490.33   19.98
  -3  -1   2  448.64   22.28
  -3  -1   2  550.16   21.62
   3  -1  -2  479.06   20.34
   3  -1  -2  504.75   23.41
  -3   1   1   34.76    3.24
   3   1  -1   39.54    4.40
   3   1  -1   33.77    3.32
  -3   1   1   32.57    3.35
  -3   1   1   40.30    3.49
   3   1  -1   33.49    2.82
   3  -1  -1   36.30    4.43
  -3  -1   1   35.68    3.35
  -3  -1   1   41.22    4.45
  -3  -1   1   36.10    3.63
   3  -1  -1   32.56    2.26
  -3   1   0 1546.53   63.81
  -3   1   0 1663.54   64.00
   3   1   0 1606.33   64.30
   3   1   0 1581.95   64.53
  -3   1   0 1639.35   65.12
   3  -1   0 1452.66   63.76
  -3  -1   0 1542.67   64.29
   3  -1   0 1555.39   65.12
   3  -1   0 1637.06   63.94
  -3  -1   0 1547.93   64.37
  -3   1  -1  234.49   12.64
   3   1   1  266.07   12.85
  -3   1  -1  253.00   10.74
   3  -1   1  252.57   10.80
  -3  -1  -1  257.94   12.02
  -3  -1  -1  249.89   11.53
   3  -1   1  241.06   11.77
   3  -1   1  257.97   12.46
  -3   1  -2 2658.68  112.78
   3   1   2 2723.55  112.17
  -3  -1  -2 2767.33  111.76
   3  -1   2 2563.13  112.00
  -3  -1  -2 2723.24  110.87
   3  -1   2 3058.36  112.02
  -3   1  -3  415.68   20.42
   3   1   3  421.98   18.50
   3   1   3  396.87   19.82
  -3  -1  -3  418.50   18.01
  -3  -1  -3  372.16   18.83
   3  -1   3  414.92   19.86
   3  -1   3  384.14   19.02
   3   1   4 1657.88   66.14
  -3   1  -4 1546.65   68.98
   3   1   4 1620.85   69.07
  -3  -1  -4 1503.21   67.67
   3  -1   4 1601.02   68.52
  -3  -1  -4 1673.01   66.28
   3  -1   4 1646.55   67.86
  -3   1  -5   20.55    6.10
   3   1   5   14.27    3.37
   3   1   5   15.44    6.02
  -3  -1  -5   11.47    4.09
  -3  -1  -5   15.74    3.44
   3  -1   5   14.01    5.91
   3  -1   5   11.70    3.77
   3   1   6  456.16   21.38
   3   1   6  443.17   25.11
  -3   1  -6  475.85   25.85
  -3  -1  -6  428.23   23.43
   3  -1   6  501.94   26.43
  -3  -1  -6  462.89   21.79
   3  -1   6  439.31   23.34
   3   1   7   71.01   11.36
  -3   1  -7  115.14   14.08
   3  -1   7   58.92    7.96
  -3  -1  -7   79.51    9.10
   3  -1   7   99.08   13.53
  -3  -1  -7   81.23    9.49
   3   1   8  104.75   16.11
  -3   1  -8  133.69   17.12
   3  -1   8  113.38   12.90
  -3  -1  -8  110.71   12.80
   3  -1   8  115.81   16.15
   3   1   9   16.85   12.67
  -3   1  -9    9.82    9.89
  -3   1  -9   14.28   11.19
  -3  -1  -9    6.67    8.27
   3  -1   9   16.34   15.55
  -3   2   9   94.21   12.08
   3   2  -9  116.19   14.15
  -3  -2   9   75.96   10.79
  -3  -2   9   98.97   17.86
   3  -2  -9  115.00   20.40
   3  -2  -9   90.73   10.07
  -3   2   8  248.01   18.49
   3   2  -8  256.39   16.94
  -3  -2   8  287.07   24.46
   3  -2  -8  291.20   27.72
  -3  -2   8  261.85   17.38
   3  -2  -8  245.72   15.89
   3   2  -7  707.98   34.64
   3   2  -7  813.09   36.28
  -3   2   7  803.39   36.92
  -3   2   7  710.51   36.17
  -3  -2   7  749.41   39.28
   3  -2  -7  719.80   34.78
  -3  -2   7  721.94   34.90
   3  -2  -7  787.65   43.00
  -3   2   6  260.62   16.15
   3   2  -6  243.60   14.64
  -3   2   6  225.05   15.18
   3   2  -6  217.02   14.17
  -3  -2   6  212.76   13.86
   3  -2  -6  293.03   22.16
  -3  -2   6  250.87   18.64
   3  -2  -6  236.46   13.05
   3   2  -5 1636.47   69.38
  -3   2   5 1563.09   70.36
   3   2  -5 1711.78   68.34
  -3   2   5 1620.30   69.45
  -3  -2   5 1613.39   69.20
   3  -2  -5 1699.18   76.65
   3  -2  -5 1735.15   68.20
  -3  -2   5 1621.85   72.39
  -3   2   4  280.24   14.39
   3   2  -4  270.04   13.17
  -3   2   4  270.35   14.97
   3   2  -4  282.63   12.67
   3   2  -4  265.09   14.39
   3  -2  -4  280.11   13.38
   3  -2  -4  286.52   18.26
  -3  -2   4  280.29   14.35
   3   2  -3 1305.89   54.57
  -3   2   3 1369.32   55.88
  -3   2   3 1335.04   56.78
   3   2  -3 1341.09   56.39
   3   2  -3 1344.15   54.63
   3  -2  -3 1297.47   59.19
  -3  -2   3 1271.26   57.33
   3  -2  -3 1332.39   55.74
  -3  -2   3 1478.63   57.15
  -3   2   2 2573.77   97.24
  -3   2   2 2590.00   97.75
   3   2  -2 2632.43   97.79
   3  -2  -2 2203.63   99.24
  -3  -2   2 2087.12   98.24
  -3  -2   2 2228.19   96.09
  -3  -2   2 2450.75   98.01
   3  -2  -2 2263.12   96.91
   3   2  -1  981.61   39.26
  -3   2   1  925.38   40.42
   3   2  -1  963.14   40.98
  -3   2   1  989.40   40.90
  -3  -2   1  942.90   42.32
  -3  -2   1  917.78   39.52
  -3  -2   1  958.71   40.68
   3  -2  -1  929.92   42.06
   3  -2  -1 1000.84   40.24
   3   2   0 2319.22   92.48
   3   2   0 2244.42   93.93
  -3   2   0 2312.39   94.25
  -3   2   0 2414.84   92.89
  -3  -2   0 2291.13   92.76
  -3  -2   0 2148.67   93.58
   3  -2   0 2363.26   92.87
   3  -2   0 2145.79   94.03
  -3   2  -1   23.06    2.78
   3   2   1   25.07    3.56
   3   2   1   19.97    4.81
  -3   2  -1   20.98    4.35
  -3  -2  -1   14.60    2.93
   3  -2   1   20.42    3.15
  -3  -2  -1   23.81    3.07
   3  -2   1   33.82    4.32
  -3   2  -2 2394.94   89.74
  -3   2  -2 2139.46   93.12
   3   2   2 2133.28   92.91
   3   2   2 2226.10   91.53
  -3  -2  -2 2209.11   91.31
   3  -2   2 2158.02   91.50
  -3  -2  -2 2495.25   89.78
   3  -2   2 2276.85   91.26
   3  -2   2 1928.92   89.80
  -3   2  -3  122.50    9.20
  -3   2  -3  123.28   10.60
   3   2   3  136.17   11.18
   3   2   3  125.92    9.14
   3   2   3  130.47   10.65
  -3  -2  -3  138.91    6.72
   3  -2   3  127.37    8.98
   3  -2   3  133.45    9.49
  -3  -2  -3  127.16    8.69
   3   2   4 2217.49   91.26
  -3   2  -4 2339.50   88.00
   3   2   4 2155.85   92.24
  -3   2  -4 2065.08   93.89
  -3  -2  -4 2342.15   88.59
   3  -2   4 2149.43   91.53
   3  -2   4 2116.21   92.01
  -3  -2  -4 2119.81   91.07
   3   2   5   97.36    9.74
  -3   2  -5   76.32   10.58
   3   2   5  104.78   11.29
  -3  -2  -5  109.09    9.10
  -3  -2  -5  118.41    6.40
   3  -2   5   85.38    9.49
   3   2   6  342.96   21.21
  -3   2  -6  343.88   22.89
  -3  -2  -6  324.79   18.89
  -3  -2  -6  340.69   15.76
   3  -2   6  320.40   19.72
   3  -2   6  351.35   23.25
  -3   2  -7  878.11   45.63
   3   2   7  814.84   38.86
   3   2   7  890.58   43.50
  -3  -2  -7  867.06   40.57
   3  -2   7  833.85   41.20
   3  -2   7  868.77   44.69
   3   2   8  156.26   19.69
  -3   2  -8  153.98   19.02
   3   2   8  137.52   14.36
   3  -2   8  153.91   19.26
  -3  -2  -8  149.76   14.78
   3  -2   8  147.48   15.27
   3   3  -9  758.88   37.99
  -3   3   9  753.97   40.77
   3   3  -9  749.83   47.95
  -3  -3   9  752.74   46.79
  -3  -3   9  697.82   39.07
   3  -3  -9  837.48   49.54
  -3   3   8   60.66   11.21
   3   3  -8   51.73    8.80
   3  -3  -8   74.07    9.09
  -3  -3   8   54.65   13.08
  -3  -3   8   52.97   10.17
   3  -3  -8   73.85   16.27
   3   3  -7  932.84   43.05
  -3   3   7  909.68   45.19
   3  -3  -7  967.83   50.09
  -3  -3   7  949.94   44.24
  -3  -3   7  955.82   48.92
  -3   3   6 1219.61   57.52
   3   3  -6 1244.87   55.76
  -3   3   6 1405.66   55.54
  -3  -3   6 1222.83   59.59
   3  -3  -6 1339.98   55.03
   3  -3  -6 1241.47   61.18
  -3  -3   6 1254.19   56.63
   3   3  -5 1713.00   73.72
  -3   3   5 1735.77   75.26
  -3   3   5 1781.38   72.97
   3  -3  -5 1749.05   72.92
   3  -3  -5 1682.97   78.09
  -3  -3   5 1679.94   76.76
  -3  -3   5 1840.03   76.39
  -3   3   4 1438.79   60.75
   3   3  -4 1498.13   62.09
  -3   3   4 1413.61   65.12
   3  -3  -4 1446.48   61.47
  -3   3   3 2051.10   85.10
  -3   3   3 2067.76   82.71
   3  -3  -3 1994.97   83.77
  -3  -3   3 1903.01   85.29
  -3   3   2 1344.21   54.50
   3   3  -2 1322.87   55.23
  -3   3   2 1300.64   55.56
  -3  -3   2 1234.98   56.76
   3  -3  -2 1277.43   54.78
   3  -3  -2 1235.32   56.53
  -3  -3   2 1254.17   55.28
  -3   3   1 1818.67   74.18
   3   3  -1 1736.68   74.36
  -3   3   1 1848.12   74.20
   3   3  -1 1839.97   71.51
   3  -3  -1 1686.70   73.64
  -3  -3   1 1780.72   75.51
  -3  -3   1 1688.11   71.54
  -3  -3   1 1754.00   73.50
   3  -3  -1 1688.09   74.86
  -3   3   0  155.01   11.28
  -3   3   0  160.05   10.50
   3   3   0  166.67    9.23
   3   3   0  169.43   12.22
   3  -3   0  175.88   11.57
  -3  -3   0  164.66   11.83
   3  -3   0  168.76   10.81
  -3  -3   0  170.19    9.71
  -3   3  -1 2128.75   95.82
  -3   3  -1 2328.72   93.88
   3   3   1 2294.30   93.46
   3   3   1 2415.66   96.71
   3  -3   1 2286.27   94.31
   3  -3   1 2067.69   94.46
  -3  -3  -1 2335.86   94.73
  -3  -3  -1 2327.22   92.63
   3   3   2  262.56   14.79
   3   3   2  278.77   17.40
  -3   3  -2  282.88   14.66
  -3  -3  -2  240.47   16.05
   3  -3   2  273.22   15.42
  -3  -3  -2  269.90   12.57
   3  -3   2  271.15   15.18
  -3   3  -3 1022.98   42.97
   3   3   3 1027.07   41.56
  -3   3  -3  952.06   47.27
   3   3   3  891.45   48.30
  -3  -3  -3 1085.80   46.05
   3  -3   3  996.90   44.75
   3  -3   3 1005.83   44.68
   3   3   4   79.65   10.15
   3   3   4  108.17   10.91
  -3   3  -4   73.82    8.12
  -3   3  -4   92.00   11.61
   3  -3   4   70.72    8.52
  -3  -3  -4   71.13    8.20
   3  -3   4   84.08   10.05
   3   3   5 1049.23   49.82
  -3   3  -5 1002.73   51.98
   3   3   5 1031.88   49.11
  -3   3  -5 1182.27   47.66
  -3  -3  -5 1059.98   47.87
   3  -3   5 1087.63   49.02
   3   3   6   91.13   10.72
   3   3   6   81.12   11.79
  -3   3  -6   90.80   13.71
  -3  -3  -6   75.61    9.01
   3  -3   6   74.94   14.91
   3  -3   6   89.36   10.90
   3   3   7  868.99   43.00
   3   3   7  935.23   47.02
  -3   3  -7  981.96   50.60
  -3  -3  -7  856.78   42.61
   3  -3   7  914.93   44.72
   3  -3   7  928.16   47.46
   3   3   8  413.13   28.68
  -3   3  -8  393.77   32.74
   3   3   8  393.12   24.92
  -3  -3  -8  405.16   24.67
   3  -3   8  459.67   33.04
   3  -3   8  374.75   25.95
   3   4  -8  354.82   29.74
   3   4  -8  324.62   22.55
  -3   4   8  338.68   27.14
   3  -4  -8  346.94   28.48
   3  -4  -8  345.04   23.47
  -3  -4   8  286.62   24.28
  -3  -4   8  296.01   27.05
  -3   4   7  515.27   32.51
   3   4  -7  510.96   28.50
  -3  -4   7  556.75   34.91
   3  -4  -7  519.26   28.34
   3  -4  -7  554.02   35.53
  -3  -4   7  557.00   31.87
  -3   4   6  803.36   42.10
   3   4  -6  835.20   39.86
  -3  -4   6  851.10   42.20
   3  -4  -6  819.63   39.15
   3  -4  -6  821.52   44.14
  -3  -4   6  858.82   43.65
  -3   4   5  696.41   35.78
   3   4  -5  684.90   33.04
  -3  -4   5  657.45   35.92
   3  -4  -5  694.43   37.39
  -3  -4   5  666.76   35.35
   3  -4  -5  650.19   32.56
  -3   4   4  511.71   29.36
   3   4  -4  552.68   27.68
  -3   4   4  531.76   25.83
  -3  -4   4  565.79   29.80
  -3  -4   4  560.16   30.31
   3  -4  -4  539.96   30.44
  -3   4   3 1965.13   82.33
  -3   4   3 1855.74   78.59
   3   4  -3 1965.43   80.70
   3  -4  -3 1900.87   81.91
  -3  -4   3 1831.39   81.14
  -3  -4   3 1678.88   81.87
   3  -4  -3 1964.74   80.06
  -3   4   2  325.18   17.97
   3   4  -2  321.76   19.29
   3  -4  -2  354.72   19.77
  -3  -4   2  309.00   18.95
   3  -4  -2  336.66   18.65
  -3  -4   2  320.28   20.76
  -3   4   1 2892.56  122.86
   3   4  -1 2975.40  123.74
  -3   4   1 2708.31  122.11
  -3  -4   1 3109.16  119.22
   3  -4  -1 3047.04  122.76
   3  -4  -1 2993.68  122.41
  -3  -4   1 2879.78  118.94
  -3  -4   1 2953.22  121.88
   3   4   0   83.77   10.54
  -3   4   0   83.25   10.08
  -3   4   0   68.99    8.98
   3   4   0   93.25    7.81
   3  -4   0   91.37    9.95
  -3  -4   0   81.10    8.50
  -3  -4   0   82.48   11.33
  -3   4  -1 5064.55  208.69
   3   4   1 5413.15  209.16
   3   4   1 5185.31  205.64
  -3   4  -1 4749.14  206.56
   3  -4   1 4399.25  206.29
  -3  -4  -1 5497.41  205.15
  -3  -4  -1 5025.47  207.87
   3  -4   1 5257.06  207.88
   3   4   2   83.65    8.97
  -3   4  -2   73.01   10.19
  -3   4  -2   80.47    9.50
   3   4   2   69.17    9.57
   3  -4   2   74.64    9.35
  -3  -4  -2   80.44    7.14
  -3  -4  -2   58.41    7.88
   3  -4   2   89.07   10.29
   3   4   3 5044.33  200.86
   3   4   3 4612.15  194.16
  -3   4  -3 4448.01  194.04
  -3   4  -3 4657.21  190.22
  -3  -4  -3 4588.64  191.46
   3  -4   3 4704.52  192.54
   3   4   4  199.22   15.91
   3   4   4  196.13   18.61
  -3   4  -4  206.80   18.62
  -3   4  -4  217.47   14.82
  -3  -4  -4  199.57   13.94
   3  -4   4  207.17   16.53
   3  -4   4  187.37   15.40
  -3   4  -5 2379.84  101.29
   3   4   5 2164.79   97.21
   3   4   5 2093.64   98.36
  -3  -4  -5 2271.91   95.88
   3  -4   5 2339.75   97.93
   3   4   6  211.05   19.55
  -3   4  -6  221.78   20.98
   3   4   6  226.06   22.05
   3  -4   6  215.81   29.75
  -3  -4  -6  172.35   14.97
   3  -4   6  207.75   18.37
   3   4   7  459.00   31.12
  -3   4  -7  485.71   35.48
   3   4   7  455.34   31.12
   3  -4   7  481.26   30.00
  -3  -4  -7  468.40   26.89
   3   5  -7  566.21   38.88
   3   5  -7  535.66   32.54
  -3   5   7  522.60   37.27
  -3  -5   7  606.44   37.61
   3  -5  -7  571.39   32.77
   3  -5  -7  576.86   37.00
  -3   5   6 2639.17  135.91
   3   5  -6 2843.20  125.83
   3   5  -6 2873.10  119.98
   3  -5  -6 2960.75  123.88
   3  -5  -6 2666.62  119.21
  -3  -5   6 2916.38  123.67
  -3  -5   6 2762.88  123.81
  -3   5   5 1081.41   53.83
   3   5  -5 1045.22   50.08
  -3  -5   5 1013.32   53.63
   3  -5  -5 1100.75   49.62
   3  -5  -5 1047.94   51.73
  -3  -5   5 1030.68   51.87
  -3   5   4 2959.51  126.69
   3   5  -4 2886.86  123.86
   3  -5  -4 3026.37  124.93
  -3  -5   4 2702.33  125.99
   3  -5  -4 2908.66  122.48
  -3  -5   4 3043.69  125.55
  -3   5   3  590.71   32.19
  -3   5   3  693.39   37.91
   3   5  -3  694.08   35.72
  -3  -5   3  701.00   36.97
   3  -5  -3  687.21   34.99
   3  -5  -3  710.49   33.83
  -3  -5   3  696.89   35.42
   3   5  -2 3391.54  141.92
  -3   5   2 3019.46  138.73
  -3   5   2 3106.87  141.71
  -3  -5   2 3454.89  142.00
  -3  -5   2 3427.29  140.62
   3  -5  -2 3518.18  140.39
   3  -5  -2 3602.60  140.15
   3   5  -1  281.64   21.06
  -3   5   1  330.84   22.52
  -3   5   1  282.56   20.71
   3  -5  -1  288.56   19.20
  -3  -5   1  304.38   18.63
  -3  -5   1  318.03   20.24
   3   5   0 2584.85  116.70
  -3   5   0 2608.01  116.33
  -3  -5   0 2804.20  113.21
   3  -5   0 2951.67  115.28
   3  -5   0 2625.49  116.27
  -3  -5   0 2826.86  117.02
  -3  -5   0 2833.86  114.57
  -3   5  -1   72.13   10.68
   3   5   1   78.88    9.07
   3   5   1   80.16    8.56
  -3   5  -1  110.55   13.44
   3   5   1   77.72   10.31
   3  -5   1   93.59   10.53
   3  -5   1   83.18   11.19
  -3  -5  -1   76.21   11.10
   3   5   2 1825.37   78.85
  -3   5  -2 1797.37   78.51
   3   5   2 1723.39   75.42
  -3   5  -2 1745.09   76.45
  -3  -5  -2 1731.15   77.62
   3  -5   2 1653.61   77.67
   3  -5   2 1779.18   75.51
   3   5   3   50.36   11.36
  -3   5  -3   56.53   10.05
  -3   5  -3   58.22   11.44
   3   5   3   54.24    9.59
   3  -5   3   61.37   10.11
  -3  -5  -3   59.75    9.56
   3  -5   3   58.98   10.84
  -3   5  -4 1673.76   75.79
   3   5   4 1596.11   76.07
  -3   5  -4 1682.66   70.84
   3   5   4 1473.76   72.14
   3  -5   4 1649.97   75.16
  -3  -5  -4 1660.50   72.96
  -3   5  -5   99.04   15.02
   3   5   5   89.37   13.84
   3   5   5   81.61   14.56
  -3  -5  -5   93.68   12.03
   3  -5   5   78.17   14.03
   3   5   6 1265.08   67.91
  -3   5  -6 1488.00   69.29
   3  -5   6 1380.88   66.90
  -3  -5  -6 1314.07   62.61
   3   6  -5  323.55   27.55
  -3   6   5  294.03   29.62
   3  -6  -5  343.25   23.30
  -3  -6   5  285.69   29.13
   3  -6  -5  282.90   28.32
   3   6  -4  602.74   36.59
   3   6  -4  641.84   36.91
   3  -6  -4  607.62   33.16
  -3  -6   4  641.93   48.50
   3  -6  -4  620.18   34.41
   3   6  -3  744.06   40.31
   3   6  -3  719.43   40.81
  -3   6   3  715.23   42.49
   3  -6  -3  759.67   38.03
  -3  -6   3  820.02   41.99
   3  -6  -3  750.62   38.13
   3   6  -2 1792.44   83.25
  -3   6   2 1769.68   84.23
   3   6  -2 1853.54   82.16
   3  -6  -2 1893.31   81.37
  -3  -6   2 1906.38   83.39
   3  -6  -2 1901.29   80.77
   3   6  -1  674.43   36.87
   3   6  -1  653.56   34.79
  -3   6   1  617.31   37.40
  -3   6   1  692.40   35.46
   3  -6  -1  736.55   34.39
  -3  -6   1  704.76   36.24
   3  -6  -1  672.41   35.42
  -3   6   0 2943.08  120.23
  -3   6   0 2781.75  121.02
   3   6   0 2806.96  121.04
   3   6   0 2719.57  118.04
   3  -6   0 2857.51  117.97
  -3  -6   0 2840.25  120.68
   3  -6   0 2791.39  120.71
  -3   6  -1  882.83   44.19
  -3   6  -1  892.32   44.25
   3   6   1  886.75   44.87
   3  -6   1  841.56   44.75
  -3  -6  -1  881.27   44.19
  -3   6  -2 3039.19  130.27
   3   6   2 3272.92  133.19
  -3   6  -2 3227.83  132.28
  -3  -6  -2 3016.09  132.02
  -3  -6  -2 3018.71  129.66
   3  -6   2 2905.84  132.36
  -3   6  -3  548.88   30.53
   3   6   3  534.37   35.50
  -3   6  -3  543.91   32.90
   3  -6   3  487.48   33.56
  -3  -6  -3  511.34   32.01
   3   6   4 2158.51   97.10
  -3   6  -4 2265.02   99.97
   3   6   4 2303.20  101.31
  -3  -6  -4 2178.78   98.67
   3  -6   4 2170.40  101.31
   3   7   0   88.96   14.65
   3  -7   0   96.19   14.73
  -3  -7   0   68.07   13.05
   4   0  -9   -0.95    7.31
  -4   0   9   13.70   13.57
   4   0  -9   -2.51   13.85
  -4   0   9  -12.42    6.53
   4   0  -8 1301.96   63.87
  -4   0   8 1295.15   58.48
  -4   0   8 1324.37   62.82
   4   0  -8 1357.84   57.17
  -4   0   7   -0.11    4.44
   4   0  -7   -6.44    8.55
   4   0  -7    1.28    3.94
  -4   0   7    1.49    7.93
   4   0  -6 1947.48   96.09
  -4   0   6 2228.35   93.32
  -4   0   6 2200.99   91.27
  -4   0   6 2331.75   89.25
  -4   0   5   -1.98    3.88
  -4   0   5    8.85    3.80
   4   0  -5    3.63    5.35
  -4   0   5    0.84    1.96
  -4   0   4 9671.90  338.26
   4   0  -4 8206.34  335.76
  -4   0   4 7422.70  338.00
  -4   0   4 9376.02  335.63
   4   0  -4 7372.89  338.56
   4   0  -3   27.22    4.51
  -4   0   3    2.32    2.31
  -4   0   3   10.53    3.19
   4   0  -3    1.95    2.22
  -4   0   1   -1.09    1.73
  -4   0   1    1.62    1.10
  -4   0   1    9.51    2.28
   4   0  -1    3.47    2.00
   4   0   0 7737.55  357.88
   4   0   0 9575.04  357.40
  -4   0   0 9999.00  358.10
  -4   0   0 8481.77  358.07
   4   0   1    0.57    2.04
  -4   0  -1    0.57    1.79
   4   0   1    0.50    1.43
   4   0   1   -0.18    1.45
  -4   0  -1    0.86    1.67
  -4   0  -2 7993.42  291.65
   4   0   2 6270.49  291.49
  -4   0  -2 6500.48  291.12
   4   0   2 8255.71  289.43
  -4   0  -3    1.78    1.43
   4   0   3   -0.01    3.13
  -4   0  -3    4.89    2.85
  -4   0  -3    0.75    2.41
   4   0   3    5.48    1.28
   4   0   4 1332.42   52.10
  -4   0  -4 1255.23   55.18
   4   0   4 1288.60   56.62
  -4   0  -5    1.18    3.69
   4   0   5    0.28    1.89
  -4   0  -5    0.93    3.73
   4   0   5    0.25    6.09
  -4   0  -6  648.97   31.62
   4   0   6  625.67   33.16
  -4   0  -6  624.35   30.69
  -4   0  -7    7.23    6.71
   4   0   7   19.17   10.40
  -4   0  -7    5.73    6.93
  -4   0  -8  796.69   40.34
  -4   0  -8  771.62   38.77
   4   0   8  824.38   43.84
   4   1  -9 1249.15   56.16
  -4   1   9 1160.36   55.64
  -4   1   9 1290.80   61.65
   4   1  -9 1253.13   59.73
   4  -1  -9 1174.79   63.97
  -4  -1   9 1177.82   53.78
  -4  -1   9 1221.53   62.48
   4   1  -8 1608.25   70.93
  -4   1   8 1601.20   71.83
  -4   1   8 1516.77   68.19
   4   1  -8 1594.71   68.47
  -4  -1   8 1571.08   73.10
   4  -1  -8 1485.41   74.38
  -4  -1   8 1504.24   66.07
  -4   1   7 2796.19  118.48
   4   1  -7 2899.57  120.10
  -4   1   7 2769.48  120.05
   4   1  -7 2906.76  118.34
  -4  -1   7 2911.92  116.43
   4  -1  -7 2929.78  115.81
  -4  -1   7 2728.65  121.19
   4  -1  -7 2723.46  123.23
  -4   1   6 1634.40   70.07
   4   1  -6 1600.34   69.53
  -4   1   6 1658.19   71.02
   4   1  -6 1695.29   70.52
  -4  -1   6 1623.45   67.90
   4  -1  -6 1573.68   73.67
   4  -1  -6 1652.08   67.18
  -4  -1   6 1608.45   71.75
   4   1  -5 2462.35  105.72
  -4   1   5 2646.26  106.31
   4   1  -5 2647.00  105.97
  -4   1   5 2509.90  106.38
   4  -1  -5 2697.84  103.49
  -4  -1   5 2482.19  107.19
  -4  -1   5 2690.73  104.32
   4  -1  -5 2321.66  109.08
   4   1  -4 1173.84   52.97
   4   1  -4 1286.74   52.71
  -4   1   4 1258.15   53.47
  -4   1   4 1278.28   53.44
   4  -1  -4 1226.76   55.80
  -4  -1   4 1242.14   51.54
   4  -1  -4 1278.55   50.68
  -4  -1   4 1250.09   54.14
   4  -1  -4 1242.82   50.67
   4   1  -3  865.23   35.68
  -4   1   3  869.63   36.62
  -4   1   3  814.71   36.58
   4   1  -3  784.03   36.28
   4  -1  -3  829.40   38.44
  -4  -1   3  841.08   37.12
  -4  -1   3  886.85   35.24
   4   1  -2 1547.96   63.00
  -4   1   2 1540.51   63.02
   4   1  -2 1564.77   62.11
  -4   1   2 1515.87   62.96
  -4  -1   2 1420.61   62.62
   4  -1  -2 1480.29   64.14
  -4  -1   2 1548.03   63.44
   4   1  -1 2923.39  111.63
  -4   1   1 2863.06  111.37
   4   1  -1 2857.67  111.10
  -4   1   1 2541.68  111.70
  -4   1   1 2909.60  110.10
  -4  -1   1 2734.60  111.68
   4  -1  -1 2619.94  112.40
  -4  -1   1 2510.74  111.41
  -4   1   0 3572.92  135.37
   4   1   0 3370.43  135.89
   4   1   0 3345.57  135.90
  -4   1   0 3311.42  136.60
   4  -1   0 3612.12  135.31
   4  -1   0 3220.70  136.76
  -4  -1   0 3327.87  135.97
  -4  -1   0 3138.95  135.50
   4   1   1 1646.68   69.36
  -4   1  -1 1710.08   70.11
   4   1   1 1652.90   69.37
  -4   1  -1 1751.23   67.65
   4  -1   1 1512.28   67.46
  -4  -1  -1 1636.55   68.76
  -4  -1  -1 1711.50   69.07
   4  -1   1 1716.70   68.92
   4  -1   1 1769.54   70.10
  -4   1  -2 3411.85  145.04
   4   1   2 3538.88  144.66
   4  -1   2 3385.02  144.71
   4  -1   2 3770.56  144.23
  -4  -1  -2 3541.20  143.41
  -4  -1  -2 3662.64  144.16
  -4   1  -3 3295.81  134.93
   4   1   3 3261.20  134.48
   4   1   3 3006.79  132.70
   4  -1   3 2997.19  134.28
   4  -1   3 3583.37  134.06
  -4  -1  -3 3407.72  132.74
  -4  -1  -3 3388.71  133.83
   4   1   4 2456.09  105.66
   4   1   4 2462.90  102.66
  -4  -1  -4 2628.90  103.44
  -4  -1  -4 2549.52  104.78
   4  -1   4 2426.74  106.04
   4  -1   4 2656.75  104.98
   4   1   5 3755.90  153.72
   4   1   5 3675.23  149.44
  -4  -1  -5 3793.40  152.37
   4  -1   5 3462.45  153.42
   4  -1   5 3798.34  152.34
  -4  -1  -5 3740.38  150.38
  -4   1  -6 2016.62   86.49
   4   1   6 1990.77   81.67
   4   1   6 1961.08   86.71
   4  -1   6 2020.39   87.56
  -4  -1  -6 1937.56   84.84
   4  -1   6 1900.04   84.60
  -4  -1  -6 2102.41   82.96
   4   1   7 1643.20   74.02
  -4   1  -7 1662.94   72.94
   4  -1   7 1621.16   71.31
  -4  -1  -7 1650.22   68.90
   4  -1   7 1570.58   74.22
  -4  -1  -7 1570.86   71.04
  -4   1  -8  880.57   55.36
  -4   1  -8  926.60   45.12
   4   1   8  911.90   47.60
   4  -1   8  793.07   49.58
  -4  -1  -8  822.26   45.32
   4  -1   8  937.99   49.50
  -4   2   9  234.16   28.50
   4   2  -9  293.56   20.12
  -4  -2   9  218.37   18.41
  -4  -2   9  291.54   28.39
   4   2  -8   42.64    8.25
  -4   2   8   47.34    9.66
  -4   2   8   43.83   12.40
  -4  -2   8   51.53    7.94
   4  -2  -8   43.11    8.14
   4  -2  -8   43.95   14.25
  -4  -2   8   40.86   12.25
   4   2  -7  965.94   40.87
   4   2  -7  822.19   41.20
  -4   2   7  958.53   44.01
  -4   2   7  860.22   42.58
  -4  -2   7  934.29   45.64
   4  -2  -7  932.82   49.07
  -4  -2   7  838.71   42.37
   4  -2  -7  934.91   39.50
  -4   2   6   40.32    7.28
   4   2  -6   49.93    6.23
  -4   2   6   49.83    8.45
   4   2  -6   52.77    7.32
   4  -2  -6   45.82   11.48
  -4  -2   6   57.88   10.13
  -4  -2   6   50.07    7.01
   4  -2  -6   53.38    6.49
   4   2  -5 3971.28  157.26
  -4   2   5 3659.45  155.67
   4   2  -5 3920.49  153.57
  -4   2   5 3872.74  156.44
  -4  -2   5 4034.98  154.98
   4  -2  -5 3634.50  159.86
  -4  -2   5 3529.18  157.30
   4  -2  -5 3809.41  153.55
   4   2  -4  504.45   21.49
   4   2  -4  466.70   23.66
  -4   2   4  512.50   23.77
  -4   2   4  483.08   24.26
   4  -2  -4  477.74   26.84
  -4  -2   4  502.02   25.10
   4  -2  -4  538.12   22.63
  -4  -2   4  506.03   23.29
  -4   2   3 6651.21  269.38
   4   2  -3 7359.93  267.41
  -4   2   3 7242.02  267.84
  -4  -2   3 6137.52  269.50
  -4  -2   3 6922.65  270.63
   4  -2  -3 5835.12  267.92
   4   2  -2  584.03   23.72
  -4   2   2  570.63   25.53
  -4   2   2  585.15   25.62
  -4   2   2  537.09   25.34
   4   2  -2  560.79   25.65
   4  -2  -2  534.61   27.43
   4  -2  -2  589.02   24.12
  -4  -2   2  569.18   25.94
  -4  -2   2  500.88   26.46
  -4   2   1 7056.16  288.81
   4   2  -1 7008.91  288.49
  -4   2   1 7824.88  288.16
   4   2  -1 7715.68  287.21
   4  -2  -1 7497.23  287.14
   4  -2  -1 6107.40  289.34
  -4  -2   1 7009.40  288.29
   4   2   0  307.50   15.41
  -4   2   0  304.45   15.90
  -4   2   0  289.68   13.97
   4   2   0  301.49   14.21
   4  -2   0  310.98   16.17
  -4  -2   0  297.06   15.05
   4  -2   0  269.17   13.86
  -4  -2   0  302.17   14.44
  -4   2  -1 4545.77  171.65
   4   2   1 4352.84  172.98
   4   2   1 4146.81  174.53
   4  -2   1 3688.54  173.47
  -4  -2  -1 4203.29  173.01
   4  -2   1 4348.94  172.69
  -4  -2  -1 4631.60  172.32
   4   2   2  228.62   13.10
   4   2   2  256.32   15.52
  -4   2  -2  244.37   14.57
  -4   2  -2  230.33   10.60
  -4  -2  -2  237.55   13.01
   4  -2   2  257.84   14.22
   4  -2   2  233.63   11.85
  -4  -2  -2  232.75   11.56
   4  -2   2  240.44   12.92
   4   2   3 2528.09  120.44
  -4   2  -3 2775.38  122.01
  -4  -2  -3 3071.49  120.09
  -4  -2  -3 3226.84  118.03
   4  -2   3 3047.46  121.99
   4  -2   3 2840.05  120.84
   4   2   4  138.24   11.16
   4   2   4  155.77   11.04
  -4   2  -4  143.98   13.90
  -4  -2  -4  141.37    7.97
   4  -2   4  158.38   12.80
  -4  -2  -4  128.59    9.94
   4  -2   4  129.51   10.16
   4   2   5 1322.24   60.11
   4   2   5 1342.85   57.38
  -4   2  -5 1314.40   61.34
   4  -2   5 1326.30   60.49
  -4  -2  -5 1425.89   55.61
  -4  -2  -5 1288.58   58.28
   4  -2   5 1356.10   59.20
   4   2   6  107.66   13.52
  -4   2  -6  111.41   13.87
   4   2   6  108.17   10.24
   4  -2   6  116.39   14.55
  -4  -2  -6  110.20   10.15
   4  -2   6  128.00   12.34
   4   2   7  691.72   34.23
  -4   2  -7  791.22   41.55
   4   2   7  750.81   40.09
   4  -2   7  770.40   41.50
  -4  -2  -7  754.21   36.79
   4  -2   7  730.61   37.20
  -4   2  -8   43.27   14.10
   4   2   8   43.23   13.34
  -4  -2  -8   32.57    8.56
   4  -2   8   49.03   16.16
   4  -2   8   46.11    9.35
   4   3  -8 1365.03   62.24
  -4   3   8 1349.31   64.70
  -4  -3   8 1436.37   68.65
   4  -3  -8 1477.61   71.05
  -4  -3   8 1358.15   62.50
   4   3  -7  545.87   29.29
  -4   3   7  587.00   31.76
  -4  -3   7  582.63   29.84
   4  -3  -7  613.23   36.10
  -4  -3   7  571.02   34.00
  -4   3   6  891.77   43.95
  -4   3   6  984.71   43.05
   4   3  -6  866.24   41.92
   4  -3  -6  971.02   48.07
  -4  -3   6  865.10   45.37
  -4  -3   6  931.30   42.88
   4  -3  -6  951.67   41.00
  -4   3   5 1026.44   44.65
   4   3  -5  981.48   44.42
  -4   3   5  966.62   45.69
   4  -3  -5 1004.57   48.97
  -4  -3   5 1015.74   44.97
   4  -3  -5 1011.38   43.64
  -4  -3   5  931.59   46.43
   4   3  -4  227.23   14.32
  -4   3   4  205.37   14.41
  -4   3   4  228.31   14.17
   4  -3  -4  232.51   17.85
   4  -3  -4  252.60   14.17
  -4   3   3 1615.17   67.75
   4   3  -3 1566.82   67.18
  -4   3   3 1605.53   66.60
   4  -3  -3 1620.65   66.29
  -4  -3   3 1484.44   68.59
  -4  -3   3 1575.58   67.98
   4  -3  -3 1561.94   69.60
  -4   3   2  117.81    9.67
   4   3  -2  124.89    9.91
  -4   3   2  141.38    9.82
   4   3  -2  133.23    6.76
  -4  -3   2  130.67   12.57
  -4  -3   2  121.33    8.31
  -4  -3   2  129.28    9.99
   4  -3  -2  130.03    9.31
   4   3  -1  796.22   34.09
  -4   3   1  822.88   36.15
  -4   3   1  830.23   37.18
  -4  -3   1  833.12   38.21
   4  -3  -1  787.40   37.79
   4  -3  -1  811.22   35.74
  -4  -3   1  797.06   35.89
   4   3   0 1285.03   54.53
  -4   3   0 1329.43   55.56
   4   3   0 1313.27   57.44
  -4   3   0 1296.53   57.46
  -4  -3   0 1281.96   55.08
   4  -3   0 1301.83   57.40
  -4  -3   0 1306.57   57.02
   4  -3   0 1351.63   55.57
   4   3   1 1230.61   52.99
  -4   3  -1 1229.21   49.34
   4   3   1 1121.58   49.31
   4  -3   1 1105.76   49.89
   4  -3   1 1108.65   51.22
  -4  -3  -1 1168.82   48.70
   4   3   2 2157.57   91.01
  -4   3  -2 2303.57   89.52
   4   3   2 2209.96   96.18
  -4   3  -2 2011.05   93.36
   4  -3   2 2098.74   92.13
  -4  -3  -2 2184.15   91.31
  -4  -3  -2 2311.40   89.08
  -4   3  -3  694.33   36.92
  -4   3  -3  763.20   31.67
   4   3   3  726.49   36.89
   4   3   3  738.55   34.74
   4  -3   3  637.67   35.77
   4  -3   3  783.41   35.78
  -4  -3  -3  768.35   34.34
  -4  -3  -3  785.50   31.34
   4   3   4 1830.89   77.77
   4   3   4 1681.39   78.36
  -4   3  -4 1748.94   80.35
   4  -3   4 1803.13   77.30
  -4  -3  -4 1908.79   72.94
   4  -3   4 1737.19   77.98
  -4  -3  -4 1848.92   76.78
   4   3   5  566.57   29.14
  -4   3  -5  525.82   31.76
   4   3   5  538.75   29.30
   4  -3   5  544.49   30.42
  -4  -3  -5  538.32   27.24
   4  -3   5  508.42   28.06
   4   3   6 1715.62   74.82
  -4   3  -6 1641.74   79.11
   4   3   6 1771.91   77.32
  -4  -3  -6 1671.23   74.30
   4  -3   6 1699.98   77.55
   4  -3   6 1762.14   75.97
   4   3   7  502.16   30.40
   4   3   7  450.60   26.76
  -4   3  -7  462.61   33.06
   4  -3   7  508.56   34.98
  -4  -3  -7  466.72   26.50
   4  -3   7  462.05   30.77
  -4   4   8  343.49   27.97
   4   4  -8  319.50   22.85
   4  -4  -8  364.08   31.38
  -4  -4   8  338.28   29.38
  -4  -4   8  337.85   26.37
   4   4  -7  189.53   16.57
  -4   4   7  149.63   19.56
   4  -4  -7  207.46   24.02
  -4  -4   7  196.56   22.05
  -4  -4   7  174.74   19.70
  -4   4   6  671.22   36.53
   4   4  -6  660.56   33.53
  -4  -4   6  706.58   36.80
  -4  -4   6  665.80   36.53
   4  -4  -6  683.45   38.71
   4  -4  -6  639.93   33.01
  -4   4   5   80.13    9.60
  -4   4   5   59.62   11.24
   4   4  -5   60.80    9.28
   4  -4  -5   86.36   12.91
   4  -4  -5   89.74   11.36
  -4  -4   5   63.86   10.19
  -4  -4   5   80.18   12.11
  -4   4   4 1076.15   48.11
  -4   4   4 1107.71   51.01
   4   4  -4 1099.65   49.33
  -4  -4   4 1021.45   51.65
   4  -4  -4 1093.62   51.65
   4  -4  -4 1162.53   48.60
  -4  -4   4 1022.34   50.20
  -4   4   3  693.11   32.66
  -4   4   3  677.49   34.36
   4   4  -3  655.56   33.11
  -4  -4   3  662.22   35.49
  -4  -4   3  663.98   33.86
   4  -4  -3  766.28   32.91
   4  -4  -3  687.98   34.59
  -4   4   2 2067.28   89.60
  -4   4   2 2049.92   88.91
   4   4  -2 2153.66   89.79
   4  -4  -2 2081.95   90.09
  -4  -4   2 2120.34   89.12
   4  -4  -2 2141.41   88.41
  -4  -4   2 2064.16   90.47
  -4   4   1  666.17   34.29
  -4   4   1  676.85   34.09
   4   4  -1  731.86   30.60
   4   4  -1  670.07   34.56
  -4  -4   1  718.07   33.19
  -4  -4   1  721.36   35.07
   4  -4  -1  746.85   34.93
   4  -4  -1  721.85   33.66
   4   4   0 2053.91   80.92
  -4   4   0 1897.08   84.50
  -4   4   0 2020.89   83.11
   4   4   0 2028.63   85.29
  -4  -4   0 1962.49   81.69
   4  -4   0 1992.19   83.97
   4  -4   0 1797.13   84.95
  -4  -4   0 1853.28   84.15
  -4   4  -1   10.69    6.89
  -4   4  -1   10.66    5.59
   4   4   1   10.80    6.58
   4   4   1   13.93    4.80
  -4  -4  -1    9.10    5.56
  -4  -4  -1   14.56    4.41
   4  -4   1   13.92    5.49
  -4   4  -2  982.80   43.79
   4   4   2 1056.69   47.41
  -4   4  -2  928.40   46.87
   4   4   2  910.36   44.00
   4  -4   2  983.62   45.28
  -4  -4  -2  983.52   45.25
  -4  -4  -2 1016.23   41.94
  -4   4  -3   15.09    6.19
  -4   4  -3   19.38    8.14
   4   4   3   18.40    6.21
   4   4   3   28.19    8.81
  -4  -4  -3   19.56    5.90
   4  -4   3   25.00    7.57
   4  -4   3   24.48    7.59
  -4   4  -4  367.71   24.98
   4   4   4  392.60   22.83
   4   4   4  335.54   25.72
  -4  -4  -4  395.18   21.79
   4  -4   4  372.01   23.10
   4  -4   4  373.74   23.79
  -4   4  -5  295.63   23.94
   4   4   5  308.93   23.79
   4   4   5  345.46   22.52
  -4  -4  -5  305.79   19.71
   4  -4   5  350.44   24.52
   4  -4   5  315.86   22.00
   4   4   6  113.60   15.42
   4   4   6  131.96   16.82
  -4   4  -6  107.96   17.51
  -4  -4  -6  124.47   13.19
   4  -4   6  100.80   13.59
   4  -4   6  139.92   17.06
   4   4   7  357.89   28.16
   4   4   7  349.33   28.53
  -4   4  -7  420.24   33.06
   4  -4   7  381.24   27.60
  -4  -4  -7  354.73   23.54
   4   5  -6  138.96   16.36
  -4   5   6  139.72   18.34
  -4  -5   6  125.53   17.93
  -4  -5   6  100.68   19.67
   4  -5  -6  148.36   17.32
   4  -5  -6  127.21   26.49
  -4   5   5   87.46   14.87
   4   5  -5   72.12   11.25
   4  -5  -5   87.13   13.08
  -4  -5   5   85.89   13.45
  -4  -5   5   79.99   15.70
   4  -5  -5   89.40   10.86
  -4   5   4  301.04   24.72
   4   5  -4  334.83   22.50
   4  -5  -4  344.67   20.99
   4  -5  -4  348.18   22.89
  -4  -5   4  331.42   25.96
  -4  -5   4  314.94   23.30
  -4   5   3    5.96    7.70
  -4   5   3   -6.34    8.14
   4   5  -3   14.72    7.96
  -4  -5   3   -0.14    8.15
  -4  -5   3   12.83    7.66
   4  -5  -3    2.78    8.07
   4  -5  -3   -0.77    6.50
  -4   5   2  681.14   37.70
  -4   5   2  667.32   35.30
   4   5  -2  702.72   37.05
   4  -5  -2  755.97   35.89
  -4  -5   2  692.22   35.32
  -4  -5   2  734.60   36.98
   4  -5  -2  703.92   34.78
   4   5  -1   48.82   10.08
  -4   5   1   36.56   10.45
  -4   5   1   26.22    9.32
  -4  -5   1   39.12    8.56
  -4  -5   1   41.80    8.93
   4  -5  -1   24.54    7.75
   4  -5  -1   29.86    8.04
  -4   5   0  384.08   24.05
   4   5   0  372.80   24.57
   4   5   0  387.63   20.34
  -4   5   0  411.23   25.35
  -4  -5   0  385.03   22.01
   4  -5   0  442.40   23.53
  -4  -5   0  409.70   24.23
   4  -5   0  365.71   23.51
  -4   5  -1    4.95    7.72
  -4   5  -1   31.41    8.70
   4   5   1    8.89    8.07
   4   5   1   26.08    6.70
  -4  -5  -1   10.56    7.23
   4  -5   1   16.09    7.91
  -4  -5  -1   20.93    6.51
  -4   5  -2  141.03   16.91
   4   5   2  167.41   16.85
   4   5   2  143.28   17.08
  -4   5  -2  162.06   15.47
   4  -5   2  154.63   16.47
  -4  -5  -2  133.69   15.75
   4  -5   2  185.07   18.26
   4   5   3  217.50   21.32
  -4   5  -3  219.09   20.74
   4   5   3  189.03   16.77
  -4   5  -3  186.39   22.22
   4  -5   3  190.67   19.21
  -4  -5  -3  231.18   17.30
   4   5   4  133.08   16.34
  -4   5  -4  135.52   17.45
   4   5   4  173.72   21.14
   4  -5   4  148.37   18.74
  -4  -5  -4  115.82   15.24
   4  -5   4  140.17   16.20
   4   5   5  494.48   34.16
   4   5   5  453.41   30.00
  -4   5  -5  484.92   33.24
   4  -5   5  385.38   34.73
  -4  -5  -5  484.24   28.09
   4   6  -5    3.28   12.19
  -4   6   5   37.93   14.82
  -4  -6   5    3.45   14.32
   4  -6  -5    6.18    9.79
   4   6  -4  -16.62   11.23
  -4   6   4   15.57   13.36
  -4  -6   4   17.65   16.79
   4  -6  -4   -1.45    9.00
   4  -6  -4   14.33    9.87
  -4  -6   4   -0.86   11.34
  -4   6   3   32.11   13.16
   4   6  -3   33.04   12.07
   4  -6  -3   61.74   10.89
  -4  -6   3   48.66   11.92
  -4  -6   3   12.72    9.77
  -4   6   2  166.80   18.65
   4   6  -2  122.81   16.56
  -4   6   2  145.41   17.73
   4  -6  -2  139.84   15.52
  -4  -6   2  137.66   15.32
  -4  -6   2  163.45   17.72
   4  -6  -2  152.68   16.10
   4   6  -1    4.02    9.70
  -4   6   1  -11.15    9.73
  -4   6   1    2.25    9.80
   4  -6  -1   13.58    8.08
  -4  -6   1   -0.55    8.62
   4  -6  -1    2.48    8.73
  -4  -6   1   26.16   10.04
  -4   6   0   53.67   11.37
   4   6   0   36.71   11.25
  -4   6   0   40.44   12.30
   4  -6   0   45.74   10.09
  -4  -6   0   48.18   10.40
   4  -6   0   32.14   10.69
  -4   6  -1   39.36   10.64
   4   6   1   23.66   10.23
  -4   6  -1   13.90    9.81
   4  -6   1   32.05    9.23
   4  -6   1   16.99   10.14
  -4  -6  -1   47.47   10.76
  -4   6  -2   25.78   10.52
  -4   6  -2   27.35   11.44
   4   6   2   43.76   13.74
   4  -6   2   30.55   12.15
  -4   6  -3   10.29   17.11
   4   6   3   13.17   11.41
   4   6   3   39.07   11.39
  -4  -6  -3   22.72   11.88
   5   0  -9    1.55   12.99
  -5   0   9   -1.13    7.45
  -5   0   9    5.97   13.28
  -5   0   8   84.87   13.33
   5   0  -8   78.57   13.33
  -5   0   8   72.51    9.57
   5   0  -7    2.24    4.09
  -5   0   7   -2.21    7.44
   5   0  -7    6.90    8.48
  -5   0   7    9.70    5.74
   5   0  -6  300.34   14.43
  -5   0   6  271.07   16.85
  -5   0   6  325.13   19.52
   5   0  -6  293.59   19.65
  -5   0   5    0.29    3.89
   5   0  -5    9.11    5.10
  -5   0   5    4.49    4.93
  -5   0   4   46.10    6.03
   5   0  -4   57.50    7.11
   5   0  -3    3.29    3.08
  -5   0   3    1.32    2.78
  -5   0   3   -0.53    2.81
   5   0  -2 1309.88   54.02
  -5   0   2 1258.84   53.58
  -5   0   2 1263.31   54.03
  -5   0   1    0.72    1.62
   5   0  -1    3.46    2.59
  -5   0   1    2.25    1.40
  -5   0   1   -1.62    1.89
   5   0  -1    1.06    2.17
   5   0   0 2189.79   90.28
  -5   0   0 2124.39   90.13
  -5   0   0 2210.83   88.97
   5   0   0 2250.00   89.21
   5   0   1    2.06    2.00
   5   0   1   -1.06    2.51
  -5   0  -1   -1.12    2.02
  -5   0  -1    0.95    1.89
  -5   0  -2 1540.77   63.20
  -5   0  -2 1478.34   62.92
   5   0   2 1505.70   60.77
   5   0   2 1488.23   63.68
   5   0   3    0.20    3.68
  -5   0  -3    2.02    3.02
  -5   0  -3    1.29    2.82
  -5   0  -4  229.32   14.53
   5   0   4  241.98   15.53
  -5   0  -4  247.24   14.20
  -5   0  -5    2.36    4.89
  -5   0  -5    0.53    4.07
   5   0   5    2.78    6.40
   5   0   6  147.20   14.96
  -5   0  -6  137.64   12.82
  -5   0  -6  125.94   12.77
  -5   0  -7   -6.62    7.26
   5   0   7   -6.29    9.46
  -5   0  -7   -0.30    6.87
  -5   0  -8    3.25    7.72
   5   0   8   17.06   13.73
  -5   0  -8    3.16    8.80
   5   1  -9   16.57   11.72
  -5   1   9   26.87   14.41
  -5   1   9   38.29   10.39
   5   1  -9   31.56    9.67
   5  -1  -9   45.01   17.81
  -5  -1   9   13.77   14.62
  -5   1   8  346.71   25.11
  -5   1   8  324.73   21.02
   5   1  -8  314.67   22.95
   5   1  -8  347.99   20.78
  -5  -1   8  360.26   26.47
   5  -1  -8  326.27   27.42
  -5  -1   8  310.96   17.86
  -5   1   7  319.69   22.10
  -5   1   7  334.42   19.92
   5   1  -7  341.17   20.41
   5   1  -7  324.18   19.66
  -5  -1   7  339.91   17.19
   5  -1  -7  335.67   24.68
  -5  -1   7  314.93   22.57
  -5   1   6  518.66   26.69
   5   1  -6  495.69   25.45
  -5   1   6  457.09   25.27
   5   1  -6  538.24   25.41
   5  -1  -6  517.29   21.96
  -5  -1   6  502.10   27.38
  -5  -1   6  484.56   22.93
   5  -1  -6  510.81   29.58
   5   1  -5  907.84   39.39
  -5   1   5  885.19   40.40
   5   1  -5  860.66   40.01
  -5   1   5  901.71   41.09
   5  -1  -5  927.23   36.61
   5  -1  -5  886.24   36.58
   5  -1  -5  927.78   43.32
  -5  -1   5  872.04   37.63
  -5  -1   5  868.80   41.48
  -5   1   4  787.97   35.22
   5   1  -4  757.49   34.80
  -5   1   4  815.76   35.33
   5   1  -4  759.19   33.70
   5  -1  -4  770.04   38.95
  -5  -1   4  758.28   32.55
  -5  -1   4  779.67   35.67
   5   1  -3   32.49    4.55
  -5   1   3   25.79    4.05
  -5   1   3   23.68    4.23
   5   1  -3   36.53    4.40
   5  -1  -3   33.55    5.43
  -5  -1   3   33.71    4.11
  -5  -1   3   29.29    4.70
   5   1  -2  211.84   11.00
  -5   1   2  221.43   11.89
  -5   1   2  233.74   12.23
   5   1  -2  216.02   11.91
  -5  -1   2  194.52   12.06
  -5  -1   2  222.14   12.27
   5  -1  -2  222.31   12.83
   5   1  -1  778.28   35.63
  -5   1   1  836.99   35.54
   5   1  -1  836.91   35.51
  -5   1   1  826.44   34.04
  -5  -1   1  859.25   35.62
  -5  -1   1  842.07   36.20
   5  -1  -1  834.03   34.08
   5  -1  -1  831.83   36.93
  -5   1   0    4.60    2.04
  -5   1   0    3.88    2.30
   5   1   0    7.18    2.43
   5   1   0    0.95    2.34
  -5  -1   0    3.65    2.28
   5  -1   0    5.64    3.30
  -5  -1   0    3.79    2.05
   5  -1   0    3.25    1.90
   5   1   1 1070.59   47.10
  -5   1  -1 1132.78   47.91
   5   1   1 1153.19   47.07
  -5  -1  -1 1109.82   46.60
   5  -1   1 1104.43   45.19
   5  -1   1 1018.20   45.03
   5  -1   1 1105.08   46.38
   5  -1   1 1172.22   48.17
  -5  -1  -1 1088.87   46.58
   5   1   2   12.54    5.35
  -5   1  -2   30.06    5.24
   5   1   2   20.23    4.25
  -5  -1  -2   15.77    3.30
   5  -1   2   18.91    3.61
  -5  -1  -2   21.04    3.50
   5  -1   2   19.46    4.89
  -5   1  -3  122.99   10.75
   5   1   3  124.97   10.14
   5   1   3  157.74    9.98
   5  -1   3  135.52    9.71
  -5  -1  -3  128.08    9.35
   5  -1   3  178.81   11.76
  -5  -1  -3  149.47    8.71
  -5   1  -4   47.73    9.61
   5   1   4   65.09    6.11
   5   1   4   65.68    8.16
  -5  -1  -4   74.31    6.59
   5  -1   4   66.66    8.69
  -5  -1  -4   55.39    7.05
   5  -1   4   46.97    6.30
  -5   1  -5   20.73    6.21
   5   1   5   15.49    3.66
   5   1   5   13.89    7.15
   5  -1   5   23.94    7.74
  -5  -1  -5   15.59    4.51
   5  -1   5   10.18    5.14
  -5  -1  -5   11.74    4.82
   5   1   6  395.77   25.71
  -5   1  -6  437.65   24.78
   5  -1   6  444.42   27.12
  -5  -1  -6  415.87   21.42
  -5  -1  -6  417.26   23.24
   5  -1   6  429.60   23.62
   5   1   7  144.85   17.31
  -5   1  -7  105.76   13.29
   5  -1   7  129.50   16.87
   5  -1   7   97.73   12.73
  -5  -1  -7  118.29   13.11
  -5  -1  -7  103.94   11.47
  -5   1  -8  653.65   35.30
  -5   1  -8  605.65   35.39
   5   1   8  668.18   37.68
   5  -1   8  625.10   43.48
  -5  -1  -8  631.04   34.58
   5   2  -9   81.12   17.48
  -5   2   9   78.10   12.12
   5  -2  -9   64.96   18.67
  -5  -2   9   74.81   16.76
  -5   2   8  512.41   32.03
   5   2  -8  435.49   25.64
  -5   2   8  481.87   27.92
  -5  -2   8  497.74   31.46
   5  -2  -8  424.56   33.96
  -5  -2   8  463.83   24.54
  -5   2   7    8.36    8.82
   5   2  -7   -4.13    4.97
  -5   2   7   15.30    6.78
   5   2  -7   18.90    6.06
   5  -2  -7    3.78    9.85
  -5  -2   7    1.32    5.00
  -5  -2   7   -1.80    6.92
  -5   2   6 1801.69   82.23
   5   2  -6 1873.36   76.24
   5   2  -6 1777.89   78.56
  -5   2   6 1800.14   79.42
  -5  -2   6 1885.40   77.09
   5  -2  -6 1858.00   83.61
  -5  -2   6 1826.85   81.15
   5  -2  -6 1918.56   75.85
   5   2  -5  100.99    8.61
   5   2  -5   97.27    6.92
  -5   2   5   93.33   10.37
  -5   2   5  106.34   10.89
  -5  -2   5   99.59   11.13
   5  -2  -5  103.53    8.27
   5  -2  -5   72.21   11.20
  -5  -2   5  102.35    8.61
  -5   2   4 1996.42   83.82
   5   2  -4 2009.54   78.95
  -5   2   4 2001.99   81.63
   5   2  -4 1827.45   82.94
   5  -2  -4 1950.22   78.10
  -5  -2   4 1717.59   84.36
  -5  -2   4 2065.37   80.60
   5  -2  -4 1906.69   78.53
  -5   2   3  115.73    9.12
  -5   2   3  140.14    9.49
   5   2  -3  107.24    9.11
   5   2  -3  114.17    6.75
  -5   2   3  120.76    6.37
   5  -2  -3  121.33    6.28
   5  -2  -3  111.53   11.54
  -5  -2   3  105.74    8.95
  -5  -2   3  133.68   10.02
  -5   2   2 1003.03   43.38
  -5   2   2  904.96   41.97
  -5   2   2 1024.66   43.98
   5   2  -2 1059.56   43.85
   5   2  -2 1085.23   41.95
   5  -2  -2 1038.69   41.19
   5  -2  -2  964.50   45.18
  -5  -2   2 1014.40   43.98
  -5  -2   2  922.93   44.54
   5   2  -1  494.55   23.55
  -5   2   1  483.48   22.83
  -5   2   1  514.48   24.23
   5   2  -1  505.77   22.35
  -5  -2   1  496.18   23.65
   5  -2  -1  478.37   21.67
  -5  -2   1  525.21   24.63
   5  -2  -1  528.28   25.44
   5   2   0  735.07   32.84
  -5   2   0  726.52   32.33
  -5   2   0  798.85   34.89
   5   2   0  762.78   33.93
  -5  -2   0  750.68   33.43
   5  -2   0  788.30   35.17
   5  -2   0  730.51   32.35
  -5  -2   0  761.93   33.16
  -5   2  -1  804.49   37.90
  -5   2  -1  818.36   34.21
   5   2   1  838.65   37.55
   5   2   1  800.23   35.87
   5  -2   1  797.79   35.37
  -5  -2  -1  819.35   35.26
  -5  -2  -1  813.45   35.84
   5  -2   1  834.17   37.48
   5   2   2  430.98   21.88
   5   2   2  495.15   24.85
  -5   2  -2  454.54   24.17
  -5  -2  -2  439.24   20.48
   5  -2   2  448.99   21.59
   5  -2   2  428.51   19.91
   5  -2   2  480.24   29.89
   5   2   3  685.30   36.44
   5   2   3  834.92   38.20
  -5   2  -3  814.73   37.87
  -5  -2  -3  822.93   33.83
   5  -2   3  851.65   37.58
   5  -2   3  783.91   35.64
  -5  -2  -3  698.18   36.65
  -5   2  -4  772.51   38.82
   5   2   4  769.17   36.15
   5   2   4  771.63   37.07
  -5  -2  -4  795.87   33.73
   5  -2   4  815.72   38.53
  -5  -2  -4  775.63   36.04
   5  -2   4  774.51   36.43
   5   2   5  317.45   20.68
   5   2   5  330.33   18.10
  -5   2  -5  336.81   21.61
  -5  -2  -5  339.29   16.39
   5  -2   5  365.02   22.63
   5  -2   5  319.37   19.35
  -5  -2  -5  308.42   18.68
  -5   2  -6  464.20   28.71
   5   2   6  477.86   27.75
   5   2   6  440.49   22.71
   5  -2   6  493.21   30.01
  -5  -2  -6  454.03   24.69
   5  -2   6  428.67   25.01
  -5   2  -7    2.29   10.17
   5   2   7    2.40    9.57
   5  -2   7    1.58    7.17
  -5  -2  -7    4.84    6.22
   5  -2   7   -1.68   13.03
  -5   2  -8  459.61   33.57
   5   2   8  484.75   31.99
   5  -2   8  461.84   28.76
   5  -2   8  502.67   37.30
  -5  -2  -8  488.70   28.31
   5   3  -8    0.16    7.41
  -5   3   8   -0.44    9.33
  -5  -3   8   -5.56   10.19
  -5  -3   8   -1.73    7.57
   5  -3  -8   -7.51   11.59
   5   3  -7 1156.62   53.86
  -5   3   7 1159.78   56.09
   5  -3  -7 1310.00   61.30
  -5  -3   7 1183.54   57.91
  -5  -3   7 1173.49   53.58
  -5   3   6   10.29    8.63
  -5   3   6   -1.29    6.68
   5   3  -6    3.12    5.67
  -5  -3   6   -5.26    7.75
   5  -3  -6    5.78    8.83
  -5  -3   6    5.81    5.86
  -5   3   5 1386.07   64.65
   5   3  -5 1444.27   63.67
  -5   3   5 1518.31   64.23
  -5  -3   5 1387.71   65.30
   5  -3  -5 1427.73   67.53
   5  -3  -5 1551.56   62.08
  -5  -3   5 1516.91   63.90
   5   3  -4    6.47    4.78
   5   3  -4    5.84    2.12
  -5   3   4    4.63    5.33
  -5   3   4    1.73    5.02
   5  -3  -4    7.28    6.19
   5  -3  -4    2.37    4.41
  -5  -3   4    0.61    5.01
  -5   3   3 2461.82  100.78
   5   3  -3 2447.11  100.84
   5   3  -3 2560.91   97.17
  -5  -3   3 2303.23  101.65
   5  -3  -3 2193.18  102.59
   5  -3  -3 2481.30   98.84
   5   3  -2  789.88   33.21
  -5   3   2  841.11   36.82
   5   3  -2  690.23   39.05
  -5  -3   2  796.16   36.22
   5  -3  -2  797.49   34.31
  -5  -3   2  833.98   37.95
   5  -3  -2  760.74   38.88
   5   3  -1 2261.48   93.87
   5   3  -1 2320.06   91.22
  -5   3   1 2182.35   96.14
  -5   3   1 2252.79   92.70
  -5  -3   1 2190.58   94.91
  -5  -3   1 2227.11   92.88
   5  -3  -1 2269.44   91.81
   5  -3  -1 2153.39   94.97
   5   3   0 2552.98  105.02
   5   3   0 2591.53  102.33
  -5   3   0 2482.22  105.35
  -5   3   0 2538.36  102.62
   5  -3   0 2454.05  105.47
   5  -3   0 2552.06  102.77
  -5  -3   0 2537.58  102.88
  -5  -3   0 2250.29  106.10
   5   3   1 2728.79  108.66
  -5   3  -1 2697.97  107.49
   5   3   1 2662.50  111.59
   5  -3   1 2665.17  108.68
  -5  -3  -1 2543.41  109.26
  -5  -3  -1 2641.67  107.75
   5  -3   1 2492.02  110.56
   5   3   2 1519.07   67.61
  -5   3  -2 1541.71   70.66
   5   3   2 1734.71   70.95
  -5   3  -2 1595.92   65.33
  -5  -3  -2 1619.93   68.13
  -5  -3  -2 1652.81   66.04
   5  -3   2 1520.50   67.65
   5  -3   2 1543.03   69.70
   5   3   3 1825.46   83.21
  -5   3  -3 1982.03   77.85
   5   3   3 1926.43   81.50
  -5   3  -3 1829.85   84.14
  -5  -3  -3 1947.69   78.26
  -5  -3  -3 1925.82   81.06
   5  -3   3 1907.42   81.23
   5   3   4  884.26   42.25
  -5   3  -4  862.74   44.44
   5  -3   4  849.94   41.63
  -5  -3  -4  935.78   38.67
  -5  -3  -4  875.59   41.00
   5  -3   4  931.25   44.03
   5   3   5 1231.62   55.30
   5   3   5 1211.10   55.80
  -5   3  -5 1218.93   58.94
   5  -3   5 1225.83   57.70
   5  -3   5 1148.69   54.56
  -5  -3  -5 1172.51   53.95
   5   3   6   -9.02    8.42
   5   3   6  -13.59    7.84
  -5   3  -6    8.57   11.56
   5  -3   6   11.46   12.30
  -5  -3  -6   -0.71    5.75
   5  -3   6  -12.11    7.02
   5   3   7  805.70   44.33
  -5   3  -7  816.91   47.83
   5  -3   7  826.83   49.04
  -5  -3  -7  831.68   40.92
   5  -3   7  804.72   42.32
   5   4  -7 1651.27   75.34
  -5   4   7 1745.54   79.51
   5  -4  -7 1795.85   81.90
  -5  -4   7 1743.85   77.43
  -5  -4   7 1641.04   79.68
   5   4  -6  174.08   14.67
  -5   4   6  133.42   15.75
   5  -4  -6  159.36   18.56
  -5  -4   6  172.35   18.54
  -5  -4   6  136.95   16.56
   5   4  -5 2978.54  123.18
  -5   4   5 3012.71  125.18
  -5   4   5 2782.68  122.31
   5  -4  -5 2979.86  126.48
  -5  -4   5 2798.07  124.65
  -5  -4   5 2812.11  124.67
   5  -4  -5 3114.27  121.28
  -5   4   4  233.39   18.12
  -5   4   4  250.85   17.88
   5   4  -4  246.14   17.10
  -5  -4   4  199.38   20.32
   5  -4  -4  274.63   16.09
  -5  -4   4  217.34   18.18
   5  -4  -4  270.13   20.14
  -5   4   3 3366.49  134.32
   5   4  -3 3204.51  133.60
  -5  -4   3 2923.83  134.57
  -5  -4   3 3164.43  133.69
   5  -4  -3 3210.64  135.15
   5  -4  -3 3307.87  131.73
  -5   4   2  870.50   42.33
  -5   4   2  886.11   42.87
   5   4  -2  881.49   42.90
   5  -4  -2  954.36   43.96
  -5  -4   2  889.54   42.00
   5  -4  -2  919.12   41.31
  -5  -4   2  994.60   44.37
  -5   4   1 1107.04   53.91
  -5   4   1 1066.70   49.32
   5   4  -1 1095.58   50.82
   5   4  -1 1111.30   46.43
   5  -4  -1 1126.98   48.85
  -5  -4   1 1064.22   48.68
   5  -4  -1 1107.99   50.94
  -5  -4   1 1122.60   50.94
   5   4   0 1344.95   60.15
  -5   4   0 1267.61   59.78
   5   4   0 1330.02   55.62
  -5   4   0 1292.24   57.40
  -5  -4   0 1321.19   59.20
   5  -4   0 1292.92   57.20
   5  -4   0 1272.06   59.09
  -5  -4   0 1350.84   56.60
   5   4   1  979.61   42.67
  -5   4  -1  947.92   43.01
   5   4   1  986.88   46.87
  -5   4  -1  920.32   46.60
   5  -4   1  910.18   46.37
   5  -4   1  956.31   45.49
  -5  -4  -1  976.74   44.98
  -5  -4  -1  999.35   42.24
  -5   4  -2  703.93   37.41
   5   4   2  734.29   35.74
   5   4   2  758.02   37.64
  -5   4  -2  700.58   32.68
  -5  -4  -2  716.84   31.79
   5  -4   2  711.37   34.90
  -5  -4  -2  714.69   34.87
   5  -4   2  672.59   36.25
   5   4   3  914.83   42.90
  -5   4  -3  795.57   42.35
   5   4   3  790.26   38.28
  -5  -4  -3  815.51   38.23
   5  -4   3  712.59   40.05
   5  -4   3  774.99   38.78
  -5   4  -4  488.93   30.66
   5   4   4  465.97   31.08
   5   4   4  518.66   28.01
   5  -4   4  443.69   28.80
  -5  -4  -4  508.06   26.85
   5  -4   4  492.03   27.97
  -5   4  -5  867.35   46.29
   5   4   5  735.04   42.92
   5   4   5  777.43   40.69
  -5  -4  -5  841.18   39.51
   5  -4   5  779.36   40.99
   5  -4   5  778.30   42.96
   5   4   6  187.87   30.37
  -5   4  -6  237.54   25.69
   5   4   6  200.85   23.07
   5  -4   6  151.54   18.97
  -5  -4  -6  175.75   16.39
   5  -4   6  201.96   22.13
  -5   5   6  852.85   47.49
   5   5  -6  819.02   42.45
  -5  -5   6  837.09   46.11
  -5  -5   6  765.13   46.58
   5  -5  -6  904.46   46.10
   5   5  -5    5.10    8.19
  -5   5   5    2.02   10.73
  -5  -5   5   21.16    9.65
   5  -5  -5   -4.59    8.16
  -5  -5   5   -7.45   11.33
   5   5  -4 1009.56   48.37
  -5   5   4  928.92   49.66
   5  -5  -4 1023.26   49.00
   5  -5  -4 1026.64   45.64
  -5  -5   4  915.71   50.40
  -5  -5   4  980.93   48.87
   5   5  -3  182.29   16.00
  -5   5   3  144.18   17.20
  -5   5   3  176.48   17.86
  -5  -5   3  182.06   18.32
  -5  -5   3  173.37   17.85
   5  -5  -3  180.90   16.51
   5  -5  -3  149.78   15.03
   5   5  -2 2423.69  102.66
  -5   5   2 2308.93  101.61
  -5   5   2 2040.13  100.32
   5  -5  -2 2521.74  101.51
  -5  -5   2 2510.18  102.39
   5  -5  -2 2274.24   99.59
  -5  -5   2 2355.74  100.34
  -5   5   1 1051.83   51.64
   5   5  -1 1113.45   53.00
  -5   5   1 1055.05   52.11
  -5  -5   1 1067.82   49.84
  -5  -5   1 1140.94   52.00
   5  -5  -1 1059.63   50.49
   5  -5  -1 1157.70   51.61
  -5   5   0 3316.88  142.35
   5   5   0 3416.61  142.87
  -5   5   0 3300.28  140.70
   5  -5   0 3190.37  140.33
  -5  -5   0 3311.05  141.75
   5  -5   0 3592.87  141.51
  -5  -5   0 3382.93  138.92
   5   5   1  998.97   48.44
   5   5   1  942.61   44.66
  -5   5  -1  967.74   48.86
  -5   5  -1  957.10   46.72
  -5  -5  -1 1016.66   44.17
   5  -5   1 1016.95   47.12
   5  -5   1  961.36   46.98
  -5  -5  -1  941.94   47.36
   5   5   2 2243.62   97.12
  -5   5  -2 2303.13  101.23
  -5   5  -2 2191.39   97.19
   5   5   2 2476.84  101.10
   5  -5   2 2293.09   99.84
   5  -5   2 2209.62   99.14
  -5  -5  -2 2320.45   99.97
   5   5   3  463.99   27.65
   5   5   3  571.06   32.40
  -5   5  -3  471.00   31.30
   5  -5   3  439.57   29.15
   5  -5   3  478.26   30.09
  -5  -5  -3  507.51   29.24
  -5   5  -4 2018.13  102.21
   5   5   4 1946.46   87.19
   5   5   4 2070.16   91.35
  -5  -5  -4 1843.18   98.10
   5  -5   4 1960.03   88.21
   5  -5   4 2036.56   89.45
   5   5   5   86.67   18.31
   5   5   5  123.75   15.90
  -5   5  -5  121.65   19.48
  -5  -5  -5  163.52   16.23
   5  -5   5  134.02   17.38
   5   6  -4 2534.36  113.41
  -5   6   4 2507.55  114.72
   5  -6  -4 2496.12  111.39
  -5  -6   4 2673.72  114.74
  -5  -6   4 2577.96  116.11
   5   6  -3  394.09   29.47
  -5   6   3  356.53   29.93
   5  -6  -3  406.15   26.25
   5  -6  -3  403.48   25.94
  -5  -6   3  433.61   28.11
  -5   6   2 1381.05   63.32
  -5   6   2 1200.66   65.07
   5   6  -2 1301.60   65.79
   5  -6  -2 1345.44   62.31
  -5  -6   2 1359.98   62.91
   5  -6  -2 1424.89   62.52
  -5  -6   2 1441.20   64.19
  -5   6   1  130.50   17.27
  -5   6   1  145.26   16.31
  -5  -6   1  131.60   16.99
  -5  -6   1  169.93   17.52
   5  -6  -1  141.30   18.47
   5  -6  -1  147.73   17.41
  -5   6   0  751.87   40.91
  -5   6   0  707.24   41.15
   5  -6   0  679.35   39.64
  -5  -6   0  767.24   42.01
   5  -6   0  819.17   39.25
   5   6   1  308.01   26.30
  -5   6  -1  348.94   26.16
  -5   6  -1  332.72   27.66
   5  -6   1  372.58   23.95
  -5  -6  -1  365.48   25.87
   5  -6   1  308.83   26.48
   5   6   2  863.30   44.75
  -5   6  -2  814.39   45.52
  -5  -6  -2  817.53   44.64
   5  -6   2  886.43   44.58
   5  -6   2  744.85   44.78
   5   6   3  310.59   25.25
   5   6   3  335.17   28.26
  -5   6  -3  377.86   27.50
  -5  -6  -3  318.66   26.38
   5  -6   3  312.67   28.92
   6   0  -9   -5.22   11.74
  -6   0   9   -2.53    8.50
   6   0  -9   -0.14    8.91
  -6   0   9    2.41   13.28
  -6   0   8 2578.82  111.72
  -6   0   8 2652.94  115.48
   6   0  -8 2687.07  114.21
   6   0  -7    4.11    7.78
  -6   0   7   -1.21    4.93
  -6   0   7   10.54    8.50
  -6   0   6 2886.49  119.81
   6   0  -6 2875.09  120.76
  -6   0   6 2859.77  121.18
  -6   0   5   -1.01    4.88
   6   0  -5    1.70    4.58
  -6   0   5    4.23    4.77
  -6   0   4 3132.29  134.43
   6   0  -4 3270.57  134.11
  -6   0   4 3377.97  134.15
  -6   0   3    9.70    3.64
  -6   0   3   -1.86    2.95
   6   0  -3    1.72    3.53
  -6   0   2 2866.27  115.55
   6   0  -2 2938.04  115.04
   6   0  -2 2899.20  115.28
  -6   0   2 2530.48  112.57
   6   0  -1    2.01    2.42
  -6   0   1    0.87    1.87
   6   0  -1   -1.45    2.66
  -6   0   1    0.78    2.57
  -6   0   0 4070.72  163.91
   6   0   0 4082.69  164.14
  -6   0   0 4015.12  165.46
   6   0   0 4109.62  165.68
  -6   0  -1   23.66    3.77
  -6   0  -1    4.11    2.85
   6   0   1   19.14    3.35
  -6   0  -2 8081.72  296.54
   6   0   2 6788.34  296.96
  -6   0  -2 7203.60  296.82
  -6   0  -3    4.50    3.72
   6   0   3    4.08    4.38
  -6   0  -3    4.44    3.54
  -6   0  -4 5616.32  219.46
   6   0   4 5144.67  220.26
   6   0   5   12.70    6.64
  -6   0  -5   -0.53    5.10
  -6   0  -5   -0.78    5.17
   6   0   6 3587.99  155.62
  -6   0  -6 3780.20  154.06
  -6   0  -6 3690.51  152.26
   6   0   7    7.04   10.77
  -6   0  -7    7.05    8.19
  -6   0  -7    8.49    7.55
   6   1  -9  273.57   21.96
  -6   1   9  320.72   31.64
   6   1  -9  301.92   29.76
  -6   1   9  259.38   20.72
  -6  -1   9  275.39   31.42
   6  -1  -9  252.02   27.68
  -6   1   8  598.12   32.40
  -6   1   8  618.76   37.69
   6   1  -8  633.98   32.42
   6   1  -8  632.07   33.06
  -6  -1   8  650.73   36.79
   6  -1  -8  611.18   37.59
   6   1  -7  955.20   44.44
   6   1  -7  919.42   46.27
  -6   1   7 1040.41   47.42
  -6   1   7  924.71   44.52
  -6  -1   7  932.63   47.08
   6  -1  -7  945.12   48.42
  -6   1   6 1346.17   61.08
   6   1  -6 1340.53   59.84
  -6   1   6 1314.14   59.65
  -6  -1   6 1395.77   56.43
   6  -1  -6 1392.90   62.62
  -6  -1   6 1357.40   61.47
  -6   1   5 2904.43  120.89
   6   1  -5 2850.49  120.74
   6   1  -5 2925.49  119.47
  -6  -1   5 2838.95  121.74
  -6  -1   5 3115.90  117.66
   6  -1  -5 2811.40  122.73
   6   1  -4 3066.08  120.19
   6   1  -4 2911.56  121.25
  -6   1   4 2916.08  121.71
  -6  -1   4 3010.27  118.36
  -6  -1   4 2925.71  122.16
   6  -1  -4 2788.86  122.48
   6   1  -3 4850.71  196.07
   6   1  -3 4936.51  195.15
  -6   1   3 4763.72  197.68
   6  -1  -3 4688.26  197.36
  -6  -1   3 4994.40  193.98
  -6  -1   3 4751.92  196.76
   6   1  -2 3995.47  162.89
  -6   1   2 4321.51  163.72
  -6   1   2 3909.81  164.15
   6   1  -2 4271.47  163.90
   6  -1  -2 3945.54  165.22
  -6  -1   2 3708.48  165.58
  -6   1   1 7578.66  274.49
  -6   1   1 6722.62  275.63
  -6   1   1 6861.13  272.67
  -6   1   1 6948.81  272.82
   6   1  -1 6937.73  274.69
   6   1  -1 6775.60  274.56
  -6  -1   1 7040.83  275.37
   6  -1  -1 6688.09  276.10
  -6  -1   1 5900.83  273.84
  -6   1   0 2088.41   82.44
  -6   1   0 1828.19   84.32
   6   1   0 2038.39   83.64
   6   1   0 2047.96   83.27
  -6  -1   0 2052.13   83.79
   6  -1   0 1914.76   84.63
   6  -1   0 2161.75   82.39
  -6  -1   0 1986.54   82.74
   6   1   1 2921.38  119.96
   6   1   1 2913.75  120.48
   6  -1   1 3022.19  119.42
  -6  -1  -1 2930.04  119.94
  -6  -1  -1 2913.95  119.62
   6  -1   1 2880.70  118.08
   6  -1   1 2939.15  121.36
  -6   1  -2 1027.29   46.47
   6   1   2 1013.62   46.62
   6   1   2 1019.60   46.15
   6  -1   2 1099.21   47.16
  -6  -1  -2 1073.45   45.14
   6  -1   2 1052.71   45.15
  -6  -1  -2 1032.93   45.31
   6   1   3  874.25   39.73
   6   1   3  918.95   41.72
  -6   1  -3  873.85   41.26
   6  -1   3  945.22   42.37
  -6  -1  -3  946.49   39.84
   6  -1   3  888.25   40.42
   6   1   4  678.68   32.88
   6   1   4  661.20   28.90
  -6   1  -4  690.59   33.00
  -6  -1  -4  641.50   31.46
   6  -1   4  639.33   31.60
   6  -1   4  693.67   33.90
   6   1   5  581.70   30.85
  -6   1  -5  589.35   30.08
  -6  -1  -5  556.36   27.21
  -6  -1  -5  571.92   28.78
   6  -1   5  586.34   31.82
   6  -1   5  540.19   28.48
   6   1   6  553.95   31.30
  -6   1  -6  531.57   29.77
  -6   1  -6  538.93   29.85
  -6  -1  -6  507.04   28.11
   6  -1   6  533.55   28.91
  -6  -1  -6  560.66   26.94
   6  -1   6  573.72   32.66
   6   1   7  152.41   26.65
  -6   1  -7  202.44   18.99
  -6  -1  -7  201.73   19.88
   6  -1   7  197.33   23.61
  -6   2   8   24.59   10.27
   6   2  -8   24.96    8.50
  -6   2   8   18.86   14.08
   6  -2  -8    6.78   13.25
  -6  -2   8   13.91   11.44
  -6   2   7 1969.64   84.12
   6   2  -7 1925.68   82.88
  -6   2   7 1964.26   85.42
  -6  -2   7 1888.45   81.09
  -6  -2   7 1870.33   85.56
   6  -2  -7 1870.41   87.78
   6   2  -6    7.52    5.79
  -6   2   6    4.41    6.09
  -6   2   6   -1.60    7.11
   6   2  -6    2.85    3.97
  -6  -2   6    4.58    4.70
   6  -2  -6   13.21    9.00
  -6  -2   6   -0.91    5.86
  -6   2   5 1694.09   73.41
  -6   2   5 1697.43   73.25
   6   2  -5 1735.39   69.91
   6   2  -5 1643.37   72.49
   6  -2  -5 1671.78   76.08
  -6  -2   5 1643.23   73.89
  -6  -2   5 1747.71   70.56
  -6   2   4    7.31    4.97
   6   2  -4   12.57    3.27
   6   2  -4   11.03    4.73
  -6   2   4    8.14    4.76
  -6  -2   4   12.76    5.38
   6  -2  -4   11.52    6.55
  -6  -2   4   20.00    4.32
  -6   2   3  687.21   32.61
  -6   2   3  670.23   32.18
   6   2  -3  641.13   31.98
   6   2  -3  771.00   30.39
  -6  -2   3  659.82   32.85
  -6  -2   3  713.61   32.36
   6  -2  -3  724.48   34.57
  -6   2   2   97.38    8.22
  -6   2   2   73.27    7.45
  -6   2   2   75.61    8.53
   6   2  -2   84.61    8.14
   6   2  -2   73.42    6.31
   6  -2  -2   79.98    5.02
  -6  -2   2   83.45    9.13
   6  -2  -2   85.61    9.16
  -6  -2   2   70.77    8.26
   6   2  -1 2032.93   81.25
  -6   2   1 1975.58   83.40
  -6   2   1 2011.63   81.60
   6   2  -1 1934.14   83.75
   6  -2  -1 2027.69   80.19
   6  -2  -1 1894.31   83.81
  -6  -2   1 1910.40   82.75
  -6  -2   1 1946.43   82.54
   6   2   0   22.09    4.80
  -6   2   0   18.27    3.91
  -6   2   0   25.63    5.19
   6   2   0   28.16    4.72
  -6  -2   0   29.81    4.70
   6  -2   0   21.39    6.13
  -6  -2   0   23.02    4.53
   6   2   1 4057.12  175.26
   6   2   1 4418.72  174.56
  -6   2  -1 4517.79  172.26
  -6  -2  -1 4270.00  173.70
  -6  -2  -1 4167.81  174.21
   6  -2   1 4419.73  173.73
   6  -2   1 4121.75  176.20
   6   2   2  328.55   19.75
  -6   2  -2  278.54   17.94
   6   2   2  273.24   15.96
  -6  -2  -2  272.65   14.80
   6  -2   2  303.17   17.72
   6  -2   2  282.66   16.04
  -6  -2  -2  279.47   15.77
   6   2   3 3578.61  150.37
  -6   2  -3 3600.53  151.90
   6  -2   3 3646.05  149.62
  -6  -2  -3 3713.94  149.79
  -6  -2  -3 3786.32  148.13
   6  -2   3 3527.92  151.58
   6   2   4   82.39    9.32
   6   2   4   72.23   10.52
  -6   2  -4   71.79   11.41
  -6  -2  -4   66.27    8.53
  -6  -2  -4   75.57    7.29
   6  -2   4   52.06    7.94
   6  -2   4   72.84   11.08
   6   2   5 2279.73   99.43
   6   2   5 2333.65  103.24
  -6   2  -5 2392.08  104.62
   6  -2   5 2374.44  105.05
  -6  -2  -5 2452.29  102.09
   6  -2   5 2429.73  102.19
  -6  -2  -5 2583.51   99.28
  -6   2  -6   56.58   12.13
   6   2   6   62.55   11.12
  -6  -2  -6   38.94    7.66
   6  -2   6   51.33    9.61
   6  -2   6   66.95   14.28
   6   2   7 1017.08   52.57
  -6   2  -7 1139.04   54.75
   6  -2   7  997.91   50.41
  -6  -2  -7 1059.93   50.36
   6  -2   7 1061.96   57.69
   6   3  -8  137.62   16.12
  -6   3   8  143.90   18.46
  -6  -3   8  152.03   19.26
   6  -3  -8  145.26   20.66
  -6   3   7  558.05   32.82
   6   3  -7  559.17   30.69
  -6   3   7  638.64   35.14
  -6  -3   7  555.41   29.56
   6  -3  -7  635.54   36.71
  -6  -3   7  580.97   35.23
  -6   3   6  660.86   36.30
  -6   3   6  724.21   37.50
   6   3  -6  655.90   34.79
  -6  -3   6  745.62   38.17
   6  -3  -6  764.98   40.47
  -6  -3   6  735.28   34.54
  -6   3   5  580.49   30.19
  -6   3   5  506.90   29.09
   6   3  -5  563.13   28.63
  -6  -3   5  568.94   30.42
   6  -3  -5  581.66   32.95
  -6  -3   5  568.96   28.50
  -6   3   4 2776.88  117.62
   6   3  -4 2947.17  113.90
   6   3  -4 2909.26  117.40
  -6   3   4 2793.45  117.74
  -6  -3   4 2692.01  117.91
  -6  -3   4 2837.35  118.47
   6  -3  -4 2669.89  119.92
  -6   3   3  932.95   43.20
  -6   3   3  940.91   42.85
   6   3  -3  905.71   42.51
   6   3  -3  987.06   39.37
   6  -3  -3  945.65   39.47
  -6  -3   3  936.65   43.30
   6  -3  -3  894.35   44.66
   6   3  -2 4447.51  176.54
  -6   3   2 4190.48  177.07
   6   3  -2 4508.06  173.39
  -6   3   2 4434.28  175.87
   6  -3  -2 3815.17  177.54
   6  -3  -2 4509.35  173.48
  -6  -3   2 4173.26  176.31
  -6   3   1  817.88   36.40
   6   3  -1  786.21   37.56
   6   3  -1  810.86   35.21
  -6   3   1  806.95   41.11
  -6  -3   1  828.79   38.99
  -6  -3   1  825.43   36.87
   6  -3  -1  782.19   35.12
   6  -3  -1  814.21   39.59
   6   3   0 1268.71   58.41
   6   3   0 1299.64   55.62
  -6   3   0 1352.84   59.33
  -6   3   0 1313.04   55.58
   6  -3   0 1295.78   55.50
   6  -3   0 1283.23   59.38
  -6  -3   0 1356.07   56.25
  -6  -3   0 1301.53   57.60
  -6   3  -1 1277.41   58.32
  -6   3  -1 1252.28   53.52
  -6  -3  -1 1253.28   55.75
   6  -3   1 1286.17   55.03
   6  -3   1 1294.04   58.02
  -6  -3  -1 1297.27   54.53
  -6   3  -2  305.00   14.64
   6   3   2  277.13   17.61
  -6   3  -2  326.49   21.18
   6  -3   2  315.64   20.62
  -6  -3  -2  297.04   15.65
  -6  -3  -2  309.48   17.70
  -6   3  -3 1004.61   49.92
   6   3   3 1031.66   47.22
   6   3   3  983.00   52.67
  -6  -3  -3 1040.65   46.71
   6  -3   3 1032.52   46.78
   6  -3   3 1067.31   49.78
  -6  -3  -3 1052.91   44.14
   6   3   4   54.30   11.66
  -6   3  -4   67.26   12.03
   6   3   4   63.59    9.75
   6  -3   4   77.44    9.95
  -6  -3  -4   51.62    7.41
   6  -3   4   75.63   12.73
   6   3   5  590.04   31.79
   6   3   5  566.55   32.27
  -6   3  -5  620.06   35.09
   6  -3   5  581.27   35.04
  -6  -3  -5  572.90   30.10
   6  -3   5  556.36   31.04
   6   3   6   86.63   18.94
  -6   3  -6   97.49   23.34
   6  -3   6   67.89   16.43
  -6  -3  -6   69.59   11.01
   6  -3   6   47.96   11.03
   6   4  -7    2.91    8.47
  -6   4   7   15.46   11.41
  -6  -4   7   -5.99   10.68
  -6  -4   7   16.23   10.76
   6  -4  -7    5.01   12.09
  -6   4   6  670.05   37.84
   6   4  -6  653.56   35.18
  -6  -4   6  668.41   37.86
  -6  -4   6  678.63   37.08
   6  -4  -6  756.35   40.35
   6   4  -5   14.77    7.24
  -6   4   5    5.37    8.90
   6  -4  -5   15.85   10.05
  -6  -4   5   11.24    9.36
  -6  -4   5   15.16    9.84
   6   4  -4  637.54   31.73
  -6   4   4  570.14   32.38
  -6   4   4  580.60   32.06
   6  -4  -4  630.90   34.01
  -6  -4   4  549.53   33.62
  -6  -4   4  634.42   32.49
   6   4  -3  497.31   27.11
  -6   4   3  485.71   27.51
  -6   4   3  477.68   27.23
   6  -4  -3  505.03   28.74
   6  -4  -3  494.53   24.46
  -6  -4   3  489.23   26.99
  -6  -4   3  512.24   28.93
   6   4  -2  592.09   30.70
  -6   4   2  571.23   31.43
  -6   4   2  544.08   29.75
   6  -4  -2  599.26   32.17
  -6  -4   2  649.83   31.92
  -6  -4   2  556.92   29.89
   6  -4  -2  596.48   28.02
   6   4  -1   72.28    7.98
   6   4  -1   71.74   10.09
  -6   4   1   67.63   10.49
   6  -4  -1   59.96   10.50
  -6  -4   1  105.31   12.42
  -6  -4   1   59.53    8.06
   6  -4  -1   68.87    8.08
   6   4   0  893.01   40.27
  -6   4   0  889.68   45.27
   6   4   0  873.15   44.68
  -6  -4   0  924.82   41.24
  -6  -4   0  944.87   44.15
   6  -4   0  911.57   41.69
   6  -4   0  950.75   45.33
   6   4   1  137.27   11.82
   6   4   1  128.24   16.32
  -6   4  -1  125.79   14.74
  -6   4  -1  131.29   11.84
   6  -4   1  154.28   15.50
  -6  -4  -1  147.54   11.20
   6  -4   1  143.51   13.25
  -6  -4  -1  148.68   13.50
  -6   4  -2  981.82   50.45
   6   4   2 1110.59   50.63
   6   4   2  976.32   46.16
   6  -4   2  987.74   49.77
   6  -4   2 1021.05   47.04
  -6  -4  -2  994.95   47.10
  -6  -4  -2 1056.03   44.54
   6   4   3  195.02   16.14
   6   4   3  209.80   20.10
  -6   4  -3  178.51   19.97
   6  -4   3  180.43   16.03
  -6  -4  -3  179.79   14.85
   6  -4   3  154.28   19.80
  -6   4  -4 1277.74   61.98
   6   4   4 1202.63   60.96
   6   4   4 1278.53   57.97
   6  -4   4 1136.50   59.86
  -6  -4  -4 1314.91   57.57
   6  -4   4 1292.90   58.72
   6   4   5  143.02   17.87
  -6   4  -5  146.45   18.76
   6   4   5  114.94   17.98
  -6  -4  -5  147.30   14.81
   6  -4   5  107.93   14.01
   6  -4   5  137.01   19.66
  -6   5   5   91.82   18.75
   6   5  -5  134.61   17.13
  -6  -5   5   98.06   17.36
   6  -5  -5  132.13   16.81
  -6  -5   5  139.13   28.50
  -6   5   4   13.13   10.73
   6   5  -4   20.54    9.43
  -6   5   4   -7.42   10.99
  -6  -5   4    7.47    9.08
   6  -5  -4   13.87    8.93
  -6  -5   4   -5.63   10.90
  -6   5   3  557.96   33.68
   6   5  -3  583.65   33.30
  -6   5   3  537.69   33.11
  -6  -5   3  579.17   32.31
   6  -5  -3  625.52   36.25
   6  -5  -3  614.66   33.32
  -6  -5   3  645.45   34.89
  -6   5   2   25.09   10.28
  -6   5   2   27.58   10.19
   6   5  -2   38.42    9.58
   6  -5  -2   41.72    9.18
  -6  -5   2   40.44   10.54
  -6  -5   2   14.44    8.78
   6  -5  -2   42.04    9.87
  -6   5   1  542.61   32.96
   6   5  -1  564.38   33.33
  -6   5   1  544.10   31.53
   6  -5  -1  613.54   32.19
  -6  -5   1  580.13   31.81
   6  -5  -1  553.27   29.96
  -6  -5   1  564.61   30.28
  -6   5   0   83.74   11.60
  -6   5   0   80.27   13.21
   6   5   0   73.27   12.81
  -6  -5   0   87.15   12.27
  -6  -5   0   81.43   10.60
   6  -5   0   86.07   11.74
   6  -5   0   81.12   12.84
  -6   5  -1  144.69   16.63
  -6   5  -1  117.65   16.10
   6   5   1  156.33   18.36
   6  -5   1  147.87   17.52
  -6  -5  -1  159.87   16.99
   6  -5   1  153.22   16.67
   6   5   2  180.23   15.87
  -6   5  -2  157.46   17.97
   6   5   2  190.73   20.51
  -6  -5  -2  166.16   17.67
   6  -5   2  137.90   18.10
   6  -5   2  166.36   20.22
   6   5   3    3.00   12.15
   6   5   3    0.02    8.40
  -6   5  -3  -12.73   13.11
   6  -5   3    6.29    9.80
   6  -5   3   -6.15   11.82
  -6   5  -4  397.96   31.39
   6   5   4  363.42   27.23
   6   5   4  431.12   31.40
  -6  -5  -4  379.40   25.82
   6  -5   4  437.41   31.54
  -6   6   3   22.59   15.50
   6   6  -3   42.14   13.78
  -6  -6   3   48.20   11.62
  -6  -6   3   64.49   13.76
   6  -6  -3   53.57   13.05
  -6   6   2  557.67   35.59
   6   6  -2  562.15   35.33
  -6   6   2  586.80   35.08
  -6  -6   2  555.23   33.39
  -6  -6   2  556.58   33.27
   6  -6  -2  507.89   31.99
   6  -6  -2  519.44   31.87
  -6   6   1   17.93   12.82
  -6   6   1   28.15   12.87
   6   6  -1   14.04   11.83
  -6  -6   1   34.22   11.09
  -6  -6   1    9.80   10.02
   6  -6  -1    1.36    9.65
   6  -6  -1   -1.27   10.42
  -6   6   0  192.04   22.29
   6   6   0  196.90   21.73
  -6   6   0  201.96   24.95
   6  -6   0  229.20   21.93
  -6  -6   0  226.59   21.25
   6  -6   0  201.78   22.55
  -6   6  -1   -3.49   12.51
   6   6   1    8.46   10.34
  -6  -6  -1   38.20   11.29
   6  -6   1   17.64   12.24
   6  -6   1   27.02   11.91
  -7   0   9   26.04   16.99
   7   0  -9   -6.80    9.26
   7   0  -9  -12.76   11.80
   7   0  -8  788.18   41.09
  -7   0   8  797.89   43.32
  -7   0   8  760.29   39.21
  -7   0   7   -1.77    6.10
   7   0  -7    6.00    7.90
  -7   0   7    1.49    7.86
  -7   0   6  534.88   29.09
  -7   0   6  536.58   27.74
   7   0  -6  533.19   27.69
  -7   0   5    2.06    4.98
   7   0  -5    3.12    5.18
  -7   0   5    0.16    4.60
   7   0  -4  149.68   11.77
   7   0  -4  169.51   11.78
  -7   0   4  145.74   12.31
  -7   0   4  155.21   11.57
   7   0  -3   -0.65    4.03
   7   0  -3    1.72    4.10
  -7   0   3   -0.47    3.69
   7   0  -2   58.28    6.69
   7   0  -2   58.82    7.38
  -7   0   2   50.32    6.95
  -7   0   2   59.66    3.99
   7   0  -1    1.25    3.59
  -7   0   1    1.93    3.21
  -7   0   1    1.79    2.42
   7   0  -1    8.97    3.12
  -7   0   0 1445.26   63.93
   7   0   0 1520.23   64.22
  -7   0   0 1532.67   62.24
   7   0   0 1501.64   62.48
  -7   0  -1   12.63    3.93
  -7   0  -1   -1.05    3.07
   7   0   1    0.67    3.24
   7   0   1    6.49    4.16
   7   0   2   14.18    4.52
  -7   0  -2   14.09    4.79
   7   0   2   24.05    6.01
  -7   0  -2   22.06    4.77
  -7   0  -3    1.19    4.21
   7   0   3    4.62    5.45
  -7   0  -3   -0.67    4.27
  -7   0  -4  308.29   19.03
  -7   0  -4  333.24   18.62
   7   0   4  325.97   20.96
   7   0   5   -3.35    8.38
  -7   0  -5   15.05    5.90
  -7   0  -5   -2.28    6.52
   7   0   6  624.36   34.95
  -7   0  -6  556.39   29.67
  -7   0  -6  559.73   31.37
  -7   0  -7  -14.90    8.72
   7   0   7  -11.72   11.81
  -7   0  -7    2.92    8.80
   7   1  -8  126.42   16.15
  -7   1   8  148.93   18.72
   7   1  -8  124.78   14.39
   7  -1  -8  139.50   17.49
  -7  -1   8  173.93   20.22
  -7   1   7  470.84   27.63
   7   1  -7  414.07   24.52
   7   1  -7  422.92   22.94
  -7   1   7  397.53   24.22
   7  -1  -7  419.22   27.61
  -7  -1   7  421.12   27.39
  -7   1   6  174.43   13.80
   7   1  -6  183.53   14.22
   7   1  -6  178.55   13.95
  -7   1   6  152.36   15.84
   7  -1  -6  174.73   16.74
  -7  -1   6  186.23   15.26
  -7   1   5  229.66   16.20
  -7   1   5  207.88   14.82
   7   1  -5  215.96   14.61
   7   1  -5  221.91   13.61
   7  -1  -5  224.05   15.81
  -7  -1   5  206.48   15.55
   7   1  -4  176.06   13.22
  -7   1   4  202.98   14.31
   7   1  -4  218.71   12.46
  -7   1   4  203.24   13.69
  -7  -1   4  220.96   14.29
   7  -1  -4  233.88   15.78
  -7  -1   4  210.39   10.13
  -7   1   3  189.53   12.51
   7   1  -3  179.41   12.52
  -7   1   3  188.88   12.61
   7   1  -3  193.42   11.70
  -7  -1   3  198.34   13.56
   7  -1  -3  201.77   13.92
  -7  -1   3  222.40   10.54
  -7   1   2  435.57   28.53
   7   1  -2  507.04   23.94
   7   1  -2  542.26   23.50
  -7   1   2  516.77   23.63
  -7  -1   2  469.34   24.14
  -7  -1   2  467.37   25.63
   7   1  -1  339.34   17.34
  -7   1   1  307.93   15.03
   7   1  -1  334.54   17.18
  -7   1   1  339.98   16.94
  -7  -1   1  359.45   17.14
  -7  -1   1  317.28   17.74
   7  -1  -1  395.48   25.98
   7   1   0  892.37   40.27
  -7   1   0  905.07   38.73
   7   1   0  941.21   39.90
  -7   1   0  902.38   41.61
   7  -1   0  885.17   38.80
  -7  -1   0  930.14   39.34
   7  -1   0  931.38   43.39
  -7  -1   0  890.96   40.38
  -7   1  -1  478.12   24.26
   7   1   1  526.86   23.63
  -7   1  -1  444.42   22.20
  -7  -1  -1  449.68   22.88
   7  -1   1  481.24   24.61
   7  -1   1  462.80   21.01
  -7  -1  -1  476.40   22.56
  -7   1  -2  830.79   43.48
   7   1   2  832.45   38.74
   7   1   2  891.82   39.89
  -7   1  -2  834.48   39.05
  -7  -1  -2  824.02   37.56
  -7  -1  -2  808.55   37.50
   7  -1   2  864.08   39.95
   7   1   3   20.47    6.33
  -7   1  -3   28.73    6.53
   7   1   3   21.71    5.93
  -7   1  -3   23.98    5.78
  -7  -1  -3   13.27    4.76
   7  -1   3    7.91    5.10
  -7  -1  -3   28.84    6.05
   7  -1   3   29.13    6.98
  -7   1  -4  287.57   18.86
  -7   1  -4  272.83   17.96
   7   1   4  279.90   18.62
  -7  -1  -4  266.53   17.22
   7  -1   4  292.36   20.09
  -7  -1  -4  300.71   16.81
   7   1   5   18.22    8.96
  -7   1  -5    7.95    7.71
  -7   1  -5   11.64    6.30
  -7  -1  -5   17.75    5.65
   7  -1   5   12.53    9.15
  -7  -1  -5    7.98    6.37
  -7   1  -6   80.89   11.89
  -7   1  -6   91.24   12.05
   7   1   6   86.03   13.10
  -7  -1  -6   91.28   11.83
   7  -1   6  109.75   16.23
  -7  -1  -6  105.72   13.50
   7   1   7   50.28   13.90
  -7   1  -7   54.16   11.95
  -7   1  -7   51.70   10.96
   7  -1   7   42.25   15.68
  -7  -1  -7   40.22   10.15
  -7   2   8   47.44   10.55
   7   2  -8   53.37   10.24
  -7   2   8   53.49   16.64
  -7  -2   8   62.98   14.29
   7  -2  -8   49.66   26.16
  -7   2   7  531.65   30.69
   7   2  -7  545.27   29.87
  -7   2   7  608.42   33.75
  -7  -2   7  557.66   33.03
   7  -2  -7  592.43   35.42
  -7   2   6  261.67   18.96
  -7   2   6  296.81   21.70
   7   2  -6  256.20   18.02
   7   2  -6  288.45   15.35
   7  -2  -6  285.22   22.33
  -7  -2   6  278.89   20.35
   7   2  -5  546.72   28.55
  -7   2   5  539.57   29.16
  -7   2   5  580.90   29.99
   7   2  -5  575.60   25.88
   7  -2  -5  570.93   31.68
  -7  -2   5  569.56   25.96
  -7  -2   5  580.77   30.44
   7   2  -4  588.41   29.27
  -7   2   4  568.77   29.39
  -7   2   4  608.62   30.32
   7   2  -4  592.35   26.65
   7  -2  -4  564.75   30.99
  -7  -2   4  621.83   27.40
  -7  -2   4  612.33   30.25
   7   2  -3  231.48   12.32
   7   2  -3  209.25   14.22
  -7   2   3  226.50   15.25
  -7   2   3  209.33   14.03
  -7  -2   3  202.79   14.05
   7  -2  -3  228.06   16.67
  -7  -2   3  218.24   14.86
  -7   2   2 1205.80   53.57
  -7   2   2 1138.33   52.85
   7   2  -2 1175.80   52.40
   7   2  -2 1218.01   50.96
   7  -2  -2 1227.03   54.77
  -7  -2   2 1197.07   52.99
  -7  -2   2 1235.60   53.74
  -7   2   1    0.83    3.57
   7   2  -1    8.22    3.84
   7   2  -1    7.64    4.35
  -7   2   1    2.64    5.04
   7  -2  -1    1.48    2.89
   7  -2  -1    1.63    5.61
  -7  -2   1    3.18    5.03
   7   2   0 2893.11  117.34
  -7   2   0 2875.14  115.82
  -7   2   0 2832.42  119.13
   7   2   0 2786.88  117.64
  -7  -2   0 2811.44  117.07
  -7  -2   0 2779.03  117.07
   7  -2   0 2999.30  115.89
   7  -2   0 2732.22  119.22
  -7   2  -1   89.40    7.05
   7   2   1  112.16   11.14
  -7   2  -1  127.54   11.95
   7  -2   1   94.79   11.08
   7  -2   1   89.11    8.31
  -7  -2  -1   91.80    8.40
  -7  -2  -1  104.83    8.73
   7   2   2 1145.83   51.43
  -7   2  -2 1205.06   53.41
   7   2   2 1219.50   54.04
   7  -2   2 1168.06   53.32
  -7  -2  -2 1129.09   50.53
  -7  -2  -2 1151.33   49.81
   7  -2   2 1071.40   50.04
   7   2   3   -1.94    7.73
   7   2   3   10.40    6.34
  -7   2  -3    4.91    6.60
  -7  -2  -3    3.54    4.72
   7  -2   3   16.03    5.22
   7  -2   3  -10.79    6.85
  -7  -2  -3   -3.63    3.92
   7   2   4  486.89   24.81
  -7   2  -4  421.97   26.12
   7   2   4  419.72   25.80
  -7  -2  -4  442.71   22.26
   7  -2   4  440.85   24.25
  -7  -2  -4  443.89   24.08
   7  -2   4  491.66   29.13
  -7   2  -5  379.19   24.93
   7   2   5  333.35   23.96
  -7  -2  -5  353.43   21.65
   7  -2   5  355.67   21.85
  -7  -2  -5  358.89   20.46
   7  -2   5  420.22   27.95
   7   2   6  161.85   19.22
  -7   2  -6  191.44   19.85
   7  -2   6  153.08   17.34
  -7  -2  -6  156.67   15.71
   7  -2   6  174.70   21.88
  -7   3   7  763.50   42.77
  -7   3   7  778.98   41.15
   7   3  -7  675.74   42.80
   7  -3  -7  723.40   48.35
  -7  -3   7  838.17   42.25
  -7   3   6  481.34   28.38
   7   3  -6  468.33   26.68
  -7   3   6  481.93   29.87
  -7  -3   6  465.74   27.81
   7  -3  -6  490.71   32.02
  -7  -3   6  462.98   25.66
  -7   3   5  853.01   41.85
  -7   3   5  827.42   41.19
   7   3  -5  840.98   40.32
   7  -3  -5  830.34   43.10
  -7  -3   5  856.92   39.47
  -7  -3   5  827.43   41.49
  -7   3   4  573.31   29.97
  -7   3   4  541.69   29.16
   7   3  -4  554.71   28.76
   7  -3  -4  574.55   31.86
  -7  -3   4  557.58   29.76
  -7  -3   4  541.22   29.37
  -7   3   3 1544.40   68.51
  -7   3   3 1555.63   67.43
   7   3  -3 1627.86   67.56
   7   3  -3 1609.07   64.03
  -7  -3   3 1551.58   67.86
  -7  -3   3 1336.15   67.70
   7  -3  -3 1557.45   69.98
   7   3  -2   98.71   11.10
  -7   3   2   97.95   11.74
  -7   3   2  109.57   12.85
   7   3  -2  105.73    8.56
  -7  -3   2  110.67   10.35
   7  -3  -2  115.72   13.02
  -7  -3   2  134.12   13.90
   7  -3  -2  112.82    7.92
  -7   3   1 1416.51   62.17
   7   3  -1 1314.99   60.31
   7   3  -1 1360.80   58.06
   7  -3  -1 1375.08   62.71
  -7  -3   1 1331.65   59.49
  -7  -3   1 1412.70   61.56
   7  -3  -1 1371.73   57.48
  -7   3   0   14.76    8.08
  -7   3   0    9.48    4.67
   7   3   0    2.52    4.88
   7   3   0    7.96    6.79
   7  -3   0    7.55    4.58
  -7  -3   0   21.55    6.55
   7  -3   0   -0.02    7.40
  -7   3  -1 1197.20   50.63
   7   3   1 1165.19   52.46
   7   3   1 1243.44   56.15
  -7   3  -1 1211.02   55.97
  -7  -3  -1 1238.12   53.38
   7  -3   1 1250.03   57.06
  -7  -3  -1 1188.32   51.98
   7  -3   1 1109.05   51.92
   7   3   2   29.05    9.62
  -7   3  -2   15.69    8.85
   7   3   2   17.75    6.80
   7  -3   2   18.77    6.41
   7  -3   2   11.16    8.62
  -7  -3  -2   16.51    4.82
  -7  -3  -2   22.53    5.88
   7   3   3 1242.50   58.25
  -7   3  -3 1247.57   59.06
   7   3   3 1211.56   55.82
  -7  -3  -3 1197.57   54.15
   7  -3   3 1206.13   55.31
  -7  -3  -3 1265.57   55.24
   7  -3   3 1234.21   58.92
   7   3   4  105.70   13.29
  -7   3  -4  153.52   18.42
   7   3   4  100.86   14.73
   7  -3   4  123.70   13.66
  -7  -3  -4  121.68   12.16
   7  -3   4  124.58   16.97
   7   3   5  738.62   38.40
  -7   3  -5  723.25   44.27
   7  -3   5  700.39   42.65
   7  -3   5  705.24   36.98
  -7  -3  -5  701.25   36.32
  -7   3  -6  303.95   28.91
   7   3   6  277.75   23.16
  -7  -3  -6  280.06   21.01
   7  -3   6  290.30   32.37
   7  -3   6  303.18   22.62
  -7   4   6  497.22   31.57
   7   4  -6  458.36   27.71
   7  -4  -6  529.50   33.39
  -7  -4   6  447.67   31.66
  -7  -4   6  482.50   30.20
  -7   4   5  772.19   40.66
  -7   4   5  737.47   40.52
   7   4  -5  756.31   38.23
  -7  -4   5  762.78   39.46
   7  -4  -5  776.41   41.75
  -7  -4   5  714.98   39.83
  -7   4   4  308.18   22.17
  -7   4   4  276.17   22.45
   7   4  -4  321.15   21.16
  -7  -4   4  310.26   20.62
   7  -4  -4  341.74   23.72
  -7  -4   4  301.74   23.43
  -7   4   3 1831.31   80.75
  -7   4   3 1694.65   81.54
   7   4  -3 1852.69   80.88
   7  -4  -3 1879.44   82.95
  -7  -4   3 1949.27   82.33
  -7  -4   3 1846.56   80.81
  -7   4   2   66.36   11.65
  -7   4   2   61.76    9.56
   7   4  -2   51.41    8.81
   7  -4  -2   75.33   11.86
  -7  -4   2   64.22   10.93
  -7  -4   2   60.68    9.30
   7  -4  -2   61.67    8.32
   7   4  -1 3242.50  129.21
  -7   4   1 3069.04  134.68
   7   4  -1 3101.36  133.41
  -7   4   1 3218.35  131.49
  -7  -4   1 3151.54  133.56
  -7  -4   1 3191.63  131.45
   7  -4  -1 3306.69  130.04
   7  -4  -1 2957.92  134.06
   7   4   0   62.51    8.01
  -7   4   0   81.88   11.74
   7   4   0   61.16   11.62
  -7   4   0   61.34    8.94
  -7  -4   0   67.33   10.99
  -7  -4   0   62.51    8.45
   7  -4   0   43.21   10.88
   7  -4   0   57.68    8.38
   7   4   1 3320.52  139.00
  -7   4  -1 3494.98  140.59
   7   4   1 3447.92  143.45
  -7   4  -1 3147.28  143.52
  -7  -4  -1 3433.35  141.63
  -7  -4  -1 3428.26  138.84
   7  -4   1 3410.95  139.81
   7  -4   1 3243.38  143.37
   7   4   2  127.35   15.62
  -7   4  -2  121.63   16.04
   7   4   2  132.77   13.70
   7  -4   2  137.00   16.72
   7  -4   2  119.08   14.49
  -7  -4  -2  122.19   14.09
  -7  -4  -2  139.99   11.49
   7   4   3 2156.70   89.91
  -7   4  -3 1980.93   90.72
   7   4   3 2010.89   86.26
  -7  -4  -3 2065.30   86.68
   7  -4   3 1738.61   89.37
   7  -4   3 1921.94   86.27
   7   4   4  374.39   25.76
   7   4   4  411.25   32.05
  -7   4  -4  416.95   30.70
   7  -4   4  388.47   31.94
  -7  -4  -4  367.29   34.67
   7  -4   4  435.18   26.77
   7   4   5  392.86   32.65
   7   4   5  442.70   29.05
  -7   4  -5  417.35   33.76
   7  -4   5  393.55   34.97
  -7  -4  -5  433.73   26.55
   7  -4   5  441.55   29.18
  -7   5   5  592.43   37.63
   7   5  -5  558.80   34.29
  -7  -5   5  626.54   36.12
   7  -5  -5  649.01   36.77
  -7  -5   5  546.19   37.95
  -7   5   4 2049.99   91.11
   7   5  -4 2125.64   90.22
  -7   5   4 1749.45   89.66
  -7  -5   4 2086.70   91.72
   7  -5  -4 2117.89   90.87
  -7  -5   4 1937.23   89.78
  -7   5   3  191.95   22.86
  -7   5   3  177.58   21.12
   7  -5  -3  236.82   21.09
  -7  -5   3  220.02   20.32
  -7  -5   3  258.91   22.72
  -7   5   2 1374.70   67.36
   7   5  -2 1480.08   68.94
  -7   5   2 1323.95   69.46
  -7  -5   2 1622.26   68.87
  -7  -5   2 1456.24   66.81
   7  -5  -2 1587.86   69.22
  -7   5   1   -6.77    9.17
  -7   5   1  -11.12   11.34
   7   5  -1    5.53    9.99
  -7  -5   1   22.36    9.60
  -7  -5   1    5.55    8.20
   7  -5  -1   16.27    9.91
   7  -5  -1    6.94    8.74
  -7   5   0 1175.99   59.00
   7   5   0 1170.29   58.40
  -7   5   0 1137.26   55.04
  -7  -5   0 1223.05   57.55
   7  -5   0 1231.58   57.86
   7  -5   0 1184.04   55.03
  -7  -5   0 1213.04   54.10
  -7   5  -1    2.72   11.21
   7   5   1    5.89   10.66
   7  -5   1  -13.63   10.93
   7  -5   1   -7.54    9.60
  -7  -5  -1   -3.71    9.15
   7   5   2 1031.82   49.11
   7   5   2  871.06   44.41
   7  -5   2  968.20   48.94
   7  -5   2  847.23   46.31
  -7   5  -3  138.08   18.63
   7   5   3  145.95   19.02
   7   5   3  124.39   14.84
  -7  -5  -3  127.57   15.64
   7  -5   3   95.58   15.34
   7  -5   3  133.70   18.86
  -8   0   8 1485.15   71.38
   8   0  -8 1485.51   68.29
   8   0  -8 1469.46   67.21
   8   0  -7    8.91    8.00
  -8   0   7   -4.61    9.10
   8   0  -7    2.88    7.43
  -8   0   6 3280.84  144.66
   8   0  -6 3462.37  143.25
   8   0  -6 3575.46  144.25
   8   0  -5   -2.97    6.02
  -8   0   5    7.15    5.96
   8   0  -5   -4.85    5.17
   8   0  -4 3899.63  164.34
  -8   0   4 3905.52  165.53
   8   0  -4 4214.44  165.23
   8   0  -3   -4.34    4.39
  -8   0   3   -2.35    4.39
   8   0  -3    9.46    4.45
   8   0  -2 5604.33  225.08
  -8   0   2 5354.04  225.52
   8   0  -2 5656.30  224.49
  -8   0   1    1.14    3.36
   8   0  -1   10.22    5.14
   8   0  -1    1.97    3.61
  -8   0   1    0.00    3.68
   8   0   0 3433.50  145.82
   8   0   0 3707.02  144.13
  -8   0   0 3410.71  145.70
  -8   0   0 3598.80  143.63
  -8   0  -1   -1.27    4.43
   8   0   1   -7.00    4.01
   8   0   1    3.47    4.66
  -8   0  -1    2.64    3.65
   8   0   2 1519.89   64.30
  -8   0  -2 1490.80   65.23
   8   0   2 1486.15   66.06
  -8   0  -3    0.76    5.06
  -8   0  -3    2.25    4.90
   8   0   3    5.37    6.40
  -8   0  -4  647.01   32.65
  -8   0  -4  647.27   32.85
   8   0   4  716.95   36.12
   8   0   5    3.43    8.32
  -8   0  -5    7.50    6.87
  -8   0  -5  -10.55    6.37
   8   0   6  652.71   38.06
  -8   0  -6  596.78   32.92
  -8   0  -6  631.59   33.87
  -8   1   8  995.38   51.57
   8   1  -8  949.76   46.75
  -8   1   8  918.46   46.74
   8   1  -8  925.01   46.22
  -8  -1   8  982.19   50.82
   8  -1  -8  939.82   48.93
   8   1  -7  419.18   22.73
  -8   1   7  411.39   27.21
   8   1  -7  381.26   24.10
  -8   1   7  387.47   24.78
  -8  -1   7  415.31   27.08
   8  -1  -7  409.94   26.67
  -8   1   6  831.26   40.48
  -8   1   6  883.92   42.53
   8   1  -6  793.68   40.06
   8   1  -6  827.67   38.52
  -8  -1   6  810.34   41.37
   8  -1  -6  874.14   42.05
  -8   1   5  742.57   36.47
   8   1  -5  730.82   36.33
  -8   1   5  757.41   37.68
   8   1  -5  778.17   34.85
  -8  -1   5  749.23   37.67
   8  -1  -5  777.91   37.86
   8   1  -4  867.35   40.41
  -8   1   4  847.83   41.13
   8   1  -4  912.83   40.95
  -8   1   4  832.43   40.12
   8  -1  -4  859.30   41.58
  -8  -1   4  905.62   41.64
   8   1  -3  737.17   34.40
   8   1  -3  752.33   35.63
  -8   1   3  769.86   36.60
  -8   1   3  734.29   35.33
  -8  -1   3  741.55   36.20
   8  -1  -3  778.18   36.95
  -8  -1   3  832.05   32.69
  -8   1   2 1360.74   58.38
   8   1  -2 1332.12   57.00
  -8   1   2 1312.94   56.59
   8   1  -2 1323.89   56.88
  -8  -1   2 1247.31   57.38
  -8  -1   2 1225.77   56.90
   8  -1  -2 1404.65   59.04
   8   1  -1  945.80   42.12
   8   1  -1  914.00   42.25
  -8   1   1  957.76   39.59
  -8   1   1  871.79   42.96
   8  -1  -1  987.93   43.86
  -8  -1   1  901.81   42.51
  -8  -1   1 1041.52   41.87
   8  -1  -1  940.72   41.40
   8   1   0 1920.92   82.03
   8   1   0 2025.27   81.47
  -8   1   0 1849.36   82.87
  -8   1   0 1915.55   79.97
  -8  -1   0 1889.71   82.04
   8  -1   0 2041.95   83.91
   8  -1   0 1905.17   80.12
  -8  -1   0 1982.53   80.77
  -8   1  -1 2270.66   96.49
  -8   1  -1 2301.87   99.00
   8   1   1 2429.95   97.76
   8   1   1 2288.00   98.26
  -8  -1  -1 2274.85   97.66
   8  -1   1 2291.93   99.28
   8  -1   1 2441.28   95.45
  -8  -1  -1 2377.61   96.90
   8   1   2 2606.93  109.39
   8   1   2 2611.82  109.73
  -8   1  -2 2623.44  109.72
  -8   1  -2 2540.70  109.44
  -8  -1  -2 2601.77  107.82
  -8  -1  -2 2583.15  108.06
   8  -1   2 2599.90  110.52
  -8   1  -3 2281.68   97.98
   8   1   3 2295.84   99.46
  -8   1  -3 2348.46   99.44
  -8  -1  -3 2324.97   97.96
  -8  -1  -3 2367.10   97.62
   8  -1   3 2328.04  100.65
  -8   1  -4 1763.02   77.13
   8   1   4 1717.35   77.85
  -8   1  -4 1694.78   76.36
  -8  -1  -4 1800.60   76.27
   8  -1   4 1781.35   79.16
  -8  -1  -4 1764.93   75.20
  -8   1  -5 1689.72   76.04
   8   1   5 1692.86   77.36
  -8   1  -5 1664.88   75.87
   8  -1   5 1762.37   79.46
  -8  -1  -5 1708.20   73.91
  -8  -1  -5 1748.93   75.51
  -8   1  -6  690.67   37.53
   8   1   6  716.22   39.99
  -8   1  -6  695.25   37.31
   8  -1   6  745.50   41.18
  -8  -1  -6  713.90   35.18
  -8  -1  -6  665.23   36.72
  -8   2   7 1630.39   73.51
   8   2  -7 1539.53   71.30
  -8   2   7 1392.04   75.74
   8  -2  -7 1626.12   74.14
  -8   2   6   77.94   11.11
   8   2  -6   99.18   11.68
  -8   2   6   97.52   13.81
  -8  -2   6   99.82   12.43
   8  -2  -6   92.90   13.14
   8   2  -5 3667.20  156.97
  -8   2   5 3882.03  159.02
   8   2  -5 3951.99  158.94
  -8   2   5 3909.45  160.37
  -8  -2   5 3877.21  160.34
   8  -2  -5 3682.18  161.03
   8   2  -4   95.24   11.58
  -8   2   4  135.04   13.41
  -8   2   4  123.90   12.29
   8  -2  -4  100.04   12.99
  -8  -2   4   97.78   11.16
  -8  -2   4  101.35    9.86
  -8   2   3 5007.08  193.27
  -8   2   3 4768.64  194.93
   8   2  -3 5028.81  193.73
   8  -2  -3 4685.99  195.67
  -8  -2   3 4839.83  194.31
  -8  -2   3 4009.72  191.82
   8   2  -2  356.49   19.59
   8   2  -2  330.67   18.06
  -8   2   2  328.23   20.03
  -8   2   2  355.58   20.78
   8  -2  -2  351.51   21.33
  -8  -2   2  382.28   21.90
  -8  -2   2  315.63   19.73
   8   2  -1 4067.81  171.50
  -8   2   1 4272.53  168.75
   8   2  -1 4096.72  170.75
  -8   2   1 4313.16  173.78
  -8   2   1 4227.91  170.29
  -8  -2   1 4066.68  171.91
   8  -2  -1 4186.28  174.03
  -8  -2   1 4268.40  172.00
   8   2   0   27.91    7.61
   8   2   0   32.22    6.48
  -8   2   0   30.03    7.57
  -8   2   0   34.58    5.19
  -8  -2   0   39.95    6.56
   8  -2   0   35.37    5.21
  -8  -2   0   39.08    6.25
   8  -2   0   31.58    8.23
   8   2   1 1886.06   81.96
  -8   2  -1 1927.18   84.24
   8   2   1 1986.99   83.41
   8  -2   1 1979.20   84.96
  -8  -2  -1 1936.72   81.39
   8  -2   1 1912.57   80.49
   8  -2   1 1947.70   79.02
  -8  -2  -1 1836.89   81.23
   8   2   2   30.58   11.24
  -8   2  -2   16.63    6.55
   8   2   2   15.08    6.89
  -8  -2  -2    4.74    5.06
   8  -2   2   11.96    5.91
  -8  -2  -2   14.34    5.07
   8  -2   2   24.02    8.99
  -8   2  -3  614.65   32.77
   8   2   3  500.57   36.49
   8   2   3  604.51   31.13
   8  -2   3  671.76   35.01
   8  -2   3  571.66   29.68
  -8  -2  -3  602.32   29.05
  -8  -2  -3  608.53   30.02
   8   2   4   71.04   10.87
  -8   2  -4   57.77   10.71
   8  -2   4   74.27   10.35
   8  -2   4   68.96   12.89
  -8  -2  -4   65.83    7.90
  -8  -2  -4   56.23    9.01
  -8   2  -5  936.60   48.15
   8  -2   5  956.76   49.51
  -8  -2  -5  921.07   44.95
   8  -2   5  900.68   44.75
   8   3  -7  433.97   27.32
  -8   3   7  431.91   34.12
  -8   3   7  432.66   29.25
  -8  -3   7  461.50   31.15
   8  -3  -7  455.72   32.58
  -8   3   6  210.77   18.89
  -8   3   6  175.35   23.00
   8   3  -5  362.36   22.83
  -8   3   5  385.68   23.99
  -8   3   5  364.66   25.19
   8  -3  -5  366.43   26.23
  -8  -3   5  368.75   30.02
  -8  -3   5  371.75   24.85
  -8   3   4  123.13   15.63
   8   3  -4  113.96   12.14
  -8   3   4  117.84   14.16
  -8  -3   4  137.22   15.51
  -8  -3   4  101.80   12.97
   8  -3  -4  123.44   15.46
   8   3  -3  543.86   28.67
   8   3  -3  576.26   25.73
  -8   3   3  551.66   28.56
  -8   3   3  536.95   30.53
   8  -3  -3  542.54   31.77
  -8  -3   3  492.12   30.11
  -8  -3   3  562.93   29.08
   8   3  -2  405.91   23.14
   8   3  -2  398.03   20.27
  -8   3   2  399.21   25.04
  -8   3   2  384.24   22.20
   8  -3  -2  418.20   24.94
  -8  -3   2  382.91   22.47
   8   3  -1  514.19   25.68
  -8   3   1  521.78   30.17
   8   3  -1  529.08   28.38
  -8   3   1  507.06   26.44
  -8  -3   1  580.95   29.43
   8  -3  -1  564.11   30.90
   8  -3  -1  521.46   25.22
  -8  -3   1  500.87   27.02
  -8   3   0  976.58   43.46
   8   3   0  997.76   47.14
  -8   3   0  978.79   48.21
   8   3   0  938.56   44.25
   8  -3   0  975.31   43.49
   8  -3   0 1007.69   48.53
  -8  -3   0 1064.58   46.58
  -8  -3   0  969.92   44.80
   8   3   1  307.58   19.83
   8   3   1  355.31   24.42
  -8   3  -1  348.10   23.46
   8  -3   1  339.13   19.29
  -8  -3  -1  342.22   20.23
  -8  -3  -1  318.48   18.63
   8  -3   1  341.37   24.81
   8   3   2 2347.80  102.36
   8   3   2 2662.66  106.30
  -8   3  -2 2372.18  105.77
   8  -3   2 2380.96  106.18
  -8  -3  -2 2448.90  102.57
   8  -3   2 2309.26  101.38
  -8  -3  -2 2404.33  100.69
   8   3   3  458.11   29.08
   8   3   3  413.74   25.22
  -8   3  -3  432.81   28.35
  -8  -3  -3  409.34   23.76
   8  -3   3  442.54   29.87
   8  -3   3  365.58   23.78
  -8  -3  -3  396.89   21.71
   8   3   4 1523.13   69.47
  -8  -3  -4 1559.79   68.05
   8  -3   4 1534.77   73.84
   8  -3   4 1475.23   67.94
  -8   3  -5  268.92   26.35
   8   3   5  291.47   23.39
   8  -3   5  274.32   31.34
  -8  -3  -5  253.81   19.72
   8  -3   5  242.88   26.28
  -8   4   6  503.70   33.71
   8   4  -6  514.14   30.54
  -8   4   6  514.19   48.54
  -8  -4   6  548.30   33.35
   8  -4  -6  547.67   35.47
   8   4  -5  212.14   18.70
  -8   4   5  188.84   24.20
  -8   4   5  183.33   20.11
  -8  -4   5  220.21   20.95
  -8  -4   5  182.77   21.97
   8  -4  -5  235.98   22.75
  -8   4   4  695.37   38.24
   8   4  -4  731.57   37.21
  -8   4   4  679.62   39.94
  -8  -4   4  651.52   38.68
   8  -4  -4  718.68   39.30
  -8  -4   4  754.83   38.43
  -8   4   3  231.79   21.55
   8   4  -3  236.61   18.58
  -8   4   3  204.00   19.44
  -8  -4   3  191.64   18.36
   8  -4  -3  188.33   20.99
  -8  -4   3  242.89   21.80
   8   4  -2  667.32   35.50
  -8   4   2  638.81   34.51
  -8   4   2  680.27   38.64
  -8  -4   2  729.87   37.13
  -8  -4   2  649.80   34.44
   8  -4  -2  689.26   37.81
  -8   4   1  100.11   11.98
   8   4  -1  111.80   14.21
  -8   4   1  103.17   14.78
   8  -4  -1  116.64   16.28
  -8  -4   1  105.69   12.74
  -8  -4   1  150.44   17.04
   8   4   0  619.46   31.79
  -8   4   0  625.33   32.31
   8   4   0  664.54   36.74
  -8   4   0  668.22   38.03
   8  -4   0  620.18   34.43
   8  -4   0  681.21   36.90
  -8  -4   0  672.22   32.60
  -8  -4   0  712.71   36.34
  -8   4  -1   34.95   11.61
   8   4   1   42.74    8.72
   8   4   1   45.68   12.54
   8  -4   1   51.49   13.83
   8  -4   1   42.35    8.70
  -8  -4  -1   38.46    7.13
  -8  -4  -1   40.91    9.79
  -8   4  -2  264.89   23.26
   8   4   2  300.86   25.49
   8   4   2  244.50   19.59
  -8  -4  -2  274.47   20.37
   8  -4   2  251.09   20.15
   8  -4   2  300.88   26.09
  -8   4  -3  443.56   33.04
   8   4   3  452.41   28.49
   8   4   3  526.52   33.85
   8  -4   3  458.89   28.97
  -8  -4  -3  502.74   39.30
   8  -4   3  486.17   34.70
   8   5  -3    8.32   10.58
  -8   5   3    9.48   13.14
  -8   5   3  -10.96   11.42
  -8  -5   3    4.56   10.27
   8  -5  -3   12.16   11.74
  -8  -5   3    9.78   12.04
  -8   5   2  333.19   26.34
  -8   5   2  301.44   28.34
   8   5  -2  296.19   25.19
  -8  -5   2  309.10   23.55
   8  -5  -2  313.26   24.85
  -8  -5   2  339.25   24.89
  -8   5   1    6.66   11.00
  -8   5   1   -3.63   12.21
   8   5  -1    2.90   10.99
  -8  -5   1    4.94    9.10
  -8  -5   1   -4.16    8.40
   8  -5  -1  -11.57   11.81
   8   5   0  283.35   38.92
  -8   5   0  299.86   30.06
  -8  -5   0  341.79   25.43
  -8  -5   0  281.69   21.22
   8  -5   0  321.03   25.88
   8   5   1   80.40   27.50
  -8   5  -1   95.23   16.47
   8  -5   1  128.76   17.56
  -8  -5  -1  108.01   14.74
   8  -5   1   91.67   13.41
   9   0  -7   17.07    8.46
   9   0  -7    4.39    8.21
  -9   0   7    7.05   11.38
   9   0  -6   26.95    8.64
  -9   0   6   26.95    9.91
   9   0  -6   17.14    8.22
  -9   0   5   -0.98    7.08
   9   0  -5    4.69    6.92
   9   0  -5    5.32    6.44
   9   0  -4   34.38    7.74
   9   0  -4   34.08    7.29
  -9   0   4   31.71    6.81
   9   0  -3    3.32    6.02
   9   0  -3    0.46    4.76
  -9   0   3    0.68    5.95
  -9   0   2  609.37   30.46
   9   0  -2  596.54   29.19
   9   0  -2  601.22   29.73
  -9   0   1   -6.46    4.83
   9   0  -1   10.78    4.82
  -9   0   1    0.79    4.39
   9   0  -1   -1.63    5.87
   9   0   0  544.74   28.48
  -9   0   0  592.24   26.25
   9   0   0  582.91   26.94
  -9   0   0  527.41   28.16
   9   0   1    1.75    6.45
   9   0   1    1.77    5.92
  -9   0  -1    5.09    4.86
  -9   0  -1   -4.58    5.21
  -9   0  -2  260.80   17.22
  -9   0  -2  241.72   15.81
   9   0   2  256.24   18.13
   9   0   3   12.62    7.79
  -9   0  -3   11.02    6.05
  -9   0  -3    9.37    6.36
   9   0   4   -3.49    9.08
  -9   0  -4    4.65    6.77
  -9   0  -4   -7.22    7.08
  -9   0  -5    8.01    8.33
  -9   0  -5   -1.67    8.08
   9   0   5   -4.95   11.36
   9   1  -7  179.71   15.53
   9   1  -7  175.21   17.58
  -9   1   7  155.93   17.85
  -9   1   7  184.12   20.39
   9  -1  -7  221.18   19.86
  -9  -1   7  187.11   21.12
  -9   1   6  312.58   21.51
  -9   1   6  322.60   24.20
   9   1  -6  284.22   20.96
   9   1  -6  320.93   19.44
  -9  -1   6  339.10   22.97
   9  -1  -6  323.58   22.82
  -9   1   5    0.54    6.67
   9   1  -5    7.10    6.75
   9   1  -5    7.58    6.18
  -9   1   5    3.64    8.32
  -9  -1   5   12.47    7.53
   9  -1  -5   -1.76    6.74
   9   1  -4  106.30   12.47
   9   1  -4  109.65   10.38
  -9   1   4  103.42   13.25
  -9   1   4  103.26   12.15
  -9  -1   4  114.28   13.44
   9  -1  -4  136.06   13.72
   9   1  -3  276.12   17.25
   9   1  -3  259.90   16.01
  -9   1   3  251.63   17.84
  -9   1   3  223.34   16.55
   9  -1  -3  285.82   18.32
   9  -1  -3  243.13   16.34
  -9  -1   3  260.39   16.92
   9   1  -2  137.14   11.12
   9   1  -2  118.19   11.46
  -9   1   2  139.80   13.35
  -9  -1   2  134.58   11.46
   9  -1  -2  142.29   13.27
  -9  -1   2  146.85   17.21
   9  -1  -2  133.91   11.02
  -9   1   1  697.71   35.68
   9   1  -1  707.21   34.53
   9   1  -1  738.53   34.43
   9  -1  -1  696.62   33.54
  -9  -1   1  839.89   34.87
  -9  -1   1  719.97   35.25
   9  -1  -1  738.10   36.51
   9   1   0   86.57    9.58
  -9   1   0   77.09    9.82
  -9   1   0   72.69    8.15
   9   1   0   69.35    8.68
  -9  -1   0   79.73    9.18
  -9  -1   0   64.81    8.61
   9  -1   0   76.97   10.71
   9  -1   0   73.14    7.77
   9   1   1  350.71   21.45
   9   1   1  422.73   22.44
  -9   1  -1  377.26   21.89
  -9   1  -1  350.42   19.19
  -9  -1  -1  369.92   19.93
  -9  -1  -1  358.09   21.01
   9  -1   1  376.11   23.21
   9   1   2  126.68   13.39
  -9   1  -2  114.18   12.86
  -9   1  -2  108.15   11.83
   9   1   2  163.96   19.04
  -9  -1  -2  110.66   10.93
   9  -1   2  111.47   13.91
  -9  -1  -2  103.32   11.99
  -9   1  -3   29.15    8.19
   9   1   3   32.92    9.31
  -9   1  -3   32.70    7.87
  -9  -1  -3   28.18    6.59
  -9  -1  -3   32.31    7.26
   9  -1   3   35.51    9.25
   9   1   4  353.28   24.64
  -9   1  -4  356.36   22.32
  -9   1  -4  355.68   23.66
  -9  -1  -4  353.80   21.87
   9  -1   4  366.39   25.57
  -9  -1  -4  365.48   21.85
  -9   1  -5  247.84   22.72
   9   1   5  284.80   23.09
  -9  -1  -5  219.19   20.85
   9  -1   5  245.03   25.48
  -9  -1  -5  253.20   18.37
   9   2  -7    9.15    8.96
  -9   2   7   28.18   10.64
  -9   2   7   18.36   13.02
  -9  -2   7   10.79   10.41
   9  -2  -7   14.85   12.28
  -9   2   6  684.43   37.15
  -9   2   6  610.11   33.98
   9   2  -6  646.72   36.87
  -9  -2   6  606.93   39.12
   9  -2  -6  661.59   37.27
  -9   2   5   92.98   11.91
   9   2  -5  101.17   11.74
   9   2  -5  101.54   11.00
  -9   2   5  109.09   13.47
   9  -2  -5  111.89   14.88
  -9  -2   5   82.84   10.81
  -9   2   4  565.39   30.06
   9   2  -4  552.66   30.40
  -9   2   4  610.69   32.79
   9   2  -4  598.05   28.35
  -9  -2   4  571.90   30.95
   9  -2  -4  629.05   33.06
  -9   2   3  292.41   18.63
   9   2  -3  300.03   18.90
  -9   2   3  293.55   21.06
   9   2  -3  287.29   17.01
  -9  -2   3  285.18   18.72
   9  -2  -3  294.37   20.80
   9   2  -2  221.53   14.90
  -9   2   2  210.06   17.87
  -9   2   2  206.58   15.20
   9   2  -2  216.86   16.22
   9  -2  -2  259.70   19.57
  -9  -2   2  240.80   16.60
  -9  -2   2  262.45   19.60
   9   2  -1  396.14   22.56
  -9   2   1  397.30   20.94
   9   2  -1  401.74   21.42
  -9   2   1  375.19   24.28
  -9  -2   1  431.68   24.25
   9  -2  -1  437.31   25.32
  -9  -2   1  365.30   22.07
  -9   2   0  262.31   15.77
   9   2   0  282.23   17.66
  -9   2   0  284.00   19.90
   9   2   0  298.89   19.13
  -9  -2   0  270.49   17.44
   9  -2   0  321.80   21.71
  -9  -2   0  314.08   17.94
   9  -2   0  259.44   16.00
   9   2   1  741.13   36.59
   9   2   1  854.80   39.75
  -9   2  -1  705.97   34.77
  -9   2  -1  749.88   38.44
   9  -2   1  774.54   40.21
  -9  -2  -1  725.17   35.93
  -9  -2  -1  763.63   35.83
  -9   2  -2  233.31   16.77
   9   2   2  246.75   18.16
  -9   2  -2  273.98   20.46
   9  -2   2  251.10   21.97
  -9  -2  -2  238.31   16.56
  -9  -2  -2  271.95   17.08
  -9   2  -3  220.76   17.75
  -9   2  -3  243.39   20.82
   9   2   3  241.20   18.37
  -9  -2  -3  232.09   17.29
  -9  -2  -3  234.83   16.61
   9  -2   3  277.68   22.92
   9   2   4  409.15   38.76
  -9   2  -4  414.59   29.73
  -9   2  -4  408.47   26.45
  -9  -2  -4  422.52   24.00
   9  -2   4  471.97   35.40
  -9  -2  -4  450.69   25.61
   9   3  -6    2.45    8.94
  -9   3   6   -1.52   13.07
  -9   3   6   20.98    9.66
  -9  -3   6   -2.71   10.77
   9  -3  -6   11.94   12.17
  -9   3   5  840.20   43.35
  -9   3   5  818.59   40.80
   9   3  -5  757.22   42.19
   9  -3  -5  780.55   44.16
  -9  -3   5  693.07   47.29
  -9   3   4  446.91   27.01
  -9   3   4  464.29   29.95
   9   3  -4  434.32   26.72
  -9  -3   4  490.26   28.04
   9  -3  -4  462.10   30.30
  -9   3   3 1044.66   50.56
   9   3  -3  992.71   47.54
  -9   3   3  961.36   47.19
   9  -3  -3 1043.73   50.93
  -9  -3   3 1001.88   47.66
   9   3  -2  510.74   26.46
  -9   3   2  575.01   32.86
   9   3  -2  511.26   29.16
  -9   3   2  515.22   27.94
  -9  -3   2  612.65   31.98
  -9  -3   2  514.83   28.83
   9  -3  -2  573.55   32.92
  -9   3   1  997.71   46.13
  -9   3   1 1092.86   51.37
   9   3  -1  990.25   45.84
   9   3  -1  960.97   48.23
  -9  -3   1  995.78   47.27
   9  -3  -1 1043.04   51.31
  -9  -3   1 1079.56   49.82
   9   3   0  868.97   41.79
   9   3   0  896.18   44.39
  -9   3   0  909.62   46.57
  -9  -3   0  909.65   43.91
  -9  -3   0  849.81   41.88
   9  -3   0  963.08   47.29
  -9   3  -1  831.23   43.80
   9   3   1  859.03   44.90
   9   3   1  818.02   40.39
   9  -3   1  811.32   38.99
   9  -3   1  920.08   46.49
  -9  -3  -1  829.69   39.73
  -9  -3  -1  864.13   41.28
   9   3   2  523.43   33.27
   9   3   2  453.23   27.37
  -9   3  -2  478.14   30.12
  -9  -3  -2  449.09   25.19
   9  -3   2  544.69   34.02
   9  -3   2  452.94   25.71
  -9  -3  -2  495.73   27.27
  -9   3  -3  928.69   48.34
   9   3   3 1031.36   54.63
   9   3   3  876.06   44.90
   9  -3   3  886.38   66.46
  -9  -3  -3  902.96   43.72
   9  -3   3  811.54   42.89
   9   3   4    8.23   10.30
  -9   3  -4    2.28   11.45
   9  -3   4   -1.63    8.72
  -9  -3  -4   -0.37    8.29
   9  -3   4   -8.94   15.37
  -9   4   4  251.95   22.97
  -9   4   4  250.67   24.94
   9   4  -4  261.36   21.42
   9  -4  -4  222.40   22.24
  -9  -4   4  235.92   22.23
  -9   4   3  854.92   46.67
  -9   4   3  815.83   42.98
   9   4  -3  749.21   45.32
  -9  -4   3  944.13   46.10
   9  -4  -3  843.30   45.43
  -9  -4   3  875.26   43.35
  -9   4   2  387.42   25.44
  -9   4   2  404.61   29.76
   9   4  -2  396.08   26.25
  -9  -4   2  443.87   28.11
  -9  -4   2  376.88   25.11
  -9   4   1  781.57   40.59
  -9   4   1  834.44   46.74
   9   4  -1  805.32   43.75
  -9  -4   1  804.18   40.94
  -9  -4   1  953.59   44.86
   9  -4  -1  816.17   46.04
  -9   4   0  510.94   37.36
   9   4   0  487.98   28.11
   9   4   0  561.62   33.83
  -9  -4   0  573.41   33.01
   9  -4   0  565.10   35.26
  -9  -4   0  527.66   28.59
  -9   4  -1  385.77   28.94
   9   4   1  432.89   30.41
   9   4   1  383.21   24.42
  -9  -4  -1  375.82   23.44
  -9  -4  -1  422.56   27.35
   9   4   2  237.41   26.72
  -9   4  -2  252.23   25.78
   9   4   2  195.01   19.58
   9  -4   2  271.77   27.92
   9  -4   2  229.97   19.99
  10   0  -6  954.32   46.54
  10   0  -6  934.76   45.58
 -10   0   6  946.22   48.27
  10   0  -5    6.41    6.78
  10   0  -5    1.46    7.07
 -10   0   5   13.97    9.31
  10   0  -4 1043.27   48.37
 -10   0   4 1069.18   50.15
  10   0  -4 1024.83   48.28
 -10   0   3   14.02    6.83
  10   0  -3    6.56    6.13
  10   0  -3    8.40    6.79
  10   0  -2 2978.89  123.07
  10   0  -2 3021.31  124.48
 -10   0   2 2871.85  124.82
  10   0  -1    3.79    6.74
 -10   0   1   -0.84    5.68
  10   0  -1   -3.62    5.74
  10   0   0 3213.59  129.29
 -10   0   0 3273.65  130.36
 -10   0   0 2977.50  131.26
  10   0   0 3043.33  131.42
 -10   0  -1  -11.51    6.58
 -10   0  -1    3.39    5.52
  10   0   1   -5.57    6.23
 -10   0  -2 3093.14  130.99
  10   0   2 3115.16  132.33
 -10   0  -2 3126.05  129.30
  10   0   3    0.68   11.20
 -10   0  -3   12.11    7.05
 -10   0  -3   19.17    7.68
 -10   0  -4 2780.40  120.48
 -10   0  -4 2841.52  121.50
  10   0   4 2916.51  124.32
 -10   1   6 1097.16   52.61
  10   1  -6 1106.37   50.30
  10   1  -6 1109.26   52.58
 -10   1   6  994.82   61.10
  10  -1  -6 1084.30   52.90
 -10  -1   6 1107.14   54.14
  10  -1  -6 1157.36   54.19
  10   1  -5 2442.87  104.45
  10   1  -5 2552.50  106.82
 -10   1   5 2516.38  108.33
  10  -1  -5 2540.92  107.35
  10  -1  -5 2501.20  106.86
 -10  -1   5 2365.99  110.53
  10   1  -4 1434.89   65.72
  10   1  -4 1466.38   64.71
 -10   1   4 1511.97   67.81
  10  -1  -4 1435.81   65.84
  10  -1  -4 1534.74   67.61
 -10  -1   4 1499.89   67.79
  10   1  -3 2081.87   90.10
 -10   1   3 2151.69   92.42
  10   1  -3 2143.52   89.81
 -10  -1   3 2130.27   91.57
  10  -1  -3 2090.02   91.65
  10  -1  -3 2051.98   89.97
  10   1  -2 1278.73   55.45
  10   1  -2 1239.24   55.01
 -10   1   2 1279.50   57.53
  10  -1  -2 1196.51   54.44
  10  -1  -2 1200.64   56.40
 -10  -1   2 1199.84   56.27
  10   1  -1 1145.54   51.14
 -10   1   1 1158.62   53.40
  10   1  -1 1120.34   51.58
  10  -1  -1 1176.12   53.93
 -10  -1   1 1113.48   52.26
  10  -1  -1 1106.89   50.12
 -10   1   0  742.37   37.89
  10   1   0  786.30   36.66
  10   1   0  687.76   36.39
 -10  -1   0  711.59   36.31
  10  -1   0  749.28   38.57
  10  -1   0  722.95   38.39
 -10  -1   0  808.32   35.40
  10   1   1 1101.27   49.04
  10   1   1  927.00   46.99
 -10   1  -1 1002.66   48.39
  10  -1   1 1021.29   49.01
 -10  -1  -1  978.88   46.84
 -10  -1  -1 1000.30   45.30
 -10   1  -2  347.74   21.23
  10   1   2  357.11   22.74
 -10   1  -2  379.96   24.47
 -10  -1  -2  380.21   22.36
 -10  -1  -2  372.34   21.80
  10  -1   2  375.63   26.12
  10   1   3  157.61   20.72
 -10   1  -3  213.43   16.30
 -10   1  -3  179.02   20.86
 -10  -1  -3  174.77   16.73
  10  -1   3  229.65   21.53
 -10  -1  -3  195.46   17.08
 -10   1  -4  363.46   24.19
  10   1   4  362.76   26.70
 -10   1  -4  348.74   24.83
 -10  -1  -4  342.26   22.70
  10  -1   4  411.89   29.12
 -10  -1  -4  329.06   22.99
  10   2  -6   16.10    9.28
 -10   2   6   21.69   13.29
 -10   2   6   21.21   11.26
 -10  -2   6   23.55   10.86
  10  -2  -6   19.47   13.19
 -10   2   5  346.47   24.13
 -10   2   5  394.71   26.76
  10   2  -5  339.20   23.47
 -10  -2   5  397.10   25.55
  10  -2  -5  356.02   27.16
  10   2  -4   56.33    9.81
 -10   2   4   62.40   10.44
  10   2  -4   54.46    8.79
 -10   2   4   66.57   11.80
 -10  -2   4   59.32   10.18
  10  -2  -4   65.68   13.05
 -10   2   3  880.63   42.86
 -10   2   3  791.16   39.41
  10   2  -3  839.06   38.26
  10   2  -3  757.13   39.72
 -10  -2   3  779.65   40.31
  10  -2  -3  841.18   43.24
  10   2  -2   30.35    7.04
 -10   2   2   17.19    7.44
 -10   2   2   17.26    9.32
  10   2  -2   25.29    7.94
 -10  -2   2   26.48    7.56
  10  -2  -2   21.41    9.11
 -10   2   1 1607.42   74.40
  10   2  -1 1596.39   71.17
  10   2  -1 1636.40   72.06
 -10  -2   1 1820.22   76.70
 -10  -2   1 1543.56   72.00
  10  -2  -1 1771.96   75.82
  10  -2  -1 1538.82   70.13
 -10   2   0   25.52    9.28
  10   2   0   20.29    7.97
  10   2   0   32.56   10.05
  10  -2   0   19.41   10.86
 -10  -2   0   23.30    8.51
 -10  -2   0   31.17    8.00
 -10   2  -1 2680.04  115.11
  10   2   1 2799.42  114.57
  10   2   1 2512.29  112.06
 -10  -2  -1 2487.69  111.34
 -10  -2  -1 2691.41  111.39
  10  -2   1 2692.29  116.10
 -10   2  -2   50.50   12.64
 -10   2  -2   48.63    8.77
  10   2   2   62.20   11.56
  10  -2   2   69.09   16.71
 -10  -2  -2   50.04    9.68
 -10  -2  -2   53.87    8.82
 -10   2  -3 2192.81   96.35
  10   2   3 2133.08   98.01
 -10   2  -3 2247.55   99.60
  10  -2   3 2451.62  102.99
 -10  -2  -3 2231.47   96.26
 -10  -2  -3 2215.28   95.68
 -10   3   4 1520.67   71.99
 -10   3   4 1450.19   67.41
  10   3  -4 1490.54   67.75
  10  -3  -4 1453.06   70.22
 -10  -3   4 1507.47   68.60
 -10   3   3  385.16   25.26
 -10   3   3  458.86   31.01
  10   3  -3  423.45   26.35
 -10  -3   3  408.58   26.37
  10  -3  -3  433.21   28.78
 -10   3   2 1046.49   51.77
  10   3  -2  977.21   45.38
  10   3  -2 1026.50   48.57
 -10   3   2  952.33   46.28
 -10  -3   2  983.44   47.94
  10  -3  -2 1006.71   56.06
  10   3  -1  572.56   30.24
 -10   3   1  620.34   38.39
  10   3  -1  586.11   33.24
 -10  -3   1  554.23   31.46
 -10  -3   1  631.33   35.75
  10   3   0  276.21   20.10
 -10   3   0  247.22   26.56
  10   3   0  298.85   24.72
 -10  -3   0  291.23   20.42
 -10  -3   0  308.87   23.28
  10  -3   0  316.16   30.08
  10   3   1  394.44   25.37
  10   3   1  433.61   31.73
 -10   3  -1  429.78   29.68
 -10  -3  -1  412.05   25.87
 -10  -3  -1  370.59   23.64
  10  -3   1  411.63   30.74
 -10   3  -2   21.20   11.95
  10   3   2   41.83   10.63
  10   3   2   31.51   16.70
  10  -3   2   23.34   15.27
 -10  -3  -2   22.46    9.69
 -10  -3  -2   12.14    8.07
 -10   4   1   14.24   13.59
 -10  -4   1    3.34    9.00
  11   0  -5  -10.07    8.24
 -11   0   5    2.16    9.82
  11   0  -5    0.37    8.56
  11   0  -4   13.26    8.10
 -11   0   4   14.88    8.33
  11   0  -4   -7.35    8.02
  11   0  -3   -1.25    7.72
  11   0  -3   -1.87    7.60
  11   0  -2  136.41   14.71
 -11   0   2  124.59   14.22
  11   0  -2  134.36   14.46
  11   0  -1    9.77    8.74
 -11   0   1   -6.75    6.60
  11   0  -1    6.13    7.90
 -11   0   0    6.22    8.08
  11   0   0   -1.83    8.52
 -11   0  -1  -12.81   12.02
  11   0   1   -9.34    8.17
 -11   0  -2   25.34    9.88
 -11   0  -2   54.46    9.21
  11   0   2   52.88   10.81
  11   1  -5   10.62    8.97
 -11   1   5   17.40   11.14
  11   1  -5   19.25    9.17
 -11  -1   5   14.92   10.75
  11  -1  -5   33.01   10.15
  11  -1  -5   15.71   10.35
  11   1  -4  213.17   18.36
  11   1  -4  219.09   17.14
 -11   1   4  243.48   20.56
  11  -1  -4  217.67   18.49
 -11  -1   4  204.02   20.31
 -11   1   3  207.60   19.36
  11   1  -3  188.36   15.70
  11   1  -3  180.53   17.38
  11  -1  -3  190.37   16.43
 -11  -1   3  165.46   16.46
  11  -1  -3  192.52   18.06
  11   1  -2  327.52   21.42
  11   1  -2  326.76   20.95
  11  -1  -2  302.81   20.35
  11  -1  -2  307.97   22.20
 -11  -1   2  311.59   21.32
  11   1  -1  107.30   12.19
  11   1  -1  110.18   12.77
 -11  -1   1  103.66   12.95
  11  -1  -1  114.95   14.69
  11  -1  -1  112.79   14.24
  11   1   0  205.82   17.19
  11   1   0  230.85   20.22
 -11   1   0  170.80   20.84
  11  -1   0  221.15   29.11
 -11  -1   0  203.24   17.39
 -11   1  -1   46.74   10.06
  11   1   1   47.37   18.55
 -11  -1  -1   55.10    9.98
  11  -1   1   61.81   12.90
  11   1   2   94.03   14.04
 -11   1  -2   98.78   13.44
 -11  -1  -2   72.67   13.79
  11  -1   2  116.78   15.39
 -11  -1  -2  103.89   11.96
 -11   2   4  777.75   42.53
 -11   2   4  718.55   38.86
  11   2  -4  718.36   36.28
  11   2  -4  716.58   39.01
 -11  -2   4  781.75   40.39
  11  -2  -4  733.35   41.70
  11   2  -3   34.80    9.56
 -11   2   3   50.73   11.88
  11   2  -3   41.46   10.40
  11  -2  -3   33.62   12.19
  11  -2  -3   30.39   10.30
 -11  -2   3   30.20    9.50
  11   2  -2  925.42   44.56
 -11   2   2  974.03   48.66
  11   2  -2  847.11   43.25
 -11  -2   2  857.79   48.46
  11  -2  -2  910.86   43.42
  11  -2  -2  974.10   48.01
  11   2  -1   35.84    9.47
  11   2  -1   57.06   11.45
 -11   2   1   24.94   10.05
 -11  -2   1   29.44    9.97
  11  -2  -1   33.69   13.17
 -11   2   0  728.16   40.01
  11   2   0  697.67   36.63
  11   2   0  725.27   39.10
 -11  -2   0  688.19   36.55
  11  -2   0  723.40   40.62
 -11   2  -1   14.78   10.17
 -11  -2  -1   16.33    9.65
 -11  -2  -1    3.47    8.65
  11  -2   1   24.61   12.54
 -12   0   2 1523.21   69.25
  12   0  -2 1434.52   67.56
  12   0  -1   11.85   10.25
   0   0   0    0.00    0.00

_computing_structure_solution     'SHELXT 2014/5 (Sheldrick, 2014)'
;
_shelx_hkl_checksum              76410
loop_
_space_group_symop_operation_xyz
'x, y, z'
'-x, y, -z+1/2'
'-x, -y, -z'
'x, -y, z-1/2'
loop_
_atom_site_label
_atom_site_type_symbol
_atom_site_fract_x
_atom_site_fract_y
_atom_site_fract_z
_atom_site_U_iso_or_equiv
_atom_site_adp_type
_atom_site_occupancy
_atom_site_site_symmetry_order
_atom_site_calc_flag
_atom_site_refinement_flags_posn
_atom_site_refinement_flags_adp
_atom_site_refinement_flags_occupancy
Nd1 Nd 0.500000 0.90396(4) 0.250000 0.00942(14) Uani 1 2 d S T P
Cr1 Cr 0.28217(5) 0.32990(9) 0.31880(5) 0.00981(17) Uani 1 1 d . . .
O1 O 0.3159(3) 0.6098(4) 0.2678(3) 0.0173(5) Uani 1 1 d . . .
Cs1 Cs 0.000000 0.82137(5) 0.250000 0.02209(15) Uani 1 2 d S T P
O3 O 0.4276(2) 0.2084(4) 0.4485(2) 0.0146(4) Uani 1 1 d . . .
O2 O 0.1339(2) 0.3188(5) 0.4047(3) 0.0194(5) Uani 1 1 d . . .
O4 O 0.2667(2) 0.1499(4) 0.1498(3) 0.0179(5) Uani 1 1 d . . .
loop_
_atom_site_aniso_label
_atom_site_aniso_U_11
_atom_site_aniso_U_22
_atom_site_aniso_U_33
_atom_site_aniso_U_23
_atom_site_aniso_U_13
_atom_site_aniso_U_12
Nd1 0.01101(18) 0.00723(19) 0.01005(18) 0.000 0.00173(10) 0.000
Cr1 0.0097(3) 0.0071(3) 0.0128(3) 0.00111(17) 0.00187(18) 0.00045(17)
O1 0.0160(11) 0.0125(11) 0.0228(12) 0.0044(8) 0.0012(9) -0.0009(8)
Cs1 0.0157(2) 0.0141(2) 0.0379(2) 0.000 0.00865(13) 0.000
O3 0.0159(9) 0.0152(10) 0.0125(9) 0.0011(8) 0.0010(7) 0.0047(9)
O2 0.0149(11) 0.0200(12) 0.0251(11) 0.0024(10) 0.0090(9) 0.0004(9)
O4 0.0196(11) 0.0154(10) 0.0180(11) -0.0045(9) 0.0010(9) 0.0003(9)
loop_
_atom_type_symbol
_atom_type_description
_atom_type_scat_dispersion_real
_atom_type_scat_dispersion_imag
_atom_type_scat_source
Cr Cr 0.3209 0.6236 'International Tables Vol C Tables 4.2.6.8 and 6.1.1.4'
Cs Cs -0.3680 2.1192 'International Tables Vol C Tables 4.2.6.8 and 6.1.1.4'
Nd Nd -0.1943 3.0179 'International Tables Vol C Tables 4.2.6.8 and 6.1.1.4'
O O 0.0106 0.0060 'International Tables Vol C Tables 4.2.6.8 and 6.1.1.4'
loop_
_geom_angle_atom_site_label_1
_geom_angle_atom_site_label_2
_geom_angle_atom_site_label_3
_geom_angle
_geom_angle_site_symmetry_1
_geom_angle_site_symmetry_3
O1 Nd1 O1 93.09(11) . 2_655
O1 Nd1 O3 77.59(8) . 4_565
O1 Nd1 O3 81.96(8) 2_655 4_565
O1 Nd1 O3 81.96(8) . 3_666
O1 Nd1 O3 77.59(8) 2_655 3_666
O3 Nd1 O3 150.11(11) 4_565 3_666
O1 Nd1 O3 99.90(8) . 1_565
O1 Nd1 O3 141.02(7) 2_655 1_565
O3 Nd1 O3 136.65(7) 4_565 1_565
O3 Nd1 O3 68.21(8) 3_666 1_565
O1 Nd1 O3 141.02(7) . 2_665
O1 Nd1 O3 99.90(8) 2_655 2_665
O3 Nd1 O3 68.21(8) 4_565 2_665
O3 Nd1 O3 136.65(8) 3_666 2_665
O3 Nd1 O3 92.72(11) 1_565 2_665
O1 Nd1 O4 157.17(7) . 2_665
O1 Nd1 O4 79.07(8) 2_655 2_665
O3 Nd1 O4 121.73(7) 4_565 2_665
O3 Nd1 O4 75.44(7) 3_666 2_665
O3 Nd1 O4 74.80(8) 1_565 2_665
O3 Nd1 O4 61.82(7) 2_665 2_665
O1 Nd1 O4 79.07(8) . 1_565
O1 Nd1 O4 157.17(7) 2_655 1_565
O3 Nd1 O4 75.44(7) 4_565 1_565
O3 Nd1 O4 121.73(7) 3_666 1_565
O3 Nd1 O4 61.82(7) 1_565 1_565
O3 Nd1 O4 74.80(8) 2_665 1_565
O4 Nd1 O4 115.70(10) 2_665 1_565
O1 Nd1 Cr1 172.05(6) . 2_665
O1 Nd1 Cr1 91.50(6) 2_655 2_665
O3 Nd1 Cr1 96.66(5) 4_565 2_665
O3 Nd1 Cr1 105.38(5) 3_666 2_665
O3 Nd1 Cr1 80.43(6) 1_565 2_665
O3 Nd1 Cr1 31.38(5) 2_665 2_665
O4 Nd1 Cr1 30.60(5) 2_665 2_665
O4 Nd1 Cr1 94.26(6) 1_565 2_665
O1 Nd1 Cr1 91.50(6) . 1_565
O1 Nd1 Cr1 172.05(6) 2_655 1_565
O3 Nd1 Cr1 105.38(5) 4_565 1_565
O3 Nd1 Cr1 96.66(5) 3_666 1_565
O3 Nd1 Cr1 31.38(5) 1_565 1_565
O3 Nd1 Cr1 80.43(6) 2_665 1_565
O4 Nd1 Cr1 94.26(6) 2_665 1_565
O4 Nd1 Cr1 30.60(5) 1_565 1_565
Cr1 Nd1 Cr1 84.70(3) 2_665 1_565
O1 Nd1 Nd1 91.18(6) . 3_676
O1 Nd1 Nd1 110.08(6) 2_655 3_676
O3 Nd1 Nd1 164.17(5) 4_565 3_676
O3 Nd1 Nd1 34.35(5) 3_666 3_676
O3 Nd1 Nd1 33.86(5) 1_565 3_676
O3 Nd1 Nd1 117.72(5) 2_665 3_676
O4 Nd1 Nd1 71.93(5) 2_665 3_676
O4 Nd1 Nd1 91.64(5) 1_565 3_676
Cr1 Nd1 Nd1 93.329(13) 2_665 3_676
Cr1 Nd1 Nd1 63.310(9) 1_565 3_676
O1 Nd1 Nd1 110.08(6) . 3_675
O1 Nd1 Nd1 91.18(6) 2_655 3_675
O3 Nd1 Nd1 34.35(5) 4_565 3_675
O3 Nd1 Nd1 164.17(5) 3_666 3_675
O3 Nd1 Nd1 117.72(5) 1_565 3_675
O3 Nd1 Nd1 33.86(5) 2_665 3_675
O4 Nd1 Nd1 91.64(5) 2_665 3_675
O4 Nd1 Nd1 71.93(5) 1_565 3_675
Cr1 Nd1 Nd1 63.310(10) 2_665 3_675
Cr1 Nd1 Nd1 93.329(13) 1_565 3_675
Nd1 Nd1 Nd1 149.315(15) 3_676 3_675
O2 Cr1 O4 109.47(12) . .
O2 Cr1 O1 109.85(12) . .
O4 Cr1 O1 112.28(13) . .
O2 Cr1 O3 112.54(11) . .
O4 Cr1 O3 101.46(11) . .
O1 Cr1 O3 111.04(12) . .
O2 Cr1 Nd1 129.39(9) . 1_545
O4 Cr1 Nd1 52.80(8) . 1_545
O1 Cr1 Nd1 120.75(9) . 1_545
O3 Cr1 Nd1 48.99(7) . 1_545
O2 Cr1 Cs1 58.22(9) . .
O4 Cr1 Cs1 110.84(8) . .
O1 Cr1 Cs1 55.32(9) . .
O3 Cr1 Cs1 147.67(7) . .
Nd1 Cr1 Cs1 162.349(15) 1_545 .
O2 Cr1 Cs1 55.06(9) . 1_545
O4 Cr1 Cs1 57.55(8) . 1_545
O1 Cr1 Cs1 144.48(9) . 1_545
O3 Cr1 Cs1 104.45(8) . 1_545
Nd1 Cr1 Cs1 82.05(2) 1_545 1_545
Cs1 Cr1 Cs1 94.31(2) . 1_545
Cr1 O1 Nd1 145.77(13) . .
Cr1 O1 Cs1 99.01(10) . .
Nd1 O1 Cs1 114.12(8) . .
O1 Cs1 O1 135.82(8) 2 .
O1 Cs1 O2 130.38(6) 2 1_565
O1 Cs1 O2 90.25(6) . 1_565
O1 Cs1 O2 90.25(6) 2 2_565
O1 Cs1 O2 130.37(6) . 2_565
O2 Cs1 O2 59.74(8) 1_565 2_565
O1 Cs1 O2 89.56(6) 2 .
O1 Cs1 O2 49.75(6) . .
O2 Cs1 O2 120.51(7) 1_565 .
O2 Cs1 O2 179.74(4) 2_565 .
O1 Cs1 O2 49.75(6) 2 2
O1 Cs1 O2 89.56(6) . 2
O2 Cs1 O2 179.74(4) 1_565 2
O2 Cs1 O2 120.51(7) 2_565 2
O2 Cs1 O2 59.23(8) . 2
O1 Cs1 O2 110.25(6) 2 4_565
O1 Cs1 O2 58.13(6) . 4_565
O2 Cs1 O2 110.41(6) 1_565 4_565
O2 Cs1 O2 94.06(6) 2_565 4_565
O2 Cs1 O2 85.85(5) . 4_565
O2 Cs1 O2 69.62(7) 2 4_565
O1 Cs1 O2 58.13(6) 2 3_566
O1 Cs1 O2 110.25(6) . 3_566
O2 Cs1 O2 94.06(6) 1_565 3_566
O2 Cs1 O2 110.41(6) 2_565 3_566
O2 Cs1 O2 69.62(7) . 3_566
O2 Cs1 O2 85.85(5) 2 3_566
O2 Cs1 O2 152.00(9) 4_565 3_566
O1 Cs1 O4 159.18(6) 2 1_565
O1 Cs1 O4 59.16(6) . 1_565
O2 Cs1 O4 48.71(6) 1_565 1_565
O2 Cs1 O4 71.74(6) 2_565 1_565
O2 Cs1 O4 108.41(6) . 1_565
O2 Cs1 O4 131.28(6) 2 1_565
O2 Cs1 O4 62.29(6) 4_565 1_565
O2 Cs1 O4 137.44(6) 3_566 1_565
O1 Cs1 O4 59.16(6) 2 2_565
O1 Cs1 O4 159.18(6) . 2_565
O2 Cs1 O4 71.74(6) 1_565 2_565
O2 Cs1 O4 48.71(6) 2_565 2_565
O2 Cs1 O4 131.28(6) . 2_565
O2 Cs1 O4 108.41(6) 2 2_565
O2 Cs1 O4 137.44(6) 4_565 2_565
O2 Cs1 O4 62.29(6) 3_566 2_565
O4 Cs1 O4 111.73(9) 1_565 2_565
O1 Cs1 O4 123.71(6) 2 4_566
O1 Cs1 O4 58.53(6) . 4_566
O2 Cs1 O4 58.01(6) 1_565 4_566
O2 Cs1 O4 117.01(6) 2_565 4_566
O2 Cs1 O4 63.24(6) . 4_566
O2 Cs1 O4 121.74(6) 2 4_566
O2 Cs1 O4 115.18(6) 4_565 4_566
O2 Cs1 O4 66.15(6) 3_566 4_566
O4 Cs1 O4 75.19(5) 1_565 4_566
O4 Cs1 O4 101.93(5) 2_565 4_566
O1 Cs1 O4 58.53(6) 2 3_565
O1 Cs1 O4 123.70(6) . 3_565
O2 Cs1 O4 117.01(6) 1_565 3_565
O2 Cs1 O4 58.01(6) 2_565 3_565
O2 Cs1 O4 121.74(6) . 3_565
O2 Cs1 O4 63.24(6) 2 3_565
O2 Cs1 O4 66.15(6) 4_565 3_565
O2 Cs1 O4 115.18(6) 3_566 3_565
O4 Cs1 O4 101.93(5) 1_565 3_565
O4 Cs1 O4 75.19(5) 2_565 3_565
O4 Cs1 O4 175.00(7) 4_566 3_565
Cr1 O3 Nd1 139.25(11) . 3_666
Cr1 O3 Nd1 99.63(9) . 1_545
Nd1 O3 Nd1 111.79(8) 3_666 1_545
Cr1 O2 Cs1 100.44(10) . 1_545
Cr1 O2 Cs1 96.52(10) . .
Cs1 O2 Cs1 120.51(7) 1_545 .
Cr1 O2 Cs1 144.38(12) . 3_566
Cs1 O2 Cs1 85.94(6) 1_545 3_566
Cs1 O2 Cs1 110.38(7) . 3_566
Cr1 O4 Nd1 96.60(10) . 1_545
Cr1 O4 Cs1 97.25(10) . 1_545
Nd1 O4 Cs1 104.97(8) 1_545 1_545
Cr1 O4 Cs1 128.22(11) . 3_565
Nd1 O4 Cs1 134.77(8) 1_545 3_565
Cs1 O4 Cs1 78.07(5) 1_545 3_565
loop_
_geom_bond_atom_site_label_1
_geom_bond_atom_site_label_2
_geom_bond_distance
_geom_bond_site_symmetry_2
Nd1 O1 2.381(2) .
Nd1 O1 2.381(2) 2_655
Nd1 O3 2.425(2) 4_565
Nd1 O3 2.425(2) 3_666
Nd1 O3 2.456(2) 1_565
Nd1 O3 2.456(2) 2_665
Nd1 O4 2.573(2) 2_665
Nd1 O4 2.573(2) 1_565
Nd1 Cr1 3.2088(7) 2_665
Nd1 Cr1 3.2088(7) 1_565
Nd1 Nd1 4.0417(10) 3_676
Nd1 Nd1 4.0417(10) 3_675
Cr1 O2 1.616(2) .
Cr1 O4 1.644(2) .
Cr1 O1 1.650(2) .
Cr1 O3 1.695(2) .
Cr1 Cs1 3.7619(8) .
Cr1 Cs1 3.8316(9) 1_545
O1 Cs1 3.132(2) .
Cs1 O2 3.194(3) 1_565
Cs1 O2 3.194(3) 2_565
Cs1 O2 3.219(3) .
Cs1 O2 3.219(3) 2
Cs1 O2 3.226(2) 4_565
Cs1 O2 3.226(2) 3_566
Cs1 O4 3.259(2) 1_565
Cs1 O4 3.259(2) 2_565
Cs1 O4 3.670(2) 4_566
Cs1 O4 3.670(2) 3_565
