#------------------------------------------------------------------------------
#$Date: 2019-11-02 07:43:55 +0200 (Sat, 02 Nov 2019) $
#$Revision: 220993 $
#$URL: file:///home/coder/svn-repositories/cod/cif/4/12/78/4127821.cif $
#------------------------------------------------------------------------------
#
# This file is available in the Crystallography Open Database (COD),
# http://www.crystallography.net/
#
# All data on this site have been placed in the public domain by the
# contributors.
#
data_4127821
loop_
_publ_author_name
'Woo, Katherine E.'
'Wang, Jian'
'Mark, Justin'
'Kovnir, Kirill'
_publ_section_title
;
 Directing Boron-Phosphorus Bonds in Crystalline Solid: Oxidative
 Polymerization of P&#x2550;B&#x2550;P Monomers into 1D Chains.
;
_journal_issue                   33
_journal_name_full               'Journal of the American Chemical Society'
_journal_page_first              13017
_journal_page_last               13021
_journal_paper_doi               10.1021/jacs.9b06803
_journal_volume                  141
_journal_year                    2019
_chemical_formula_sum            'B Na2 P2'
_chemical_formula_weight         118.73
_space_group_crystal_system      orthorhombic
_space_group_IT_number           62
_space_group_name_Hall           '-P 2ac 2n'
_space_group_name_H-M_alt        'P n m a'
_symmetry_space_group_name_Hall  '-P 2ac 2n'
_symmetry_space_group_name_H-M   'P n m a'
_audit_creation_method           SHELXL-2016/6
_cell_angle_alpha                90
_cell_angle_beta                 90
_cell_angle_gamma                90
_cell_formula_units_Z            2
_cell_length_a                   9.5672(11)
_cell_length_b                   3.2014(5)
_cell_length_c                   6.1040(7)
_cell_measurement_reflns_used    492
_cell_measurement_temperature    100(2)
_cell_measurement_theta_max      24.04
_cell_measurement_theta_min      3.96
_cell_volume                     186.96(4)
_computing_structure_refinement  'SHELXL-2016/6 (Sheldrick, 2016)'
_diffrn_ambient_temperature      100(2)
_diffrn_measured_fraction_theta_full 1.000
_diffrn_measured_fraction_theta_max 1.000
_diffrn_measurement_device_type  'Bruker APEX II CCD area-detector'
_diffrn_measurement_method       'profile data from \w scans'
_diffrn_radiation_type           MoK\a
_diffrn_radiation_wavelength     0.71073
_diffrn_reflns_av_R_equivalents  0.0774
_diffrn_reflns_av_unetI/netI     0.0454
_diffrn_reflns_Laue_measured_fraction_full 1.000
_diffrn_reflns_Laue_measured_fraction_max 1.000
_diffrn_reflns_limit_h_max       12
_diffrn_reflns_limit_h_min       -12
_diffrn_reflns_limit_k_max       4
_diffrn_reflns_limit_k_min       -4
_diffrn_reflns_limit_l_max       7
_diffrn_reflns_limit_l_min       -7
_diffrn_reflns_number            1956
_diffrn_reflns_point_group_measured_fraction_full 1.000
_diffrn_reflns_point_group_measured_fraction_max 1.000
_diffrn_reflns_theta_full        25.242
_diffrn_reflns_theta_max         27.482
_diffrn_reflns_theta_min         3.960
_diffrn_source                   'fine-focus sealed tube'
_exptl_absorpt_coefficient_mu    1.132
_exptl_absorpt_correction_T_max  0.746
_exptl_absorpt_correction_T_min  0.528
_exptl_absorpt_correction_type   multi-scan
_exptl_absorpt_process_details   SADABS
_exptl_crystal_colour            black
_exptl_crystal_density_diffrn    2.109
_exptl_crystal_description       block
_exptl_crystal_F_000             114
_exptl_crystal_size_max          0.08
_exptl_crystal_size_mid          0.08
_exptl_crystal_size_min          0.05
_refine_diff_density_max         0.595
_refine_diff_density_min         -0.284
_refine_diff_density_rms         0.103
_refine_ls_extinction_method     none
_refine_ls_goodness_of_fit_ref   1.124
_refine_ls_hydrogen_treatment    undef
_refine_ls_matrix_type           full
_refine_ls_number_parameters     31
_refine_ls_number_reflns         253
_refine_ls_number_restraints     1
_refine_ls_restrained_S_all      1.122
_refine_ls_R_factor_all          0.0820
_refine_ls_R_factor_gt           0.0505
_refine_ls_shift/su_max          0.000
_refine_ls_shift/su_mean         0.000
_refine_ls_structure_factor_coef Fsqd
_refine_ls_weighting_details
'w=1/[\s^2^(Fo^2^)+(0.0648P)^2^+0.1118P] where P=(Fo^2^+2Fc^2^)/3'
_refine_ls_weighting_scheme      calc
_refine_ls_wR_factor_gt          0.1157
_refine_ls_wR_factor_ref         0.1275
_reflns_Friedel_coverage         0.000
_reflns_number_gt                182
_reflns_number_total             253
_reflns_threshold_expression     'I > 2\s(I)'
_cod_data_source_file            ja9b06803_si_002.cif
_cod_data_source_block           shelx
_cod_database_code               4127821
_shelx_shelxl_version_number     2016/6
_shelx_space_group_comment
;
The symmetry employed for this shelxl refinement is uniquely defined
by the following loop, which should always be used as a source of
symmetry information in preference to the above space-group names.
They are only intended as comments.
;
_shelx_res_file
;
TITL Pnma_new in Pnma
    shelx.res
    created by SHELXL-2016/6 at 17:38:17 on 06-May-2019
CELL 0.71073   9.56720   3.20140   6.10400  90.0000  90.0000  90.0000
ZERR    2.00   0.00110   0.00050   0.00070   0.0000   0.0000   0.0000
LATT  1
SYMM 1/2-X, -Y, 1/2+Z
SYMM -X, 1/2+Y, -Z
SYMM 1/2+X, 1/2-Y, 1/2-Z
SFAC B NA P
UNIT 2 4 4
TEMP -173.150
L.S. 10
BOND
omit -2 55
LIST 6
FMAP 2
PLAN -20
acta
eadp na1 na2
eadp p21 p22 p23
sump 1 .001 1 2 1 3 1 4
WGHT    0.064800    0.111800
FVAR       0.51788   0.34126   0.20341   0.45587   0.47282   0.72053
NA1   2    0.670676    0.750000    0.847325    60.50000    0.02607    0.01663 =
         0.02700    0.00000   -0.00320    0.00000
NA2   2    0.622847    0.750000    0.868339   -60.50000    0.02607    0.01663 =
         0.02700    0.00000   -0.00320    0.00000
P21   3    0.409942    0.250000    0.677087    20.50000    0.01249    0.01012 =
         0.01406    0.00000    0.00153    0.00000
P22   3    0.441697    0.250000    0.614786    30.50000    0.01249    0.01012 =
         0.01406    0.00000    0.00153    0.00000
P23   3    0.401447    1.105472    0.703592    40.50000    0.01249    0.01012 =
         0.01406    0.00000    0.00153    0.00000
B1    1    0.523022    0.250000    0.469442    50.50000    0.01458    0.00446 =
         0.01466    0.00000   -0.00088    0.00000
HKLF 4




REM  Pnma_new in Pnma
REM R1 =  0.0505 for     182 Fo > 4sig(Fo)  and  0.0820 for all     253 data
REM     31 parameters refined using      1 restraints

END

WGHT      0.0642      0.1153

REM Highest difference peak  0.595,  deepest hole -0.284,  1-sigma level  0.103
Q1    1   0.6454  0.7500  0.4705  10.50000  0.05    0.59
Q2    1   0.6335  0.7500  1.0008  10.50000  0.05    0.48
Q3    1   0.4205  1.0526  0.5775  11.00000  0.05    0.33
Q4    1   0.6655  0.7500  1.2968  10.50000  0.05    0.31
Q5    1   0.5882  0.7500  0.7918  10.50000  0.05    0.27
Q6    1   0.5531  0.7500  1.1655  10.50000  0.05    0.26
Q7    1   0.4963  0.7500  0.9808  10.50000  0.05    0.26
Q8    1   0.5656  0.8917  0.8346  11.00000  0.05    0.23
Q9    1   0.4712  0.7500  1.2259  10.50000  0.05    0.23
Q10   1   0.8790  0.9962  0.7334  11.00000  0.05    0.22
Q11   1   0.8185  0.7500  0.6326  10.50000  0.05    0.20
Q12   1   0.9437  0.7500  0.6775  10.50000  0.05    0.18
Q13   1   0.4061  0.7500  1.0454  10.50000  0.05    0.17
Q14   1   0.5087  0.2500  0.6093  10.50000  0.05    0.16
Q15   1   0.5843  0.2500  0.5038  10.50000  0.05    0.15
Q16   1   0.6000  0.2500  0.6630  10.50000  0.05    0.15
Q17   1   0.5827  0.7500  0.6085  10.50000  0.05    0.15
Q18   1   0.7201  0.7500  0.8222  10.50000  0.05    0.15
Q19   1   0.7344  0.7500  0.6871  10.50000  0.05    0.12
Q20   1   0.8605  0.7500  0.8495  10.50000  0.05    0.12
;
_shelx_res_checksum              30462
_shelx_hkl_file
;
   0  -1   0   -1.79    1.41
   0   1   0   -0.90    0.77
   0   1   0   -0.13    0.77
   0   1   0   -1.66    1.72
   0  -1   0    0.03    0.84
   0  -1   0   -0.93    1.19
   0   2   0  452.09    9.19
   0  -2   0  492.95    9.83
   0  -2   0  442.71   11.46
   0  -3   0   -2.90    4.75
   0   3   0   -0.41    2.49
   0  -4   0   50.72    9.20
   0   4   0   42.54    6.54
   0   0  -1   -0.22    0.48
   0   0  -1   -0.11    0.31
   0   0  -1   -0.35    0.55
   0   0   1   -0.28    0.30
   0   0  -1   -0.68    0.27
   0   0   1   -0.39    0.49
   0   1   1    7.72    2.57
   0   1  -1    4.33    2.23
   0   1  -1    3.80    0.78
   0  -1   1    4.91    0.79
   0  -1   1    5.92    1.67
   0   1   1    5.01    1.13
   0  -1   1    5.56    1.25
   0   1  -1    5.34    1.21
   0  -1  -1    3.03    1.87
   0  -1  -1    5.63    0.90
   0  -1  -1    5.53    1.39
   0   2  -1   -4.40    1.37
   0   2  -1   -0.15    1.38
   0  -2   1    4.95    2.89
   0  -2   1    2.01    1.81
   0   2   1    0.67    1.67
   0  -2  -1   -1.88    2.85
   0   3   1   21.71    3.60
   0   3  -1   22.78    3.43
   0  -3  -1   32.25    6.66
   0  -3   1   27.55    5.56
   0  -4  -1    0.88    7.81
   0   4   1   -0.29    5.28
   0   4  -1    0.75    4.95
   0  -4   1   -1.18    6.93
   0   0  -2  199.73    4.45
   0   0   2  201.60    3.97
   0   0  -2  207.06    4.08
   0   0  -2  208.50    4.56
   0   0   2  206.89    4.46
   0   0  -2  214.75    4.02
   0  -1   2   -0.45    0.78
   0   1   2    0.02    0.74
   0  -1  -2   -0.90    0.87
   0  -1  -2   -0.60    1.63
   0  -1   2    0.67    1.49
   0   1  -2    0.95    1.02
   0  -1   2   -0.37    1.23
   0  -1  -2   -3.62    2.41
   0   1  -2   -0.16    0.72
   0   1   2    0.46    1.43
   0   1  -2   -0.21    2.46
   0  -2  -2   11.53    4.27
   0  -2   2    4.69    2.79
   0   2  -2    8.56    1.74
   0   2   2    8.37    2.57
   0   2  -2    6.61    2.21
   0   3   2   -2.08    2.94
   0  -3  -2    4.75    5.54
   0   3  -2   -0.69    2.83
   0  -3   2    2.48    4.22
   0   3  -2    1.91    3.42
   0   4   2   13.18    5.88
   0  -4  -2    4.82    9.06
   0  -4   2   14.04    7.69
   0   4  -2    7.03    4.68
   0   0  -3    0.05    1.85
   0   0  -3   -1.27    0.79
   0   0   3    0.77    1.23
   0   0   3   -0.53    0.78
   0   0  -3    2.51    1.85
   0   0  -3    0.91    0.93
   0  -1   3   40.38    2.83
   0   1  -3   41.53    2.45
   0  -1   3   41.45    3.11
   0   1   3   39.74    3.20
   0  -1   3   39.24    1.98
   0   1   3   42.37    2.17
   0   2  -3   -0.16    2.27
   0   2  -3   -0.63    1.57
   0  -2   3   -2.85    2.57
   0  -2  -3   -3.07    4.14
   0  -2   3    0.47    1.39
   0   2   3    0.72    2.45
   0  -3   3   -2.09    4.32
   0   3   3    0.02    3.81
   0   3  -3    0.19    3.01
   0   3  -3   -3.03    3.48
   0  -3   3    0.57    2.25
   0  -3  -3    1.74    6.03
   0   4   3    3.08    6.35
   0  -4   3    4.22    3.89
   0  -4   3    4.08    7.45
   0  -4  -3    6.90   10.33
   0   0   4   67.78    3.19
   0   0   4   78.62    2.65
   0   0  -4   81.25    2.86
   0  -1   4   -0.30    1.11
   0   1  -4   -1.33    1.73
   0   1   4    0.49    2.11
   0   1   4   -1.51    1.16
   0  -1   4   -0.95    2.41
   0   2  -4   62.19    4.54
   0  -2   4   72.29    5.05
   0   2   4   75.09    5.05
   0  -2   4   70.34    3.42
   0  -2  -4   74.15    7.49
   0   3   4    6.25    4.59
   0  -3   4   -1.45    2.61
   0  -3   4   -0.11    5.00
   0   3  -4    0.34    4.12
   0  -3  -4  -12.08    6.66
   0  -4   4   17.87    9.19
   0   4  -4   14.36    7.12
   0   4   4   10.90    6.98
   0  -4   4   18.87    5.03
   0  -4  -4   13.99   11.63
   0   0   5   -0.17    1.45
   0   0   5   -0.68    1.94
   0   0  -5   -1.98    1.53
   0   1  -5    9.25    2.40
   0  -1   5    4.11    2.78
   0   1   5    5.70    1.94
   0  -1   5    6.35    1.80
   0  -2   5    1.15    1.85
   0  -2  -5   -1.91    6.71
   0   2  -5    3.85    3.28
   0   2   5    1.59    3.52
   0  -2   5    4.84    3.20
   0  -3   5   -2.62    5.00
   0  -3  -5    8.19    8.93
   0  -3   5    1.57    3.00
   0   3   5   -6.98    5.48
   0   3  -5    3.67    5.01
   0   0  -6   61.19    3.62
   0   0   6   61.49    4.16
   0   0   6   63.95    3.41
   0  -1   6   -2.72    3.02
   0   1  -6    4.25    2.82
   0   1   6    2.18    2.12
   0  -1  -6    1.18    2.23
   0  -1   6    2.11    2.07
   0  -2   6   29.82    3.60
   0   2  -6   33.40    5.68
   0  -2   6   26.26    5.19
   0  -2  -6   48.44   10.16
   0  -3   6    2.84    3.45
   0  -3  -6   -8.99   10.62
   0   3  -6    1.27    6.52
   0  -3   6    1.52    6.09
   0   0   7   -1.47    2.68
   0   0  -7    0.39    2.90
   0  -1   7    3.80    4.34
   0  -1  -7    1.64    3.15
   0   1   7    6.11    3.02
   0  -1   7   -5.12    2.69
   0   1  -7    0.35    3.42
   0  -2   7    6.19    3.35
   0  -2  -7    7.21   10.37
   0   2  -7    8.21    5.38
   0  -2  -7    2.06    3.52
   0  -2   7   -6.68    4.60
   0   0  -8    3.56    4.11
   0   0   8    6.11    3.79
   0  -1   8    2.93    3.64
   0  -1   8    8.32    5.28
   0   1   8   -1.26    4.08
   0  -1  -8   -6.69   12.80
   0   1  -8   -0.23    5.07
   0  -1  -8   -0.63    4.25
  -1   0   0   -0.21    0.14
   1   0   0   -0.23    0.18
   1   0   0   -0.07    0.14
  -1   0   0   -0.09    0.17
  -1  -1   0    0.27    1.04
  -1  -1   0    0.98    1.58
  -1   1   0   -0.12    0.81
   1   1   0   -0.15    0.73
   1  -1   0   -1.03    1.22
  -1   1   0   -3.04    1.63
   1  -1   0    0.01    0.90
   1  -1   0   -1.23    1.66
  -1  -1   0    0.84    0.91
   1   1   0    0.33    1.80
  -1   1   0    0.57    0.84
   1   2   0   -1.87    1.29
   1   2   0    5.15    4.89
  -1   2   0   -1.82    1.42
  -1  -2   0    0.75    3.04
   1  -2   0   -2.36    2.58
  -1  -2   0   -0.29    1.92
  -1   2   0    2.04    1.60
   1  -3   0   12.34    5.24
  -1  -3   0   -2.25    4.51
  -1   3   0    0.41    2.62
   1   3   0    0.45    2.69
   1  -4   0    5.58    8.25
  -1  -4   0    6.56    7.57
  -1   4   0    4.66    4.42
   1   4   0    2.28    5.35
  -1   0   1   52.15    1.10
  -1   0  -1   55.56    1.39
   1   0  -1   56.67    1.53
   1   0  -1   52.42    1.36
   1   0   1   54.99    1.57
  -1   0   1   53.90    1.40
   1   0   1   54.12    1.52
  -1   0   1   53.71    1.49
   1   0  -1   58.10    1.11
   1   0   1   54.61    1.43
  -1   0  -1   54.46    1.62
   1   1  -1   19.76    2.90
   1  -1   1   21.01    1.73
  -1  -1  -1   23.13    1.43
  -1   1   1   21.65    3.22
  -1  -1  -1   21.55    1.82
  -1  -1  -1   24.26    2.56
   1  -1   1   22.86    1.29
   1   1  -1   20.88    1.61
  -1   1   1   21.55    1.53
   1  -1   1   27.31    2.37
   1   1   1   20.27    1.70
   1  -1  -1   19.75    2.76
  -1   1  -1   22.67    1.27
  -1   1  -1   26.29    3.24
  -1   1  -1   21.51    1.72
  -1  -1   1   22.68    1.80
  -1  -1   1   23.73    2.27
   1  -1  -1   23.00    1.83
   1  -1  -1   16.55    1.91
  -1  -2  -1   -1.74    3.28
  -1   2   1    0.40    1.56
   1  -2   1    1.66    2.54
   1   2  -1    2.65    1.73
   1  -2   1   -0.62    1.88
   1   2  -1    3.47    1.41
   1   2  -1    6.54    4.94
   1   2   1    1.62    2.03
  -1   2  -1    3.01    1.66
  -1   2  -1    2.52    1.85
  -1  -2   1    5.49    3.05
   1  -2  -1    3.16    2.90
  -1  -2   1    0.38    1.69
  -1   3   1    8.38    2.95
   1  -3   1    4.35    4.56
   1   3  -1   11.30    2.71
  -1  -3  -1   18.16    6.18
  -1  -3   1    6.00    4.67
   1   3   1   13.35    3.28
  -1   3  -1    7.66    2.92
   1  -3  -1    2.19    4.79
  -1   3  -1    6.76    2.69
   1  -4   1    0.71    7.72
  -1   4   1    3.83    5.26
   1   4  -1   -2.24    5.14
  -1  -4  -1    2.05    8.66
   1  -4  -1   11.45    8.58
  -1   4  -1    2.39    4.52
  -1  -4   1   -0.66    7.22
   1   4   1    0.40    5.24
   1   0   2  485.04    9.01
   1   0  -2  505.22    8.69
   1   0  -2  500.96    8.42
   1   0   2  482.78    8.66
  -1   0  -2  487.91    9.12
   1   0  -2  518.06    8.37
  -1   0   2  492.36    8.34
  -1   0  -2  488.84    8.81
  -1   0   2  491.40    8.76
  -1   0   2  485.73    8.93
  -1   0  -2  504.44    8.69
   1   0  -2  495.40    8.99
   1   1  -2  323.26    6.73
   1   1  -2  324.31    7.91
   1  -1   2  327.19    7.62
   1  -1   2  331.99    6.86
  -1  -1  -2  326.18    6.52
   1  -1   2  327.29    6.58
  -1   1   2  325.88    7.00
  -1  -1  -2  333.40    7.12
  -1  -1   2  348.75    6.62
   1  -1  -2  318.04    8.33
  -1  -1   2  332.74    7.35
  -1   1  -2  335.40    6.22
  -1   1  -2  337.92    8.53
   1  -1  -2  332.01    6.99
  -1  -1   2  330.25    6.26
   1  -1  -2  324.50    6.39
  -1   1  -2  327.17    7.01
   1   1   2  322.69    6.51
   1   1   2  326.77    7.29
  -1   2   2  118.23    4.52
   1   2  -2  120.81    4.60
   1  -2   2  115.86    3.97
  -1  -2  -2  125.21    6.32
   1  -2   2  120.10    5.95
  -1   2  -2  112.38    3.61
   1   2   2  119.19    4.70
   1  -2  -2  118.24    6.85
  -1   2  -2  121.49    4.94
  -1  -2   2  115.33    5.52
   1   3  -2   27.99    3.50
  -1   3   2   25.81    4.03
  -1  -3  -2   37.21    6.73
   1   3  -2   23.12    3.82
   1  -3   2   33.03    5.85
  -1  -3   2   19.07    5.21
  -1   3  -2   24.31    4.07
  -1   3  -2   26.13    3.59
   1  -3  -2   27.02    6.48
   1   3   2   33.54    4.49
   1  -4   2   13.17    3.94
  -1   4   2   18.86    6.07
   1  -4   2   18.86    7.90
  -1  -4  -2   13.42    9.46
   1  -4  -2   -2.62    8.29
  -1   4  -2   24.41    5.28
   1   4   2   14.99    5.92
  -1  -4   2    6.06    7.46
   1   0  -3   15.23    1.25
   1   0   3   17.32    1.41
  -1   0   3   14.37    1.74
  -1   0   3   13.37    1.84
  -1   0   3   15.09    1.18
   1   0  -3   16.85    2.42
  -1   0  -3   15.03    1.67
  -1   0  -3   15.95    1.51
   1   0  -3   16.59    1.36
   1   0  -3   14.80    1.88
  -1   0  -3   18.26    2.86
   1   0   3   14.29    1.84
   1  -1   3   13.68    1.64
  -1   1   3   11.01    1.43
   1  -1   3   12.10    2.29
  -1   1   3   15.08    2.48
   1   1  -3   10.19    1.79
   1   1  -3   19.57    4.17
   1  -1  -3    9.71    2.41
  -1   1  -3   13.95    2.03
  -1  -1   3   14.33    1.99
  -1  -1   3   15.83    2.47
   1   1   3   12.60    2.49
   1   1   3   11.07    1.55
  -1  -1   3   11.73    1.39
   1  -1  -3   14.72    3.74
   1  -2   3    0.38    1.58
   1   2  -3   -4.28    2.11
  -1  -2  -3   -2.17    3.84
   1  -2   3    2.20    2.62
  -1   2   3    2.79    2.30
   1   2   3   -1.83    2.63
  -1  -2   3    4.13    3.03
  -1   2  -3    1.78    1.74
   1  -2  -3    1.38    3.98
  -1   2  -3    2.96    2.32
  -1  -2   3    0.62    1.72
  -1  -3  -3   13.95    6.62
   1  -3   3   15.11    3.06
   1   3  -3   10.74    3.73
   1  -3   3   10.68    4.78
  -1   3   3   16.11    4.31
  -1   3  -3   12.08    4.43
  -1  -3   3   15.48    2.80
   1   3   3    9.82    4.08
  -1  -3   3   13.56    4.95
   1  -3  -3    7.80    6.37
  -1   3  -3   14.80    3.17
  -1  -4  -3  -14.65    9.38
  -1   4   3    5.29    7.19
   1  -4   3   -3.66    7.68
   1  -4   3    5.54    4.00
   1   4   3    3.29    6.41
  -1   4  -3   10.77    7.35
  -1  -4   3    0.36    7.46
   1  -4  -3    3.46   10.88
  -1  -4   3   -3.62    3.42
   1   0  -4  105.68    3.13
  -1   0   4  107.08    2.95
  -1   0  -4   98.40    3.44
  -1   0   4  106.92    3.79
   1   0   4  107.13    3.92
   1   0  -4  100.06    3.18
   1   0  -4  106.18    4.01
   1   0   4  106.51    3.23
  -1   1   4   82.10    4.19
  -1   1   4   90.24    3.10
   1  -1   4   83.33    3.22
   1  -1   4   92.00    4.38
   1   1  -4   91.75    3.57
   1  -1  -4   85.87    6.51
  -1   1  -4   83.08    3.81
   1   1   4   93.18    3.48
  -1  -1   4   88.57    4.25
  -1  -1   4   92.36    2.99
   1   2  -4   15.38    3.22
  -1  -2  -4   20.53    5.69
   1  -2   4   12.10    3.75
  -1   2   4   18.96    3.51
   1  -2   4   17.07    2.49
  -1   2  -4   19.20    3.85
  -1  -2   4   15.89    2.56
  -1  -2   4   21.37    4.11
   1   2   4    9.82    3.34
   1  -2  -4   14.39    5.57
  -1   2  -4   20.51    2.65
   1  -3   4    8.10    4.92
  -1   3   4    9.49    5.14
  -1  -3  -4    3.74    7.41
   1   3  -4   -4.93    3.68
   1  -3   4    0.28    2.77
  -1  -3   4    0.80    2.89
  -1  -3   4   -0.44    5.25
  -1   3  -4    1.11    3.64
   1   3   4    4.01    4.24
   1  -3  -4    5.48    8.09
  -1   3  -4   -5.20    4.09
   1  -4   4   -3.96    7.65
  -1  -4  -4   11.34   11.67
  -1   4   4   -3.34    7.17
   1  -4   4   -4.53    4.17
   1  -4  -4   17.44   11.91
  -1  -4   4    2.49    4.40
  -1   4  -4   -2.82    6.63
   1   4   4    9.01    7.13
  -1  -4   4   -1.03    8.48
   1   0   5   37.57    3.24
  -1   0   5   40.79    3.28
  -1   0   5   31.71    2.16
   1   0   5   35.67    2.52
  -1   0  -5   34.15    2.75
   1   0  -5   35.29    2.67
  -1   1   5   12.09    2.26
   1  -1   5   10.18    1.96
  -1   1   5    4.11    2.85
   1   1  -5   10.32    2.61
   1  -1   5    9.77    3.11
  -1  -1  -5    6.98    2.07
   1   1  -5    5.67    2.96
  -1  -1   5   11.60    2.11
  -1  -1   5    6.20    2.93
   1  -1  -5   10.21    5.64
  -1   1  -5    7.86    2.71
   1   1   5   11.51    2.25
   1   2  -5   -1.81    2.81
   1  -2   5    1.29    1.89
  -1  -2  -5   -4.46    6.16
   1  -2   5   -1.76    3.41
  -1   2   5   -1.01    3.77
  -1   2  -5    0.34    2.59
  -1  -2   5   -5.88    3.24
  -1  -2   5   -2.07    1.74
  -1   2  -5   -0.62    3.06
   1  -2  -5    3.52    6.36
   1  -3   5    3.69    5.05
   1  -3   5    1.98    3.21
   1   3  -5   10.92    5.11
  -1   3   5   -1.09    5.31
  -1  -3  -5   -4.64    8.80
  -1  -3   5    5.15    3.10
   1  -3  -5    7.55    9.85
  -1   3  -5    2.85    5.42
  -1  -3   5   -1.36    5.09
   1   0   6   -1.45    1.80
   1   0   6   -0.50    2.18
  -1   0   6   -2.44    1.88
  -1   0   6    2.61    2.21
  -1   0  -6    1.17    1.87
   1   0  -6    1.61    1.99
   1  -1   6    3.04    3.44
  -1   1   6    0.43    2.18
   1   1  -6   -2.97    2.61
  -1  -1  -6    0.51    2.23
   1  -1   6    0.65    2.05
  -1  -1   6    3.74    3.33
   1  -1  -6   14.40    6.86
   1  -1  -6    0.85    2.20
   1   1   6    1.24    2.32
  -1  -1   6    1.55    1.94
  -1   1  -6    3.31    2.60
   1  -2   6   -1.36    4.03
   1  -2   6    0.23    2.32
  -1  -2  -6   12.77    9.18
   1   2  -6    5.41    3.98
  -1   2   6    5.72    4.37
  -1  -2   6    7.37    4.50
   1  -2  -6   -5.49    7.80
  -1  -2   6    3.51    2.36
  -1   2  -6    6.21    4.07
  -1   2  -6    8.61    3.21
   1   3  -6   17.24    6.60
   1  -3   6    7.54    5.99
   1  -3   6   10.39    3.70
  -1  -3  -6    9.04   12.04
  -1   3   6   17.82    6.97
  -1  -3   6   16.68    3.76
   1  -3  -6   10.96   11.82
  -1   3  -6   15.30    7.45
  -1  -3   6   21.90    7.03
  -1   0   7   19.78    3.19
   1   0  -7   17.30    3.42
  -1   0  -7    8.88    3.20
   1   0   7   16.31    3.24
   1   1  -7   11.88    3.66
  -1  -1  -7   13.10    3.57
   1  -1   7   13.20    4.58
   1  -1   7   12.79    3.25
  -1   1   7    9.67    3.08
   1  -1  -7    3.30    9.05
   1   1   7   14.46    3.50
  -1  -1   7   14.06    4.93
   1  -1  -7    8.39    3.19
  -1   1  -7   11.75    3.93
  -1  -1   7    9.37    3.03
   1   2  -7   -9.12    4.96
   1  -2   7    4.43    3.13
  -1  -2  -7    1.32   11.11
   1  -2   7    9.52    5.40
  -1  -2  -7   -4.22    3.76
   1  -2  -7    6.98   10.25
  -1  -2   7    1.11    3.12
  -1  -2   7    2.19    4.90
  -1   2  -7   -3.94    5.09
   1  -2  -7    0.90    3.49
  -1   0  -8    0.59    4.43
  -1   0   8   10.21    3.96
   1   0   8    9.97    3.67
   1   0  -8    2.93    4.31
   1  -1   8    3.54    5.51
  -1   1   8   -3.09    3.48
   1   1  -8   11.03    5.08
   1  -1   8    2.81    3.72
  -1  -1  -8   -5.72    4.26
  -1  -1   8    1.97    5.56
   1  -1  -8    4.50    4.36
  -1  -1   8   -3.31    3.67
   1   1   8   -3.87    4.00
  -1   1  -8   -6.73    4.87
   1  -1  -8   -7.32   13.21
   2   0   0   78.18    1.70
   2   0   0   74.92    1.61
  -2   0   0   81.94    1.72
  -2   0   0   81.98    1.64
   2  -1   0 1000.00   16.51
  -2  -1   0  967.65   16.84
  -2   1   0  971.36   17.01
  -2   1   0  981.59   18.10
  -2  -1   0  975.36   16.14
  -2   1   0  977.89   16.59
  -2  -1   0  988.09   16.21
   2  -1   0  930.48   17.70
  -2  -2   0    1.41    2.07
   2  -2   0    4.79    3.21
   2   2   0   -1.55    4.76
  -2  -2   0   -4.47    2.75
   2   2   0   -0.43    1.57
  -2   2   0    1.68    1.92
  -2   2   0    3.61    1.79
   2   3   0   35.14    4.03
  -2  -3   0   37.32    6.75
   2  -3   0   37.76    6.56
  -2   3   0   36.83    3.86
  -2   4   0    3.09    4.54
  -2  -4   0  -19.54    7.58
   2  -4   0    1.99    7.64
   2   4   0    1.77    5.33
   2   0  -1   47.62    1.87
  -2   0  -1   50.48    1.74
   2   0   1   52.22    1.69
  -2   0  -1   53.33    1.54
   2   0   1   51.23    1.55
   2   0  -1   54.79    1.45
   2   0  -1   53.93    1.48
  -2   0  -1   52.60    1.62
  -2   0   1   52.79    1.48
  -2   0   1   52.95    1.47
  -2   0   1   50.84    2.19
   2   0   1   55.28    1.56
  -2  -1  -1  129.52    3.71
   2  -1   1  133.37    3.73
   2  -1   1  123.76    4.25
  -2   1   1  126.87    3.50
   2   1  -1  138.99    3.77
  -2  -1  -1  127.67    3.12
   2  -1   1  128.42    3.32
  -2   1   1  137.21    5.15
   2  -1  -1  128.19    3.50
   2  -1  -1  132.20    3.81
   2   1   1  128.25    3.16
  -2  -1   1  130.14    3.89
   2  -1  -1  130.89    4.78
  -2   1  -1  127.81    4.99
  -2   1  -1  132.10    3.75
  -2  -1   1  131.34    3.41
  -2   1  -1  126.85    3.23
   2  -2   1   11.49    3.42
  -2  -2  -1   17.16    3.79
  -2   2   1   14.62    2.41
   2   2  -1   11.54    1.93
   2   2  -1   23.71    5.09
  -2   2  -1   17.91    2.44
  -2  -2   1   21.87    3.73
   2  -2  -1   15.72    4.33
   2   2   1   17.42    2.74
  -2  -2   1   14.61    2.01
  -2   2  -1   14.50    2.78
   2  -3   1    5.77    4.48
  -2   3   1   10.26    3.33
   2   3  -1   14.51    3.53
  -2  -3  -1   11.78    5.48
   2  -3  -1    5.67    5.26
   2   3   1   11.43    3.38
  -2  -3   1    5.51    4.80
  -2   3  -1   13.33    3.87
  -2   3  -1    9.56    3.02
   2   4  -1    3.84    5.31
  -2   4   1    0.08    4.82
  -2  -4  -1    2.45    8.92
   2  -4   1   10.88    7.51
   2  -4  -1  -10.70    8.12
   2   4   1    0.99    5.41
  -2   4  -1    6.00    4.92
  -2  -4   1    7.38    7.36
  -2   0  -2   -0.71    1.25
  -2   0   2    1.19    0.85
  -2   0   2    0.47    0.42
   2   0   2   -0.49    0.62
   2   0  -2    0.26    0.45
   2   0   2    1.08    0.91
   2   0  -2    2.11    0.96
  -2   0   2   -0.90    0.84
  -2   0  -2    0.59    0.86
   2   0  -2    0.21    0.46
   2   0  -2    1.77    1.16
  -2   0  -2   -0.59    0.71
   2  -1   2  110.28    3.73
   2   1  -2  109.07    3.20
   2  -1   2  109.67    4.15
   2   1  -2  116.44    4.41
  -2   1   2  108.14    3.54
   2  -1   2  111.89    3.23
  -2  -1  -2  106.80    4.17
  -2  -1  -2  120.49    3.95
   2  -1  -2  108.33    3.02
   2  -1  -2  107.35    3.65
  -2   1  -2  107.87    3.60
   2   1   2  114.08    3.17
  -2  -1   2  108.18    3.64
  -2   1  -2  109.32    3.00
   2  -1  -2  111.49    3.73
  -2  -1   2  115.00    3.05
   2  -1  -2  105.83    4.98
  -2  -1   2  111.41    2.67
   2  -2   2    5.64    1.56
   2   2  -2   10.03    5.23
   2  -2   2    5.66    2.74
   2   2  -2    6.33    2.36
  -2   2   2    4.44    2.27
  -2  -2  -2    7.45    3.28
  -2   2  -2    3.84    1.88
   2   2   2    6.13    2.71
  -2  -2   2    6.73    3.08
  -2   2  -2    4.88    2.13
   2  -2  -2    4.21    3.76
   2  -3   2   -4.01    4.53
  -2   3   2    2.08    3.08
  -2  -3  -2   -4.31    5.27
   2  -3   2    1.62    2.16
  -2   3  -2   -3.29    2.84
  -2   3  -2   -0.69    2.91
   2   3   2    4.16    3.44
  -2  -3   2    1.95    4.80
   2  -3  -2   -0.45    5.52
  -2   4   2    5.67    4.92
  -2  -4  -2   10.68    9.68
   2  -4   2    7.43    3.66
   2  -4   2    7.76    7.22
   2   4   2    0.83    5.61
   2  -4  -2   -0.36    8.90
  -2   4  -2    7.96    5.43
  -2  -4   2   -2.59    7.35
  -2   0   3   60.36    2.44
  -2   0   3   56.54    1.72
   2   0  -3   57.98    2.42
   2   0   3   57.30    2.21
   2   0  -3   56.85    1.80
   2   0  -3   56.47    1.82
   2   0  -3   55.84    3.02
  -2   0  -3   57.20    2.38
   2   0   3   57.18    2.65
  -2   0   3   57.16    2.53
   2   1  -3    4.57    3.32
   2  -1   3    2.57    1.86
  -2   1   3    3.22    1.87
   2   1  -3   -0.55    1.29
   2  -1   3    0.92    1.05
  -2  -1   3   -1.77    1.48
  -2  -1   3   -1.55    1.65
  -2  -1   3    1.17    0.87
   2  -1  -3   -1.17    3.17
   2   1   3    0.41    0.99
   2  -1  -3   -0.59    1.45
  -2   1  -3    0.38    1.30
   2  -2   3    0.24    2.74
   2   2  -3    1.04    2.26
  -2  -2  -3    4.19    4.48
   2  -2   3    2.44    1.54
  -2   2   3    2.20    2.25
  -2  -2   3    2.65    2.94
  -2   2  -3    0.86    2.56
   2  -2  -3   -1.97    4.20
   2   2   3    3.09    2.61
  -2   2  -3    2.23    2.09
  -2  -2   3    2.93    1.51
   2   3  -3    2.51    3.35
   2  -3   3    8.01    5.24
  -2   3   3    1.03    3.46
   2  -3   3    1.33    2.57
  -2  -3  -3    7.53    6.59
  -2  -3   3    0.01    2.40
  -2   3  -3    7.02    3.35
  -2   3  -3   -2.27    3.72
  -2  -3   3    2.01    4.61
   2   3   3    4.80    3.81
   2  -3  -3    5.50    6.85
  -2   4   3   -6.63    6.52
   2  -4   3    5.01    4.20
   2  -4   3    6.92    7.11
  -2  -4  -3    9.92    9.94
   2   4   3    5.05    6.24
  -2  -4   3   -4.51    7.66
   2  -4  -3   10.45   10.49
  -2  -4   3   -3.04    3.48
  -2   4  -3   -1.83    6.07
  -2   4  -3   -5.55    5.76
  -2   0   4    4.50    1.81
   2   0   4    3.56    1.50
  -2   0   4    3.71    1.63
   2   0   4    6.41    2.10
   2   0  -4    3.27    2.14
   2   0  -4    8.49    1.51
  -2   0   4    4.69    1.05
  -2   0  -4    4.00    1.41
   2   0  -4    5.92    1.34
   2  -1   4   68.10    4.06
   2  -1   4   71.49    3.04
   2   1  -4   69.09    3.24
  -2   1   4   74.80    3.90
  -2  -1   4   70.38    3.38
   2   1   4   73.82    3.21
   2  -1  -4   73.49    6.24
  -2   1  -4   72.22    3.71
  -2  -1   4   54.75    3.58
  -2  -1   4   69.74    2.49
   2   2  -4    0.52    2.65
   2  -2   4    0.71    2.78
  -2  -2  -4   -2.14    5.35
   2  -2   4    1.50    1.82
  -2   2   4   -1.55    2.88
   2  -2  -4    4.71    5.15
  -2   2  -4    3.03    2.33
  -2  -2   4   -0.46    3.17
  -2   2  -4    9.43    3.42
  -2  -2   4   -0.71    1.73
   2  -3   4   41.43    4.44
   2  -3   4   47.98    6.85
  -2   3   4   45.95    6.28
  -2  -3  -4   45.84    8.98
   2   3  -4   34.93    5.60
  -2   3  -4   39.30    4.61
  -2   3  -4   36.81    6.13
   2  -3  -4   46.91    9.05
  -2  -3   4   42.40    4.52
  -2  -3   4   43.22    7.64
   2  -4   4    6.46    4.35
   2  -4   4   -3.30    7.88
  -2  -4  -4   -4.97   11.51
  -2   4  -4    5.95    6.96
   2  -4  -4   -7.88   11.31
  -2  -4   4   13.16    8.70
  -2  -4   4    5.40    4.67
  -2   0   5   12.43    2.57
  -2   0   5   16.02    2.01
   2   0  -5   15.44    2.27
   2   0   5   14.64    2.05
  -2   0  -5    9.53    2.05
   2   0   5   11.72    2.42
  -2  -1  -5   32.65    3.06
  -2   1   5   30.12    2.57
   2   1  -5   29.82    3.46
   2  -1   5   29.94    2.81
   2  -1   5   34.91    4.09
  -2   1   5   32.90    3.91
   2   1   5   32.00    2.98
   2  -1  -5   29.15    6.87
  -2   1  -5   22.59    3.28
  -2  -1   5   27.12    3.98
  -2  -1   5   28.35    2.26
   2   2  -5   -0.21    3.20
  -2   2   5    2.75    3.92
   2  -2   5    1.96    3.42
  -2  -2  -5    0.64    6.56
   2  -2   5    1.33    2.10
  -2  -2   5    1.31    3.22
  -2   2  -5    0.28    2.62
   2  -2  -5   12.84    7.14
  -2   2  -5    4.93    3.22
  -2  -2   5   -1.15    1.75
  -2  -3  -5   18.05   10.30
   2  -3   5   11.26    5.61
   2  -3   5   10.86    3.61
   2   3  -5   19.83    5.38
  -2   3   5   15.99    6.30
  -2  -3   5   12.58    3.37
  -2   3  -5   24.20    4.68
  -2   3  -5   12.44    5.85
   2  -3  -5   27.34   10.75
  -2  -3   5   21.11    6.27
   2   0   6    2.74    2.47
   2   0  -6   -1.46    2.14
   2   0   6    0.15    1.84
  -2   0  -6   -0.46    2.08
  -2   0   6   -0.50    1.74
  -2   0   6    3.82    2.51
  -2   1   6   33.01    3.08
   2  -1   6   33.86    3.46
   2  -1   6   41.15    5.02
  -2  -1  -6   32.04    3.71
   2   1  -6   36.38    3.99
  -2   1  -6   34.15    4.17
   2  -1  -6   31.46    8.11
   2  -1  -6   31.21    3.33
  -2  -1   6   35.90    4.83
  -2  -1   6   26.31    3.04
   2   1   6   28.29    3.63
   2  -2   6   -1.68    4.19
  -2   2   6    1.58    4.20
   2  -2   6   -2.90    2.43
  -2  -2  -6    7.42    8.90
   2   2  -6    5.92    4.04
  -2  -2   6    3.53    2.37
  -2   2  -6   -0.66    3.59
   2  -2  -6   -8.15    7.52
  -2   2  -6    4.67    3.27
  -2  -2   6    3.03    4.00
   2   3  -6    6.00    6.51
   2  -3   6   11.92    3.77
   2  -3   6    4.04    6.52
  -2   3   6    7.37    6.75
  -2  -3  -6   32.41   12.92
  -2  -3   6   13.48    6.19
   2  -3  -6   29.75   12.98
  -2   3  -6    6.11    6.89
  -2  -3   6    6.27    3.58
   2   0   7   10.43    2.81
  -2   0   7    7.24    2.84
  -2   0  -7   13.50    3.47
   2   0  -7    7.18    2.99
   2   1  -7    1.22    3.48
   2  -1   7    3.71    3.18
   2  -1   7    3.07    4.12
  -2  -1  -7    5.40    3.17
  -2   1  -7    1.87    3.71
   2   1   7    2.02    3.07
  -2  -1   7   -1.33    4.35
  -2  -1   7    5.01    2.73
   2  -1  -7    0.76    9.31
   2  -1  -7   -0.91    2.94
   2   2  -7    9.22    5.27
  -2  -2  -7    1.04    4.38
  -2  -2  -7    6.53   11.29
   2  -2   7    3.57    3.37
   2  -2   7    2.96    5.26
   2  -2  -7   -6.34   10.50
  -2  -2   7    2.59    3.26
  -2   2  -7    4.51    4.93
  -2  -2   7    5.98    5.10
   2  -2  -7    1.48    3.30
   2   0  -8    2.02    4.22
  -2   0  -8   -0.11    4.45
  -2   0   8    1.09    4.17
   2   0   8   -6.84    3.59
   2  -1   8    6.87    3.94
   2  -1   8   -4.35    5.13
  -2  -1  -8   -1.63    4.72
  -2  -1   8    7.09    5.53
   2   1   8    3.24    3.95
   2  -1  -8   -2.78    4.21
   2  -1  -8    0.35   11.92
  -2   1  -8   -1.70    5.39
  -2  -1   8   10.23    3.99
   3   0   0    0.18    0.58
  -3   0   0   -0.14    0.45
   3   0   0    0.20    0.42
  -3   0   0    0.01    0.52
  -3   1   0    0.17    1.07
   3  -1   0    0.12    1.11
  -3   1   0    0.15    0.89
   3  -1   0   -2.06    1.78
  -3  -1   0   -1.62    1.30
   3  -1   0   -0.62    1.14
  -3  -1   0    2.78    0.85
  -3   1   0    4.28    2.80
  -3  -1   0    0.13    1.38
  -3  -2   0    1.85    2.94
  -3  -2   0    0.16    2.14
  -3   2   0    0.16    1.64
  -3   2   0    0.21    1.65
   3  -2   0   -1.13    3.32
  -3   3   0   -0.03    3.00
  -3  -3   0   -0.25    5.08
   3  -3   0   -8.67    4.45
   3   3   0    0.59    3.01
  -3   3   0   -1.09    2.83
   3  -4   0   -0.02    7.48
  -3   4   0    1.62    5.31
  -3  -4   0   -4.18    7.88
   3   0   1  135.15    2.79
  -3   0   1  134.20    3.44
  -3   0  -1  140.66    3.22
  -3   0   1  138.23    2.97
   3   0  -1  141.36    3.01
  -3   0   1  137.20    2.74
   3   0   1  138.10    3.27
  -3   0  -1  139.56    3.21
   3   0   1  139.42    3.10
  -3   0  -1  141.59    3.09
  -3   1   1   16.42    1.72
  -3   1   1   20.80    3.53
   3  -1   1   21.07    2.37
   3  -1   1   14.44    1.57
  -3   1   1   19.44    1.69
  -3  -1  -1   17.74    1.57
   3  -1   1   17.25    2.03
  -3  -1  -1   19.92    2.44
  -3  -1   1   15.68    1.79
   3   1   1   15.52    1.44
   3  -1  -1   21.05    2.24
   3  -1  -1   14.80    1.99
  -3  -1   1   15.64    2.19
  -3   1  -1   16.14    1.82
   3  -1  -1   16.79    2.89
  -3   1  -1   19.47    1.57
  -3   1  -1   22.03    3.97
   3   2  -1   57.35    5.26
   3  -2   1   54.82    4.82
  -3  -2  -1   60.23    5.04
  -3   2   1   59.66    3.36
  -3  -2   1   53.26    4.45
  -3  -2   1   57.04    2.59
   3  -2  -1   55.29    5.63
  -3   2  -1   51.76    4.02
  -3   2  -1   53.39    3.10
  -3   3   1   -0.46    3.02
  -3  -3  -1    0.70    5.36
   3  -3   1    4.55    4.98
   3   3   1    6.92    3.26
  -3  -3   1    5.90    4.95
   3  -3  -1    0.22    4.89
  -3   3  -1    2.72    2.97
  -3   3  -1    2.64    2.94
  -3  -4  -1    1.97    9.29
  -3   4   1   19.24    5.67
   3  -4   1   14.93    7.55
  -3   4  -1    9.05    5.81
   3  -4  -1    9.89    8.77
  -3  -4   1   20.82    8.22
  -3   0  -2  267.98    5.73
  -3   0  -2  272.33    5.58
   3   0   2  270.20    5.51
  -3   0   2  271.39    5.43
   3   0  -2  274.00    5.42
   3   0   2  262.06    5.47
  -3   0  -2  271.51    5.96
   3   0  -2  273.12    6.18
  -3   0   2  272.24    5.25
   3   0  -2  268.54    5.20
  -3   1   2  137.69    4.05
   3  -1   2  142.52    4.71
   3   1  -2  139.87    3.48
   3  -1   2  139.44    3.84
  -3   1  -2  141.69    4.37
  -3  -1   2  141.91    3.39
   3  -1  -2  143.71    3.42
   3   1   2  140.13    3.77
   3  -1  -2  141.01    5.70
  -3   1  -2  144.40    3.76
   3  -1  -2  150.83    4.37
  -3  -1   2  149.14    4.14
  -3   2   2   48.43    3.47
  -3  -2  -2   46.09    5.29
   3  -2   2   43.98    4.42
   3   2  -2   45.36    5.98
   3  -2   2   45.27    2.97
  -3   2  -2   49.32    2.97
  -3   2  -2   47.04    3.82
  -3  -2   2   43.44    4.61
   3  -2  -2   49.20    5.66
  -3   3   2   26.35    4.46
   3  -3   2   14.89    2.90
  -3  -3  -2   21.29    6.88
   3  -3   2   15.11    4.82
  -3   3  -2   16.79    3.72
   3  -3  -2   19.40    6.58
  -3  -3   2   18.35    5.41
  -3   3  -2   21.68    4.86
   3  -4   2    1.51    3.71
   3  -4   2   12.47    7.78
  -3  -4  -2    7.34   10.48
  -3   4   2   -1.00    5.43
  -3   4  -2    5.65    5.46
  -3   4  -2   13.87    5.87
   3  -4  -2   10.08    9.20
  -3  -4   2   -0.70    7.20
  -3   0   3   51.55    1.50
   3   0  -3   49.74    3.10
   3   0  -3   54.12    1.64
  -3   0   3   50.78    2.21
   3   0  -3   54.18    2.32
   3   0  -3   55.33    1.62
   3   0  -3   52.31    4.20
  -3   0  -3   52.61    2.57
   3   0   3   56.63    2.31
   3   0   3   57.68    2.67
  -3   0   3   50.08    2.43
   3   1  -3   88.93    3.07
   3   1  -3   91.36    5.02
  -3   1   3   90.55    3.56
   3  -1   3   85.07    3.27
  -3  -1   3   94.36    2.82
   3  -1  -3   96.23    4.21
  -3  -1   3   86.66    3.63
  -3  -1   3   92.92    2.40
   3   1   3   90.57    3.28
   3  -1  -3   89.07    5.83
   3  -1  -3   91.43    2.97
  -3   1  -3   87.30    3.70
  -3   2   3   41.32    3.69
  -3  -2  -3   46.89    6.23
   3   2  -3   38.23    3.71
   3  -2   3   36.19    2.83
   3  -2   3   29.66    4.41
   3   2  -3   45.75    6.39
  -3   2  -3   35.66    3.96
  -3  -2   3   39.24    2.56
   3  -2  -3   38.26    6.37
  -3  -2   3   32.79    3.96
  -3   2  -3   33.57    3.08
   3  -3   3    1.35    2.75
  -3   3   3    1.35    3.74
   3  -3   3    8.05    4.88
  -3  -3  -3    5.17    6.29
  -3  -3   3   -2.97    2.36
  -3   3  -3   -2.13    3.25
  -3   3  -3    1.21    4.35
   3  -3  -3   -7.35    6.83
  -3  -3   3    7.55    5.58
  -3  -4  -3    8.98   10.65
   3  -4   3    9.79    8.39
   3  -4   3    0.81    4.23
  -3   4   3    8.52    6.91
   3  -4  -3  -11.50    9.79
  -3  -4   3   -5.12    8.18
  -3  -4   3    2.76    3.86
  -3   4  -3    9.36    6.15
  -3   4  -3   24.06    8.24
   3   0   4   84.82    3.73
  -3   0   4   74.10    2.19
  -3   0   4   73.22    3.25
  -3   0   4   76.82    3.37
   3   0  -4   72.08    2.59
  -3   0  -4   77.98    3.37
   3   0   4   78.67    3.08
   3   0  -4   78.04    2.50
   3   0  -4   71.90    3.48
   3  -1   4   28.03    3.53
   3   1  -4   32.69    5.48
   3  -1   4   24.62    2.46
  -3   1   4   28.54    2.96
   3   1  -4   25.66    2.57
   3  -1  -4   24.42    5.28
  -3  -1   4   28.06    3.27
  -3   1  -4   26.93    2.98
  -3  -1   4   23.34    1.63
  -3  -1   4   22.34    2.59
   3   1   4   31.84    2.59
   3   2  -4    2.81    2.74
   3  -2   4   -2.34    3.00
  -3  -2  -4    5.44    5.68
   3  -2   4    2.98    1.79
  -3   2   4    3.84    2.85
  -3  -2   4    2.49    3.29
  -3   2  -4    2.08    2.40
   3  -2  -4    6.03    5.66
   3   2   4    2.41    2.15
  -3  -2   4   -0.09    1.85
  -3   2  -4    3.16    2.83
  -3   3   4   -2.06    4.43
  -3  -3  -4    0.36    7.72
   3  -3   4    1.03    3.11
   3  -3   4    9.56    5.15
  -3   3  -4    7.38    5.71
   3  -3  -4   -3.37    7.71
  -3   3  -4    4.21    3.92
  -3  -3   4    0.04    2.91
  -3  -3   4    5.41    5.88
  -3   0  -5    4.35    2.14
  -3   0   5    5.11    2.24
   3   0  -5   10.12    1.85
   3   0   5    0.90    1.77
   3   0  -5    5.51    2.19
  -3   0   5    8.72    1.53
   3   0   5    7.17    2.40
   3  -1   5   17.42    2.63
  -3  -1  -5   21.94    2.94
   3   1  -5   20.05    3.13
  -3   1   5   24.99    3.82
   3  -1   5   18.62    3.43
   3   1   5   20.70    2.88
  -3   1  -5   17.89    3.38
   3  -1  -5   27.03    6.23
  -3  -1   5   25.72    3.88
  -3  -1   5   21.68    2.17
   3   2  -5    5.77    3.40
   3  -2   5    3.45    3.37
  -3   2   5   -0.23    3.59
   3  -2   5   -1.41    1.92
  -3  -2  -5  -10.29    6.85
   3   2   5   -4.25    2.27
  -3  -2   5    1.07    3.68
  -3   2  -5   -0.35    3.24
  -3   2  -5   -0.17    2.62
  -3  -2   5    2.44    1.76
   3  -2  -5   -5.55    6.61
  -3   3   5    6.70    6.09
   3  -3   5    2.60    5.09
   3  -3   5   -0.54    2.99
  -3  -3  -5   21.63   10.71
   3   3  -5   11.93    5.24
   3  -3  -5   11.60    9.97
  -3  -3   5    4.85    3.21
  -3  -3   5   12.13    6.11
  -3   3  -5    4.16    4.81
  -3   3  -5    3.69    5.65
   3   0   6   15.17    2.63
  -3   0  -6   12.15    2.60
  -3   0   6    9.14    2.13
   3   0  -6   13.45    2.75
  -3  -1  -6    0.26    2.38
   3  -1   6    3.16    3.53
   3  -1   6    0.60    2.42
  -3   1   6    0.44    3.34
   3   1  -6    1.21    3.00
  -3  -1   6   -1.98    2.20
  -3  -1   6    3.52    3.61
  -3   1  -6   -2.55    2.79
   3  -1  -6   -3.08    2.13
   3  -1  -6   -2.57    6.98
   3   1   6    1.82    2.40
   3  -2   6   -3.84    4.08
  -3  -2  -6    0.32    3.38
   3  -2   6    1.34    2.54
  -3   2   6    6.38    4.64
  -3  -2  -6   -1.53    8.93
   3   2  -6    5.22    4.41
   3   2   6   -0.35    3.01
  -3  -2   6    7.17    4.57
  -3  -2   6    3.49    2.28
   3  -2  -6   -0.71    8.43
  -3   2  -6   -0.22    4.01
  -3   2  -6   -0.84    3.24
  -3   3   6   12.57    6.98
   3  -3   6    2.64    6.08
   3  -3   6    2.51    3.70
  -3  -3  -6  -11.17   11.66
   3   3  -6   13.71    6.63
  -3  -3   6   -0.21    3.56
  -3   3  -6    5.71    6.37
  -3  -3   6   -0.92    6.16
   3  -3  -6   -2.72   11.32
   3   0   7   13.94    3.19
   3   0  -7   20.00    9.77
  -3   0  -7   12.77    3.93
  -3   0   7   15.82    2.96
   3   0  -7   22.12    3.53
   3   1  -7   10.36    3.74
   3  -1   7    3.11    3.09
   3  -1   7    2.90    4.39
  -3  -1  -7    4.27    3.93
  -3  -1   7    8.66    2.79
   3  -1  -7   -7.35    9.16
   3   1   7    3.89    3.17
  -3  -1   7    2.26    4.42
  -3   1  -7    8.01    3.64
   3  -1  -7    7.34    3.26
   3  -2   7    8.53    3.76
  -3  -2  -7   19.42   12.15
  -3   2   7    3.48    5.92
  -3  -2  -7   -1.02    4.80
   3  -2   7    9.99    5.96
  -3  -2   7    6.80    5.45
   3  -2  -7   14.09   11.04
   3   2   7   -1.42    3.55
   3  -2  -7    6.50    3.56
  -3  -2   7    3.37    3.34
  -3   2  -7    7.98    4.45
  -3   2  -7    1.14    5.14
   3   0  -8   15.15   12.38
   3   0   8   -1.32    4.08
  -3   0  -8   -0.45    4.71
  -3   0   8   15.09    6.55
   3  -1   8    9.88    4.38
  -3  -1  -8   14.47    5.01
   3  -1   8   11.26    5.64
   3   1   8    4.12    4.53
  -3  -1   8    9.11    5.48
   3  -1  -8   12.31   12.78
  -3   1  -8   11.58    5.46
  -4   0   0  384.76    6.60
   4   0   0  363.79    6.56
   4   0   0  371.12    6.71
  -4   0   0  373.88    6.74
   4  -1   0    1.95    1.97
  -4   1   0    1.72    1.30
  -4   1   0    2.40    1.18
   4  -1   0    3.06    1.01
  -4   1   0    5.13    5.50
  -4  -1   0    3.22    1.02
   4  -1   0    4.56    1.68
  -4  -2   0   35.25    4.31
  -4   2   0   36.77    3.45
   4  -2   0   33.02    4.67
  -4  -2   0   28.99    3.40
  -4   2   0   35.72    2.95
  -4   3   0    7.32    3.56
  -4   3   0    9.09    3.30
  -4  -3   0   12.62    5.44
   4  -3   0    6.90    5.31
   4  -4   0    8.11    8.22
  -4  -4   0    2.53    8.59
  -4   4   0   12.69    5.93
   4   0   1  437.07    8.06
  -4   0   1  423.05    7.77
  -4   0  -1  428.24    7.82
  -4   0  -1  429.02    7.90
   4   0   1  429.69    7.84
  -4   0  -1  436.55    8.05
  -4   0   1  425.69    8.11
  -4  -1  -1    2.64    1.21
   4  -1   1    3.68    1.83
  -4   1   1    2.79    1.29
   4  -1   1    2.85    1.16
  -4   1   1    2.23    1.31
  -4  -1   1    1.60    0.82
  -4   1  -1    1.06    1.34
  -4  -1   1    1.29    1.32
   4  -1  -1    0.38    2.28
   4  -1  -1    2.76    1.62
   4   1   1    2.49    1.00
  -4   1  -1    2.74    1.19
  -4   2   1   82.86    4.07
  -4   2   1   80.97    3.99
   4  -2   1   75.24    5.40
  -4  -2  -1   76.02    5.32
   4  -2   1   77.47    3.49
   4  -2  -1   83.48    5.87
  -4  -2   1   86.88    4.94
  -4   2  -1   81.71    4.44
  -4   2  -1   84.58    3.75
   4  -3   1   11.86    2.71
   4  -3   1   14.18    5.34
  -4   3   1   12.63    3.69
  -4  -3  -1   13.64    6.28
   4  -3  -1   11.28    5.66
  -4   3  -1   13.98    4.19
  -4   3  -1   14.16    3.67
  -4  -3   1   28.96    5.84
  -4   4   1    9.78    5.74
   4  -4   1    7.37    4.00
  -4  -4  -1   11.80   10.37
   4  -4   1    6.09    8.09
  -4  -4   1   15.79    8.20
  -4   4  -1   10.08    5.82
   4  -4  -1    6.05    8.50
  -4   0   2  103.81    2.77
   4   0   2  104.14    3.01
  -4   0  -2  102.25    3.22
   4   0   2   96.65    2.71
  -4   0   2  104.24    2.84
  -4   0  -2  102.97    3.71
   4   0  -2  106.11    2.86
   4  -1   2    5.40    2.04
  -4   1   2    7.34    1.98
   4  -1   2    7.87    1.52
  -4   1  -2    5.96    1.59
   4   1   2    8.99    1.39
  -4   1  -2    4.78    1.41
  -4  -1   2    7.26    1.76
   4  -1  -2    4.86    2.95
  -4  -1   2    9.29    1.54
   4  -1  -2    9.30    2.08
  -4   2   2    6.60    2.44
  -4  -2  -2    5.81    4.08
   4  -2   2    8.33    3.40
   4  -2   2    6.88    2.00
  -4   2  -2    7.66    2.28
  -4   2  -2    7.92    2.71
   4  -2  -2    8.30    4.62
  -4  -2   2   12.16    3.57
  -4  -3  -2    8.86    6.87
  -4   3   2   -0.73    3.65
   4  -3   2    3.06    2.75
   4  -3   2    4.45    4.54
  -4  -3   2   -6.52    5.01
  -4   3  -2   11.46    4.30
   4  -3  -2   -4.84    5.72
  -4   3  -2    0.65    3.37
   4  -4   2   -2.89    3.93
   4  -4   2    5.24    7.45
  -4  -4  -2  -17.02   10.22
  -4   4   2    5.25    6.46
   4  -4  -2   -4.95    9.30
  -4  -4   2    8.05    7.94
  -4   4  -2   10.81    6.21
  -4   4  -2   -0.04    5.90
   4   0   3    3.73    1.13
   4   0  -3    1.68    2.49
   4   0   3   -0.23    1.40
  -4   0   3    2.29    1.36
  -4   0   3    4.81    1.43
  -4   0  -3    2.77    1.23
   4   0  -3    0.47    2.02
   4   0  -3    0.61    1.57
   4  -1   3   23.48    3.15
   4  -1   3   23.44    2.18
  -4   1   3   23.88    2.59
  -4   1  -3   21.38    2.67
  -4  -1   3   21.89    1.18
   4  -1  -3   21.34    2.07
  -4  -1   3   21.61    2.59
   4  -1  -3   27.99    3.34
   4   1   3   20.52    2.13
   4  -1  -3   22.41    4.35
  -4   2   3    9.96    3.03
   4  -2   3   10.56    3.78
  -4  -2  -3    8.43    5.05
   4  -2   3   10.81    2.32
  -4  -2   3   11.07    3.32
   4  -2  -3   16.26    5.35
  -4   2  -3   13.87    2.70
  -4  -2   3   12.32    1.85
  -4   2  -3    8.16    2.96
  -4   3   3   -5.02    3.54
   4  -3   3    1.92    2.68
  -4  -3  -3    7.34    7.21
   4  -3   3    1.85    4.71
  -4  -3   3   -5.40    5.43
   4  -3  -3    9.66    7.40
  -4   3  -3   -0.48    4.90
  -4   3  -3   -0.22    3.69
  -4   4   3    0.74    6.07
   4  -4   3    9.65    4.77
   4  -4   3    7.67    7.88
  -4  -4  -3   -7.44   10.62
   4  -4  -3    5.67   11.56
  -4   4  -3    3.55    6.90
  -4   4  -3    6.31    6.80
  -4  -4   3    3.50    8.80
  -4  -4   3   -4.48    3.80
   4   0  -4   13.24    4.39
  -4   0   4   14.60    2.44
   4   0  -4   16.73    2.95
   4   0   4   14.12    2.18
  -4   0   4   14.96    2.29
   4   0  -4   16.43    1.81
  -4   0  -4   11.39    2.00
   4   0   4   17.56    2.59
   4   0  -4   11.94    3.50
  -4  -1  -4   -1.31    1.39
   4  -1   4   -0.63    2.46
   4   1  -4    9.65    4.62
  -4   1   4    2.51    2.24
   4  -1   4   -0.32    1.38
   4  -1  -4   -3.87    3.35
   4   1   4    2.70    1.65
  -4  -1   4    0.24    2.23
  -4  -1   4    1.35    0.98
   4  -1  -4    4.05    4.55
  -4   1  -4   -0.82    1.98
  -4   2   4   24.57    4.11
   4  -2   4   19.11    2.78
   4  -2   4   24.20    4.21
  -4   2  -4   19.12    3.15
  -4  -2   4   26.36    4.03
  -4   2  -4   14.87    3.18
   4  -2  -4   25.40    7.00
  -4  -2   4   22.79    2.47
   4   2   4   18.75    3.08
   4  -3   4   -3.54    4.74
  -4   3   4    2.01    4.56
   4  -3   4    3.66    3.10
  -4  -3  -4   -2.38    8.38
  -4  -3   4    5.77    6.25
  -4   3  -4   11.52    4.42
  -4  -3   4    7.06    3.22
   4  -3  -4    9.49    8.84
  -4   3  -4    8.81    5.22
   4   0  -5   35.96    2.48
  -4   0   5   31.31    3.54
   4   0  -5   41.56    6.86
   4   0   5   36.67    3.13
  -4   0  -5   34.63    3.25
   4   0   5   41.50    3.44
   4   0  -5   37.40    2.99
  -4   0   5   37.41    2.05
  -4   1   5   15.46    3.34
  -4  -1  -5    3.90    2.27
   4  -1   5    7.65    3.40
   4  -1   5    5.67    2.15
   4   1  -5    5.68    2.51
  -4  -1   5    8.28    1.58
   4  -1  -5   16.60    6.49
   4   1   5    4.71    2.17
  -4  -1   5   10.53    3.17
  -4   1  -5    7.65    2.52
  -4   2   5   24.48    4.90
   4   2  -5   29.59    4.30
   4  -2   5   26.36    3.52
   4  -2   5   29.87    5.16
  -4   2  -5   26.68    3.73
  -4  -2   5   27.78    2.76
   4  -2  -5   39.81    8.87
  -4  -2   5   27.67    4.81
  -4   2  -5   24.20    4.42
   4   2   5   32.27    3.96
  -4   3   5    4.83    6.06
   4  -3   5   -1.71    4.98
  -4  -3  -5  -10.46   10.48
   4  -3   5    1.35    2.99
  -4  -3   5   -1.44    5.78
  -4   3  -5    2.42    4.37
   4  -3  -5   12.42   10.01
  -4  -3   5    4.40    3.32
  -4   3  -5   10.00    6.11
  -4   0   6   18.00    2.22
  -4   0  -6   16.08    3.19
   4   0   6   14.01    2.65
   4   0  -6   10.89    7.01
   4   0  -6   15.90    2.50
  -4   1   6   -4.20    3.47
   4  -1   6   -0.22    2.44
  -4  -1  -6    0.69    3.10
   4  -1   6    0.83    3.49
   4   1  -6    1.14    3.05
   4  -1  -6    4.35    2.50
  -4  -1   6    2.26    3.71
   4   1   6    4.98    2.76
  -4   1  -6    2.55    3.33
   4  -1  -6    7.15    7.54
  -4  -1   6   -2.18    1.92
  -4   2   6    3.95    5.00
   4  -2   6    6.69    3.18
   4  -2   6    7.33    4.72
  -4  -2  -6    3.72    3.48
   4   2  -6    6.71    4.77
  -4  -2   6    1.41    2.42
  -4  -2   6   12.91    4.79
   4   2   6    8.09    3.83
  -4   2  -6    9.22    3.62
   4  -2  -6    3.99    9.00
  -4   2  -6   11.67    4.92
  -4  -3  -6   -2.79   12.50
   4  -3   6   -0.03    3.83
  -4   3   6  -13.43    6.69
   4  -3   6   -3.72    6.62
  -4   3  -6    7.34    6.50
   4  -3  -6    6.64   12.17
  -4  -3   6    0.30    6.33
  -4   0  -7    8.16    3.74
   4   0  -7    7.49    9.26
  -4   0   7    8.80    2.61
   4   0   7    9.36    3.23
  -4  -1  -7   10.72    4.02
   4  -1   7   15.45    3.90
   4  -1   7   19.96    4.99
   4  -1  -7   15.29    3.77
   4  -1  -7   19.54   10.10
  -4   1  -7    6.76    4.60
  -4  -1   7   19.20    5.18
   4   1   7   11.17    3.69
  -4  -2  -7    9.35   11.94
  -4   2   7   -2.74    6.14
  -4  -2  -7    6.44    4.76
   4  -2   7    0.50    3.71
   4  -2   7   -1.48    5.26
  -4   2  -7    7.45    4.71
   4   2   7    6.95    3.77
   4  -2  -7    1.94    3.61
  -4  -2   7    5.51    5.38
   4  -2  -7  -21.25   10.52
  -4   2  -7   -7.50    5.25
  -4   0  -8    6.13    4.51
   4   0  -8   16.10   12.94
   4   0   8    1.29    4.10
   4   1  -8   -6.71   13.18
   4  -1   8    0.21    4.33
  -4  -1  -8   -1.31    4.79
   4  -1   8   -2.51    5.38
   4  -1  -8   12.82   12.17
  -4  -1   8   -2.13    5.59
  -4   1  -8    4.16    5.71
   4   1   8   -2.00    4.35
  -5   0   0   -0.09    0.94
   5   0   0    0.28    0.68
  -5   0   0   -0.71    0.79
  -5   0   0    1.67    0.92
   5  -1   0   -2.88    1.73
  -5   1   0    1.27    1.30
  -5   1   0   -0.71    1.41
   5  -1   0   -1.97    0.96
  -5  -1   0    2.13    1.11
   5   1   0    0.94    0.88
   5  -1   0    1.76    1.94
  -5   2   0   -3.03    2.26
  -5   2   0   -0.93    2.02
  -5  -2   0   -3.30    3.01
   5  -2   0   -4.05    3.28
  -5   3   0   -1.15    3.26
   5  -3   0    4.48    5.30
  -5  -3   0    5.15    5.43
  -5   3   0    0.93    3.68
   5  -4   0    3.29    8.04
  -5   4   0    3.26    6.13
  -5  -4   0   -0.33    9.04
  -5   0  -1   29.62    2.18
   5   0   1   26.46    1.58
  -5   0  -1   25.44    1.72
   5   0  -1   26.04    0.96
  -5   0  -1   25.45    1.72
  -5   0   1   23.65    1.64
   5  -1   1   52.39    3.15
  -5   1   1   49.35    2.70
   5  -1   1   49.99    2.37
  -5   1   1   46.34    2.59
  -5   1  -1   51.56    2.96
   5  -1  -1   48.45    3.56
   5   1   1   52.83    2.32
  -5  -1   1   51.33    1.74
  -5   1  -1   51.28    2.47
   5  -1  -1   52.96    2.08
   5  -1  -1   52.09    2.82
   5  -2   1    2.81    1.77
  -5   2   1    4.71    2.37
  -5   2   1    0.95    2.39
  -5  -2  -1   10.98    3.82
   5  -2   1    8.36    3.57
  -5   2  -1    2.68    2.77
   5  -2  -1    0.45    3.96
  -5   2  -1    3.95    2.09
  -5   3   1   13.29    3.95
   5  -3   1   14.09    2.99
   5  -3   1   14.15    5.56
  -5  -3  -1   17.07    6.55
   5  -3  -1   22.48    6.36
  -5   3  -1    7.26    3.65
  -5   3  -1   14.69    4.49
  -5  -3   1   13.29    5.26
   5  -4   1    4.69    7.69
  -5  -4  -1    6.03   10.61
  -5   4   1    0.10    6.67
   5  -4   1    0.81    3.89
  -5   4  -1    2.50    6.21
  -5   4  -1    2.24    6.36
  -5  -4   1    8.67    8.59
   5  -4  -1    0.49    8.51
  -5   0  -2   12.95    1.95
  -5   0   2   12.78    1.65
   5   0  -2   12.09    1.99
   5   0   2   14.48    1.72
   5  -1   2   30.69    2.28
   5  -1   2   27.63    2.91
  -5   1   2   30.17    2.41
  -5   1  -2   25.22    2.56
  -5  -1   2   30.28    2.38
   5  -1  -2   31.10    2.65
  -5   1  -2   27.64    2.31
   5   1   2   28.77    2.06
  -5  -1   2   27.61    1.23
   5  -1  -2   30.98    4.07
   5  -2   2    5.04    3.44
  -5   2   2    3.02    2.46
   5  -2   2    7.72    2.23
  -5  -2  -2    3.40    4.26
  -5   2  -2   -0.14    2.04
  -5   2  -2    3.53    2.88
   5  -2  -2    2.07    4.44
  -5  -2   2    9.48    3.58
  -5   3   2   -2.07    3.79
   5  -3   2    1.14    2.82
   5  -3   2    6.11    4.75
  -5  -3  -2   -0.57    6.43
  -5   3  -2   -6.57    3.73
   5  -3  -2   -8.71    5.90
  -5   3  -2   -5.20    3.27
  -5  -3   2   -0.13    5.50
  -5  -4  -2  -22.74   10.87
  -5   4   2   -6.19    5.99
   5  -4   2    1.76    7.76
   5  -4   2    0.33    4.27
  -5  -4   2   -1.16    8.68
  -5   4  -2    4.35    6.13
  -5   4  -2   13.19    6.89
   5  -4  -2    0.30    9.73
  -5   0   3  192.96    4.65
  -5   0  -3  180.78    5.31
   5   0   3  188.88    4.94
   5   0  -3  187.47    4.66
   5  -1   3   91.46    3.64
  -5   1   3   92.79    3.93
   5  -1   3   91.43    4.44
  -5  -1  -3   92.65    3.68
   5  -1  -3   92.93    2.94
   5   1   3   94.60    3.54
   5  -1  -3   79.08    5.67
  -5   1  -3   86.39    4.12
   5  -1  -3   98.54    4.13
  -5  -1   3   95.06    3.59
   5  -2   3   28.07    4.36
  -5   2   3   31.14    3.88
   5  -2   3   32.62    3.10
  -5   2  -3   31.36    4.12
  -5  -2   3   29.82    2.44
   5  -2  -3   35.93    6.72
  -5  -2   3   26.30    4.40
   5   2   3   23.67    2.96
  -5   2  -3   27.23    3.36
   5  -3   3   30.13    4.27
   5  -3   3   26.72    6.16
  -5  -3  -3   38.63    8.88
  -5   3   3   37.72    5.72
  -5   3  -3   27.97    5.69
  -5  -3   3   37.55    7.22
  -5   3  -3   34.80    5.40
   5  -3  -3   32.58    8.66
  -5   0  -4    2.89    2.10
   5   0   4    5.92    1.83
   5   0  -4    6.80    3.59
  -5   0   4   13.19    2.15
   5   0  -4   11.97    3.97
  -5  -1  -4   15.92    2.60
   5  -1   4   21.49    3.65
   5  -1   4   14.89    2.44
  -5   1   4   18.36    2.95
  -5  -1   4   18.58    3.36
  -5   1  -4   17.18    2.97
   5  -1  -4   27.69    3.94
   5  -1  -4   17.23    2.17
   5  -1  -4   22.33    5.63
   5   1   4   16.56    2.46
  -5   2   4    1.06    2.91
   5  -2   4    4.41    2.06
   5  -2   4    4.15    3.78
  -5  -2   4    3.95    1.62
  -5  -2   4    4.51    3.23
   5  -2  -4   12.21    6.56
  -5   2  -4    1.49    3.28
   5   2   4    6.44    2.38
  -5   2  -4    3.91    2.62
   5  -3   4    1.81    3.09
   5  -3   4   -0.24    5.05
  -5  -3  -4   21.67    9.73
  -5   3   4    4.45    5.20
  -5   3  -4    8.88    5.81
   5  -3  -4    3.13    8.99
  -5   3  -4   -2.77    4.03
  -5  -3   4   12.39    6.29
  -5  -3   4   -1.38    3.31
  -5   0   5   64.98    4.06
  -5   0  -5   47.15    3.78
   5   0   5   54.33    3.62
   5   0  -5   55.96    7.37
  -5  -1  -5    0.74    2.30
   5  -1   5    2.36    2.27
  -5   1   5    1.43    3.07
   5  -1   5    4.53    3.37
   5   1   5    3.53    2.28
   5  -1  -5   11.65    6.64
  -5  -1   5   -0.81    3.08
  -5   1  -5    0.10    2.69
   5  -2   5    1.33    2.49
   5  -2   5   -0.64    4.09
  -5   2   5   -3.81    3.37
   5   2   5    5.27    3.02
  -5   2  -5   -0.96    3.56
  -5  -2   5    0.67    1.81
  -5  -2   5    2.80    3.82
  -5   2  -5    4.76    3.07
   5  -2  -5  -19.89    7.47
   5  -3   5   -0.22    3.44
   5  -3   5    1.90    5.62
  -5  -3  -5    4.52   11.49
  -5   3   5    5.39    6.18
  -5  -3   5   -1.79    5.99
  -5   3  -5    6.27    5.22
  -5   3  -5   -1.90    5.51
   5  -3  -5  -13.50   10.12
   5   0  -6    0.98    6.55
   5   0   6    3.73    2.37
  -5   0  -6    5.77    2.77
   5  -1   6   22.93    4.64
   5   1  -6   15.91    6.57
  -5  -1  -6   13.47    3.23
   5  -1   6   12.23    3.21
  -5   1   6   18.28    4.33
   5  -1  -6   17.64    3.12
  -5  -1   6   16.62    4.27
   5   1   6   11.67    2.90
  -5   1  -6   11.34    3.76
   5  -1  -6   15.99    8.33
   5  -2   6   -4.02    4.84
  -5  -2  -6   -1.16    3.41
  -5   2   6    2.07    5.32
   5  -2   6   -0.44    2.83
   5  -2  -6   15.75   10.04
  -5   2  -6   -1.09    4.65
   5   2   6   -6.19    3.52
  -5  -2   6    1.71    5.10
  -5   2  -6    2.10    4.09
  -5   0  -7   -4.25    3.82
   5   0  -7  -17.25    8.83
   5   0   7   10.37    3.38
   5  -1   7    7.62    4.93
   5   1  -7    8.45    9.14
  -5  -1  -7    7.31    4.24
   5  -1   7    9.16    3.76
  -5  -1   7    7.41    4.92
  -5   1  -7   -5.00    4.76
   5  -1  -7  -11.73   10.09
   5   1   7   -0.11    3.48
   5  -2   7    9.27    6.43
  -5  -2  -7    9.27    4.62
  -5   2   7    9.18    6.92
   5  -2   7    5.67    4.01
   5  -2  -7   12.28   12.71
   5   2   7   12.84    5.08
  -5  -2   7   -4.91    5.68
  -5   2  -7   -3.18    5.48
  -5   2  -7    4.15    5.53
  -5   0  -8   15.37    5.40
   5   0  -8  -35.12   12.30
   5   0   8    2.54    4.54
   6   0   0   18.07    1.27
  -6   0   0   18.12    1.79
  -6   0   0   19.37    1.68
  -6   0   0   20.63    1.83
   6  -1   0   17.48    1.90
  -6  -1   0   20.80    1.95
   6  -1   0   14.89    2.63
   6   1   0   23.43    1.78
  -6   1   0   16.98    2.18
  -6   1   0   20.04    2.56
   6  -2   0    1.49    3.80
   6  -2   0    3.27    1.86
  -6   2   0    6.36    2.56
  -6   2   0    7.63    2.68
   6  -3   0    3.94    2.82
  -6  -3   0   -2.68    5.82
  -6   3   0   -8.24    3.88
   6  -3   0   -0.56    5.82
  -6   3   0    1.56    3.94
   6  -4   0    0.73    8.52
  -6   4   0    5.81    6.41
  -6  -4   0  -10.93   10.12
   6  -4   0   12.49    4.65
  -6   0  -1    4.45    1.27
  -6   0  -1    2.51    2.09
   6   0   1    6.28    1.21
   6   0  -1    1.99    0.76
  -6   0   1    1.38    1.23
  -6   0   1    2.17    1.04
  -6   1   1  193.52    5.22
  -6   1   1  186.52    5.23
   6  -1   1  196.10    4.92
   6  -1   1  194.90    5.16
  -6   1  -1  190.41    5.32
   6   1   1  198.09    4.69
   6  -1  -1  198.76    5.08
   6  -1  -1  196.15    5.65
   6  -1  -1  197.03    4.53
  -6  -1   1  196.55    3.97
  -6   1  -1  199.51    5.57
   6  -2   1    3.29    1.93
  -6   2   1    5.39    2.48
  -6  -2  -1    1.54    4.03
  -6   2   1    7.93    2.64
   6  -2   1   10.23    3.64
  -6   2  -1    3.15    2.44
   6  -2  -1   11.51    4.31
  -6   2  -1    5.33    2.29
   6  -3   1    2.88    3.05
  -6  -3  -1    1.59    6.50
   6  -3   1   11.63    5.55
  -6   3   1   12.48    4.08
  -6  -3   1   13.29    5.67
  -6   3  -1    8.05    4.09
  -6   3  -1    8.69    4.50
   6  -3  -1   12.24    6.57
  -6   4   1   17.48    6.93
   6  -4   1   -8.20    4.45
   6  -4   1    1.98    8.03
  -6  -4  -1   34.11   12.65
  -6  -4   1   12.32    9.69
  -6   4  -1   -4.36    6.69
  -6   4  -1    6.95    6.02
   6  -4  -1   19.84    9.66
   6   0   2   35.93    2.25
  -6   0   2   38.46    2.34
  -6   0  -2   35.80    2.40
  -6   0   2   42.82    4.65
  -6  -1  -2    2.01    1.49
  -6   1   2    2.03    1.93
   6  -1   2    0.99    1.30
   6  -1   2    0.98    2.09
   6  -1  -2    1.24    2.12
   6  -1  -2    1.36    1.13
   6   1   2    1.14    1.32
   6  -1  -2   -4.58    2.62
  -6   1  -2    1.99    1.79
  -6   1  -2    1.63    1.70
   6  -1  -2    5.41    2.04
  -6   2   2    0.96    2.49
   6  -2   2    2.72    2.11
   6  -2   2   -1.22    3.44
  -6  -2  -2    1.41    4.75
  -6   2  -2    0.09    2.75
   6  -2  -2   -1.56    4.53
  -6  -2   2   -3.10    3.39
  -6   2  -2    0.34    2.31
   6  -3   2    7.88    5.45
  -6   3   2    8.80    4.26
  -6  -3  -2    5.00    7.48
   6  -3   2    6.03    3.08
  -6   3  -2    2.68    4.54
   6  -3  -2   17.39    7.44
  -6  -3   2    3.46    6.43
  -6   3  -2   -3.67    3.75
  -6   0  -3   35.39    2.91
   6   0   3   39.07    2.75
  -6   0   3   39.90    2.67
  -6  -1  -3    0.61    1.92
   6  -1   3   -3.17    2.31
  -6   1   3   -1.17    2.11
   6  -1   3   -0.27    1.71
   6  -1  -3    3.49    2.22
   6  -1  -3    0.54    1.49
   6  -1  -3   -3.58    3.72
   6  -1  -3   -2.81    3.16
   6   1   3   -0.60    1.49
  -6   1  -3   -2.60    1.94
   6  -2   3    6.71    2.38
   6  -2   3    8.71    3.62
  -6   2   3    8.30    3.17
  -6  -2   3   10.47    3.63
   6   2   3    1.18    2.14
  -6   2  -3    0.27    2.83
   6  -2  -3    8.99    5.83
  -6   2  -3    5.51    2.67
  -6  -2   3    8.59    1.73
   6  -3   3   11.44    3.81
  -6  -3  -3    9.53    8.48
  -6   3   3   10.49    4.81
   6  -3   3   11.26    5.55
   6  -3  -3   20.58    8.49
  -6   3  -3    0.37    4.15
  -6  -3   3   16.64    6.41
  -6   3  -3   14.51    5.10
   6   0   4    4.10    2.00
  -6   0  -4    6.43    2.25
  -6   0   4    2.54    2.27
   6  -1   4    0.32    1.66
   6  -1   4    2.04    2.82
  -6  -1  -4    2.88    2.22
  -6   1   4    4.75    2.71
   6   1   4    2.51    1.93
   6  -1  -4    4.78    4.94
   6  -1  -4    4.51    3.19
   6  -1  -4    4.38    2.25
  -6  -1   4    5.93    2.63
  -6   1  -4    3.13    2.78
   6  -2   4    5.34    3.84
  -6   2   4    0.77    3.44
   6  -2   4    4.00    2.70
  -6   2  -4    1.43    2.43
  -6   2  -4   -3.07    2.82
   6  -2  -4   -3.96    7.08
  -6  -2   4    0.19    3.25
   6   2   4    7.14    2.75
  -6  -2   4   -1.49    1.42
   6  -3   4   -5.52    3.40
   6  -3   4   -5.64    5.19
  -6   3   4    6.46    5.18
  -6  -3  -4   -1.21    9.47
  -6   3  -4    0.77    5.47
   6  -3  -4    2.81    9.85
  -6   3  -4    3.05    4.84
  -6  -3   4   -2.28    3.64
  -6  -3   4   -1.63    6.28
  -6   0  -5    1.45    2.56
   6   0  -5   -1.30    4.84
   6   0   5   -1.16    2.03
  -6   0   5    3.19    3.03
   6  -1   5   20.87    3.15
  -6  -1  -5   26.03    3.57
  -6   1   5   25.08    3.96
   6  -1   5   25.32    4.17
   6  -1  -5   31.61    7.26
  -6   1  -5   23.04    3.96
   6   1   5   25.69    3.66
  -6  -1   5   28.56    4.59
   6  -2   5    2.14    4.62
  -6   2   5    1.30    3.85
  -6  -2  -5   -4.36    2.61
   6  -2   5    0.16    2.88
  -6   2  -5    2.51    3.48
  -6  -2   5    3.94    4.18
   6   2   5    0.71    3.07
   6  -2  -5   11.62    8.53
  -6   2  -5   -0.22    3.98
  -6  -3  -5   29.18   12.24
   6  -3   5   20.22    6.48
  -6   3   5   14.56    5.75
   6  -3   5   12.19    4.01
  -6   3  -5    6.26    5.59
  -6  -3   5    6.33    6.55
   6  -3  -5    5.71   11.85
  -6   3  -5    2.92    6.02
  -6   0  -6   -1.24    3.25
   6   0   6    1.30    2.79
  -6   0   6    1.85    3.70
   6   0  -6    7.40    6.85
   6  -1   6   -0.09    2.97
   6  -1   6    6.15    4.28
  -6  -1  -6    4.77    3.13
   6   1   6    3.81    2.93
  -6  -1   6   -2.06    3.99
   6  -1  -6   -0.89    7.92
  -6   1  -6    2.22    3.66
  -6   2   6    9.02    5.71
  -6  -2  -6   -0.74    4.31
   6  -2   6   -3.10    5.13
   6  -2   6    1.33    3.42
  -6   2  -6   -0.53    4.38
   6   2   6    3.32    4.02
   6  -2  -6   -4.64   10.46
  -6  -2   6   -2.61    5.18
  -6   2  -6    4.13    5.18
   6   0   7    0.79    3.55
   6   0  -7    8.82    8.93
  -6   0  -7   10.89    4.76
   6  -1   7   16.00    4.43
  -6  -1  -7    6.79    4.20
   6  -1   7   12.01    5.28
  -6  -1   7   22.86    5.55
  -6   1  -7    3.59    5.25
   6   1   7    8.48    4.30
   6  -1  -7   30.13   11.58
  -7   0   0    1.80    1.57
  -7   0   0   -0.26    1.24
  -7   0   0    1.31    1.36
   7   0   0   -0.03    0.98
  -7   0   0   -2.79    2.58
   7  -1   0    0.67    1.36
  -7   1   0    1.54    1.70
  -7   1   0    2.71    2.13
   7  -1   0   -1.97    1.64
  -7  -1   0    0.73    1.28
   7   1   0   -1.13    1.22
  -7  -1   0    4.07    1.71
  -7   2   0    3.01    2.49
  -7   2   0    3.20    2.98
   7  -2   0    3.37    2.03
   7  -2   0   -1.00    3.71
   7  -3   0    1.46    6.10
  -7   3   0    1.07    4.40
  -7  -3   0   -0.27    6.19
   7  -3   0   -1.73    3.02
  -7   3   0    2.83    4.35
  -7   0  -1   28.19    4.47
  -7   0   1   29.39    2.29
  -7   0  -1   28.79    2.47
  -7   0   1   29.67    1.93
   7   0  -1   30.36    1.42
   7   0   1   31.64    1.95
  -7  -1  -1   20.02    2.15
  -7   1   1   18.05    2.48
   7  -1   1   19.52    2.56
  -7   1   1   18.67    2.83
   7  -1   1   19.97    2.26
  -7  -1   1   17.31    1.70
  -7   1  -1   16.72    2.83
   7   1   1   15.09    2.11
  -7   1  -1   18.20    2.48
   7  -1  -1   19.53    1.99
  -7  -1   1   17.98    1.72
  -7  -1   1   18.49    1.81
  -7   2   1   16.33    3.46
   7  -2   1   15.31    4.02
  -7  -2  -1   12.20    4.70
   7  -2   1    8.21    2.25
  -7   2   1   10.77    3.05
  -7   2  -1   12.12    3.28
  -7   2  -1   15.27    2.92
  -7  -2   1   16.27    4.26
   7  -2  -1   10.82    2.37
  -7  -2   1   11.63    5.08
   7  -2  -1    7.82    4.69
   7  -3   1    4.11    3.24
   7  -3   1   -0.73    5.70
  -7   3   1    5.58    4.35
  -7  -3  -1    0.90    7.34
  -7   3  -1   -0.92    4.50
   7  -3  -1   -4.25    6.53
  -7  -3   1   -4.84    6.62
  -7   3  -1   -1.99    4.16
   7  -3  -1   -0.15    3.19
  -7   0  -2    0.37    1.58
   7   0   2    1.97    1.54
  -7   0   2    1.70    1.98
  -7   0   2    6.50    6.75
  -7  -1  -2    8.06    2.03
   7  -1   2    6.50    2.41
   7  -1   2    4.91    1.70
  -7   1   2    7.36    2.37
  -7  -1   2    3.16    1.58
  -7   1  -2    4.89    2.16
   7  -1  -2    5.77    1.39
   7   1   2    7.64    1.64
  -7   1  -2    6.19    2.13
   7  -1  -2    3.94    2.31
   7  -1  -2    2.79    2.19
   7  -2   2    0.76    2.25
   7  -2   2    5.65    3.70
  -7   2   2    7.31    3.24
  -7   2  -2    4.05    2.64
   7  -2  -2    5.10    5.00
  -7   2  -2    5.20    3.21
  -7  -2   2   11.27    3.81
  -7   3   2    1.46    4.41
   7  -3   2    4.38    3.13
  -7  -3  -2   -9.97    8.42
   7  -3   2   -4.02    5.47
   7  -3  -2   -6.31    7.45
  -7  -3   2   -3.27    6.92
  -7   3  -2    5.54    5.14
  -7   3  -2   -2.36    4.37
  -7   0   3   75.75    3.71
   7   0   3   74.00    3.67
  -7   0  -3   74.03    3.76
   7  -1   3   42.43    3.80
   7  -1   3   44.40    3.17
  -7  -1  -3   47.98    3.32
  -7   1   3   46.07    3.62
   7   1   3   39.04    3.04
   7  -1  -3   45.77    4.25
  -7   1  -3   36.23    3.72
  -7   1  -3   37.41    3.21
   7  -1  -3   43.30    2.44
  -7  -1   3   39.19    3.16
   7  -1  -3   39.87    3.37
   7  -1  -3   43.51    2.23
   7  -1  -3   43.98    4.91
   7  -2   3   25.44    4.36
  -7   2   3   29.55    4.38
   7  -2   3   21.49    3.39
  -7  -2   3   28.11    4.10
   7   2   3   27.80    3.43
  -7   2  -3   26.88    4.06
   7  -2  -3   27.05    6.82
  -7   2  -3   27.27    4.84
  -7  -2   3   26.63    2.40
  -7  -3  -3   -8.41    8.55
   7  -3   3    1.65    5.57
   7  -3   3   -2.56    3.12
  -7   3   3    8.60    5.30
  -7  -3   3   -4.22    3.26
  -7   3  -3   -0.85    4.91
  -7   3  -3    2.37    4.93
   7  -3  -3   -3.82    8.77
  -7  -3   3    6.08    7.17
  -7   0   4   28.07    3.38
   7   0   4   27.94    3.37
  -7   0  -4   29.32    3.38
   7  -1   4    3.75    3.17
  -7  -1  -4    6.77    2.65
  -7   1   4    3.14    3.04
   7  -1   4    3.66    2.11
  -7  -1   4    2.08    3.00
   7   1   4    9.04    2.50
   7  -1  -4    8.00    5.48
  -7   1  -4    4.53    3.18
   7  -2   4   -2.73    4.18
  -7  -2  -4   -2.43    2.64
   7  -2   4    1.58    2.63
  -7   2   4    2.16    4.01
  -7   2  -4   -5.19    3.00
   7   2   4   -1.76    2.70
   7  -2  -4    1.44    7.22
  -7   2  -4   -2.57    3.75
  -7  -2   4   -5.64    3.98
  -7  -3  -4   -6.12   11.06
   7  -3   4    1.40    3.48
   7  -3   4    0.41    5.65
   7  -3  -4    4.56   10.35
  -7   3  -4   -2.85    5.44
  -7   3  -4   -5.19    4.97
  -7  -3   4    0.97    6.73
  -7   0  -5    0.80    2.72
   7   0   5    2.57    2.47
  -7   0   5    2.97    3.20
  -7   1   5   27.68    4.48
  -7  -1  -5   40.51    4.36
   7  -1   5   39.87    5.27
   7  -1   5   38.83    4.07
  -7   1  -5   35.01    5.00
   7   1   5   39.59    4.14
  -7  -1   5   32.63    5.04
   7  -1  -5   51.90    7.69
   7  -2   5    3.01    4.70
  -7  -2  -5    1.93    3.53
   7  -2   5   -4.31    2.72
  -7   2   5    1.22    4.50
   7   2   5   -1.62    3.35
  -7   2  -5    5.14    4.07
  -7   2  -5    0.79    4.65
   7  -2  -5    0.70    9.33
  -7  -2   5   10.03    4.91
  -7   0   6   15.45    4.36
   7   0   6   23.38    3.79
  -7   0  -6   28.45    4.89
  -7  -1  -6   -0.01    3.56
   7  -1   6    5.77    4.41
   7  -1   6    0.20    3.29
  -7  -1   6    2.72    4.45
   7   1   6    8.93    3.44
   7  -1  -6    5.03    8.19
  -7   1  -6    2.54    4.79
   7  -2   6   -0.71    3.48
  -7  -2  -6   -1.02    4.34
  -7   2   6  -13.40    5.82
   7  -2   6    1.61    5.53
   7   2   6    2.93    4.15
  -7   2  -6    2.28    5.11
  -7   2  -6    7.10    5.22
   7  -2  -6   13.34   11.98
  -7  -2   6   -4.97    5.93
  -7   0  -7    0.23    4.37
   7   0   7    3.56    4.01
   7  -1   7   -4.71    4.74
  -7  -1  -7    4.32    4.36
   7  -1   7    0.18    4.20
   7   1   7   -4.51    4.27
   7  -1  -7    1.15   11.75
  -7   1  -7    3.27    5.37
  -7  -1   7    8.51    5.60
   8   0   0   11.79    1.57
  -8   0   0   17.06    2.31
  -8   0   0    9.96    2.13
  -8   0   0    8.67    1.99
  -8   0   0    9.41    3.73
  -8   1   0   19.77    2.77
   8   1   0   20.10    2.28
  -8   1   0   18.88    3.08
   8  -1   0   24.34    2.53
  -8  -1   0   24.76    2.29
   8  -2   0   16.60    4.58
  -8   2   0    7.53    3.21
   8  -2   0   16.86    2.83
  -8   2   0   21.21    4.16
  -8   3   0    5.49    4.53
   8  -3   0    8.03    3.72
   8  -3   0    4.87    6.52
  -8   3   0   -1.08    5.03
   8   0  -1  127.08    2.95
  -8   0   1  130.01    4.19
   8   0   1  118.49    3.89
  -8   0  -1  127.98    4.35
  -8   0   1  124.03    3.53
  -8   0  -1  127.64    4.28
  -8   0   1  111.56    7.11
  -8   1   1   -0.81    1.81
  -8   1   1   -0.63    2.48
   8  -1   1    3.38    1.76
  -8  -1  -1   -4.46    1.62
   8   1   1    1.82    1.88
  -8   1  -1    0.57    2.12
   8  -1  -1    3.18    1.38
  -8  -1   1    2.88    1.70
  -8  -1   1    0.74    1.50
  -8   1  -1    0.76    2.09
  -8  -1   1    0.62    1.46
  -8  -2  -1   11.14    5.44
   8  -2   1   11.41    2.70
   8  -2   1    8.94    4.07
  -8   2   1    8.83    3.44
  -8   2   1   12.54    3.46
   8  -2  -1   12.47    2.84
   8  -2  -1   17.85    4.84
  -8   2  -1   11.73    3.14
  -8   2  -1   15.88    3.94
   8  -3   1    9.23    6.37
   8  -3   1    4.80    3.22
  -8  -3  -1  -13.53    8.65
  -8   3   1    0.18    5.13
   8  -3  -1   -3.27    7.24
  -8   3  -1    5.42    4.87
  -8   3  -1   11.57    5.76
   8  -3  -1   10.36    3.83
   8   0   2    1.31    1.72
  -8   0  -2    2.96    2.10
  -8   0   2   -0.45    2.08
  -8  -1  -2   11.27    2.28
   8  -1   2   13.68    2.55
  -8   1   2   15.76    2.94
   8  -1   2    6.79    2.05
   8   1   2    7.83    2.11
   8  -1  -2   11.51    1.56
  -8   1  -2    8.85    2.51
  -8  -1   2    8.94    2.04
  -8   1  -2    8.98    2.76
   8  -1  -2    5.11    2.72
   8  -2   2    0.37    2.11
   8  -2   2    6.38    3.62
  -8   2   2   -1.87    3.34
   8  -2  -2    3.60    2.54
  -8   2  -2    4.47    3.78
  -8   2  -2    6.52    3.47
   8  -2  -2    4.45    4.96
   8  -3   2    1.35    3.44
  -8  -3  -2   -3.87    9.79
   8  -3   2   10.25    6.22
  -8   3   2    6.90    5.14
   8  -3  -2   -7.80    8.27
  -8   3  -2    3.99    5.46
  -8   3  -2    2.08    5.27
   8  -3  -2    5.26    3.82
  -8   0   3   20.62    3.32
   8   0   3   20.78    2.87
  -8   0  -3   18.59    3.07
   8  -1   3    3.19    2.70
  -8   1   3    2.14    2.92
  -8  -1  -3    6.19    2.30
   8  -1   3    4.07    2.10
  -8   1  -3    8.77    2.62
  -8   1  -3    3.46    2.68
  -8  -1   3   10.36    2.58
   8  -1  -3    5.75    1.42
   8   1   3    7.28    2.13
  -8   2   3    2.49    3.52
  -8  -2  -3    0.13    2.47
   8  -2   3    1.51    2.49
   8  -2   3    1.37    4.05
  -8   2  -3    2.65    3.48
   8   2   3    4.24    2.64
   8  -2  -3   -3.54    2.38
   8  -2  -3    3.02    5.89
  -8   2  -3    1.68    3.29
  -8   3   3    4.05    5.47
   8  -3   3    9.43    6.22
  -8  -3  -3    0.86   11.01
   8  -3   3   -1.81    3.58
   8  -3  -3  -14.31    8.70
  -8   3  -3    4.32    5.47
  -8   3  -3   11.13    5.61
  -8   0  -4    6.04    2.73
  -8   0   4   14.40    3.19
   8   0   4    8.68    2.63
  -8   1   4    7.32    3.27
  -8  -1  -4   14.70    3.26
   8  -1   4    4.88    3.37
   8  -1   4    3.33    2.54
   8   1   4   11.31    2.77
  -8   1  -4    7.13    2.92
  -8  -1   4    7.30    3.37
  -8   1  -4    2.08    2.99
  -8  -2  -4    4.41    3.02
   8  -2   4    2.63    2.97
   8  -2   4    9.88    4.72
  -8   2   4    0.97    4.49
  -8  -2   4    3.88    4.83
   8  -2  -4    6.30    7.82
  -8   2  -4    8.32    3.93
   8   2   4    1.79    3.29
  -8   2  -4    3.82    4.27
  -8   3   4   -6.35    6.03
  -8  -3  -4  -14.29   12.63
   8  -3   4    5.28    4.14
   8  -3   4   -0.73    6.60
  -8   3  -4   -8.46    5.55
   8  -3  -4    3.19   11.36
  -8   3  -4   -1.70    5.47
  -8   0   5   12.13    3.57
  -8   0  -5   22.24    4.32
   8   0   5   11.28    3.04
  -8  -1  -5    0.83    3.25
   8  -1   5    3.67    4.11
   8  -1   5    3.17    2.96
  -8   1  -5   -1.80    3.50
   8   1   5    0.52    2.85
  -8  -1   5    1.62    3.70
  -8  -2  -5   10.05    4.31
   8  -2   5    8.85    3.72
  -8   2   5    3.48    5.15
   8  -2   5    7.86    5.43
   8   2   5   19.66    4.28
   8  -2  -5   16.05    9.55
  -8   2  -5   19.47    5.11
  -8   2  -5   14.89    6.00
  -8   0  -6   -4.38    3.91
   8   0   6    1.00    3.23
   8  -1   6    3.41    4.63
  -8  -1  -6    5.31    4.27
   8  -1   6   10.73    4.09
  -8  -1   6    8.79    4.85
   8   1   6    4.26    3.62
  -8   1  -6   -8.39    5.70
  -8   0  -7    8.98    5.17
   8   0   7    1.61    4.41
  -9   0   0    0.33    1.86
  -9   0   0   -1.53    2.17
   9   0   0    0.58    1.52
   9  -1   0    0.74    1.76
  -9   1   0   -3.49    2.61
   9   1   0    1.13    1.64
  -9   1   0   -0.54    2.31
  -9  -1   0   -2.79    1.92
  -9  -2   0    0.37    2.17
   9  -2   0   -3.32    2.46
  -9   2   0   -3.67    3.10
  -9   2   0   -7.17    3.38
   9  -2   0    1.32    3.86
   9  -3   0    8.58    4.01
   9  -3   0   11.60    7.14
  -9   3   0    9.31    5.48
  -9   3   0   -1.44    5.47
   9   0  -1    4.85    1.39
  -9   0  -1    6.13    2.18
  -9   0  -1    5.53    2.28
  -9   0   1    3.58    2.12
  -9   0   1    4.60    1.89
   9   0   1    2.81    1.81
  -9  -1  -1   16.28    2.55
  -9   1   1   11.97    2.79
  -9   1   1   15.19    3.38
   9  -1   1   10.76    2.25
   9   1   1   11.10    2.26
   9  -1  -1   13.83    1.97
  -9  -1   1   15.12    2.49
  -9   1  -1    5.04    2.77
  -9  -1   1   17.53    2.46
  -9   1  -1   15.24    2.94
   9  -2   1   -0.17    2.49
  -9   2   1   -2.08    3.43
   9  -2   1   10.24    3.83
  -9  -2  -1   -0.32    2.23
  -9  -2   1    2.79    2.55
  -9   2  -1    2.13    3.89
  -9   2  -1   -2.02    3.01
   9  -2  -1   -1.47    2.60
   9  -2  -1    3.69    4.35
  -9  -2   1   -0.81    2.13
   9  -3   1    1.24    3.95
  -9   3   1    3.26    5.94
   9  -3   1    3.73    6.49
   9  -3  -1   -2.57    7.85
  -9   3  -1   -9.88    4.90
  -9   3  -1    6.35    6.07
   9  -3  -1    5.23    4.09
  -9   0  -2   17.00    3.05
   9   0   2   16.70    2.73
  -9   0   2   20.29    3.17
  -9   1   2    9.75    3.02
  -9  -1  -2    4.68    2.25
   9  -1   2    4.17    2.32
  -9  -1   2    1.49    2.57
   9  -1  -2    2.29    1.46
   9   1   2    9.46    2.38
  -9   1  -2    2.87    2.69
  -9   1  -2    5.29    3.03
   9  -2   2    6.43    2.70
  -9   2   2    1.18    3.70
   9  -2   2    2.58    3.98
  -9  -2  -2    9.43    2.90
  -9   2  -2    3.30    4.00
   9  -2  -2    3.76    4.68
   9  -2  -2    0.57    2.79
  -9   2  -2   -2.95    3.20
   9  -3   2   17.73    4.45
   9  -3   2    9.83    6.61
  -9   3   2    9.33    5.89
   9  -3  -2   13.06    9.38
  -9   3  -2   -2.97    6.80
  -9   3  -2   12.85    5.97
   9  -3  -2   16.40    4.77
  -9   0   3   32.16    3.88
  -9   0  -3   29.68    3.71
   9   0   3   20.59    3.40
   9  -1   3   16.30    2.96
   9  -1   3   16.11    3.18
  -9  -1  -3   15.95    3.09
  -9   1   3   12.56    3.64
  -9   1  -3   12.09    3.39
   9   1   3   10.91    2.74
  -9   1  -3   13.92    3.49
   9  -2   3   -0.11    2.71
  -9  -2  -3    2.22    2.96
  -9   2   3   -1.60    4.03
   9  -2   3    5.15    4.83
  -9   2  -3    3.92    3.93
   9  -2  -3    0.02    3.08
   9   2   3    4.02    2.99
  -9   2  -3    0.25    4.27
   9  -2  -3    7.12    6.12
  -9   3   3  -11.34    5.63
   9  -3   3    0.07    3.81
   9  -3   3    4.70    6.68
  -9   3  -3    0.71    5.91
  -9   3  -3  -13.64    6.11
   9  -3  -3   -7.36    4.70
   9  -3  -3    0.15   10.22
  -9   0  -4   35.28    4.44
  -9   0   4   40.44    4.29
   9   0   4   36.10    4.13
   9  -1   4    3.63    2.65
  -9  -1  -4   -0.07    2.76
   9  -1   4    3.85    3.27
  -9   1  -4    5.84    3.31
  -9  -1   4    8.97    3.95
   9   1   4    1.82    2.74
  -9   1  -4   10.16    3.66
  -9   2   4    4.43    5.15
  -9  -2  -4    2.80    3.61
   9  -2   4    7.87    5.22
   9  -2   4   13.01    3.87
   9  -2  -4  -10.61    6.93
  -9   2  -4    5.86    4.74
  -9   2  -4    3.03    4.22
   9   2   4    7.04    3.74
  -9   0  -5   31.97    4.78
   9   0   5   30.12    4.29
  -9  -1  -5    5.93    3.59
   9  -1   5    9.38    3.66
   9   1   5    9.77    3.75
  -9   1  -5   -1.61    3.96
  -9   1  -5    5.85    5.14
  -9  -2  -5    3.54    4.41
  -9   2   5   10.04    6.26
   9  -2   5    8.95    4.09
   9  -2   5   11.49    6.44
   9   2   5    4.39    4.40
  -9   2  -5   -1.23    5.16
  -9   2  -5   15.08    4.85
  -9   0  -6    7.53    5.36
   9   0   6    6.03    4.00
  -9  -1  -6   10.34    5.20
   9  -1   6   13.90    4.60
  -9   1  -6    3.39    4.59
   9   1   6    9.55    4.61
  -9   1  -6    4.87    5.08
  10   0   0   25.97    2.82
 -10   0   0   35.50    3.74
 -10   0   0   24.11    3.03
 -10  -1   0   38.78    3.49
 -10   1   0   41.21    3.96
  10  -1   0   32.72    3.21
 -10   1   0   27.44    4.25
 -10   2   0   -0.57    4.06
  10  -2   0   -1.27    2.76
  10  -2   0   -2.29    3.56
 -10   2   0   -4.98    3.85
  10  -3   0   -0.79    7.18
 -10   3   0   10.73    6.33
 -10   3   0   14.67    6.23
  10  -3   0   15.16    4.40
 -10   0   1   -1.98    2.25
 -10   0  -1   -1.39    2.32
  10   0  -1    2.08    1.54
 -10   0  -1   -1.14    2.64
 -10   0   1    1.10    2.28
  10   0   1   -0.40    2.01
  10  -1   1   21.94    3.31
 -10  -1  -1   20.14    3.01
 -10   1   1   14.32    3.13
 -10   1   1   21.95    3.88
  10  -1  -1   19.31    2.82
 -10   1  -1   20.32    3.71
 -10   1  -1   19.30    3.66
  10   1   1   19.38    2.83
 -10   2   1    2.35    3.93
  10  -2   1   -1.19    2.70
  10  -2   1   -5.82    3.66
 -10   2   1    3.85    4.57
 -10  -2   1   -1.22    3.19
 -10   2  -1   -4.82    3.95
 -10   2  -1    5.31    3.76
  10  -2  -1   -0.30    2.98
  10  -3   1   14.49    7.08
 -10   3   1   -1.21    6.22
  10  -3   1    2.80    4.27
 -10   3  -1    8.04    6.57
  10  -3  -1    2.09    4.71
  10  -3  -1    1.37    8.07
 -10   3  -1   -6.47    5.51
 -10   0  -2   21.16    3.64
 -10   0  -2   22.75    3.64
  10   0   2   26.90    3.52
  10  -1   2    1.23    2.77
 -10   1   2    6.20    3.16
 -10  -1  -2   -0.14    2.32
 -10   1  -2    0.32    3.28
 -10   1  -2   -2.11    2.85
  10   1   2    0.44    2.63
 -10  -1   2    8.83    3.04
 -10   2   2    7.49    4.68
 -10  -2  -2   -2.07    2.80
  10  -2   2    1.95    4.28
  10  -2   2    2.75    2.85
 -10   2  -2   -4.60    4.25
  10  -2  -2    0.52    2.98
 -10   2  -2    1.44    4.47
 -10   0  -3    1.58    2.65
  10   0   3    1.16    2.74
 -10  -1  -3    4.41    2.97
 -10   1   3   10.07    4.20
  10  -1   3   10.96    3.13
 -10   1  -3   14.06    4.18
 -10   1  -3    9.57    3.40
  10   1   3    6.31    3.16
  10  -2   3    0.77    4.96
 -10  -2  -3   -2.79    3.24
  10  -2   3    2.43    2.92
 -10   2   3   -0.51    4.67
 -10   2  -3    3.39    5.19
  10   2   3    2.86    3.45
 -10   2  -3    3.76    4.54
 -10   0  -4    8.86    3.52
 -10   0   4    0.74    4.18
  10   0   4    9.28    3.16
  10  -1   4    1.56    3.35
 -10  -1  -4    5.06    3.82
  10   1   4   -4.12    3.04
 -10   1  -4    2.46    4.14
 -10   1  -4    2.64    4.02
 -10  -2  -4   -0.85    4.22
  10  -2   4   -3.57    3.29
  10  -2   4    2.14    5.66
 -10   2   4    3.22    5.92
 -10   2  -4   -2.20    4.78
 -10   2  -4    1.86    5.10
  10   2   4   -2.48    3.71
 -10   0  -5    3.22    4.61
  10   0   5    2.41    3.81
 -10  -1  -5    8.21    4.89
  10  -1   5    5.57    3.82
 -10   1  -5   -1.48    4.29
 -10   1  -5    0.50    5.10
  10   1   5   -5.45    3.85
 -11   0   0    1.54    2.91
  11   0   0   -3.27    2.52
 -11   0   0    0.36    2.66
 -11   1   0    3.74    3.16
  11  -1   0    0.18    2.35
 -11  -1   0   -0.11    3.11
  11  -2   0    1.91    3.35
 -11   2   0    2.57    5.05
  11   0   1   -1.11    2.33
 -11   0  -1    2.15    3.22
 -11   0  -1    4.43    2.99
 -11   0   1    2.67    2.71
 -11   1   1    3.52    3.78
  11  -1   1   -2.54    2.61
 -11  -1  -1    1.04    2.75
 -11   1   1    2.15    3.63
  11  -1  -1    6.96    2.60
  11   1   1   -0.03    3.00
 -11   1  -1   -4.04    3.46
 -11   2   1    4.15    4.73
  11  -2   1    3.00    3.34
 -11   2  -1   -1.91    4.41
  11  -2  -1   -1.91    3.17
 -11   2  -1    0.04    5.00
 -11   0  -2   -2.31    3.15
  11   0   2    3.26    2.90
 -11   0  -2    5.31    3.36
 -11   1   2    9.06    3.95
 -11  -1  -2   11.25    3.22
  11  -1   2   13.19    3.46
 -11   1  -2    7.14    3.85
  11   1   2   11.87    3.64
 -11   1  -2   15.65    4.30
 -11   2   2  -11.21    4.85
  11  -2   2    7.15    3.46
 -11   2  -2    9.52    5.22
 -11   2  -2    1.41    5.95
  11   0   3   14.28    3.65
 -11   0   3   18.10    4.99
 -11   0  -3    9.19    3.77
 -11   0  -3    6.80    3.86
  11  -1   3    5.60    3.51
 -11  -1  -3    5.68    3.39
 -11   1   3    6.06    4.87
 -11   1  -3    0.11    4.11
  11   1   3   -1.98    3.42
 -11   1  -3   -5.45    4.04
 -11  -2  -3   15.02    4.88
  11  -2   3   -0.38    3.63
 -11   2   3    3.49    5.39
 -11   2  -3    6.51    6.34
 -11   2  -3   -1.83    4.80
 -11   0  -4   -0.76    3.83
  11   0   4   -2.94    3.72
  11  -1   4   20.87    4.25
 -11  -1  -4   23.35    4.56
 -11   1  -4   22.68    5.51
 -11   1  -4   17.11    4.59
  11   1   4   25.05    4.55
  11   0   5   17.69    4.67
 -11   0  -5   13.57    5.09
 -12   0   0   21.15    3.86
 -12   0   0   16.45    3.84
  12  -1   0   -4.24    2.92
 -12   1   0   -0.89    3.69
  12  -2   0    2.73    3.93
 -12   2   0   14.98    5.75
  12   0   1    8.61    3.36
 -12   0  -1    5.07    3.57
 -12   1   1    4.98    4.08
 -12  -1  -1   -0.53    3.36
  12  -1   1    4.66    3.43
  12   1   1   -2.22    3.52
 -12   1  -1    4.73    4.45
  12  -2   1    4.55    4.12
 -12   2   1    2.38    5.33
 -12   2  -1   -5.66    4.81
 -12   2  -1   -2.53    6.79
 -12   0  -2   10.58    4.23
  12   0   2   12.15    3.63
 -12   1   2   10.33    4.84
  12  -1   2   16.13    4.18
 -12   1  -2    4.96    4.89
  12   1   2   18.24    4.34
 -12   1  -2    3.69    4.70
 -12   0  -3    5.86    4.80
  12   0   3    2.32    3.79
 -12   0  -3    8.04    4.48
 -12   0   3   11.34    6.78
  12  -1   3    3.57    3.92
 -12   1   3    1.44    5.80
 -12  -1  -3    3.56    4.40
 -12   1  -3   -3.39    4.52
  12   1   3    8.78    4.47
 -12   1  -3    6.60    5.42
 -12   0  -4   -5.64    5.28
  12   0   4    6.90    4.44
 -12   0  -4    2.08    5.09
 -13   0   0   14.54    4.40
 -13   1   0    3.87    4.48
 -13  -1   0    7.08    4.44
 -13   0  -1    0.25    4.30
  13  -1   1   -3.42    4.90
 -13  -1  -1    4.54    4.46
 -13   1   1    0.34    5.06
 -13   1  -1    1.86    4.88
  13   0   2   13.73    4.73
 -13   0   2   12.19    5.49
 -13   0  -2   14.46    5.06
   0   0   0    0.00    0.00
;
_shelx_hkl_checksum              21723
loop_
_space_group_symop_operation_xyz
'x, y, z'
'-x+1/2, -y, z+1/2'
'-x, y+1/2, -z'
'x+1/2, -y+1/2, -z+1/2'
'-x, -y, -z'
'x-1/2, y, -z-1/2'
'x, -y-1/2, z'
'-x-1/2, y-1/2, z-1/2'
loop_
_atom_site_label
_atom_site_type_symbol
_atom_site_fract_x
_atom_site_fract_y
_atom_site_fract_z
_atom_site_U_iso_or_equiv
_atom_site_adp_type
_atom_site_occupancy
_atom_site_site_symmetry_order
_atom_site_calc_flag
_atom_site_refinement_flags_posn
_atom_site_refinement_flags_adp
_atom_site_refinement_flags_occupancy
Na1 Na 0.6707(11) 0.750000 0.8473(10) 0.0232(14) Uani 0.72(2) 2 d S T P
Na2 Na 0.623(2) 0.750000 0.868(3) 0.0232(14) Uani 0.28(2) 2 d S T P
P21 P 0.4099(9) 0.250000 0.6771(18) 0.0122(9) Uani 0.341(10) 2 d S T P
P22 P 0.4417(11) 0.250000 0.6148(19) 0.0122(9) Uani 0.203(9) 2 d S T P
P23 P 0.4014(5) 1.105(3) 0.7036(10) 0.0122(9) Uani 0.228(4) 1 d . . P
B1 B 0.5230(10) 0.250000 0.4694(17) 0.011(3) Uani 0.47(2) 2 d S T P
loop_
_atom_site_aniso_label
_atom_site_aniso_U_11
_atom_site_aniso_U_22
_atom_site_aniso_U_33
_atom_site_aniso_U_23
_atom_site_aniso_U_13
_atom_site_aniso_U_12
Na1 0.026(4) 0.0166(11) 0.0270(16) 0.000 -0.003(2) 0.000
Na2 0.026(4) 0.0166(11) 0.0270(16) 0.000 -0.003(2) 0.000
P21 0.0125(11) 0.010(3) 0.0141(16) 0.000 0.0015(11) 0.000
P22 0.0125(11) 0.010(3) 0.0141(16) 0.000 0.0015(11) 0.000
P23 0.0125(11) 0.010(3) 0.0141(16) 0.000 0.0015(11) 0.000
B1 0.015(5) 0.004(6) 0.015(6) 0.000 -0.001(4) 0.000
loop_
_atom_type_symbol
_atom_type_description
_atom_type_scat_dispersion_real
_atom_type_scat_dispersion_imag
_atom_type_scat_source
B B 0.0013 0.0007 'International Tables Vol C Tables 4.2.6.8 and 6.1.1.4'
Na Na 0.0362 0.0249 'International Tables Vol C Tables 4.2.6.8 and 6.1.1.4'
P P 0.1023 0.0942 'International Tables Vol C Tables 4.2.6.8 and 6.1.1.4'
loop_
_geom_angle_atom_site_label_1
_geom_angle_atom_site_label_2
_geom_angle_atom_site_label_3
_geom_angle
_geom_angle_site_symmetry_1
_geom_angle_site_symmetry_3
P23 Na1 P23 54.1(5) 6_657 4_566
P23 Na1 B1 121.4(4) 6_657 5_666
P23 Na1 B1 121.4(4) 4_566 5_666
P23 Na1 P21 8.68(17) 6_657 6_667
P23 Na1 P21 62.1(3) 4_566 6_667
B1 Na1 P21 121.9(3) 5_666 6_667
P23 Na1 P21 62.1(3) 6_657 6_657
P23 Na1 P21 8.68(17) 4_566 6_657
B1 Na1 P21 121.9(3) 5_666 6_657
P21 Na1 P21 69.8(3) 6_667 6_657
P23 Na1 P23 104.9(2) 6_657 5_677
P23 Na1 P23 113.9(3) 4_566 5_677
B1 Na1 P23 121.6(5) 5_666 5_677
P21 Na1 P23 99.0(2) 6_667 5_677
P21 Na1 P23 109.9(4) 6_657 5_677
P23 Na1 P23 113.9(3) 6_657 3_647
P23 Na1 P23 104.9(2) 4_566 3_647
B1 Na1 P23 121.6(5) 5_666 3_647
P21 Na1 P23 109.9(4) 6_667 3_647
P21 Na1 P23 99.0(2) 6_657 3_647
P23 Na1 P23 18.6(3) 5_677 3_647
P23 Na1 P23 155.3(2) 6_657 7_575
P23 Na1 P23 123.9(3) 4_566 7_575
B1 Na1 P23 35.0(2) 5_666 7_575
P21 Na1 P23 156.9(4) 6_667 7_575
P21 Na1 P23 118.56(18) 6_657 7_575
P23 Na1 P23 97.9(4) 5_677 7_575
P23 Na1 P23 90.7(3) 3_647 7_575
P23 Na1 P23 123.9(3) 6_657 .
P23 Na1 P23 155.3(2) 4_566 .
B1 Na1 P23 35.0(2) 5_666 .
P21 Na1 P23 118.56(18) 6_667 .
P21 Na1 P23 156.9(4) 6_657 .
P23 Na1 P23 90.7(3) 5_677 .
P23 Na1 P23 97.9(4) 3_647 .
P23 Na1 P23 45.4(3) 7_575 .
P23 Na1 P21 110.3(3) 6_657 5_667
P23 Na1 P21 110.3(3) 4_566 5_667
B1 Na1 P21 121.3(5) 5_666 5_667
P21 Na1 P21 105.2(2) 6_667 5_667
P21 Na1 P21 105.2(2) 6_657 5_667
P23 Na1 P21 9.33(16) 5_677 5_667
P23 Na1 P21 9.33(16) 3_647 5_667
P23 Na1 P21 93.6(4) 7_575 5_667
P23 Na1 P21 93.6(4) . 5_667
P23 Na1 P22 101.4(3) 6_657 5_666
P23 Na1 P22 101.4(3) 4_566 5_666
B1 Na1 P22 22.9(3) 5_666 5_666
P21 Na1 P22 104.0(5) 6_667 5_666
P21 Na1 P22 104.0(5) 6_657 5_666
P23 Na1 P22 143.9(5) 5_677 5_666
P23 Na1 P22 143.9(5) 3_647 5_666
P23 Na1 P22 53.9(2) 7_575 5_666
P23 Na1 P22 53.9(2) . 5_666
P21 Na1 P22 144.3(5) 5_667 5_666
P23 Na1 B1 34.5(3) 6_657 2_665
P23 Na1 B1 34.5(3) 4_566 2_665
B1 Na1 B1 148.1(4) 5_666 2_665
P21 Na1 B1 38.7(2) 6_667 2_665
P21 Na1 B1 38.7(2) 6_657 2_665
P23 Na1 B1 89.9(3) 5_677 2_665
P23 Na1 B1 89.9(3) 3_647 2_665
P23 Na1 B1 156.88(18) 7_575 2_665
P23 Na1 B1 156.88(18) . 2_665
P21 Na1 B1 90.6(3) 5_667 2_665
P22 Na1 B1 125.1(4) 5_666 2_665
B1 Na2 P23 39.2(3) 5_666 7_575
B1 Na2 P23 39.2(3) 5_666 .
P23 Na2 P23 51.8(5) 7_575 .
B1 Na2 P23 139.8(8) 5_666 5_677
P23 Na2 P23 112.5(7) 7_575 5_677
P23 Na2 P23 103.4(6) . 5_677
B1 Na2 P23 139.8(8) 5_666 3_647
P23 Na2 P23 103.4(6) 7_575 3_647
P23 Na2 P23 112.5(7) . 3_647
P23 Na2 P23 20.0(4) 5_677 3_647
B1 Na2 P21 139.5(8) 5_666 5_667
P23 Na2 P21 107.0(7) 7_575 5_667
P23 Na2 P21 107.0(7) . 5_667
P23 Na2 P21 10.09(18) 5_677 5_667
P23 Na2 P21 10.09(18) 3_647 5_667
B1 Na2 P22 37.0(3) 5_666 1_565
P23 Na2 P22 62.4(4) 7_575 1_565
P23 Na2 P22 16.6(3) . 1_565
P23 Na2 P22 112.7(6) 5_677 1_565
P23 Na2 P22 125.7(8) 3_647 1_565
P21 Na2 P22 118.4(6) 5_667 1_565
B1 Na2 P22 37.0(3) 5_666 .
P23 Na2 P22 16.6(3) 7_575 .
P23 Na2 P22 62.4(4) . .
P23 Na2 P22 125.7(8) 5_677 .
P23 Na2 P22 112.7(6) 3_647 .
P21 Na2 P22 118.4(6) 5_667 .
P22 Na2 P22 69.1(4) 1_565 .
B1 Na2 P21 42.1(3) 5_666 .
P23 Na2 P21 9.22(17) 7_575 .
P23 Na2 P21 60.3(4) . .
P23 Na2 P21 116.0(7) 5_677 .
P23 Na2 P21 104.0(6) 3_647 .
P21 Na2 P21 109.1(6) 5_667 .
P22 Na2 P21 69.8(4) 1_565 .
P22 Na2 P21 9.85(19) . .
B1 Na2 P21 42.1(3) 5_666 1_565
P23 Na2 P21 60.3(4) 7_575 1_565
P23 Na2 P21 9.22(17) . 1_565
P23 Na2 P21 104.0(6) 5_677 1_565
P23 Na2 P21 116.0(7) 3_647 1_565
P21 Na2 P21 109.1(6) 5_667 1_565
P22 Na2 P21 9.85(19) 1_565 1_565
P22 Na2 P21 69.8(4) . 1_565
P21 Na2 P21 68.6(4) . 1_565
B1 Na2 P23 112.7(6) 5_666 6_657
P23 Na2 P23 148.3(7) 7_575 6_657
P23 Na2 P23 120.8(4) . 6_657
P23 Na2 P23 99.1(5) 5_677 6_657
P23 Na2 P23 107.1(6) 3_647 6_657
P21 Na2 P23 104.5(5) 5_667 6_657
P22 Na2 P23 104.8(5) 1_565 6_657
P22 Na2 P23 134.2(7) . 6_657
P21 Na2 P23 144.0(7) . 6_657
P21 Na2 P23 111.8(5) 1_565 6_657
B1 Na2 P23 112.7(6) 5_666 4_566
P23 Na2 P23 120.8(4) 7_575 4_566
P23 Na2 P23 148.3(7) . 4_566
P23 Na2 P23 107.1(6) 5_677 4_566
P23 Na2 P23 99.1(5) 3_647 4_566
P21 Na2 P23 104.5(5) 5_667 4_566
P22 Na2 P23 134.2(7) 1_565 4_566
P22 Na2 P23 104.8(5) . 4_566
P21 Na2 P23 111.8(5) . 4_566
P21 Na2 P23 144.0(7) 1_565 4_566
P23 Na2 P23 45.7(4) 6_657 4_566
P23 P21 P23 137(4) 7_575 1_545
P23 P21 B1 111(2) 7_575 .
P23 P21 B1 111(2) 1_545 .
P23 P21 B1 166(2) 7_575 5_656
P23 P21 B1 55.7(19) 1_545 5_656
B1 P21 B1 55.6(4) . 5_656
P23 P21 B1 55.7(19) 7_575 5_666
P23 P21 B1 166(2) 1_545 5_666
B1 P21 B1 55.6(4) . 5_666
B1 P21 B1 111.0(8) 5_656 5_666
P23 P21 Na2 70.0(19) 7_575 5_667
P23 P21 Na2 70.0(19) 1_545 5_667
B1 P21 Na2 146.0(6) . 5_667
B1 P21 Na2 119.6(4) 5_656 5_667
B1 P21 Na2 119.6(4) 5_666 5_667
P23 P21 Na1 114.6(18) 7_575 6_547
P23 P21 Na1 49.5(11) 1_545 6_547
B1 P21 Na1 119.4(4) . 6_547
B1 P21 Na1 76.9(3) 5_656 6_547
B1 P21 Na1 135.8(4) 5_666 6_547
Na2 P21 Na1 87.8(5) 5_667 6_547
P23 P21 Na1 49.5(11) 7_575 6_557
P23 P21 Na1 114.6(18) 1_545 6_557
B1 P21 Na1 119.4(4) . 6_557
B1 P21 Na1 135.8(4) 5_656 6_557
B1 P21 Na1 76.9(3) 5_666 6_557
Na2 P21 Na1 87.8(5) 5_667 6_557
Na1 P21 Na1 69.8(3) 6_547 6_557
P23 P21 Na2 120.5(11) 7_575 1_545
P23 P21 Na2 57.2(11) 1_545 1_545
B1 P21 Na2 81.2(5) . 1_545
B1 P21 Na2 59.2(4) 5_656 1_545
B1 P21 Na2 114.6(6) 5_666 1_545
Na2 P21 Na2 70.9(6) 5_667 1_545
Na1 P21 Na2 106.6(2) 6_547 1_545
Na1 P21 Na2 158.6(7) 6_557 1_545
P23 P21 Na2 57.2(11) 7_575 .
P23 P21 Na2 120.5(11) 1_545 .
B1 P21 Na2 81.2(5) . .
B1 P21 Na2 114.6(6) 5_656 .
B1 P21 Na2 59.2(4) 5_666 .
Na2 P21 Na2 70.9(6) 5_667 .
Na1 P21 Na2 158.6(7) 6_547 .
Na1 P21 Na2 106.6(2) 6_557 .
Na2 P21 Na2 68.6(4) 1_545 .
P23 P21 Na1 69(2) 7_575 5_667
P23 P21 Na1 69(2) 1_545 5_667
B1 P21 Na1 154.4(5) . 5_667
B1 P21 Na1 122.0(4) 5_656 5_667
B1 P21 Na1 122.0(4) 5_666 5_667
Na2 P21 Na1 8.4(3) 5_667 5_667
Na1 P21 Na1 80.9(4) 6_547 5_667
Na1 P21 Na1 80.9(4) 6_557 5_667
Na2 P21 Na1 77.7(5) 1_545 5_667
Na2 P21 Na1 77.7(5) . 5_667
P23 P21 Na1 63.1(11) 7_575 .
P23 P21 Na1 119.8(10) 1_545 .
B1 P21 Na1 74.7(4) . .
B1 P21 Na1 108.1(5) 5_656 .
B1 P21 Na1 58.0(3) 5_666 .
Na2 P21 Na1 76.1(5) 5_667 .
Na1 P21 Na1 163.6(4) 6_547 .
Na1 P21 Na1 112.08(9) 6_557 .
Na2 P21 Na1 65.3(3) 1_545 .
Na2 P21 Na1 7.1(3) . .
Na1 P21 Na1 83.3(3) 5_667 .
P23 P22 P23 70(2) 7_575 1_545
P23 P22 B1 144.7(10) 7_575 .
P23 P22 B1 144.7(10) 1_545 .
P23 P22 B1 145.8(14) 7_575 5_656
P23 P22 B1 76.2(8) 1_545 5_656
B1 P22 B1 69.2(5) . 5_656
P23 P22 B1 76.2(8) 7_575 5_666
P23 P22 B1 145.8(14) 1_545 5_666
B1 P22 B1 69.2(5) . 5_666
B1 P22 B1 138.0(10) 5_656 5_666
P23 P22 P22 172.6(14) 7_575 5_656
P23 P22 P22 103.3(7) 1_545 5_656
B1 P22 P22 41.9(4) . 5_656
B1 P22 P22 27.3(3) 5_656 5_656
B1 P22 P22 110.8(9) 5_666 5_656
P23 P22 P22 103.3(7) 7_575 5_666
P23 P22 P22 172.6(14) 1_545 5_666
B1 P22 P22 41.9(4) . 5_666
B1 P22 P22 110.8(9) 5_656 5_666
B1 P22 P22 27.3(3) 5_666 5_666
P22 P22 P22 83.6(9) 5_656 5_666
P23 P22 Na2 104.4(10) 7_575 1_545
P23 P22 Na2 66.5(6) 1_545 1_545
B1 P22 Na2 90.4(6) . 1_545
B1 P22 Na2 60.9(4) 5_656 1_545
B1 P22 Na2 125.0(6) 5_666 1_545
P22 P22 Na2 69.9(4) 5_656 1_545
P22 P22 Na2 114.4(7) 5_666 1_545
P23 P22 Na2 66.5(6) 7_575 .
P23 P22 Na2 104.4(10) 1_545 .
B1 P22 Na2 90.4(7) . .
B1 P22 Na2 125.0(6) 5_656 .
B1 P22 Na2 60.9(4) 5_666 .
P22 P22 Na2 114.4(7) 5_656 .
P22 P22 Na2 69.9(4) 5_666 .
Na2 P22 Na2 69.1(4) 1_545 .
P23 P22 Na2 123.9(7) 7_575 5_666
P23 P22 Na2 123.9(7) 1_545 5_666
B1 P22 Na2 53.1(7) . 5_666
B1 P22 Na2 75.3(5) 5_656 5_666
B1 P22 Na2 75.3(5) 5_666 5_666
P22 P22 Na2 61.6(5) 5_656 5_666
P22 P22 Na2 61.6(5) 5_666 5_666
Na2 P22 Na2 131.5(5) 1_545 5_666
Na2 P22 Na2 131.5(5) . 5_666
P23 P22 Na1 117.1(6) 7_575 5_666
P23 P22 Na1 117.1(7) 1_545 5_666
B1 P22 Na1 62.1(6) . 5_666
B1 P22 Na1 77.9(5) 5_656 5_666
B1 P22 Na1 77.9(5) 5_666 5_666
P22 P22 Na1 67.7(4) 5_656 5_666
P22 P22 Na1 67.7(4) 5_666 5_666
Na2 P22 Na1 137.0(4) 1_545 5_666
Na2 P22 Na1 137.0(4) . 5_666
Na2 P22 Na1 9.0(2) 5_666 5_666
P23 P22 Na1 81.1(10) 7_575 6_547
P23 P22 Na1 41.1(5) 1_545 6_547
B1 P22 Na1 128.0(5) . 6_547
B1 P22 Na1 72.6(4) 5_656 6_547
B1 P22 Na1 132.7(5) 5_666 6_547
P22 P22 Na1 95.1(3) 5_656 6_547
P22 P22 Na1 141.9(5) 5_666 6_547
Na2 P22 Na1 100.5(3) 1_545 6_547
Na2 P22 Na1 141.0(7) . 6_547
Na2 P22 Na1 84.3(3) 5_666 6_547
Na1 P22 Na1 76.62(19) 5_666 6_547
P21 P23 P22 34.2(12) 1_565 1_565
P21 P23 P23 21(2) 1_565 7_585
P22 P23 P23 55.2(10) 1_565 7_585
P21 P23 B1 110(2) 1_565 5_666
P22 P23 B1 76.5(10) 1_565 5_666
P23 P23 B1 131.6(3) 7_585 5_666
P21 P23 B1 55.1(19) 1_565 1_565
P22 P23 B1 21.0(8) 1_565 1_565
P23 P23 B1 75.9(3) 7_585 1_565
B1 P23 B1 55.9(3) 5_666 1_565
P21 P23 P23 159(2) 1_565 7_575
P22 P23 P23 124.8(10) 1_565 7_575
P23 P23 P23 180.000(14) 7_585 7_575
B1 P23 P23 48.4(3) 5_666 7_575
B1 P23 P23 104.1(3) 1_565 7_575
P21 P23 Na1 121.8(12) 1_565 6_557
P22 P23 Na1 126.6(6) 1_565 6_557
P23 P23 Na1 117.0(2) 7_585 6_557
B1 P23 Na1 89.6(4) 5_666 6_557
B1 P23 Na1 123.9(4) 1_565 6_557
P23 P23 Na1 63.0(2) 7_575 6_557
P21 P23 Na2 113.5(12) 1_565 .
P22 P23 Na2 97.0(8) 1_565 .
P23 P23 Na2 115.9(2) 7_585 .
B1 P23 Na2 66.7(5) 5_666 .
B1 P23 Na2 84.2(5) 1_565 .
P23 P23 Na2 64.1(2) 7_575 .
Na1 P23 Na2 124.5(3) 6_557 .
P21 P23 Na2 100(2) 1_565 5_677
P22 P23 Na2 126.8(10) 1_565 5_677
P23 P23 Na2 80.00(19) 7_585 5_677
B1 P23 Na2 139.2(5) 5_666 5_677
B1 P23 Na2 138.5(5) 1_565 5_677
P23 P23 Na2 100.00(19) 7_575 5_677
Na1 P23 Na2 97.1(5) 6_557 5_677
Na2 P23 Na2 76.6(6) . 5_677
P21 P23 Na1 102(2) 1_565 5_677
P22 P23 Na1 131.5(10) 1_565 5_677
P23 P23 Na1 80.70(16) 7_585 5_677
B1 P23 Na1 143.1(4) 5_666 5_677
B1 P23 Na1 145.9(4) 1_565 5_677
P23 P23 Na1 99.30(17) 7_575 5_677
Na1 P23 Na1 88.8(3) 6_557 5_677
Na2 P23 Na1 84.1(5) . 5_677
Na2 P23 Na1 8.9(3) 5_677 5_677
P21 P23 Na2 117.5(12) 1_565 6_557
P22 P23 Na2 123.6(7) 1_565 6_557
P23 P23 Na2 112.8(2) 7_585 6_557
B1 P23 Na2 91.9(5) 5_666 6_557
B1 P23 Na2 122.6(5) 1_565 6_557
P23 P23 Na2 67.2(2) 7_575 6_557
Na1 P23 Na2 4.37(14) 6_557 6_557
Na2 P23 Na2 128.8(3) . 6_557
Na2 P23 Na2 97.8(5) 5_677 6_557
Na1 P23 Na2 89.3(4) 5_677 6_557
P21 P23 Na1 108.3(12) 1_565 .
P22 P23 Na1 90.2(7) 1_565 .
P23 P23 Na1 112.70(17) 7_585 .
B1 P23 Na1 63.8(4) 5_666 .
B1 P23 Na1 77.5(4) 1_565 .
P23 P23 Na1 67.30(17) 7_575 .
Na1 P23 Na1 129.2(3) 6_557 .
Na2 P23 Na1 6.8(3) . .
Na2 P23 Na1 81.5(5) 5_677 .
Na1 P23 Na1 89.3(3) 5_677 .
Na2 P23 Na1 133.5(3) 6_557 .
P22 B1 P21 0.8(4) . .
P22 B1 B1 70.4(6) . 5_656
P21 B1 B1 70.4(6) . 5_656
P22 B1 B1 70.4(6) . 5_666
P21 B1 B1 70.4(6) . 5_666
B1 B1 B1 140.3(12) 5_656 5_666
P22 B1 P23 137.9(3) . 5_666
P21 B1 P23 138.0(3) . 5_666
B1 B1 P23 67.6(5) 5_656 5_666
B1 B1 P23 150.4(9) 5_666 5_666
P22 B1 P23 137.9(3) . 3_646
P21 B1 P23 138.0(3) . 3_646
B1 B1 P23 150.4(9) 5_656 3_646
B1 B1 P23 67.6(5) 5_666 3_646
P23 B1 P23 83.3(6) 5_666 3_646
P22 B1 P22 110.8(5) . 5_656
P21 B1 P22 110.8(5) . 5_656
B1 B1 P22 40.4(5) 5_656 5_656
B1 B1 P22 174.2(10) 5_666 5_656
P23 B1 P22 27.3(5) 5_666 5_656
P23 B1 P22 110.6(7) 3_646 5_656
P22 B1 P22 110.8(5) . 5_666
P21 B1 P22 110.8(5) . 5_666
B1 B1 P22 174.2(10) 5_656 5_666
B1 B1 P22 40.4(5) 5_666 5_666
P23 B1 P22 110.6(7) 5_666 5_666
P23 B1 P22 27.3(5) 3_646 5_666
P22 B1 P22 138.0(10) 5_656 5_666
P22 B1 P23 14.2(3) . 7_575
P21 B1 P23 14.2(3) . 7_575
B1 B1 P23 84.6(7) 5_656 7_575
B1 B1 P23 56.5(6) 5_666 7_575
P23 B1 P23 152.1(5) 5_666 7_575
P23 B1 P23 124.1(3) 3_646 7_575
P22 B1 P23 125.0(7) 5_656 7_575
P22 B1 P23 96.8(5) 5_666 7_575
P22 B1 P23 14.2(3) . 1_545
P21 B1 P23 14.2(3) . 1_545
B1 B1 P23 56.5(6) 5_656 1_545
B1 B1 P23 84.6(7) 5_666 1_545
P23 B1 P23 124.1(3) 5_666 1_545
P23 B1 P23 152.1(5) 3_646 1_545
P22 B1 P23 96.8(5) 5_656 1_545
P22 B1 P23 125.0(7) 5_666 1_545
P23 B1 P23 28.2(6) 7_575 1_545
P22 B1 P21 124.3(4) . 5_656
P21 B1 P21 124.4(4) . 5_656
B1 B1 P21 53.9(5) 5_656 5_656
B1 B1 P21 164.1(9) 5_666 5_656
P23 B1 P21 13.9(3) 5_666 5_656
P23 B1 P21 97.1(6) 3_646 5_656
P22 B1 P21 13.5(3) 5_656 5_656
P22 B1 P21 124.5(9) 5_666 5_656
P23 B1 P21 138.5(6) 7_575 5_656
P23 B1 P21 110.4(3) 1_545 5_656
P22 B1 P21 124.3(4) . 5_666
P21 B1 P21 124.4(4) . 5_666
B1 B1 P21 164.1(9) 5_656 5_666
B1 B1 P21 53.9(5) 5_666 5_666
P23 B1 P21 97.1(6) 5_666 5_666
P23 B1 P21 13.9(3) 3_646 5_666
P22 B1 P21 124.5(9) 5_656 5_666
P22 B1 P21 13.5(3) 5_666 5_666
P23 B1 P21 110.4(3) 7_575 5_666
P23 B1 P21 138.5(6) 1_545 5_666
P21 B1 P21 111.0(8) 5_656 5_666
loop_
_geom_bond_atom_site_label_1
_geom_bond_atom_site_label_2
_geom_bond_distance
_geom_bond_site_symmetry_2
Na1 P23 2.503(11) 6_657
Na1 P23 2.503(11) 4_566
Na1 B1 2.678(12) 5_666
Na1 P21 2.797(11) 6_667
Na1 P21 2.797(11) 6_657
Na1 P23 2.864(10) 5_677
Na1 P23 2.864(10) 3_647
Na1 P23 2.949(10) 7_575
Na1 P23 2.949(10) .
Na1 P21 3.004(14) 5_667
Na1 P22 3.019(11) 5_666
Na1 B1 3.024(13) 2_665
Na2 B1 2.490(19) 5_666
Na2 P23 2.606(17) 7_575
Na2 P23 2.606(17) .
Na2 P23 2.664(18) 5_677
Na2 P23 2.664(18) 3_647
Na2 P21 2.79(2) 5_667
Na2 P22 2.822(15) 1_565
Na2 P22 2.822(15) .
Na2 P21 2.841(15) .
Na2 P21 2.842(15) 1_565
Na2 P23 2.931(18) 6_657
Na2 P23 2.931(18) 4_566
P21 P23 0.497(6) 7_575
P21 P23 0.497(6) 1_545
P21 B1 1.666(16) .
P21 B1 1.943(9) 5_656
P21 B1 1.943(9) 5_666
P22 P23 0.810(13) 7_575
P22 P23 0.810(13) 1_545
P22 B1 1.180(17) .
P22 B1 1.715(6) 5_656
P22 B1 1.715(6) 5_666
P22 P22 2.40(2) 5_656
P22 P22 2.40(2) 5_666
P23 P23 0.925(17) 7_585
P23 B1 1.713(12) 5_666
P23 B1 1.900(11) 1_565
P23 P23 2.276(17) 7_575
B1 B1 1.702(7) 5_656
B1 B1 1.702(7) 5_666
