#------------------------------------------------------------------------------
#$Date: 2019-11-02 06:55:05 +0200 (Sat, 02 Nov 2019) $
#$Revision: 220870 $
#$URL: file:///home/coder/svn-repositories/cod/cif/4/12/76/4127671.cif $
#------------------------------------------------------------------------------
#
# This file is available in the Crystallography Open Database (COD),
# http://www.crystallography.net/
#
# All data on this site have been placed in the public domain by the
# contributors.
#
data_4127671
loop_
_publ_author_name
'Touge, Taichiro'
'Sakaguchi, Kazuhiko'
'Tamaki, Nao'
'Nara, Hideki'
'Yokozawa, Tohru'
'Matsumura, Kazuhiko'
'Kayaki, Yoshihito'
_publ_section_title
;
 Multiple Absolute Stereocontrol in Cascade Lactone Formation via Dynamic
 Kinetic Resolution Driven by the Asymmetric Transfer Hydrogenation of
 Keto Acids with Oxo-Tethered Ruthenium Catalysts.
;
_journal_issue                   41
_journal_name_full               'Journal of the American Chemical Society'
_journal_page_first              16354
_journal_page_last               16361
_journal_paper_doi               10.1021/jacs.9b07297
_journal_volume                  141
_journal_year                    2019
_chemical_absolute_configuration ad
_chemical_formula_moiety         'C19 H18 O3'
_chemical_formula_sum            'C19 H18 O3'
_chemical_formula_weight         294.33
_chemical_name_systematic
;
(1S,3aR,9bS)-9-Methoxy-1-phenyl-3a,4,5,9b-tetrahydronaphtho[2,1-b]furan-2(1H)-one
;
_space_group_crystal_system      monoclinic
_space_group_IT_number           4
_space_group_name_Hall           'P 2yb'
_space_group_name_H-M_alt        'P 1 21 1'
_symmetry_space_group_name_Hall  'P 2yb'
_symmetry_space_group_name_H-M   'P 1 21 1'
_atom_sites_solution_hydrogens   geom
_atom_sites_solution_primary     dual
_audit_creation_date             2019-02-12
_audit_creation_method
;
Olex2 1.3-ac4
(compiled 2018.12.05 svn.r3537 for Rigaku Oxford Diffraction, GUI svn.r5625)
;
_cell_angle_alpha                90
_cell_angle_beta                 90.6700(10)
_cell_angle_gamma                90
_cell_formula_units_Z            2
_cell_length_a                   7.70360(10)
_cell_length_b                   6.16330(10)
_cell_length_c                   15.5653(2)
_cell_measurement_reflns_used    9301
_cell_measurement_temperature    100.01(10)
_cell_measurement_theta_max      76.9220
_cell_measurement_theta_min      2.8190
_cell_volume                     738.984(18)
_computing_cell_refinement       'CrysAlisPro 1.171.40.37a (Rigaku OD, 2019)'
_computing_data_collection       'CrysAlisPro 1.171.40.37a (Rigaku OD, 2019)'
_computing_data_reduction        'CrysAlisPro 1.171.40.37a (Rigaku OD, 2019)'
_computing_molecular_graphics    'Olex2 (Dolomanov et al., 2009)'
_computing_publication_material  'Olex2 (Dolomanov et al., 2009)'
_computing_structure_refinement  'ShelXL (Sheldrick, 2015)'
_computing_structure_solution    'ShelXT (Sheldrick, 2015)'
_diffrn_ambient_environment      N~2~
_diffrn_ambient_temperature      100.01(10)
_diffrn_detector                 'CCD plate'
_diffrn_detector_area_resol_mean 10.0000
_diffrn_detector_type            HyPix
_diffrn_measured_fraction_theta_full 1.000
_diffrn_measured_fraction_theta_max 0.997
_diffrn_measurement_details
;
List of Runs (angles in degrees, time in seconds):

  # Type    Start    End  Width  t~exp~   \w     \q     \k     \f   Frames
--------------------------------------------------------------------------
  1  \w   -121.00  -8.00   0.50    0.12    --  -39.70 -38.00 -30.00  226
  2  \w    -43.00  41.00   0.50    0.12    --  -39.70  38.00 124.00  168
  3  \w    -43.00 -13.00   0.50    0.48    --  -94.50  38.00 124.00   60
  4  \w   -175.00 -63.00   0.50    0.48    --  -94.50 -38.00 -30.00  224
  5  \w     84.00 178.00   0.50    0.48    --  116.00  38.00 124.00  188
  6  \w   -115.00 -12.00   0.50    0.12    --  -39.70 -57.00-150.00  206
  7  \w     60.00 121.00   0.50    0.12    --   39.70 178.00 -90.00  122
  8  \w     13.00 115.00   0.50    0.12    --   39.70  57.00 -60.00  204
  9  \w   -174.00 -65.00   0.50    0.48    --  -94.50 -44.00-125.03  218
 10  \w   -170.00 -59.00   0.50    0.48    --  -94.50 -79.00-160.51  222
 11  \w   -169.00 -67.00   0.50    0.48    --  -94.50 -58.00-133.45  204
 12  \w   -170.00 -62.00   0.50    0.48    --  -94.50 -71.00 175.29  216
 13  \w   -170.00 -65.00   0.50    0.48    --  -94.50 -61.00 -90.00  210
 14  \w    -71.00 -19.00   0.50    0.48    --  -94.50  61.00 -60.00  104
 15  \w   -170.00 -60.00   0.50    0.48    --  -94.50 -76.00-136.27  220
 16  \w    -51.00 -15.00   0.50    0.48    --  -94.50  45.00 -60.00   72
 17  \w    -51.00 -15.00   0.50    0.48    --  -94.50  45.00 -90.00   72
 18  \w   -170.00 -60.00   0.50    0.48    --  -94.50 -77.00-120.00  220
 19  \w   -170.00 -65.00   0.50    0.48    --  -94.50 -61.00-120.00  210
 20  \w   -170.00 -63.00   0.50    0.48    --  -94.50 -70.00-154.78  214
 21  \w    100.00 178.00   0.50    0.48    --  116.00 111.00 -30.00  156
 22  \w     42.00  71.00   0.50    0.48    --  116.00 -61.00 -90.00   58
 23  \w     42.00  71.00   0.50    0.48    --  116.00 -61.00-150.00   58
 24  \w     36.00 109.00   0.50    0.48    --  116.00 -94.00   0.00  146
 25  \w     42.00 106.00   0.50    0.48    --  116.00 -77.00-150.00  128
 26  \w     87.00 178.00   0.50    0.48    --  116.00  45.00-180.00  182
 27  \w     36.00 109.00   0.50    0.48    --  116.00 -94.00 -30.00  146
 28  \w     42.00 106.00   0.50    0.48    --  116.00 -77.00  60.00  128
 29  \w     81.00 178.00   0.50    0.48    --  116.00  77.00 -90.00  194
 30  \w     87.00 178.00   0.50    0.48    --  116.00  61.00-139.00  182
 31  \w     36.00 109.00   0.50    0.48    --  116.00 -94.00-120.00  146
 32  \w     42.00  71.00   0.50    0.48    --  116.00 -61.00   0.00   58
 33  \w     79.00 178.00   0.50    0.48    --  116.00  30.00 -60.00  198
 34  \w     87.00 178.00   0.50    0.48    --  116.00  61.00-120.00  182
 35  \w     81.00 178.00   0.50    0.48    --  116.00  77.00-120.00  194
 36  \w     36.00 111.00   0.50    0.48    --  116.00-111.00  90.00  150
 37  \w     86.00 178.00   0.50    0.48    --  116.00  63.00 132.01  184
 38  \w     42.00  71.00   0.50    0.48    --  116.00 -61.00-180.00   58
 39  \w     87.00 178.00   0.50    0.48    --  116.00  61.00-150.00  182
 40  \w     87.00 178.00   0.50    0.48    --  116.00  61.00-180.00  182
 41  \w     81.00 178.00   0.50    0.48    --  116.00  77.00-180.00  194
 42  \w     42.00  71.00   0.50    0.48    --  116.00 -61.00 120.00   58
 43  \w    100.00 178.00   0.50    0.48    --  116.00 111.00 150.00  156
 44  \w     42.00  71.00   0.50    0.48    --  116.00 -61.00  60.00   58
 45  \w     42.00  71.00   0.50    0.48    --  116.00 -61.00-120.00   58
 46  \w   -115.00 -31.00   0.50    0.12    --  -39.70 -57.00  90.00  168
;
_diffrn_measurement_device       'four-circle diffractometer'
_diffrn_measurement_device_type  'XtaLAB Synergy, Dualflex, HyPix'
_diffrn_measurement_method       '\w scans'
_diffrn_orient_matrix_type
'CrysAlisPro convention (1999,Acta A55,543-557)'
_diffrn_orient_matrix_UB_11      -0.0335063000
_diffrn_orient_matrix_UB_12      -0.0816024000
_diffrn_orient_matrix_UB_13      0.0918239000
_diffrn_orient_matrix_UB_21      0.1866550000
_diffrn_orient_matrix_UB_22      -0.0889568000
_diffrn_orient_matrix_UB_23      0.0053504000
_diffrn_orient_matrix_UB_31      0.0633887000
_diffrn_orient_matrix_UB_32      0.2190171000
_diffrn_orient_matrix_UB_33      0.0364858000
_diffrn_radiation_monochromator  mirror
_diffrn_radiation_probe          x-ray
_diffrn_radiation_type           CuK\a
_diffrn_radiation_wavelength     1.54184
_diffrn_reflns_av_R_equivalents  0.0549
_diffrn_reflns_av_unetI/netI     0.0364
_diffrn_reflns_Laue_measured_fraction_full 1.000
_diffrn_reflns_Laue_measured_fraction_max 0.997
_diffrn_reflns_limit_h_max       9
_diffrn_reflns_limit_h_min       -9
_diffrn_reflns_limit_k_max       7
_diffrn_reflns_limit_k_min       -7
_diffrn_reflns_limit_l_max       19
_diffrn_reflns_limit_l_min       -19
_diffrn_reflns_number            15067
_diffrn_reflns_point_group_measured_fraction_full 0.995
_diffrn_reflns_point_group_measured_fraction_max 0.980
_diffrn_reflns_theta_full        67.684
_diffrn_reflns_theta_max         77.268
_diffrn_reflns_theta_min         2.839
_diffrn_source                   'micro-focus sealed X-ray tube'
_diffrn_source_type              'PhotonJet (Cu) X-ray Source'
_exptl_absorpt_coefficient_mu    0.712
_exptl_absorpt_correction_T_max  1.00000
_exptl_absorpt_correction_T_min  0.53488
_exptl_absorpt_correction_type   multi-scan
_exptl_absorpt_process_details
;
CrysAlisPro 1.171.40.37a (Rigaku Oxford Diffraction, 2019)
Empirical absorption correction using spherical harmonics,
 implemented in SCALE3 ABSPACK scaling algorithm.
;
_exptl_crystal_colour            colourless
_exptl_crystal_density_diffrn    1.323
_exptl_crystal_description       prism
_exptl_crystal_F_000             312
_exptl_crystal_size_max          0.189
_exptl_crystal_size_mid          0.129
_exptl_crystal_size_min          0.092
_refine_diff_density_max         0.371
_refine_diff_density_min         -0.355
_refine_diff_density_rms         0.092
_refine_ls_abs_structure_details
;
 Flack x determined using 1315 quotients [(I+)-(I-)]/[(I+)+(I-)]
 (Parsons, Flack and Wagner, Acta Cryst. B69 (2013) 249-259).
;
_refine_ls_abs_structure_Flack   -0.08(8)
_refine_ls_extinction_method     none
_refine_ls_goodness_of_fit_ref   1.109
_refine_ls_hydrogen_treatment    constr
_refine_ls_matrix_type           full
_refine_ls_number_parameters     200
_refine_ls_number_reflns         3072
_refine_ls_number_restraints     1
_refine_ls_restrained_S_all      1.109
_refine_ls_R_factor_all          0.0531
_refine_ls_R_factor_gt           0.0527
_refine_ls_shift/su_max          0.000
_refine_ls_shift/su_mean         0.000
_refine_ls_structure_factor_coef Fsqd
_refine_ls_weighting_details
'w=1/[\s^2^(Fo^2^)+(0.1090P)^2^+0.0414P] where P=(Fo^2^+2Fc^2^)/3'
_refine_ls_weighting_scheme      calc
_refine_ls_wR_factor_gt          0.1368
_refine_ls_wR_factor_ref         0.1375
_reflns_Friedel_coverage         0.794
_reflns_Friedel_fraction_full    0.988
_reflns_Friedel_fraction_max     0.959
_reflns_number_gt                3023
_reflns_number_total             3072
_reflns_threshold_expression     'I > 2\s(I)'
_cod_data_source_file            ja9b07297_si_008.cif
_cod_data_source_block           exp_37
_cod_database_code               4127671
_shelx_shelxl_version_number     2018/3
_shelx_space_group_comment
;
The symmetry employed for this shelxl refinement is uniquely defined
by the following loop, which should always be used as a source of
symmetry information in preference to the above space-group names.
They are only intended as comments.
;
_diffrn_oxdiff_digest_frames
;
0145b7c1945035fe4ea2f3cd3be52372f6071843d09
;
_diffrn_oxdiff_digest_hkl
;
0172daa18f80b871c3b42843a427dbec75f3bf
;
_reflns_odcompleteness_completeness 99.94
_reflns_odcompleteness_iscentric 1
_reflns_odcompleteness_theta     74.33
_olex2_refinement_description
;
1. Fixed Uiso
 At 1.2 times of:
  All C(H) groups, All C(H,H) groups
 At 1.5 times of:
  All C(H,H,H) groups
2.a Ternary CH refined with riding coordinates:
 C3(H3), C2(H2), C12(H12)
2.b Secondary CH2 refined with riding coordinates:
 C11(H11A,H11B), C10(H10A,H10B)
2.c Aromatic/amide H refined with riding coordinates:
 C15(H15), C19(H19), C18(H18), C17(H17), C5(H5), C16(H16), C6(H6), C7(H7)
2.d Idealised Me refined as rotating group:
 C21(H21A,H21B,H21C)
;
_shelx_res_file
;
TITL exp_37_a.res in P2(1)
    exp_37.res
    created by SHELXL-2018/3 at 16:48:56 on 12-Feb-2019
REM Old TITL exp_37 in P2(1)/m
REM SHELXT solution in P2(1): R1 0.122, Rweak 0.025, Alpha 0.004
REM <I/s> 0.252 for 4 systematic absences, Orientation as input
REM Flack x = 0.202 ( 0.137 ) from 1305 Parsons' quotients
REM Formula found by SHELXT: C19 O3
CELL 1.54184 7.7036 6.1633 15.5653 90 90.67 90
ZERR 2 0.0001 0.0001 0.0002 0 0.001 0
LATT -1
SYMM -X,0.5+Y,-Z
SFAC C H O
UNIT 38 36 6

L.S. 4
PLAN  4
fmap 2
ACTA
REM <olex2.extras>
REM <HklSrc "%.\\exp_37.hkl">
REM </olex2.extras>

WGHT    0.109000    0.041400
FVAR       1.14031
O20   3    0.171618    0.946882    0.070570    11.00000    0.02226    0.02793 =
         0.02505    0.00417   -0.00017    0.00413
O13   3    0.643473    0.152038    0.188422    11.00000    0.02661    0.04086 =
         0.02793    0.00743    0.01116    0.01562
O22   3    0.742016    0.075393    0.320239    11.00000    0.02617    0.05523 =
         0.03624    0.01592    0.00888    0.01705
C4    1    0.241917    0.480642    0.208651    11.00000    0.01479    0.02718 =
         0.01742   -0.00253    0.00146    0.00071
C14   1    0.379901    0.181379    0.378636    11.00000    0.01562    0.02853 =
         0.02019    0.00137    0.00081    0.00344
C9    1    0.266603    0.638383    0.145840    11.00000    0.01511    0.02636 =
         0.01955   -0.00284    0.00101    0.00078
C15   1    0.356657    0.299824    0.453461    11.00000    0.01905    0.03060 =
         0.02312   -0.00011    0.00209   -0.00098
AFIX  43
H15   2    0.404909    0.437607    0.458554    11.00000   -1.20000
AFIX   0
C19   1    0.310730   -0.028212    0.372922    11.00000    0.02311    0.03027 =
         0.02037   -0.00034    0.00269    0.00248
AFIX  43
H19   2    0.327879   -0.110087    0.323556    11.00000   -1.20000
AFIX   0
C18   1    0.216797   -0.114897    0.440265    11.00000    0.02212    0.03044 =
         0.02885    0.00233    0.00385   -0.00136
AFIX  43
H18   2    0.170784   -0.254005    0.435834    11.00000   -1.20000
AFIX   0
C17   1    0.191582    0.006315    0.514283    11.00000    0.02252    0.03947 =
         0.02388    0.00393    0.00662   -0.00073
AFIX  43
H17   2    0.127959   -0.051323    0.559276    11.00000   -1.20000
AFIX   0
C5    1    0.095856    0.488987    0.262252    11.00000    0.01655    0.03287 =
         0.01929    0.00072    0.00267    0.00185
AFIX  43
H5    2    0.078406    0.382012    0.303395    11.00000   -1.20000
AFIX   0
C11   1    0.570294    0.500219    0.123861    11.00000    0.01553    0.03587 =
         0.02460    0.00360    0.00629    0.00321
AFIX  23
H11A  2    0.660781    0.484748    0.081482    11.00000   -1.20000
H11B  2    0.619284    0.573715    0.173630    11.00000   -1.20000
AFIX   0
C21   1    0.045829    1.114223    0.056412    11.00000    0.02755    0.02806 =
         0.02957   -0.00065   -0.00523    0.00551
AFIX 137
H21A  2    0.078678    1.199773    0.007694    11.00000   -1.50000
H21B  2    0.040241    1.205252    0.106351    11.00000   -1.50000
H21C  2   -0.065850    1.049945    0.045692    11.00000   -1.50000
AFIX   0
C3    1    0.364915    0.290857    0.218790    11.00000    0.01779    0.02620 =
         0.01883   -0.00023    0.00439    0.00209
AFIX  13
H3    2    0.295817    0.157589    0.215212    11.00000   -1.20000
AFIX   0
C2    1    0.472032    0.281937    0.303159    11.00000    0.01525    0.02758 =
         0.02162    0.00106    0.00374    0.00359
AFIX  13
H2    2    0.506577    0.429968    0.318723    11.00000   -1.20000
AFIX   0
C8    1    0.142006    0.803541    0.136316    11.00000    0.01811    0.02794 =
         0.01850   -0.00121   -0.00129    0.00082
C10   1    0.420814    0.633545    0.086423    11.00000    0.01819    0.02966 =
         0.02196    0.00409    0.00524    0.00160
AFIX  23
H10A  2    0.460196    0.780734    0.076310    11.00000   -1.20000
H10B  2    0.385304    0.572107    0.031601    11.00000   -1.20000
AFIX   0
C12   1    0.504103    0.278507    0.149671    11.00000    0.02104    0.03165 =
         0.02189    0.00273    0.00650    0.00641
AFIX  13
H12   2    0.457830    0.202592    0.099044    11.00000   -1.20000
AFIX   0
C16   1    0.261251    0.213507    0.521211    11.00000    0.02604    0.03920 =
         0.02253   -0.00354    0.00562    0.00177
AFIX  43
H16   2    0.244459    0.294607    0.570808    11.00000   -1.20000
AFIX   0
C6    1   -0.021540    0.658086    0.253084    11.00000    0.01658    0.03997 =
         0.02168   -0.00087    0.00405    0.00466
AFIX  43
H6    2   -0.116132    0.665738    0.289540    11.00000   -1.20000
AFIX   0
C1    1    0.633568    0.157128    0.275746    11.00000    0.02210    0.03395 =
         0.02886    0.00685    0.00996    0.00710
C7    1   -0.000611    0.816662    0.190380    11.00000    0.01817    0.03434 =
         0.02402   -0.00198   -0.00027    0.00665
AFIX  43
H7    2   -0.080279    0.929258    0.184659    11.00000   -1.20000
AFIX   0
HKLF 4




REM  exp_37_a.res in P2(1)
REM wR2 = 0.1375, GooF = S = 1.109, Restrained GooF = 1.109 for all data
REM R1 = 0.0527 for 3023 Fo > 4sig(Fo) and 0.0531 for all 3072 data
REM 200 parameters refined using 1 restraints

END

WGHT      0.1089      0.0414

REM Highest difference peak  0.371,  deepest hole -0.355,  1-sigma level  0.092
Q1    1   0.2395  0.4943  0.1520  11.00000  0.05    0.37
Q2    1   0.2763  0.6417  0.2100  11.00000  0.05    0.35
Q3    1   0.6901 -0.0166  0.2862  11.00000  0.05    0.34
Q4    1   0.4154  0.3209  0.2632  11.00000  0.05    0.34
;
_shelx_res_checksum              95494
_shelx_hkl_file
;
   0   0   1  101.07    3.78
   0   0  -1  100.21    3.56
   0   0  -2 1109.18   35.93
   0   0   2 1017.10   36.34
   0   0  -3 3134.71   85.22
   0   0  -3 2583.35   84.17
   0   0  -4    0.68    0.57
   0   0  -4   -0.09    0.66
   0   0  -5  601.73   21.57
   0   0  -5  617.26   20.20
   0   0  -6    3.19    0.84
   0   0  -6    2.75    1.23
   0   0  -7   85.14    5.90
   0   0  -8  271.91   13.22
   0   0  -9   80.93    6.71
   0   0  10    6.14    1.09
   0   0 -10    3.34    1.75
   0   0  10    6.89    1.11
   0   0  10    4.09    0.96
   0   0  10    5.99    1.09
   0   0  10    4.92    1.05
   0   0  10    4.68    0.99
   0   0  10    3.76    0.89
   0   0  10    4.11    0.89
   0   0 -11   12.35    3.03
   0   0  11   10.41    1.48
   0   0  11    8.95    1.39
   0   0  11   12.23    1.53
   0   0  11    9.78    1.39
   0   0  11   11.43    1.50
   0   0  11    9.84    1.42
   0   0  11    8.33    1.26
   0   0 -12  123.67    5.99
   0   0  12  130.29    5.96
   0   0  12  120.53    5.59
   0   0  12  131.96    6.13
   0   0  12  128.05    6.08
   0   0  12  122.90    5.98
   0   0 -12  118.32   10.15
   0   0  12  132.11    6.10
   0   0  12  125.78    6.05
   0   0  13   65.51    3.81
   0   0  13   69.57    4.24
   0   0  13   75.02    4.34
   0   0  13   70.39    4.14
   0   0  13   69.58    3.86
   0   0  13   73.84    4.13
   0   0 -13   66.79    4.18
   0   0  13   70.08    3.69
   0   0  13   73.99    4.30
   0   0  13   63.31    3.62
   0   0  13   67.23    4.19
   0   0  13   69.81    4.25
   0   0  13   66.22    4.15
   0   0  14   56.90    3.91
   0   0  14   60.06    3.95
   0   0  14   54.06    3.78
   0   0  14   62.89    3.78
   0   0  14   58.21    3.78
   0   0  14   58.19    3.84
   0   0  14   53.86    3.77
   0   0  14   58.61    3.31
   0   0  14   57.94    3.88
   0   0  14   54.75    3.26
   0   0  14   50.73    3.32
   0   0  14   55.62    3.42
   0   0 -14   54.19    3.77
   0   0  15  148.96    7.08
   0   0  15  152.73    7.19
   0   0  15  154.64    6.55
   0   0 -15  156.97    7.22
   0   0  15  149.93    7.07
   0   0  15  129.41    6.30
   0   0  15  155.87    7.08
   0   0  15  155.14    7.25
   0   0  15  150.11    6.32
   0   0  15  151.46    7.10
   0   0  15  146.11    7.03
   0   0  15  152.92    6.87
   0   0  16  211.67    8.51
   0   0  16  198.04    8.35
   0   0  16  204.34    8.17
   0   0  16  196.59    8.23
   0   0  16  194.37    7.51
   0   0  16  203.90    8.43
   0   0  16  200.63    8.48
   0   0  16  187.52    7.57
   0   0 -16  196.27    8.44
   0   0  16  201.04    8.54
   0   0  17  213.15    7.46
   0   0  17  209.51    8.14
   0   0  17  207.55    8.22
   0   0 -17  211.70    8.41
   0   0  17  206.32    8.30
   0   0  17  215.08    8.48
   0   0  17  221.92    8.11
   0   0  17  201.53    8.17
   0   0  18   55.71    2.60
   0   0  18   55.61    3.25
   0   0  18   50.76    3.09
   0   0  18   49.37    2.99
   0   0  18   55.75    3.01
   0   0 -18   56.17    3.27
   0   0  18   46.19    2.86
   0   0  19   12.72    1.18
   0   0  19   12.92    0.89
   0   1   0    0.52    0.42
   0  -1   0   -0.09    0.45
   0   1   1  644.10   18.96
   0  -1  -1  557.02   18.35
   0   1  -1  570.75   18.36
   0  -1   1  655.46   19.22
   0  -1  -2 1128.22   36.34
   0   1  -2 1178.65   36.24
   0  -1   2 1178.97   36.57
   0  -1  -2 1156.68   36.20
   0   1  -3 1353.15   41.45
   0  -1  -3 1392.65   41.26
   0  -1   3 1276.58   41.51
   0  -1  -3 1222.60   41.30
   0  -1  -4  735.66   22.80
   0   1  -4  709.07   23.47
   0  -1  -4  671.55   23.39
   0  -1   4  652.55   23.35
   0  -1   5  142.71    6.91
   0  -1  -5  144.08    5.94
   0  -1  -5  129.55    6.74
   0   1  -5  142.19    6.90
   0  -1  -6  990.31   35.93
   0  -1   6 1067.37   36.25
   0   1  -6  995.84   35.95
   0  -1  -7  491.04   16.36
   0  -1   7  461.96   18.55
   0   1  -7  431.83   18.24
   0  -1  -7  430.18   18.24
   0  -1  -8   31.26    3.85
   0  -1   8   33.47    3.91
   0   1  -8   31.84    3.86
   0  -1  -9  497.85   21.38
   0   1   9  504.35   17.02
   0   1  -9  517.11   21.65
   0  -1   9  506.33   16.80
   0   1   9  500.72   17.05
   0   1   9  496.30   17.01
   0  -1   9  491.05   16.68
   0  -1  10   93.44    4.14
   0  -1  10   89.02    4.12
   0   1  10   84.11    4.31
   0  -1 -10   69.97    6.74
   0   1  10   86.09    4.24
   0  -1  10   79.54    4.12
   0  -1  10   85.31    4.16
   0   1  10   80.45    4.27
   0  -1  10   82.36    4.11
   0   1  10   80.17    3.92
   0   1  10   84.10    4.31
   0   1 -10   71.93    6.94
   0  -1  10   86.75    4.26
   0  -1  10   74.18    3.95
   0   1  10   84.96    4.29
   0   1 -11  166.15   11.75
   0  -1  11  178.50    7.47
   0   1  11  172.62    7.61
   0   1  11  152.79    6.94
   0  -1  11  184.97    7.54
   0   1  11  179.80    7.69
   0  -1  11  175.52    7.38
   0  -1  11  178.48    7.44
   0   1  11  184.84    7.55
   0   1  11  175.19    7.60
   0  -1  11  187.16    7.60
   0  -1 -11  174.05   11.83
   0   1  11  179.27    7.59
   0  -1  11  195.83    7.38
   0  -1  11  190.40    7.48
   0  -1  12    2.84    1.05
   0   1  12    2.52    1.04
   0  -1  12    2.28    0.90
   0  -1  12    3.72    1.01
   0  -1 -12    3.51    1.93
   0   1  12    3.42    0.97
   0   1 -12    3.15    1.03
   0   1  12    3.49    1.18
   0   1  12    2.60    0.87
   0  -1  12    2.00    0.89
   0  -1  12    4.03    1.16
   0   1  12    2.79    1.02
   0  -1  12    3.85    1.01
   0   1  12    2.81    1.03
   0  -1  12    2.18    0.93
   0  -1 -12    3.03    1.02
   0   1 -12    3.23    2.07
   0   1  13  123.09    6.12
   0   1  13  113.81    5.44
   0  -1  13  117.59    5.91
   0  -1  13  121.72    5.67
   0  -1  13  118.65    5.87
   0   1  13  126.57    6.12
   0  -1  13  121.36    5.71
   0  -1  13  119.80    5.91
   0   1  13  124.92    6.17
   0   1  13  111.66    5.16
   0  -1 -13  115.32    5.84
   0   1  13  124.67    5.87
   0  -1  13  122.17    5.99
   0   1 -13  123.74    6.10
   0   1  13  127.54    6.19
   0  -1  13  118.02    5.93
   0   1  13  122.41    5.96
   0  -1  13  122.09    6.04
   0  -1  13  117.16    5.44
   0  -1  13  122.58    6.05
   0  -1  13  121.61    5.65
   0  -1  13  115.51    5.72
   0   1  13  110.95    5.83
   0   1  14   75.32    4.59
   0   1  14   77.08    4.51
   0   1  14   72.37    4.44
   0  -1  14   78.99    4.55
   0  -1  14   79.43    4.60
   0  -1  14   73.16    3.96
   0  -1  14   71.17    4.36
   0  -1  14   76.15    4.20
   0   1  14   70.42    3.73
   0  -1  14   73.38    4.38
   0  -1  14   70.28    3.88
   0   1 -14   73.80    4.46
   0  -1  14   77.92    4.19
   0  -1  14   81.45    4.65
   0   1  14   62.44    3.80
   0   1  14   77.32    4.63
   0  -1  14   74.98    4.17
   0  -1  14   77.14    4.49
   0  -1 -14   72.05    4.32
   0  -1  14   77.07    4.44
   0   1  14   77.88    4.48
   0  -1  14   76.40    4.28
   0   1  14   71.67    4.48
   0  -1  15  171.66    7.46
   0   1  15  123.26    6.38
   0  -1  15  166.03    7.48
   0   1 -15  164.55    7.47
   0  -1  15  160.30    7.29
   0   1  15  160.65    7.33
   0  -1  15  173.42    7.18
   0  -1  15  168.99    6.95
   0  -1  15  157.98    6.98
   0  -1 -15  156.93    7.26
   0  -1  15  155.22    7.20
   0   1  15  161.82    6.51
   0  -1  15  149.98    6.51
   0   1  15  163.54    7.49
   0   1  15  167.96    7.59
   0  -1  15  171.27    7.58
   0   1  15  161.22    7.50
   0  -1  15  166.75    6.79
   0  -1  15  173.72    7.49
   0  -1  15  157.83    6.89
   0   1  15  161.41    6.62
   0   1  15  153.42    7.21
   0   1  16    1.45    0.67
   0  -1  16    1.76    0.77
   0  -1  16    1.54    0.93
   0  -1  16    1.05    0.58
   0  -1  16    0.67    0.80
   0  -1  16    1.61    0.99
   0  -1 -16    0.86    0.85
   0  -1  16    1.14    0.86
   0   1  16    2.04    0.68
   0  -1  16    1.83    0.77
   0   1 -16    1.45    0.97
   0   1  16    1.68    0.92
   0   1  16    1.30    0.73
   0   1  16    1.74    0.97
   0  -1  16    1.14    0.69
   0  -1  16    1.59    0.74
   0  -1  16    1.14    1.00
   0   1  16    1.24    0.99
   0  -1  16    1.07    0.78
   0  -1  16    1.58    0.89
   0  -1 -17  144.61    6.27
   0  -1  17  147.32    5.70
   0   1  17  138.31    6.08
   0  -1  17  104.84    5.38
   0  -1  17  146.67    6.29
   0  -1  17  153.86    6.03
   0  -1  17  147.04    6.19
   0   1  17  145.71    5.59
   0   1  17  140.26    5.44
   0   1  17   93.60    5.24
   0  -1  17  146.19    6.21
   0   1 -17  155.55    6.58
   0   1  17  147.33    6.41
   0  -1  17  153.02    6.46
   0  -1  17  151.05    5.76
   0   1  17  150.19    6.44
   0  -1  17  156.33    6.57
   0  -1  17  143.27    6.24
   0  -1  17  155.60    6.03
   0  -1  18   25.16    1.89
   0  -1  18   23.48    1.67
   0   1 -18   26.50    2.12
   0  -1  18   23.68    1.91
   0  -1  18   27.88    1.83
   0   1  18   23.74    1.51
   0   1  18   23.44    1.45
   0  -1 -18   26.42    1.99
   0  -1  18   25.09    2.06
   0  -1  18   24.51    1.98
   0  -1  18   25.11    1.62
   0  -1  19   49.99    2.18
   0   1 -19   54.41    2.24
   0   2   0  676.54   22.41
   0  -2   0  655.85   22.65
   0   2   1  321.71   11.82
   0   2  -1  342.25   12.13
   0  -2   1  304.03   11.96
   0   2  -2  315.57   10.97
   0  -2  -2  298.90   12.23
   0  -2  -2  294.67   10.83
   0  -2   2  345.98   12.59
   0   2   2  360.97   12.23
   0  -2  -3  632.65   20.47
   0  -2   3  636.91   20.58
   0  -2  -3  540.41   19.12
   0   2  -3  546.81   19.19
   0  -2  -4    5.20    1.25
   0  -2  -4    3.86    1.00
   0  -2   4    5.61    1.38
   0   2  -4    3.94    0.98
   0   2  -5  185.00    8.89
   0  -2  -5  184.75    8.86
   0  -2   6  134.83    7.70
   0  -2  -6  119.34    7.03
   0   2  -6  124.55    7.20
   0   2  -7  331.13   14.87
   0  -2  -7  314.74   14.49
   0  -2   8   89.41    4.04
   0  -2  -8   79.48    6.28
   0   2  -8   83.60    6.55
   0   2   8   92.83    4.47
   0   2   8   88.51    4.51
   0  -2   8   94.05    7.13
   0  -2   8  100.91    4.23
   0   2   9  220.46    8.46
   0  -2   9  219.38    8.05
   0   2   9  220.64    8.33
   0  -2   9  216.40    8.06
   0   2  -9  201.61    7.94
   0   2   9  199.71    8.19
   0   2   9  214.53    8.45
   0  -2   9  202.55    7.59
   0  -2  -9  199.11   11.46
   0   2  -9  200.94   11.76
   0  -2   9  202.95    7.90
   0  -2   9  246.46    8.23
   0   2   9  166.52    7.58
   0  -2   9  243.20   13.02
   0  -2  -9  202.80    7.85
   0   2   9  222.03    8.63
   0  -2   9  199.35    7.84
   0   2   9  223.27    8.63
   0  -2   9  206.15    7.89
   0   2 -10    7.52    2.28
   0   2  10    8.68    1.43
   0  -2  10    8.52    1.28
   0  -2  10    7.47    1.15
   0  -2 -10    5.85    2.10
   0  -2  10   10.00    1.46
   0  -2  10    9.90    1.34
   0   2  10    9.41    1.56
   0  -2  10    8.09    1.21
   0  -2  10    9.07    1.35
   0  -2  10    9.73    2.85
   0  -2 -10    7.81    1.16
   0  -2  10   11.02    1.35
   0   2  10    9.39    1.39
   0   2  10    9.49    1.45
   0  -2  10    8.87    1.31
   0   2  10    8.05    1.43
   0   2  10    6.46    1.12
   0   2  10    9.62    1.42
   0   2 -10    9.66    1.33
   0  -2  11    4.88    1.10
   0   2 -11    5.02    2.12
   0  -2 -11    4.19    0.95
   0  -2  11    4.16    2.23
   0   2  11    5.73    1.31
   0   2  11    5.58    1.26
   0  -2  11    5.62    1.18
   0  -2  11    4.46    1.13
   0  -2  11    4.55    1.08
   0  -2  11    4.29    1.07
   0  -2  11    6.80    1.19
   0   2  11    4.67    1.24
   0   2 -11    5.00    1.08
   0  -2 -11    4.28    1.90
   0   2  11    5.21    1.23
   0   2  11    2.89    1.16
   0   2  11    3.66    0.96
   0  -2  11    4.06    0.97
   0  -2  11    5.38    1.15
   0  -2  12  105.00    5.03
   0  -2  12   90.64    4.26
   0  -2  12   93.37    4.76
   0  -2 -12   86.00    4.55
   0  -2  12   88.26    4.72
   0   2  12   92.00    4.81
   0   2  12   94.01    4.75
   0   2  12   95.17    5.15
   0  -2  12   94.43    4.90
   0  -2 -12   67.37    7.35
   0   2  12   83.77    4.28
   0   2  12   84.80    4.81
   0   2  12   91.26    4.24
   0  -2  12   89.78    4.65
   0  -2  12   83.63    4.58
   0   2  12   86.02    4.44
   0   2 -12   79.09    8.27
   0  -2  12   97.16    4.96
   0  -2  12   96.09    4.90
   0  -2  12   92.81    4.81
   0   2 -12   90.62    4.80
   0  -2  12  102.13    4.92
   0   2  12   92.20    5.18
   0   2  12   89.16    5.14
   0   2  13   57.41    3.29
   0  -2  13   69.59    4.10
   0   2  13   51.12    3.32
   0   2  13   53.75    3.11
   0   2  13   58.70    3.93
   0   2  13   58.40    3.39
   0  -2  13   58.70    3.65
   0  -2  13   64.64    3.82
   0  -2  13   57.90    3.73
   0  -2 -13   57.72    3.58
   0  -2  13   62.41    3.73
   0   2  13   58.60    3.65
   0  -2  13   64.47    3.70
   0  -2  13   58.00    3.71
   0  -2  13   59.42    3.82
   0   2  13   60.50    4.09
   0   2  13   63.57    3.94
   0   2  13   57.69    3.72
   0   2  13   62.73    4.15
   0   2 -13   58.59    3.78
   0  -2  13   62.21    3.75
   0  -2  13   64.03    3.94
   0   2  14   64.30    3.88
   0  -2  14   72.63    4.01
   0  -2  14   64.04    3.86
   0  -2  14   61.82    3.90
   0   2  14   51.54    3.43
   0  -2  14   67.36    3.97
   0   2  14   61.36    3.38
   0   2  14   61.28    3.92
   0   2  14   69.35    4.25
   0  -2  14   71.35    4.20
   0  -2  14   70.44    4.20
   0   2  14   67.46    4.36
   0  -2  14   64.35    3.73
   0  -2  14   65.79    3.89
   0   2 -14   65.68    4.00
   0  -2  14   67.04    4.11
   0  -2 -14   55.81    3.58
   0   2  14   63.52    4.22
   0  -2  14   65.13    3.95
   0   2  14   64.45    3.59
   0   2  14   62.63    3.32
   0  -2  15   16.20    1.91
   0  -2  15   19.70    2.20
   0  -2  15   21.53    2.06
   0   2  15   18.44    2.18
   0   2  15   19.07    2.25
   0  -2  15   17.63    2.05
   0   2 -15   18.77    2.07
   0  -2 -15   16.00    1.78
   0   2  15   20.16    1.79
   0   2  15   12.54    1.62
   0   2  15   19.20    1.98
   0  -2  15   18.79    1.72
   0  -2  15   17.99    1.93
   0  -2  15   18.42    1.92
   0   2  15   16.46    1.49
   0  -2  15   19.30    1.86
   0  -2  15   18.05    1.97
   0  -2  15   15.03    1.83
   0   2  15   16.46    1.95
   0  -2  15   21.64    2.13
   0  -2 -16   44.42    2.89
   0   2  16   49.81    2.86
   0  -2  16   54.00    3.11
   0   2  16   45.81    3.06
   0  -2  16   49.40    3.04
   0  -2  16   48.21    3.08
   0  -2  16   50.07    2.85
   0   2  16   47.74    2.53
   0   2  16   36.79    2.63
   0  -2  16   53.79    3.34
   0  -2  16   45.88    2.71
   0  -2  16   57.11    3.04
   0   2  16   53.48    3.48
   0  -2  16   56.91    3.51
   0  -2  16   52.26    3.19
   0  -2  16   47.69    3.23
   0  -2  16   44.79    2.91
   0  -2  16   51.77    3.18
   0   2  16   53.37    3.20
   0   2 -16   51.96    3.29
   0   2 -17    5.12    1.00
   0  -2  17    4.20    0.84
   0   2  17    5.01    0.93
   0  -2  17    4.40    0.92
   0   2  17   -0.10    0.24
   0  -2  17    2.90    0.73
   0  -2  17    3.51    0.97
   0   2  17    3.95    0.79
   0  -2  17    3.90    0.91
   0  -2  17    3.43    0.78
   0  -2  17    4.09    0.73
   0   2  17    3.56    0.84
   0  -2  17    3.87    0.98
   0   2  17    3.42    1.01
   0  -2  17    5.09    0.85
   0  -2  17    4.49    0.96
   0  -2  17    3.50    0.81
   0  -2 -17    3.29    0.75
   0  -2  18   22.93    1.43
   0  -2  18   19.25    1.37
   0  -2  18   20.84    1.52
   0   2  18   19.99    1.34
   0   3   0    0.38    0.74
   0  -3   0   -0.14    0.74
   0  -3  -1  332.12   13.39
   0  -3   1  297.45   13.01
   0   3  -1  329.97   13.08
   0   3   1  315.68   12.85
   0  -3   2  132.19    7.18
   0   3   2  132.16    6.88
   0   3  -2  153.67    7.38
   0  -3  -2  147.92    7.64
   0  -3   3  260.08   11.83
   0  -3  -3  251.83   11.84
   0  -3  -4  296.68   13.53
   0  -3   4  302.97   13.67
   0  -3   5   29.76    3.62
   0   3  -5   33.33    3.63
   0  -3  -5   32.98    3.59
   0  -3   6   51.02    4.88
   0   3   6   51.91    3.02
   0   3   6   53.37    3.29
   0   3   6   40.32    2.61
   0  -3   6   52.26    2.66
   0   3  -6   47.31    3.09
   0   3   7   59.35    3.48
   0  -3   7   60.29    3.06
   0  -3   7   63.55    3.17
   0   3   7   58.67    2.97
   0  -3   7   67.65    3.25
   0  -3   7   75.61    6.33
   0   3  -7   58.23    3.66
   0   3   7   57.42    3.30
   0  -3   7   65.33    3.22
   0  -3   7   63.93    3.10
   0   3   7   69.81    3.92
   0  -3   8   20.89    2.02
   0   3  -8   18.41    2.01
   0  -3   8   19.54    1.62
   0   3   8   24.93    2.31
   0  -3   8   19.56    1.66
   0  -3   8   18.72    1.66
   0  -3   8   23.09    1.82
   0   3   8   19.51    1.62
   0  -3   8   21.83    1.80
   0   3   8   20.19    1.96
   0   3   8   17.52    1.78
   0  -3   8   18.63    3.45
   0  -3   8   17.41    1.63
   0  -3   9   10.20    1.39
   0   3   9   11.56    1.79
   0  -3   9   10.60    1.33
   0  -3   9    8.48    1.29
   0  -3   9   11.97    1.69
   0   3   9   10.26    1.54
   0  -3   9   11.37    1.38
   0   3   9    9.08    1.43
   0  -3   9   11.82    2.97
   0  -3   9   10.11    1.27
   0  -3   9   12.66    1.48
   0  -3  10   22.53    2.02
   0  -3  10   27.10    2.28
   0  -3  10   27.05    2.39
   0  -3  10   23.27    2.05
   0   3  10   21.99    2.01
   0   3  10   27.15    2.26
   0  -3  10   24.45    2.22
   0   3  10   23.34    2.32
   0  -3  10   24.32    2.14
   0   3  10   24.67    2.18
   0  -3  10   26.09    2.13
   0   3  10   25.54    2.55
   0   3  10   25.11    2.05
   0  -3  10   21.64    4.19
   0  -3  10   22.54    1.97
   0  -3  10   24.09    2.14
   0   3  10   24.99    2.00
   0   3  10   21.61    1.97
   0   3  11  118.66    5.81
   0   3  11  124.48    5.38
   0  -3  11  137.89    5.67
   0   3  11  128.62    5.75
   0  -3  11  118.91    5.68
   0   3  11  114.39    5.55
   0  -3  11  139.87    6.20
   0  -3  11  150.80    6.32
   0  -3  11  129.99    5.97
   0  -3  11  130.75    6.10
   0   3  11  137.83    5.85
   0   3  11  116.79    6.08
   0  -3  11  136.15    6.09
   0   3  11  130.53    6.64
   0   3  11  131.84    6.03
   0  -3  11  130.39    5.88
   0   3  11  125.86    5.66
   0  -3  11  121.51    5.78
   0   3  12  201.94    7.93
   0  -3  12  207.03    8.53
   0  -3  12  216.12    8.21
   0  -3  12  264.71    9.20
   0   3  12  191.59    8.50
   0  -3  12  215.83    8.81
   0  -3  12  208.53    8.57
   0   3  12  207.13    8.41
   0  -3  12  205.51    8.42
   0   3  12  216.40    8.74
   0  -3  12  230.75    8.88
   0   3  12  175.36    8.07
   0  -3  12  209.97    8.68
   0   3  12  218.86    8.45
   0   3  12  215.99    8.99
   0   3  12  205.83    9.28
   0  -3  12  235.15    9.03
   0  -3  12  216.84    8.84
   0   3  13   63.43    3.83
   0   3  13   60.48    3.30
   0  -3  13   72.34    4.10
   0  -3  13   69.29    3.95
   0  -3  13   68.72    3.84
   0   3 -13   67.90    3.56
   0   3  13   72.65    3.82
   0  -3  13   77.37    4.15
   0   3  13   70.25    4.19
   0  -3  13   73.41    3.87
   0   3  13   67.14    3.79
   0  -3  13   70.42    4.08
   0  -3  13   64.59    3.51
   0  -3  13   65.37    3.84
   0  -3  13   80.62    4.28
   0  -3  13   69.73    4.10
   0  -3  13   75.52    4.25
   0   3  13   69.12    4.43
   0   3  14  565.40   19.93
   0  -3  14  553.17   19.58
   0   3  14  604.96   19.51
   0   3  14  597.41   19.56
   0  -3  14  599.34   19.81
   0   3  14  579.53   19.56
   0  -3  14  604.21   20.02
   0  -3  14  562.09   19.68
   0  -3  14  587.19   19.95
   0  -3  14  647.43   20.10
   0  -3  14  627.89   20.32
   0  -3  14  571.17   19.32
   0   3  14  475.19   19.39
   0   3  14  546.72   18.84
   0  -3  14  649.83   20.38
   0   3  15   75.35    3.58
   0   3  15   69.39    3.13
   0  -3  15   75.64    3.80
   0   3  15   73.50    3.68
   0  -3  15   69.68    3.88
   0  -3  15   77.75    4.14
   0  -3  15   67.69    3.34
   0   3  15   75.20    3.69
   0  -3  15   74.55    4.08
   0  -3  15   63.26    3.57
   0  -3  15   78.95    4.02
   0  -3  15   65.84    3.64
   0  -3  15   78.49    3.92
   0   3  15   52.65    3.38
   0  -3  16    9.41    1.14
   0  -3  16    8.98    1.21
   0   3  16    9.05    1.02
   0  -3  16    7.71    1.05
   0  -3  16    8.93    1.28
   0  -3  16    8.64    1.24
   0  -3  16    7.19    1.08
   0  -3  16    7.50    1.13
   0  -3  16    9.75    1.18
   0   3  16   10.17    1.15
   0  -3  16    7.70    1.23
   0  -3  17   10.29    0.95
   0  -3  17   10.49    1.14
   0   3  17    9.97    0.99
   0  -3  17   10.76    1.10
   0  -3  18    0.56    0.30
   0   3  18    0.79    0.30
   0   4   0   48.50    3.03
   0   4   0   53.16    3.19
   0   4   0   74.99    5.31
   0   4   0   50.86    3.41
   0  -4   0   68.16    5.39
   0   4  -1   63.33    3.64
   0   4   1   89.31    5.83
   0   4  -1   50.85    3.27
   0  -4   1   72.54    5.62
   0   4   1   59.86    3.72
   0   4  -1   59.74    3.81
   0  -4  -1   88.28    6.11
   0   4  -1   82.00    5.66
   0  -4  -1   62.89    5.54
   0   4  -2   26.61    3.28
   0   4  -2   18.18    2.10
   0  -4  -2   26.57    3.44
   0  -4   2   24.50    3.27
   0  -4  -2   20.41    3.15
   0   4  -2   21.43    2.04
   0   4   2   21.38    2.07
   0   4   2   24.70    3.18
   0   4   3   57.15    3.67
   0  -4   3   70.96    5.78
   0  -4  -3   76.50    6.05
   0  -4  -3   67.03    5.74
   0  -4   3   65.76    3.14
   0   4  -3   66.68    3.91
   0   4  -3   83.40    5.89
   0  -4   4   16.89    2.96
   0   4  -4   10.69    1.78
   0  -4   4   12.91    1.26
   0   4  -4   12.45    1.72
   0  -4   4   14.22    1.37
   0   4  -4   14.99    2.69
   0  -4  -4   15.67    2.84
   0  -4  -4   15.36    2.81
   0   4   4   12.14    1.59
   0   4   5   15.39    1.78
   0  -4   5   20.82    3.37
   0   4  -5   23.52    3.40
   0  -4   5   19.52    1.63
   0  -4   5   18.24    1.57
   0  -4  -5   24.90    3.71
   0  -4   5   17.38    1.50
   0  -4  -6  266.71   13.32
   0  -4   6  211.72    7.99
   0  -4   6  218.69   12.34
   0   4  -6  248.08   12.24
   0  -4   6  206.00    7.83
   0  -4   6  201.00    7.79
   0   4  -6  188.66    8.77
   0   4  -7  136.93    6.80
   0  -4   7  141.43    5.94
   0   4  -7  157.49    9.76
   0  -4   7  143.43    5.92
   0  -4   7  131.97    5.68
   0  -4   7  136.58    5.76
   0  -4   7  121.88    9.46
   0   4   8  240.69    9.11
   0  -4   8  248.92    9.59
   0  -4   8  240.26    9.21
   0  -4   8  239.00   14.26
   0  -4   8  263.96    9.53
   0   4  -8  237.56    9.07
   0  -4   8  259.05    9.49
   0   4   8  244.75    9.31
   0  -4   8  275.44   10.03
   0   4   8  243.49    9.33
   0  -4   8  236.06    9.12
   0   4   8  245.54    9.45
   0   4   8  234.19    9.28
   0   4  -8  229.85   10.29
   0   4   8  257.43    9.64
   0  -4   9  136.89    5.98
   0   4   9  134.18    5.84
   0  -4   9  135.44    6.21
   0   4   9  127.97    5.62
   0  -4   9  126.45    5.66
   0   4   9  130.93    5.93
   0  -4   9  130.37    6.02
   0   4  -9  131.38    5.60
   0  -4   9  129.16    5.75
   0   4   9  129.67    5.79
   0  -4   9  127.92    5.83
   0  -4   9  136.58    5.94
   0   4   9  121.77    5.70
   0  -4  10   40.45    2.71
   0   4  10   34.72    2.64
   0   4  10   39.80    2.63
   0  -4  10   40.17    2.90
   0  -4  10   43.64    2.96
   0  -4  10   39.05    2.74
   0   4  10   39.90    2.74
   0  -4  10   39.35    2.85
   0   4 -10   41.65    2.62
   0  -4  10   41.74    2.86
   0   4  10   38.27    2.78
   0  -4  10   45.66    3.16
   0  -4  10   38.95    2.69
   0  -4  10   40.16    2.90
   0   4  11  182.01    7.76
   0   4 -11  199.59    7.68
   0   4  11  202.60    7.96
   0   4  11  202.47    8.11
   0  -4  11  191.71    7.90
   0  -4  11  205.61    8.21
   0   4  11  167.81    7.61
   0  -4  11  196.97    8.17
   0  -4  11  187.99    7.65
   0  -4  11  194.32    8.01
   0  -4  11  188.70    7.80
   0  -4  11  203.65    8.24
   0  -4  11  190.76    8.07
   0  -4  11  233.05    8.53
   0   4  11  199.37    7.78
   0   4  12   77.23    3.84
   0   4 -12   76.54    3.75
   0  -4  12   63.51    3.54
   0  -4  12   81.53    4.31
   0  -4  12   74.11    3.96
   0   4  12   61.80    3.69
   0  -4  12   74.84    4.08
   0  -4  12   74.82    4.08
   0   4  12   77.14    3.95
   0  -4  12   76.23    4.04
   0  -4  12   71.59    4.05
   0  -4  12   65.09    3.73
   0  -4  12   85.59    4.32
   0   4  13   11.80    1.42
   0  -4  13   10.56    1.50
   0   4 -13   11.97    1.32
   0  -4  13   11.83    1.48
   0  -4  13   10.56    1.38
   0  -4  13   11.01    1.48
   0  -4  13    8.04    1.19
   0   4  13   10.28    1.29
   0  -4  13   10.53    1.37
   0  -4  13    9.87    1.52
   0  -4  14   16.21    1.65
   0  -4  14   13.61    1.48
   0   4  14   13.77    1.41
   0   4  14   17.05    1.55
   0  -4  14   13.93    1.50
   0  -4  14   15.76    1.68
   0   4 -14   16.47    1.41
   0  -4  14   13.68    1.45
   0  -4  14   14.35    1.44
   0  -4  14   13.44    1.30
   0  -4  15    1.48    0.53
   0   4  15    2.16    0.64
   0  -4  15    0.90    0.62
   0  -4  15    1.73    0.67
   0  -4  15    0.76    0.56
   0   4 -15    1.66    0.54
   0  -4  15    2.02    0.68
   0  -4  15    1.72    0.66
   0  -4  15    0.70    0.64
   0   4  15    1.97    0.59
   0  -4  16    8.44    0.93
   0   4  16    7.97    0.83
   0   4  16    8.08    0.83
   0  -4  16    8.18    0.86
   0  -4  16    8.50    0.85
   0  -4  16    9.48    0.96
   0   4 -16    9.02    0.82
   0   5   0    0.12    0.80
   0   5   0   -0.06    0.48
   0   5   0   -0.58    0.58
   0  -5   0    0.29    1.15
   0   5   0    0.07    0.56
   0   5   0   -0.07    0.61
   0   5   0    0.10    0.60
   0  -5   1   96.82    8.14
   0   5  -1  100.24    5.88
   0   5   1   99.53    5.77
   0   5  -1  105.21    4.80
   0   5   1  119.52    5.08
   0   5   1  115.80    4.98
   0   5   1  123.04    5.16
   0   5  -1  116.11    5.01
   0   5  -1  102.60    4.78
   0   5   1  111.46    4.97
   0   5   1  104.39    4.80
   0   5   1  113.80    4.82
   0  -5  -1   89.21    7.74
   0   5  -1  105.53    5.58
   0   5   2    8.20    1.22
   0   5   2    9.06    1.18
   0  -5   2   11.87    2.61
   0   5   2    8.57    1.21
   0   5  -2    9.76    1.23
   0  -5   2    4.57    1.99
   0   5   2   10.48    1.23
   0   5  -2    8.71    1.59
   0   5   2   11.35    1.35
   0   5   2    9.53    1.26
   0   5  -2    7.10    1.12
   0   5  -2    7.16    1.59
   0   5   2    8.60    1.61
   0   5   3   45.93    2.80
   0   5   3   46.33    2.89
   0   5   3   49.66    3.00
   0   5   3   49.32    2.94
   0   5   3   43.62    3.45
   0   5   3   51.22    2.79
   0  -5   3   53.77    2.92
   0   5  -3   51.34    2.90
   0   5  -3   46.61    3.58
   0  -5   3   42.01    4.98
   0   5   3   49.54    3.00
   0  -5   4    8.89    1.29
   0   5  -4    8.65    1.72
   0   5   4   11.44    1.24
   0   5   4   10.40    1.32
   0   5   4    9.54    1.36
   0   5  -4    9.85    1.28
   0  -5   4   10.11    1.27
   0   5   4   10.79    1.34
   0   5   4    8.38    1.52
   0   5   4    9.91    1.34
   0   5  -5  237.84   10.28
   0  -5   5  261.99    9.23
   0   5  -5  256.33    9.08
   0   5   5  220.22    8.96
   0  -5   5  242.03    8.92
   0   5   5  233.10    9.01
   0   5   5  222.44    9.74
   0   5   5  239.78    8.68
   0   5   5  234.34    8.79
   0   5   5  245.13    9.18
   0  -5   6  181.88    7.40
   0   5   6  190.74    7.47
   0   5   6  199.18    7.80
   0  -5   6  199.81    7.74
   0   5  -6  194.39    7.58
   0   5   6  189.02    7.70
   0  -5   6  197.74    7.75
   0  -5   7   95.95    4.58
   0   5   7  103.61    4.91
   0   5  -7  104.98    4.73
   0   5   7  104.28    4.75
   0   5   7  100.15    4.84
   0  -5   7  104.29    4.88
   0  -5   7  107.66    4.96
   0  -5   8   55.56    3.38
   0  -5   8   56.95    3.31
   0  -5   8   60.03    3.42
   0   5   8   52.41    2.95
   0   5  -8   56.86    3.13
   0   5   8   53.71    3.13
   0   5   8   52.81    3.20
   0   5   8   54.30    3.16
   0   5   9    7.50    1.27
   0  -5   9    7.29    1.31
   0   5   9    4.48    0.99
   0   5   9    6.06    1.05
   0  -5   9    5.48    1.13
   0   5  -9    4.95    0.98
   0   5   9    6.75    1.01
   0   5   9    6.01    1.23
   0  -5   9    5.31    1.36
   0  -5   9    5.48    1.00
   0  -5   9    5.49    1.11
   0   5  10  197.16    7.47
   0  -5  10  187.97    7.54
   0  -5  10  183.87    7.34
   0   5  10  171.51    7.25
   0  -5  10  151.48    7.01
   0   5 -10  206.58    7.36
   0  -5  10  196.21    7.67
   0  -5  10  201.97    7.69
   0   5  10  188.04    7.43
   0   5  10  190.15    7.14
   0  -5  10  182.59    7.66
   0   5  11   11.20    1.20
   0   5  11   12.49    1.38
   0  -5  11   12.99    1.40
   0  -5  11   12.56    1.46
   0  -5  11   10.26    1.35
   0   5 -11   14.19    1.38
   0   5  11   10.57    1.39
   0  -5  11   11.55    1.53
   0  -5  11    8.80    1.25
   0  -5  11   12.74    1.55
   0  -5  12   37.35    2.47
   0  -5  12   41.80    2.48
   0   5  12   42.31    2.41
   0   5 -12   43.36    2.30
   0  -5  12   37.46    2.29
   0  -5  12   40.49    2.53
   0  -5  12   36.74    2.13
   0  -5  12   33.74    2.34
   0  -5  12   40.58    2.43
   0   5  12   37.39    2.13
   0   5  13    4.93    0.73
   0  -5  13    4.65    0.86
   0  -5  13    4.87    0.81
   0  -5  13    5.47    0.91
   0  -5  13    5.39    0.88
   0  -5  13    6.67    0.97
   0   5 -13    5.57    0.81
   0  -5  13    5.59    0.98
   0  -5  13    4.99    0.72
   0  -5  13    4.36    0.80
   0   5 -14   41.54    1.67
   0  -5  14   41.28    1.82
   0   5  14   37.05    1.51
   0  -5  14   38.73    1.71
   0  -5  14   38.96    1.70
   0   5  14   42.03    1.80
   0   5 -15    5.23    0.51
   0   5  15    5.76    0.57
   0  -5  15    5.61    0.58
   0   6   0  716.30   23.03
   0   6   0  761.36   23.18
   0   6   0  663.75   22.86
   0   6   0  679.59   22.94
   0   6   0  693.62   23.01
   0  -6   1  169.34    6.65
   0   6  -1  180.08    6.86
   0   6   1  155.39    6.57
   0   6   1  166.39    6.75
   0   6  -1  171.46    6.82
   0   6  -1  170.22    6.76
   0   6  -1  167.73    6.74
   0   6   1  162.37    6.67
   0   6  -1  158.66    6.66
   0   6   1  169.36    6.79
   0   6   1  174.02    6.86
   0   6  -2  134.53    5.64
   0   6  -2  132.67    5.57
   0   6  -2  126.63    5.54
   0   6   2  123.89    5.53
   0   6   2  132.81    5.65
   0   6   2  146.34    5.83
   0   6  -2  133.99    5.67
   0   6   2  128.75    5.52
   0   6   2  125.33    5.45
   0  -6   2  130.49    5.45
   0   6   3   91.93    4.33
   0   6   3   99.56    4.54
   0   6   3  105.04    4.64
   0   6  -3   97.96    4.44
   0   6  -3   96.02    4.49
   0   6   3   91.48    4.42
   0   6  -3   89.97    4.40
   0  -6   3   96.13    4.46
   0   6  -3  100.86    4.50
   0   6  -4   14.62    1.51
   0   6  -4   17.35    1.59
   0   6   4   15.33    1.57
   0   6  -4   14.29    1.49
   0   6   4   15.81    1.61
   0   6  -4   14.18    1.51
   0  -6   4   16.87    1.62
   0  -6   5   12.68    1.41
   0   6  -5   13.90    1.42
   0   6   5   14.48    1.53
   0   6  -5   12.89    1.39
   0   6  -5   12.48    1.37
   0   6   5   11.48    1.39
   0  -6   5   13.56    1.51
   0  -6   6    7.20    1.38
   0   6  -6   11.15    1.26
   0  -6   6   10.75    1.35
   0   6  -6   10.01    1.19
   0   6   6    8.18    1.17
   0  -6   6    9.90    1.24
   0   6   7   10.40    1.07
   0  -6   7    9.39    1.14
   0   6   7    9.68    1.25
   0  -6   7   11.77    1.36
   0  -6   7    9.96    1.24
   0   6  -7   10.73    1.19
   0   6  -7   10.69    1.21
   0  -6   8  117.74    4.82
   0   6  -8  121.27    4.65
   0  -6   8  123.98    4.96
   0  -6   8  114.97    4.68
   0   6  -8  128.36    4.81
   0   6  -8  124.48    4.86
   0   6   8  109.35    4.67
   0   6   8  119.25    4.58
   0   6  -9   18.40    1.46
   0  -6   9   17.94    1.49
   0  -6   9   17.51    1.47
   0   6  -9   18.22    1.35
   0  -6   9   20.25    1.65
   0  -6   9   10.87    1.44
   0   6  -9   20.18    1.48
   0   6   9   17.70    1.34
   0  -6   9   16.78    1.39
   0  -6   9    8.41    1.17
   0   6   9   17.32    1.41
   0   6  10   17.75    1.26
   0  -6  10    7.57    1.02
   0  -6  10   18.97    1.52
   0  -6  10   18.80    1.42
   0  -6  10   18.78    1.34
   0  -6  10    9.94    1.24
   0   6 -10   17.73    1.22
   0   6 -10   19.51    1.35
   0  -6  10   18.99    1.44
   0   6 -10   20.95    1.44
   0   6 -11   47.10    2.26
   0   6  11   48.85    2.21
   0  -6  11   49.41    2.37
   0  -6  11   45.01    2.21
   0   6 -11   51.76    2.26
   0   6 -11   45.22    2.04
   0  -6  12   24.97    1.41
   0   6  12   24.68    1.30
   0   6 -12   26.42    1.37
   0  -6  12   25.58    1.32
   0  -6  12   27.17    1.44
   0   6 -12   28.76    1.38
   0   7   0   -0.22    0.48
   0   7   0    0.04    0.50
   0   7   0   -0.09    0.46
   0  -7   0   -0.37    0.53
   0   7  -1    2.45    0.63
   0   7   1    1.83    0.65
   0  -7   1    0.75    0.53
   0   7   1    1.95    0.59
   0   7  -1    1.96    0.61
   0  -7  -1    1.24    0.55
   0   7  -1    3.03    0.68
   0  -7   1    2.25    0.60
   0   7  -2   69.97    2.99
   0   7   2   69.57    3.04
   0   7  -2   66.59    3.00
   0   7   2   62.24    2.93
   0   7  -2   65.04    2.98
   0   7  -2   61.91    2.91
   0  -7   2   62.29    2.91
   0  -7   2   55.18    2.86
   0   7   3   20.12    1.40
   0   7  -3   18.94    1.35
   0   7  -3   19.07    1.36
   0   7  -3   17.81    1.31
   0  -7   3   14.91    1.27
   0  -7   3   14.23    1.21
   0   7  -3   18.62    1.31
   0   7   3   16.15    1.28
   0   7  -4   54.41    2.39
   0   7  -4   49.01    2.33
   0   7  -4   57.87    2.36
   0   7   4   58.51    2.47
   0   7  -4   55.40    2.41
   0   7   4   53.04    2.36
   0  -7   4   46.53    2.33
   0   7  -5   13.22    1.07
   0   7  -5   14.10    1.11
   0   7   5   12.19    1.01
   0  -7   5   11.68    1.07
   0   7   5   14.59    1.16
   0  -7   5   11.47    0.94
   0   7  -5   14.12    1.04
   0   7  -5   14.60    1.13
   0   7  -6    5.11    0.64
   0   7   6    4.89    0.74
   0  -7   6    5.13    0.64
   0   7  -6    5.82    0.71
   0   7  -6    5.89    0.71
   0   7   6    4.14    0.59
   0   7  -6    5.23    0.69
   0   7  -7   43.60    1.56
   0   7  -7   39.31    1.25
   0  -7   7   42.79    1.46
   0   7  -7   46.56    1.56
   0   7  -7   44.91    1.52
   0   7   7   44.34    1.53
   0   7  -8    2.79    0.44
   0   7   8    2.64    0.45
   0   7  -8    2.99    0.45
   0  -7   8    2.74    0.44
  -1   0  19    3.75    0.71
  -1   0  18   14.12    1.46
  -1   0  18   16.06    1.61
  -1   0  18   19.87    1.58
   1   0 -18   16.83    1.66
  -1   0  17    0.16    0.62
  -1   0  17    0.18    0.72
  -1   0  17   -0.27    0.74
  -1   0  17   -0.20    0.65
  -1   0  17    0.09    0.77
   1   0 -17    0.09    0.80
  -1   0  17   -0.05    0.44
  -1   0  17    0.54    0.76
  -1   0  17    0.22    0.42
  -1   0  16  535.21   17.37
  -1   0  16  506.18   17.53
  -1   0  16  483.82   17.33
  -1   0  16  439.23   16.69
  -1   0  16  460.85   16.16
  -1   0  16  501.08   17.60
  -1   0  16  501.38   17.53
   1   0 -16  514.12   17.73
  -1   0  16  480.99   17.19
  -1   0  15  122.11    6.20
  -1   0  15  131.58    6.21
  -1   0  15  113.21    5.60
  -1   0  15  120.22    6.00
  -1   0  15  108.96    5.08
  -1   0  15  121.55    6.11
  -1   0  15  128.95    6.28
  -1   0  15  129.96    6.27
   1   0 -15  127.54    6.37
  -1   0  15  131.52    6.10
  -1   0  15  115.36    5.41
  -1   0  15  119.55    6.14
   1   0 -14  198.51    8.63
  -1   0  14  192.71    8.49
  -1   0  14  165.63    7.69
  -1   0  14  203.70    8.48
  -1   0  14  170.15    7.24
  -1   0  14  194.04    8.47
  -1   0  14  193.86    8.37
  -1   0  14  197.39    8.54
  -1   0  14  184.58    7.71
  -1   0  14  197.67    8.28
  -1   0  14  191.18    8.32
  -1   0  14  203.97    8.59
  -1   0  13 1496.59   46.90
  -1   0  13 1456.67   46.62
  -1   0  13 1569.03   47.02
  -1   0  13 1337.14   45.97
  -1   0  13 1483.00   46.67
  -1   0  13 1309.42   45.16
  -1   0  13 1417.82   45.95
  -1   0  13 1571.07   46.73
  -1   0  13 1516.15   46.85
  -1   0  13 1564.81   47.00
   1   0 -13 1553.29   47.09
  -1   0  13 1398.25   45.47
  -1   0  13 1461.29   46.77
  -1   0  12   82.67    4.09
   1   0 -12   72.70    8.16
  -1   0  12   68.70    4.10
  -1   0  12   74.98    4.31
  -1   0  12   75.59    4.26
  -1   0  12   61.14    3.30
  -1   0  12   68.79    4.13
   1   0 -12   74.00    4.34
  -1   0  12   76.07    4.33
  -1   0  11  181.13    7.20
  -1   0  11  215.93    7.96
  -1   0  11  202.34    8.16
  -1   0  11  196.26    8.11
   1   0 -11  181.33   12.82
  -1   0  11  181.30    7.91
   1   0 -11  203.31    8.33
  -1   0  11  205.26    8.28
  -1   0  11  202.76    8.22
  -1   0  10  119.11    5.22
  -1   0  10  124.61    5.54
   1   0 -10  114.44    9.26
  -1   0  10  122.56    5.49
  -1   0  10  116.84    5.38
   1   0 -10  124.21    5.64
  -1   0  10  125.50    5.62
  -1   0  10  116.93    5.47
  -1   0  10  125.14    4.91
   1   0  -9    4.95    1.89
   1   0  -8    6.92    2.10
   1   0  -8   10.22    1.89
   1   0  -7  924.26   35.88
   1   0  -7 1084.49   34.41
   1   0  -6   39.36    3.88
   1   0  -6   42.65    3.18
   1   0  -5  458.83   17.16
   1   0  -5  427.34   15.62
   1   0  -4  731.27   24.08
   1   0  -4  659.04   22.72
   1   0  -3 2829.60   79.43
   1   0  -3 2370.17   78.00
   1   0  -2 1289.91   41.15
   1   0  -1 3666.50  112.58
   1   0   0 1207.14   39.16
  -1   0   0 1242.13   39.83
   1   0   0 1394.94   39.55
   1   0   0 1366.16   40.06
   1   0   1  508.41   16.37
   1   0   1  489.95   16.38
  -1   0  -1  524.70   17.03
   1   0   2   55.99    2.52
  -1   0  -2   61.16    2.82
  -1   0  -3  882.98   33.20
   1   0   3 1101.63   33.69
   1   0   4 2330.43   60.36
  -1   0  -4 2363.46   60.23
   1   0   5   63.14    3.94
  -1   0  -5   75.26    4.30
   1   0   6 1182.10   39.57
  -1   0  -6 1200.60   39.85
   1   0   7  222.95   10.50
  -1   0  -7  217.18   10.46
  -1   0  -8    3.64    1.37
   1   0   8    3.72    1.49
  -1   0  -9  196.01   11.05
   1   0  10  225.08    8.98
   1   0  10  230.33    8.96
   1   0  10  247.17    9.18
   1   0  10  242.96    9.07
   1   0  10  233.08    8.98
   1   0  10  235.35    8.82
  -1   0 -10  236.51   13.24
   1   0  10  238.04    9.04
   1   0  11   53.05    3.06
   1   0  11   59.04    3.50
   1   0  11   61.02    3.52
   1   0  11   54.47    3.38
   1   0  11   54.26    3.43
   1   0  11   60.73    3.38
   1   0  11   55.11    3.39
  -1   0 -11   52.93    6.14
   1   0  11   53.13    3.34
   1   0  12  225.97    9.28
   1   0  12  233.26    9.35
   1   0  12  227.24    9.23
  -1   0 -12  203.85   13.85
   1   0  12  204.08    8.52
   1   0  12  225.80    9.22
   1   0  12  236.00    9.32
   1   0  12  234.81    9.09
   1   0  12  242.37    9.39
   1   0  13  185.66    7.64
   1   0  13  193.61    8.24
   1   0  13  195.07    8.04
   1   0  13  186.14    8.16
   1   0  13  178.10    8.06
   1   0  13  188.90    7.90
   1   0  13  186.53    8.26
   1   0  13  179.46    7.72
   1   0  13  173.05    7.42
   1   0  13  189.44    7.52
   1   0  13  189.09    8.25
   1   0  13  202.75    7.71
   1   0  13  183.63    8.13
   1   0  14  334.53   12.23
   1   0  14  348.19   13.16
   1   0  14  288.99   11.86
   1   0  14  345.94   13.00
   1   0  14  342.09   12.32
   1   0  14  346.55   13.13
   1   0  14  342.49   13.05
   1   0  14  338.54   12.44
   1   0  14  341.02   12.64
   1   0  14  360.67   12.85
  -1   0 -14  340.38   13.00
   1   0  14  347.12   13.10
   1   0  14  323.87   12.02
  -1   0 -15   48.99    3.56
   1   0  15   47.47    3.47
   1   0  15   50.81    3.66
   1   0  15   49.58    2.97
   1   0  15   53.73    3.44
   1   0  15   52.04    3.60
   1   0  15   56.37    3.82
   1   0  15   51.78    3.45
   1   0  15   51.16    3.62
   1   0  15   53.71    3.19
   1   0  15   48.41    3.19
   1   0  15   54.21    3.19
   1   0  16   32.49    2.31
  -1   0 -16   35.17    2.88
   1   0  16   37.15    2.48
   1   0  16   32.35    2.61
   1   0  16   35.46    2.49
   1   0  16   33.34    2.80
   1   0  16   32.53    2.82
   1   0  16   33.90    2.62
   1   0  16   37.16    3.01
   1   0  16   36.46    2.90
   1   0  16   33.86    2.83
   1   0  17   27.22    1.77
   1   0  17   28.39    2.34
   1   0  17   25.62    2.15
   1   0  17   25.08    1.70
   1   0  17   22.74    1.83
  -1   0 -17   24.58    2.17
   1   0  17   30.74    2.33
   1   0  17   27.82    2.28
   1   0  17   27.31    2.03
   1   0  17   27.07    2.17
   1   0  18    1.76    0.71
   1   0  18    1.55    0.76
   1   0  18    1.29    0.70
   1   0  18    1.34    0.74
   1   0  18    1.07    0.51
  -1   0 -18    1.04    0.74
   1   0  19   19.26    1.18
  -1   1  19   11.50    1.02
   1   1 -19   11.31    0.75
  -1  -1  19   11.26    0.92
   1   1 -18   42.71    2.44
  -1   1  18   40.42    1.74
  -1  -1  18   38.19    1.58
  -1  -1  18   37.42    2.25
  -1   1  18   41.75    2.39
  -1   1  18   34.80    2.06
  -1  -1  18   46.35    2.12
   1  -1 -18   41.43    2.28
  -1  -1  18   39.47    2.17
  -1  -1  18   40.36    2.25
  -1   1  18   41.58    2.14
  -1  -1  17  135.88    3.46
   1  -1 -17  135.49    4.54
  -1  -1  17  134.83    4.52
  -1  -1  17   97.31    3.41
  -1   1  17  141.80    4.81
  -1   1  17  144.69    4.42
  -1  -1  17  145.49    4.27
  -1   1  17  137.52    4.48
  -1  -1  17  140.74    4.65
  -1  -1  17  139.24    3.93
  -1  -1  17  140.52    4.55
  -1   1  17   93.41    3.31
  -1   1  17  137.76    3.70
   1   1 -17  141.18    4.82
  -1  -1  16   68.62    3.43
  -1  -1  16   62.53    3.65
  -1  -1  16   63.59    3.42
  -1   1  16   67.93    4.13
   1  -1 -16   69.34    4.06
  -1  -1  16   70.41    4.04
  -1   1  16   69.69    4.08
   1   1 -16   68.30    4.16
  -1   1  16   73.56    4.03
  -1  -1  16   64.77    3.77
  -1  -1  16   67.68    3.71
  -1  -1  16   70.36    4.08
  -1   1  16   60.10    3.06
  -1   1  16   69.33    4.09
  -1   1  16   75.69    4.35
  -1  -1  16   68.09    4.05
  -1   1  16   70.15    4.08
  -1  -1  16   73.20    4.19
  -1  -1  16   62.41    3.71
  -1  -1  16   72.20    4.04
  -1   1  16   59.30    3.52
  -1  -1  16   69.30    3.85
   1   1 -15   97.08    5.40
  -1  -1  15  101.34    5.33
  -1   1  15   96.51    5.38
  -1  -1  15  107.46    5.38
  -1  -1  15  109.99    5.23
   1  -1 -15   97.72    5.30
  -1   1  15   81.62    4.65
  -1   1  15   90.34    4.21
  -1  -1  15   90.08    4.87
  -1  -1  15   98.23    4.74
  -1  -1  15   96.49    4.57
  -1  -1  15  102.27    5.04
  -1   1  15  103.27    5.54
  -1  -1  15  102.77    5.13
  -1   1  15   93.73    5.21
  -1   1  15  104.32    5.41
  -1   1  15   88.02    5.14
  -1   1  15  104.66    5.21
  -1  -1  15  103.09    5.39
  -1  -1  15   99.48    5.09
  -1  -1  15  102.93    5.30
  -1  -1  14   21.70    2.19
  -1   1  14   19.30    2.24
  -1  -1  14   23.44    2.41
  -1   1  14   20.54    1.71
   1  -1 -14   23.58    2.41
  -1  -1  14   21.52    2.17
  -1  -1  14   24.99    2.36
  -1   1  14   23.95    2.20
   1   1 -14   24.01    2.49
  -1  -1  14   23.97    2.14
  -1  -1  14   25.35    2.42
  -1   1  14   20.33    2.19
  -1  -1  14   28.38    2.46
  -1  -1  14   25.05    2.47
  -1   1  14   25.16    2.58
  -1  -1  14   23.20    2.23
  -1   1  14   21.92    2.36
  -1  -1  14   21.89    2.33
  -1   1  14   24.22    2.51
  -1   1  14   19.57    2.23
  -1  -1  14   18.36    1.74
  -1  -1  14   24.28    2.01
  -1   1  14   20.79    2.40
  -1  -1  13  118.58    5.88
  -1   1  13  129.71    5.88
  -1   1  13  129.95    6.39
  -1   1  13  124.42    6.19
  -1  -1  13  109.75    5.17
  -1  -1  13  135.33    6.32
  -1   1  13  117.83    6.16
  -1  -1  13  117.67    5.67
   1  -1 -13  126.69    6.23
  -1   1  13  127.34    6.38
  -1   1  13  130.31    6.11
  -1  -1  13  129.17    6.19
  -1  -1  13  121.90    6.09
  -1  -1  13  126.73    6.21
  -1   1  13  126.23    6.25
  -1   1  13  114.55    5.12
  -1  -1  13  128.25    6.04
  -1  -1  13  129.55    5.96
  -1  -1  13  124.80    5.97
  -1   1  13  126.02    6.31
  -1   1  13  130.62    6.41
  -1  -1  13  134.56    6.12
   1   1 -13  122.44    6.25
  -1   1  12   76.60    4.28
  -1  -1  12   82.77    4.50
  -1   1  12   80.44    4.57
  -1   1  12   81.32    4.62
   1  -1 -12   75.05    8.24
  -1  -1  12   73.12    4.17
  -1  -1  12   68.45    3.65
   1   1 -12   77.90    4.48
  -1   1  12   74.92    3.52
  -1  -1  12   74.25    4.29
  -1   1  12   75.94    4.39
   1  -1 -12   80.08    4.50
  -1   1  12   77.95    4.53
  -1  -1  12   76.00    4.24
  -1   1  12   72.37    4.37
  -1   1  12   72.71    4.43
  -1  -1  12   84.74    4.51
   1   1 -12   73.63    8.24
  -1  -1  12   81.09    4.22
  -1   1  12   79.66    4.14
   1   1 -11   33.00    5.21
  -1  -1  11   32.71    2.55
  -1   1  11   36.18    2.81
  -1   1  11   37.21    2.50
  -1   1  11   34.41    2.08
  -1  -1  11   33.57    2.53
   1  -1 -11   38.93    2.79
  -1   1  11   37.20    2.84
  -1   1  11   31.46    2.64
  -1  -1  11   33.91    2.64
  -1  -1  11   33.67    2.50
  -1   1  11   29.55    2.51
  -1  -1  11   34.44    2.47
   1  -1 -11   35.15    5.36
   1   1 -11   37.37    2.77
  -1  -1  11   31.41    2.18
  -1   1  11   36.26    2.82
  -1  -1  11   32.15    2.54
  -1   1  11   38.91    2.89
  -1  -1  11   32.09    2.49
  -1   1  10  182.22    6.71
  -1  -1  10  177.45    7.30
  -1  -1  10  187.31    7.46
  -1   1  10  218.53    7.51
  -1  -1  10  173.19    7.19
  -1  -1  10  192.45    7.32
  -1   1  10  166.20    7.37
   1   1 -10  183.60    7.57
  -1   1  10  187.26    7.68
  -1   1  10  181.45    7.63
   1  -1 -10  186.99    7.59
  -1   1  10  176.81    7.58
  -1  -1  10  191.09    7.40
  -1  -1  10  182.55    7.33
   1  -1 -10  171.91   11.70
   1   1 -10  172.73   11.70
  -1  -1  10  181.75    6.88
  -1   1  10  180.69    7.62
  -1  -1  10  179.08    7.45
  -1   1  10  171.26    7.50
  -1   1   9   26.49    2.11
  -1   1   9   26.32    2.15
  -1   1   9   23.99    1.85
   1  -1  -9   27.12    4.01
   1  -1  -9   29.41    3.23
  -1  -1   9   24.45    1.87
   1   1  -9   23.92    3.89
   1   1  -9   28.14    2.12
  -1   1   9   28.22    2.18
   1  -1  -9   28.39    2.13
  -1  -1   9   28.14    4.13
  -1   1   9   26.93    2.16
  -1   1   9   27.16    2.15
  -1  -1   9   26.79    1.95
   1   1  -8  657.18   27.02
  -1  -1   8  656.34   26.64
   1  -1  -8  661.94   27.16
   1   1  -7  557.45   23.47
  -1  -1   7  613.68   23.51
   1  -1  -7  593.14   23.79
   1   1  -6  236.13   11.58
   1  -1  -6  235.18   11.56
  -1  -1   6  249.81   11.43
   1  -1  -5   54.49    3.63
   1  -1  -5   50.70    4.04
  -1  -1   5   53.70    4.00
   1   1  -5   51.99    4.08
   1  -1  -4  621.43   21.44
   1   1  -4  654.22   21.60
   1  -1  -4  675.69   20.93
  -1  -1   4  603.51   20.84
  -1   1   4  576.27   18.50
  -1  -1   3 2354.69   70.64
   1  -1  -3 2141.60   71.08
   1   1  -3 2348.03   71.38
   1  -1  -3 2437.26   71.02
  -1   1   3 2208.35   69.13
  -1   1   2  532.71   16.78
   1  -1  -2  511.05   18.09
  -1  -1   2  501.09   17.24
   1  -1  -2  546.92   18.10
   1   1  -2  527.40   18.20
   1   1  -1 1346.89   42.41
   1  -1  -1 1260.18   42.22
  -1  -1   1 1256.32   41.15
   1  -1   0  167.09    6.50
  -1   1   0  170.73    5.81
   1   1   0  173.39    6.53
  -1  -1   0  181.17    6.05
   1  -1   1 7531.71  229.00
   1   1   1 7591.05  229.04
  -1   1  -2 9943.07  298.56
   1  -1   2 9999.00  298.42
   1   1   2 9621.79  298.47
  -1  -1  -3 2078.74   64.45
  -1   1  -3 2156.46   64.54
  -1  -1  -3 1886.16   63.86
   1   1   3 2286.88   64.95
  -1  -1  -3 2009.66   63.08
  -1   1  -3 2240.65   64.74
   1  -1   3 2139.76   64.64
  -1  -1  -4 2565.94   75.92
   1  -1   4 2783.60   78.55
  -1  -1  -4 2798.33   78.36
   1  -1   5  323.34   10.64
  -1  -1  -5  289.97   10.16
  -1   1  -5  299.77   10.36
  -1   1  -6  174.72    8.60
   1  -1   6  197.12    8.97
  -1  -1  -6  169.19    8.45
  -1  -1  -7  470.31   19.10
  -1   1  -7  484.68   19.33
   1  -1   8   35.78    4.02
  -1  -1  -8   29.50    3.53
  -1   1  -8   36.17    3.91
   1  -1   9  353.68   11.97
   1   1   9  367.10   12.25
   1  -1   9  334.34   11.82
   1   1   9  322.65   12.00
  -1   1  -9  329.31   15.98
   1  -1   9  315.67   11.72
   1  -1   9  327.93   11.76
  -1  -1  -9  333.00   15.81
   1   1   9  342.08   12.02
   1  -1   9  369.58   16.54
   1   1   9  334.03   12.02
   1  -1  10   51.81    2.99
   1   1  10   47.30    3.01
   1  -1  10   49.98    2.77
   1   1  10   36.65    2.42
   1  -1  10   44.93    2.85
  -1  -1 -10   46.99    5.29
   1   1  10   46.56    3.00
   1  -1  10   39.57    5.07
   1  -1  10   46.49    2.87
   1  -1  10   48.44    2.96
   1   1  10   51.98    3.16
   1  -1  10   47.09    2.78
  -1   1 -10   46.83    5.33
   1  -1  10   48.26    2.92
   1   1  10   49.87    3.04
   1   1  10   47.81    2.86
   1   1  10   48.80    2.97
   1   1  11   23.28    2.13
   1  -1  11   24.58    1.99
  -1   1 -11   19.13    3.79
   1  -1  11   19.56    2.00
   1  -1  11   19.61    1.87
   1  -1  11   22.01    2.06
   1  -1  11   24.00    2.08
  -1  -1 -11   20.13    3.75
   1  -1  11   22.91    4.11
   1   1  11   20.16    1.74
   1  -1  11   23.65    2.11
   1   1  11   22.35    2.15
   1   1  11   22.67    2.12
   1   1  11   21.82    2.07
   1  -1  11   20.17    2.01
   1   1  11   21.55    1.98
  -1   1 -12   92.10    8.89
   1   1  12  104.06    4.77
   1  -1  12  109.87    5.22
   1  -1  12  108.79    5.34
   1   1  12  110.68    5.49
   1  -1  12  106.40    4.94
   1   1  12   85.49    4.50
   1   1  12   99.69    5.18
   1  -1  12  103.97    5.24
   1  -1  12  103.71    5.29
   1   1  12  109.50    5.40
  -1  -1 -12   78.58    8.15
   1  -1  12  105.28    5.06
   1   1  12  106.28    5.30
   1  -1  12  107.00    5.15
   1   1  12  106.82    5.16
   1  -1  12   96.59    5.11
   1  -1  12  105.93    5.14
   1   1  12  104.55    5.36
   1  -1  12  103.23    5.28
   1  -1  13  110.22    5.62
   1  -1  13  109.72    5.25
   1   1  13  108.03    5.38
   1   1  13  109.14    5.53
   1   1  13  116.15    5.83
   1  -1  13  104.08    5.20
   1  -1  13  116.13    5.22
   1  -1  13  111.81    5.47
   1  -1  13  102.06    5.24
   1  -1  13  116.08    5.76
   1  -1  13  111.93    5.62
   1  -1  13  106.90    5.16
   1  -1  13  111.77    5.64
   1  -1  13  103.88    5.06
   1   1  13  112.06    5.67
   1   1  13  113.13    5.79
   1   1  13  108.85    5.00
   1  -1  13  105.98    5.32
   1   1  13   81.07    4.56
   1   1  13  102.00    4.78
   1  -1  14   70.58    4.31
   1  -1  14   74.28    4.29
   1  -1  14   74.03    4.48
   1   1  14   69.90    4.12
  -1  -1 -14   67.02    4.09
   1   1  14   72.54    3.81
   1   1  14   67.29    4.36
   1  -1  14   70.86    3.97
   1  -1  14   69.79    4.29
   1   1  14   69.73    4.43
   1   1  14   68.59    4.19
  -1   1 -14   70.57    4.29
   1  -1  14   70.09    3.86
   1   1  14   71.45    4.35
   1   1  14   61.18    3.48
   1  -1  14   73.68    4.17
   1  -1  14   73.55    4.43
   1  -1  14   69.33    3.88
   1  -1  14   70.30    4.01
   1  -1  14   65.67    3.78
   1   1  15   14.94    1.95
   1  -1  15   16.17    2.00
   1  -1  15   10.89    1.43
   1   1  15   13.99    1.54
   1   1  15   13.19    1.76
   1  -1  15   15.82    1.77
   1  -1  15   14.20    1.68
   1  -1  15   12.43    1.75
   1   1  15   13.61    1.74
   1   1  15   14.62    2.03
   1   1  15   12.04    1.88
   1  -1  15   12.94    1.86
   1   1  15   12.68    1.75
   1  -1  15   13.51    1.70
  -1  -1 -15   12.84    1.73
   1  -1  15   13.06    1.53
   1  -1  15   13.69    1.97
  -1   1 -15   10.98    1.69
   1  -1  15   15.27    1.98
   1   1  15   11.28    1.34
   1   1  16  151.11    6.06
   1   1  16  151.55    6.60
   1  -1  16  145.04    6.75
  -1  -1 -16  138.72    6.48
   1  -1  16  147.53    6.08
   1   1  16  148.34    6.86
   1  -1  16  145.05    6.69
   1  -1  16  149.62    6.29
   1   1  16  147.30    6.86
   1  -1  16  145.15    6.50
   1   1  16  135.54    6.23
   1  -1  16  147.22    6.26
   1  -1  16  148.27    6.88
   1   1  16  142.41    6.68
   1  -1  16  144.98    6.40
   1   1  16  137.10    5.78
  -1   1 -16  146.95    6.77
   1  -1  16  147.78    6.71
   1   1  17   32.72    2.40
   1   1  17   27.55    1.80
   1  -1  17   30.94    2.49
   1  -1  17   29.97    2.21
   1  -1  17   26.50    2.17
  -1   1 -17   30.30    2.46
   1  -1  17   28.30    2.09
   1  -1  17   30.07    1.92
   1   1  17   28.66    2.37
   1  -1  17   30.33    2.40
   1   1  17   29.46    2.48
   1  -1  17   31.83    2.58
   1  -1  17   28.48    2.36
  -1  -1 -17   27.88    2.30
   1   1  17   33.03    2.04
   1  -1  17   32.84    2.18
   1   1  17   29.55    2.48
   1   1  18   72.91    3.16
   1  -1  18   70.35    3.27
   1  -1  18   75.76    3.83
  -1  -1 -18   72.47    3.66
   1  -1  18   77.06    3.41
  -1   1 -18   79.32    3.90
   1  -1  18   69.69    3.62
   1   1  18   74.73    3.78
   1  -1  18   72.36    3.67
   1  -1  18   69.74    3.16
   1  -1  18   69.49    3.58
   1   1  18   70.73    3.72
   1   1  19   89.00    3.46
  -1   1 -19   95.46    3.36
   1  -1  19   89.77    3.36
   1   2 -18    2.31    0.46
  -1   2  18    2.29    0.54
  -1  -2  18    2.30    0.57
  -1   2  18    2.09    0.55
  -1  -2  18    1.71    0.44
   1   2 -17    4.84    0.74
  -1  -2  17    6.49    1.03
  -1  -2  17    3.42    0.81
  -1  -2  17    6.92    0.97
  -1  -2  17    6.65    0.90
   1  -2 -17    4.26    0.84
  -1   2  17    5.38    1.14
  -1   2  17    4.79    0.91
  -1  -2  17    4.93    1.01
  -1   2  17    6.26    0.92
  -1  -2  17    6.75    0.89
  -1  -2  17    4.62    0.91
   1   2 -17    5.88    1.06
  -1   2  17    5.60    1.07
  -1   2  17    3.19    0.87
  -1  -2  16   23.56    1.73
  -1  -2  16   20.74    1.97
  -1  -2  16   23.64    2.18
  -1  -2  16   26.71    1.93
  -1   2  16   27.00    1.97
  -1   2  16   24.78    2.22
  -1   2  16   23.15    2.34
  -1  -2  16   23.65    2.08
   1  -2 -16   21.04    1.93
  -1  -2  16   25.03    1.91
  -1  -2  16   24.41    2.08
  -1  -2  16   21.64    1.96
  -1  -2  16   25.87    2.02
  -1   2  16   17.71    1.84
  -1   2  16   21.66    1.95
   1   2 -16   23.56    2.21
  -1   2  15    5.11    1.13
  -1  -2  15    7.74    1.16
   1   2 -15    5.97    1.32
  -1  -2  15    4.22    1.05
  -1  -2  15    4.75    1.06
  -1  -2  15    4.24    1.11
  -1   2  15    6.64    1.21
  -1   2  15    4.73    0.88
  -1  -2  15    4.10    1.16
  -1   2  15    6.68    1.53
   1  -2 -15    5.85    1.16
  -1   2  15    3.90    1.18
  -1  -2  15    6.12    1.31
  -1  -2  15    4.17    1.15
  -1  -2  15    6.16    1.11
  -1  -2  15    5.84    1.01
  -1   2  15    5.54    1.10
  -1   2  15    4.03    1.14
  -1  -2  14    9.92    1.59
  -1  -2  14    9.03    1.62
  -1  -2  14    5.59    1.13
  -1  -2  14    7.59    1.35
   1  -2 -14    8.18    1.43
  -1  -2  14    9.45    1.53
  -1  -2  14    7.82    1.36
  -1  -2  14    7.53    1.46
  -1  -2  14    9.92    1.50
  -1   2  14    9.21    1.47
  -1   2  14    6.28    1.46
  -1  -2  14    8.76    1.35
  -1   2  14    8.42    1.40
  -1   2  14    5.03    1.31
  -1  -2  14    9.19    1.57
  -1   2  14   11.69    1.78
  -1  -2  14    8.89    1.30
  -1   2  14    9.58    1.25
  -1   2  14    8.72    1.77
   1   2 -14    8.50    1.51
  -1   2  13   82.40    4.99
  -1  -2  13   74.60    4.04
  -1  -2  13   89.31    4.52
  -1  -2  13   81.94    4.68
  -1   2  13   89.20    4.53
  -1  -2  13   80.37    4.31
  -1  -2  13   84.43    4.59
  -1   2  13   87.57    4.57
   1   2 -13   86.07    4.80
   1   2 -13   82.21    4.21
  -1  -2  13   89.79    4.68
  -1   2  13   84.03    4.23
  -1  -2  13   84.75    4.63
  -1  -2  13   83.77    4.47
  -1  -2  13   84.88    4.72
  -1   2  13   80.91    4.50
   1  -2 -13   80.50    4.52
  -1  -2  13   84.23    4.57
  -1   2  13   84.61    4.70
  -1  -2  13   93.57    4.92
  -1   2  13   79.46    4.76
  -1   2  13   82.70    4.93
  -1  -2  13   83.63    4.67
  -1  -2  12   76.21    4.16
  -1   2  12   76.94    4.37
  -1  -2  12   91.66    4.54
   1  -2 -12   72.94    4.22
  -1  -2  12   78.03    4.38
  -1  -2  12   74.94    4.29
  -1   2  12   76.84    4.21
  -1  -2  12   81.79    4.28
  -1   2  12   78.58    4.57
  -1  -2  12   77.26    4.28
  -1  -2  12   71.06    3.89
  -1  -2  12   77.81    4.35
   1   2 -12   81.87    4.53
  -1  -2  12   83.06    4.43
  -1   2  12   87.99    4.91
  -1  -2  12   76.32    4.16
   1  -2 -12   54.66    6.90
  -1   2  12   77.96    4.71
   1   2 -12   70.90    3.87
   1   2 -12   77.74    8.40
  -1   2  12   75.40    4.24
  -1   2  12   71.77    3.89
  -1  -2  12   71.47    4.18
  -1   2  12   79.36    4.33
  -1   2  12   79.59    3.66
  -1   2  11  177.04    6.58
  -1  -2  11  168.73    7.24
  -1  -2  11  178.14    7.39
  -1  -2  11  163.98   11.92
  -1   2  11  169.97    7.82
  -1   2  11  200.91    7.47
  -1   2  11  169.63    7.59
   1  -2 -11  162.19    7.23
  -1  -2  11  165.06    6.82
   1   2 -11  178.64   12.55
  -1  -2  11  173.76    7.33
  -1  -2  11  163.32    7.18
  -1  -2  11  162.02    7.02
   1  -2 -11  146.02   11.34
   1   2 -11  167.62    7.41
  -1   2  11  170.99    7.76
  -1  -2  11  189.41    7.43
  -1  -2  10  358.91   13.34
  -1   2  10  430.97   13.80
   1   2 -10  384.31   13.80
  -1  -2  10  389.03   13.66
  -1   2  10  374.85   14.22
  -1  -2  10  375.53   19.01
  -1  -2  10  370.93   13.51
  -1  -2  10  384.67   13.22
   1   2 -10  368.26   19.21
  -1  -2  10  368.35   13.55
   1  -2 -10  359.49   18.77
  -1   2  10  400.87   14.36
  -1  -2  10  386.21   13.65
   1  -2 -10  386.56   13.70
  -1   2  10  398.61   12.93
  -1   2  10  373.12   14.02
   1  -2  -9  307.06   15.83
  -1  -2   9  312.59   10.77
  -1   2   9  306.15   11.66
  -1   2   9  317.08   11.10
  -1  -2   9  292.52   10.94
  -1  -2   9  308.85   11.05
   1  -2  -9  292.56   11.06
  -1  -2   9  287.24   10.86
  -1   2   9  296.12   11.42
  -1  -2   9  308.24   11.03
  -1  -2   9  317.93   16.00
   1   2  -9  325.74   16.30
  -1   2   9  325.54   11.83
  -1   2   9  325.79   10.55
   1   2  -9  307.65   11.20
  -1  -2   8  270.80    9.90
  -1  -2   8  299.44   14.61
   1  -2  -8  267.21   13.99
   1   2  -8  270.26   14.20
  -1   2   8  284.46   10.68
  -1   2   8  260.93   10.39
  -1  -2   8  275.67    9.96
   1  -2  -8  330.57   13.20
  -1   2   8  287.82   10.72
  -1   2   8  293.31   10.18
  -1  -2   8  300.65   10.18
  -1  -2   8  274.67    9.79
   1  -2  -7  269.58   11.70
   1   2  -7  231.80   12.36
   1  -2  -7  240.83   12.38
  -1  -2   7  265.15   12.77
   1  -2  -6  209.46    9.81
   1  -2  -6  195.23   10.13
   1   2  -6  203.47   10.37
  -1  -2   6  192.87    9.99
  -1  -2   5  465.49   17.54
   1   2  -5  414.12   17.41
   1  -2  -5  426.43   17.43
   1   2  -4  626.25   22.99
  -1  -2   4  637.37   22.66
   1  -2  -4  611.28   22.79
   1  -2  -4  700.14   23.38
  -1  -2   3  430.15   15.85
   1  -2  -3  439.25   16.09
   1  -2  -3  428.04   16.48
   1   2  -3  445.44   16.28
   1  -2  -2  308.51   12.96
   1  -2  -2  311.74   12.15
   1   2  -2  346.16   12.49
  -1  -2   2  318.55   12.18
  -1   2   1 1334.11   39.17
   1  -2  -1 1208.46   40.72
   1   2  -1 1179.17   38.56
   1  -2  -1 1104.11   38.53
  -1  -2   1 1366.35   39.75
   1  -2   0  891.09   24.21
   1  -2   0  579.01   20.68
   1   2   0  901.20   23.93
  -1  -2   0  746.12   22.03
  -1   2   0  755.52   21.70
   1   2   0  595.74   20.72
   1   2   1  640.49   20.35
   1  -2   1  681.98   22.56
   1   2   1  714.33   22.43
   1  -2   1  598.30   20.18
  -1   2  -1  644.04   20.91
  -1  -2  -1  626.53   21.04
   1  -2   2   89.70    4.99
  -1   2  -2   89.66    4.11
   1   2   2   95.19    4.93
  -1  -2  -3  101.46    4.83
  -1  -2  -3  107.67    5.21
   1  -2   3  133.10    6.43
   1   2   3  130.48    6.20
  -1   2  -3  101.62    4.93
  -1  -2  -4  225.48    8.71
  -1  -2  -4  190.87    8.67
   1  -2   4  254.49   10.44
  -1   2  -4  201.22    8.92
  -1  -2  -4  267.67    9.19
  -1  -2  -5  313.46   12.48
  -1   2  -5  333.54   12.84
  -1  -2  -6  512.02   19.18
  -1   2  -6  522.68   19.50
  -1  -2  -7  373.61   15.68
  -1   2  -7  394.86   16.21
   1  -2   8   55.69    3.00
   1  -2   8   60.85    3.13
   1   2   8   62.04    3.35
   1   2   8   59.32    3.40
   1  -2   8   58.58    3.06
   1   2   8   62.84    3.46
  -1  -2  -8   55.80    4.91
   1  -2   8   60.53    3.15
   1  -2   8   62.01    3.03
  -1   2  -8   53.57    5.07
   1   2   9   36.33    2.47
   1   2   9   37.18    2.68
  -1  -2  -9   30.87    3.92
   1  -2   9   36.75    2.41
   1   2   9   35.56    2.55
   1   2   9   32.96    2.45
   1  -2   9   33.19    2.32
   1  -2   9   39.27    2.51
   1   2   9   25.74    1.97
  -1   2  -9   32.94    4.23
   1  -2   9   39.46    2.41
   1  -2   9   39.17    2.50
   1   2   9   30.83    2.30
   1   2   9   39.07    2.77
   1  -2   9   41.41    2.49
   1   2  10  293.49   11.04
   1   2  10  298.12   11.08
   1  -2  10  316.34   11.17
   1  -2  10  306.60   11.10
   1   2  10  313.05   11.58
   1  -2  10  291.98   11.00
   1  -2  10  359.83   11.21
  -1   2 -10  277.64   15.34
  -1  -2 -10  261.32   14.50
   1  -2  10  314.40   11.18
   1  -2  10  332.08   16.97
   1   2  10  220.59   10.22
   1   2  10  301.74   11.53
   1  -2  10  320.75   11.04
   1   2  10  312.46   11.37
   1   2  10  311.97   11.40
   1   2  11  122.21    5.72
   1  -2  11  120.58    5.69
  -1  -2 -11  105.68    8.70
   1  -2  11  137.70    5.83
   1  -2  11  131.34    5.88
   1   2  11  118.43    5.66
   1   2  11  126.76    5.94
   1   2  11   93.44    4.98
   1   2  11  120.35    6.02
   1  -2  11  142.28    5.80
   1   2  11  130.04    6.04
   1  -2  11  126.20    5.77
   1   2  11  119.87    6.06
   1  -2  11  124.89    5.79
   1  -2  11  123.42   10.18
  -1   2 -11  107.66    9.24
   1   2  12   30.98    2.53
   1  -2  12   34.39    2.76
   1   2  12   29.14    2.58
   1  -2  12   29.54    2.41
   1  -2  12   27.76    2.20
   1  -2  12   30.15    2.58
   1   2  12   31.48    2.80
   1  -2  12   33.88    2.56
  -1   2 -12   28.92    2.42
   1   2  12   19.19    1.95
   1   2  12   33.16    2.85
   1  -2  12   30.85    2.55
   1   2  12   30.69    2.67
   1   2  12   26.72    2.38
   1  -2  12   30.92    2.55
   1   2  12   29.95    2.22
   1   2  12   27.22    2.10
   1  -2  12   34.34    2.66
  -1  -2 -12   27.16    2.23
   1   2  12   29.45    2.22
   1   2  12   28.65    2.47
   1  -2  12   32.45    2.66
   1  -2  13  107.35    5.31
   1   2  13  100.19    5.36
   1   2  13   90.32    4.93
   1  -2  13  105.86    5.28
   1   2  13  100.12    4.68
  -1   2 -13   98.56    5.13
   1   2  13  101.06    5.49
   1  -2  13  102.04    5.31
   1  -2  13   93.71    4.63
   1  -2  13   99.30    5.30
   1  -2  13  102.45    5.28
  -1  -2 -13   85.83    4.68
   1  -2  13  106.65    5.04
   1   2  13   93.78    5.20
   1   2  13   96.82    4.69
   1   2  13   92.26    4.50
   1   2  13   97.47    5.07
   1  -2  13  102.30    5.03
   1   2  14   88.70    4.31
   1  -2  14   95.86    5.08
   1   2  14   99.31    4.55
  -1   2 -14   92.75    4.97
   1  -2  14   98.98    5.20
   1  -2  14   91.61    5.01
   1   2  14   87.79    4.75
   1   2  14  102.73    5.27
   1  -2  14   87.67    4.64
   1   2  14   98.76    5.39
  -1  -2 -14   86.42    4.60
   1  -2  14  100.94    4.84
   1   2  14   89.72    4.48
   1  -2  14   93.69    4.88
   1   2  14   92.27    4.91
   1  -2  14   97.60    4.85
   1  -2  14  103.58    5.20
   1  -2  14   95.22    5.21
  -1  -2 -15   50.20    3.27
   1  -2  15   57.58    3.79
   1  -2  15   56.53    3.33
   1   2  15   60.03    3.66
   1   2  15   60.17    3.90
   1  -2  15   66.92    3.89
   1  -2  15   57.39    3.64
  -1   2 -15   58.60    3.71
   1  -2  15   61.00    3.44
   1  -2  15   61.45    3.51
   1   2  15   58.99    3.27
   1   2  15   58.49    3.19
   1  -2  15   59.82    3.56
   1  -2  15   61.24    3.84
   1  -2  15   58.60    3.70
   1  -2  16   41.21    2.86
   1   2  16   42.33    3.05
   1  -2  16   38.36    2.80
   1   2  16   42.39    2.82
   1   2  16   41.27    2.48
   1  -2  16   38.76    2.87
   1  -2  16   44.25    2.79
   1   2  16   39.38    2.37
   1  -2  16   39.45    2.79
   1  -2  16   44.67    2.66
   1  -2  16   43.52    2.65
  -1  -2 -16   34.85    2.49
  -1   2 -16   40.47    2.88
   1  -2  16   40.83    2.79
   1  -2  16   40.73    2.95
  -1   2 -17   77.11    3.93
  -1  -2 -17   62.47    3.47
   1  -2  17   74.37    3.85
   1  -2  17   76.47    3.83
   1  -2  17   86.03    3.67
   1   2  17   76.64    3.36
   1  -2  17   81.97    3.76
   1  -2  17   71.48    3.84
   1  -2  17   79.52    3.56
   1   2  17   79.15    3.50
   1   2  17   76.32    4.01
   1  -2  17   78.56    3.82
   1  -2  17   75.37    3.80
   1  -2  17   79.68    4.04
  -1   2 -17   86.17    3.53
   1  -2  18   37.81    1.79
   1  -2  18   41.64    1.78
   1  -2  18   38.28    1.92
  -1   2 -18   42.81    1.73
   1   2  18   34.95    1.53
   1   2  18   36.09    1.66
   1   2  18   30.79    1.38
  -1  -3  18   11.58    0.88
  -1   3  18   13.90    0.86
   1   3 -17   16.06    0.98
  -1  -3  17   16.30    1.19
  -1   3  17   15.48    1.10
  -1   3  17   13.31    0.84
  -1  -3  17   13.86    1.02
  -1  -3  16    8.70    1.17
  -1  -3  16   12.22    1.30
   1   3 -16   11.82    1.03
  -1  -3  16   10.40    1.26
  -1   3  16   11.79    1.10
  -1  -3  16   11.34    1.16
  -1  -3  16   11.17    1.37
  -1   3  16    7.57    1.14
  -1  -3  16   11.49    1.13
  -1  -3  15   17.37    1.70
  -1   3  15   21.14    1.69
   1   3 -15   20.66    1.54
  -1  -3  15   19.36    1.98
  -1  -3  15   16.71    1.80
  -1   3  15   17.34    1.54
  -1   3  15   14.98    1.80
  -1  -3  15   19.25    1.89
  -1  -3  15   18.07    1.80
  -1  -3  15   18.10    1.68
  -1  -3  15   18.29    1.84
  -1  -3  14   50.20    3.26
  -1   3  14   55.06    3.15
  -1  -3  14   63.81    3.75
   1   3 -14   57.96    3.03
  -1  -3  14   58.76    3.57
  -1   3  14   49.90    3.40
  -1   3  14   60.41    3.74
  -1  -3  14   54.82    3.07
  -1   3  14   60.17    3.31
  -1  -3  14   63.26    3.65
  -1  -3  14   52.28    3.05
  -1   3  14   58.52    3.27
  -1  -3  14   59.94    3.58
  -1  -3  14   59.87    3.62
  -1  -3  14   56.90    3.37
  -1   3  13    1.73    1.04
  -1  -3  13    2.70    0.96
  -1  -3  13    3.68    1.13
   1   3 -13    2.75    0.77
  -1  -3  13    3.86    1.22
  -1  -3  13    3.20    1.03
  -1  -3  13    2.32    0.90
  -1   3  13    3.42    1.16
  -1   3  13    2.42    0.82
  -1   3  13    3.24    1.04
  -1  -3  13    2.71    1.13
  -1   3  13    1.23    0.67
  -1   3  13    2.67    0.86
  -1  -3  13    1.40    0.96
  -1  -3  12   25.60    2.30
  -1  -3  12   24.07    2.09
  -1  -3  12   23.40    2.30
  -1   3  12   24.23    2.38
  -1   3  12   15.66    1.74
  -1   3  12   22.32    2.39
  -1   3  12   26.80    2.20
  -1  -3  12   26.60    2.43
  -1  -3  12   23.96    2.28
   1   3 -12   22.63    1.84
  -1  -3  12   27.76    2.43
  -1   3  12   25.79    2.09
  -1   3  12   23.96    2.26
  -1  -3  12   24.06    2.18
  -1  -3  11   27.08    2.27
   1   3 -11   25.34    1.92
  -1   3  11   18.55    1.92
  -1   3  11   24.21    2.43
  -1  -3  11   26.82    2.39
  -1  -3  11   23.74    2.20
  -1   3  11   25.21    2.40
  -1   3  11   25.19    2.12
  -1   3  11   23.33    2.00
  -1  -3  11   23.97    2.22
  -1  -3  11   24.27    2.26
  -1  -3  11   25.02    2.31
  -1   3  11   17.80    1.99
  -1  -3  11   27.26    2.42
  -1   3  10    4.35    0.98
   1   3 -10    5.56    0.93
  -1  -3  10    4.05    1.02
  -1   3  10    4.39    1.25
  -1  -3  10    5.18    1.17
  -1   3  10    5.15    1.44
   1   3 -10    4.38    0.97
  -1   3  10    3.98    1.01
  -1  -3  10    4.75    1.18
  -1  -3  10    5.14    2.22
  -1  -3  10    4.06    1.13
  -1   3  10    4.26    1.14
  -1   3  10    3.36    0.95
  -1   3  10    4.98    1.00
  -1  -3  10    5.59    1.08
  -1  -3   9   61.01    3.35
  -1   3   9   58.35    3.17
  -1  -3   9   58.91    3.35
  -1  -3   9   61.64    3.43
  -1   3   9   63.46    4.13
  -1  -3   9   59.75    6.52
  -1  -3   9   58.43    3.32
  -1   3   9   60.30    3.86
  -1   3   9   59.80    3.61
  -1  -3   9   74.61    3.77
  -1   3   8   75.92    3.61
  -1   3   8   74.55    4.02
  -1  -3   8   79.10    3.84
  -1  -3   8   71.96    3.67
  -1   3   8   77.05    4.51
  -1  -3   8   80.02    7.14
  -1   3   8   71.94    4.24
  -1  -3   8   88.19    4.14
  -1  -3   7   33.03    2.14
  -1   3   7   33.20    2.68
  -1   3   7   30.58    2.45
   1  -3  -7   34.09    3.99
  -1   3   7   28.93    2.25
  -1  -3   7   27.06    1.93
  -1  -3   7   31.94    4.16
  -1   3   7   27.59    2.01
  -1  -3   7   34.05    2.34
  -1   3   6    1.55    0.81
   1   3  -6    4.25    1.62
   1  -3  -6    0.85    1.05
  -1  -3   6    3.03    0.65
  -1   3   6    1.99    0.73
  -1  -3   6    4.17    1.51
  -1  -3   6    2.78    0.69
  -1  -3   5  125.05    7.64
   1  -3  -5  137.25    8.18
   1   3  -5  115.14    5.63
  -1  -3   4  107.25    6.71
   1  -3  -4  112.74    7.36
  -1  -3   3   79.62    5.33
   1   3  -3  102.93    6.47
   1  -3  -3   91.29    6.31
  -1  -3   2  182.11    8.95
   1  -3  -2  183.37    9.95
   1   3  -2  237.64   10.57
   1  -3  -2  245.39   11.14
  -1   3   1  111.04    5.62
   1  -3  -1   98.94    6.65
  -1  -3   1  107.82    5.92
   1   3  -1  134.07    7.25
   1  -3  -1  132.65    7.48
  -1   3   0 1491.25   47.77
  -1  -3   0 1445.91   48.08
   1   3   0 1790.00   50.14
   1  -3   0 1758.15   50.75
  -1   3  -1  640.59   22.05
   1   3   1  680.96   23.79
   1  -3   1  634.60   23.91
  -1  -3  -1  613.87   22.20
   1  -3   2    3.48    1.48
  -1   3  -2    4.16    1.12
  -1  -3  -2    4.14    1.11
   1   3   2    2.74    1.28
   1   3   3  146.93    8.00
  -1  -3  -3  151.85    7.37
  -1   3  -3  156.34    7.28
   1  -3   3  141.94    8.15
  -1   3  -4    6.98    1.51
   1  -3   4    6.84    1.84
   1  -3   5   70.42    5.79
  -1   3  -5   74.38    5.08
  -1   3  -5   68.21    3.78
  -1   3  -6   22.63    2.06
   1  -3   6   21.43    1.64
   1  -3   6   25.40    1.78
   1  -3   6   22.40    1.71
   1  -3   6   26.52    3.66
   1  -3   6   22.00    1.68
   1  -3   6   23.72    1.72
   1  -3   7  232.76    8.01
  -1   3  -7  200.20    8.54
   1  -3   7  217.77    7.96
   1  -3   7  223.05    8.01
   1  -3   7  214.89    7.90
   1  -3   7  233.01   12.39
   1   3   7  222.77    8.62
   1  -3   7  208.82    7.92
   1  -3   7  203.31    7.85
   1  -3   8  177.43    7.07
   1  -3   8  192.80    7.16
   1  -3   8  185.53    7.17
   1  -3   8  169.74    6.99
   1  -3   8  205.99    7.43
   1   3   8  187.61    7.76
   1   3   8  165.03    7.12
   1  -3   8  193.53   11.64
   1   3   8  141.49    6.74
  -1   3  -8  166.92    7.60
   1  -3   8  181.97    7.14
   1  -3   8  174.29    7.00
   1   3   8  193.57    7.89
   1   3   9   13.06    1.78
   1  -3   9   12.84    3.29
   1  -3   9   13.40    1.65
   1  -3   9   11.22    1.44
   1   3   9   11.94    1.75
   1  -3   9   11.02    1.42
   1   3   9   10.52    1.37
  -1   3  -9   11.52    1.68
   1  -3   9   12.46    1.51
   1   3   9   10.91    1.50
   1  -3   9   13.92    1.56
   1  -3   9   12.45    1.49
   1  -3   9   14.37    1.58
   1   3  10   10.29    1.31
   1  -3  10   12.00    1.64
   1  -3  10    9.62    1.39
   1  -3  10   11.42    1.56
   1  -3  10   11.97    1.64
   1  -3  10   10.58    1.47
   1   3  10   13.18    1.88
   1   3  10    9.83    1.67
   1  -3  10   10.37    1.47
   1   3  10   12.13    1.40
   1  -3  10   12.21    1.64
   1  -3  10   12.07    1.53
  -1   3 -10    7.78    1.51
   1   3  10   10.07    1.43
   1   3  10    7.56    1.26
   1   3  10   10.33    1.36
   1   3  10    7.83    1.39
   1   3  10    8.39    1.23
   1  -3  10   17.94    3.90
   1   3  10    9.37    1.32
   1  -3  10   11.44    1.49
   1  -3  10   10.79    1.45
   1  -3  10   11.14    1.50
   1  -3  11   37.27    2.76
   1  -3  11   42.04    2.93
   1  -3  11   43.69    2.93
   1   3  11   38.16    3.13
   1  -3  11   36.90    2.77
   1   3  11   38.48    2.87
   1   3  11   39.96    2.61
   1  -3  11   41.38    2.98
   1  -3  11   40.23    2.94
   1  -3  11   39.75    2.88
   1   3  11   28.55    2.45
   1  -3  11   39.83    2.93
   1   3  11   40.84    2.68
   1  -3  11   45.34    3.03
   1   3  11   42.81    3.29
   1  -3  11   43.42    3.06
   1   3  11   35.33    2.67
   1  -3  12   90.73    4.95
   1  -3  12   92.38    4.82
   1  -3  12   92.62    4.84
   1  -3  12  101.73    5.09
   1   3  12   89.84    4.79
   1  -3  12   96.51    4.95
   1  -3  12  105.00    5.02
   1  -3  12   97.49    5.14
   1  -3  12   96.45    5.01
   1   3  12   99.37    5.39
   1   3  12   91.06    4.45
   1   3  12   85.88    4.67
   1   3  12   92.12    4.56
   1  -3  12   92.68    4.70
   1  -3  12   96.62    4.89
   1  -3  12   90.02    4.84
   1   3  12   98.03    4.67
   1  -3  13  174.50    7.70
  -1   3 -13  173.81    7.04
   1   3  13  185.51    7.57
   1  -3  13  169.12    7.50
   1   3  13  183.39    7.35
   1  -3  13  194.65    7.66
   1   3  13  168.67    7.00
   1  -3  13  200.21    7.96
   1  -3  13  175.36    7.61
   1   3  13  188.47    8.19
   1  -3  13  169.94    7.26
   1  -3  13  169.77    7.16
   1  -3  13  168.35    7.52
   1   3  13  178.42    7.25
   1  -3  13  166.94    7.66
   1  -3  13  181.31    7.61
   1  -3  13  195.01    8.10
  -1   3 -14   15.56    1.52
   1  -3  14   14.24    1.56
   1  -3  14   14.86    1.85
   1  -3  14   12.83    1.65
   1   3  14   13.28    1.41
   1   3  14   15.85    1.63
   1  -3  14   14.95    1.86
   1  -3  14   13.66    1.70
   1  -3  14   15.89    1.75
   1  -3  14   17.60    2.03
   1  -3  14   14.18    1.74
   1   3  14   13.11    1.47
   1  -3  14   15.09    1.82
   1  -3  14   15.36    1.70
   1  -3  14   16.39    1.79
   1  -3  15   26.93    2.24
  -1   3 -15   30.59    2.02
   1  -3  15   31.92    2.48
   1  -3  15   32.16    2.60
   1   3  15   30.92    2.16
   1   3  15   28.92    2.01
   1  -3  15   30.98    2.36
   1  -3  15   28.69    2.00
   1  -3  15   27.93    2.11
   1   3  15   28.93    1.92
   1  -3  15   30.17    2.16
   1  -3  15   30.83    2.41
   1  -3  15   29.48    2.28
   1   3  15   27.82    1.93
   1  -3  15   32.59    2.33
   1  -3  15   30.16    2.43
   1  -3  15   34.68    2.40
  -1   3 -16   11.10    1.08
   1  -3  16   11.63    1.23
   1  -3  16    9.30    1.21
   1  -3  16   11.30    1.36
   1  -3  16    9.61    1.13
   1   3  16    9.00    0.88
   1   3  16   10.06    1.10
   1  -3  16   11.41    1.16
   1  -3  16    9.89    1.19
   1  -3  16   10.15    1.36
   1  -3  16   11.25    1.29
   1   3  16    9.46    0.97
   1  -3  16    7.70    1.12
   1  -3  17   13.35    1.06
   1  -3  17   11.41    1.06
   1  -3  17   11.80    1.18
  -1   3 -17   13.31    1.04
   1   3  17   11.66    1.04
  -1   3 -18   19.14    1.00
   1  -3  18   17.10    0.97
   1  -3  18   17.60    1.06
   1  -3  18   18.09    1.12
   1   4 -16    1.53    0.39
  -1  -4  16    1.70    0.45
  -1   4  16    2.09    0.46
  -1   4  16    1.37    0.41
  -1  -4  16    0.99    0.45
  -1  -4  15   16.51    1.47
  -1   4  15   19.41    1.34
  -1  -4  15   20.25    1.42
  -1  -4  15   19.14    1.47
  -1  -4  15   16.83    1.40
  -1  -4  15   18.01    1.40
   1   4 -15   18.30    1.17
  -1  -4  15   21.79    1.53
  -1   4  15   18.92    1.27
  -1  -4  14   40.84    2.39
  -1  -4  14   45.47    2.71
   1   4 -14   43.39    2.31
  -1  -4  14   38.15    2.53
  -1  -4  14   47.28    2.78
  -1  -4  14   41.80    2.57
  -1  -4  14   42.98    2.75
  -1   4  14   45.22    2.56
  -1  -4  14   42.42    2.70
  -1   4  14   44.37    2.42
  -1  -4  13   87.61    4.34
  -1  -4  13   71.25    3.75
  -1  -4  13   75.98    4.06
  -1  -4  13   85.15    4.33
  -1   4  13   83.81    4.08
  -1  -4  13   87.63    4.35
  -1   4  13   77.80    3.84
  -1  -4  13   82.48    4.22
   1   4 -13   84.48    3.83
  -1  -4  13   85.44    4.25
   1   4 -12  170.52    6.57
  -1   4  12  164.04    6.85
  -1  -4  12  163.96    6.64
  -1  -4  12  171.21    7.17
  -1  -4  12  159.51    6.86
  -1   4  12  163.94    6.59
  -1   4  12  136.17    6.39
  -1  -4  12  168.01    7.09
  -1  -4  12  173.86    7.12
  -1   4  12  163.72    7.07
  -1  -4  11  201.13    7.99
  -1   4  11  210.66    8.22
  -1   4  11  162.81    7.51
  -1  -4  11  197.10    7.82
  -1   4  11  165.56    7.38
  -1  -4  11  200.48    8.04
  -1  -4  11  199.49    7.66
  -1  -4  11  205.58    8.21
  -1   4  11  180.13    7.39
   1   4 -11  194.50    7.46
  -1   4  10   50.83    3.25
  -1  -4  10   53.46    3.48
  -1  -4  10   59.00    3.46
  -1   4  10   52.06    3.05
   1   4 -10   53.42    3.04
  -1   4  10   59.85    3.59
  -1  -4  10   53.28    3.42
  -1  -4  10   53.17    3.23
  -1  -4  10   54.94    3.29
  -1   4  10   51.02    3.13
  -1  -4   9   64.64    3.58
   1   4  -9   55.64    3.07
  -1  -4   9   67.63    3.87
  -1   4   9   56.14    3.16
  -1   4   9   63.66    3.73
  -1   4   9   53.16    3.23
  -1  -4   9   56.29    3.31
   1   4  -9   63.24    3.30
  -1   4   9   65.27    3.82
  -1   4   9   64.16    3.53
  -1  -4   9   58.60    3.43
  -1  -4   9   54.13    3.45
  -1   4   9   51.94    3.31
   1   4  -8    9.20    1.20
   1   4  -8    8.18    1.11
  -1  -4   8    9.13    1.28
  -1   4   8    7.42    1.19
  -1  -4   8   10.95    2.82
  -1   4   8    8.55    1.11
  -1  -4   8    6.40    1.61
  -1   4   8    8.95    1.40
  -1  -4   8   10.09    1.37
  -1   4   8    8.02    1.30
  -1   4   8    9.28    1.30
  -1  -4   8    8.20    1.31
  -1   4   8    8.00    1.28
  -1   4   8    5.11    1.25
   1   4  -7   41.13    2.50
  -1  -4   7   45.84    3.08
  -1  -4   7   38.90    4.93
  -1   4   7   40.29    3.02
   1   4  -7   44.87    5.37
   1   4  -7   37.82    2.41
  -1   4   7   41.87    2.62
  -1  -4   7   42.27    2.55
  -1   4   7   38.35    2.59
  -1  -4   7   38.42    2.54
  -1  -4   6  107.27    8.16
  -1   4   6  108.14    5.63
  -1  -4   6  115.40    4.94
  -1  -4   6  119.11    5.06
  -1  -4   5  113.06    4.81
   1   4  -5  136.54    8.93
  -1  -4   5  104.59    7.72
   1  -4  -5  120.72    8.51
   1  -4  -5  139.08    9.56
  -1   4   5  108.74    5.63
  -1  -4   4  425.82   18.33
  -1   4   4  390.27   15.38
   1   4  -4  402.03   15.55
   1  -4  -4  576.96   21.53
   1  -4  -4  440.19   19.41
   1   4  -4  555.50   20.49
   1   4  -3  348.74   13.18
   1  -4  -3  396.84   17.19
   1   4  -3  472.17   17.78
   1  -4  -3  496.93   18.82
  -1  -4   3  389.84   15.94
  -1   4   3  303.07   12.36
  -1   4   3  351.49   13.26
   1   4  -2   57.55    5.15
   1   4  -2   41.31    2.92
  -1   4   2   34.11    2.46
   1  -4  -2   53.09    5.31
   1  -4  -2   44.22    4.78
  -1  -4   2   47.89    4.28
  -1   4   2   41.12    3.02
  -1   4   1   62.86    3.54
   1  -4  -1   67.72    6.04
   1  -4  -1   91.17    6.79
   1   4  -1   65.08    3.75
  -1  -4   1   70.91    5.25
  -1   4   1   69.20    3.73
   1   4  -1   62.67    3.92
   1   4  -1   85.33    6.25
  -1   4   1   72.14    4.13
  -1   4   0   23.49    2.05
  -1   4   0   30.78    2.33
   1  -4   0   25.00    3.74
   1   4   0   23.24    2.23
  -1   4   0   28.04    2.47
   1   4   0   34.54    3.98
   1  -4   0   32.41    4.09
  -1   4  -1  117.49    5.41
   1   4   1  100.36    5.23
   1  -4   1  105.57    7.85
   1   4   1  148.94    8.52
  -1   4  -1  101.74    5.10
   1  -4   1  137.73    8.51
   1   4   2   38.48    4.20
   1   4   2   27.50    2.32
  -1   4  -2   28.48    2.61
  -1   4  -2   27.37    2.29
  -1   4  -2   33.49    2.57
  -1  -4  -2   27.58    3.56
   1  -4   2   34.57    4.28
   1  -4   3  202.70    7.19
  -1   4  -3  178.93    8.19
  -1   4  -3  160.18    7.60
  -1   4  -3  184.25    7.95
   1  -4   4   31.95    2.13
   1  -4   4   26.96    1.96
  -1   4  -4   26.37    2.63
   1  -4   4   33.46    2.19
   1  -4   4   33.04    4.30
   1  -4   5    5.69    1.92
   1  -4   5    5.05    0.98
   1  -4   5    5.49    0.93
  -1   4  -5    6.08    1.39
  -1   4  -5    6.14    1.34
   1  -4   5    5.44    0.94
  -1   4  -6  336.60   13.28
   1  -4   6  337.97   12.10
   1  -4   6  363.23   12.44
   1  -4   6  342.56   12.24
   1  -4   6  336.14   12.07
   1  -4   6  370.69   17.69
   1  -4   6  351.24   12.27
   1  -4   7   43.32    2.78
  -1   4  -7   41.50    2.51
   1  -4   7   47.85    2.91
   1   4   7   43.12    2.71
  -1   4  -7   42.49    3.34
   1  -4   7   41.47    2.63
   1   4   7   46.66    2.74
   1  -4   7   40.64    2.63
   1  -4   7   38.26    5.17
   1  -4   7   40.16    2.67
   1   4   8    2.84    0.81
   1   4   8    2.63    0.83
  -1   4  -8    2.20    1.17
   1  -4   8    2.40    0.88
   1  -4   8    3.91    0.89
   1  -4   8    3.40    1.08
   1   4   8    4.00    0.98
   1  -4   8    2.27    1.16
   1  -4   8    2.07    0.78
   1  -4   8    3.58    0.88
   1  -4   8    2.74    0.81
   1   4   8    2.78    0.82
   1  -4   8    3.37    1.00
   1   4   8    3.24    0.84
  -1   4  -8    3.48    0.79
   1   4   8    3.31    0.82
   1  -4   9  108.73    4.93
   1  -4   9   87.06    4.47
   1  -4   9   88.87    4.77
   1   4   9   79.79    4.25
   1  -4   9   93.99    4.68
   1  -4   9   95.35    4.69
  -1   4  -9   94.28    5.40
   1  -4   9   95.90    4.72
   1   4   9   92.62    4.44
  -1   4  -9   94.94    4.36
   1   4   9   90.16    4.52
   1   4   9   92.47    4.51
   1  -4   9   96.07    4.77
   1  -4   9   90.65    4.52
   1   4   9   95.70    4.52
   1   4   9   86.91    4.39
   1  -4   9   88.73    4.55
  -1   4 -10   55.96    3.11
   1  -4  10   53.80    3.33
   1  -4  10   55.15    3.44
   1  -4  10   62.05    3.65
   1   4  10   56.29    3.20
   1  -4  10   62.09    3.59
   1  -4  10   60.44    3.53
   1  -4  10   64.10    3.67
   1  -4  10   54.24    3.31
   1  -4  10   56.00    3.32
   1  -4  10   53.40    3.27
   1   4  10   46.71    3.03
   1   4  10   53.41    3.27
   1  -4  10   58.85    3.51
   1  -4  10   47.79    3.08
   1   4  10   60.77    3.36
   1  -4  11   45.52    3.10
   1  -4  11   50.46    3.21
   1  -4  11   39.21    2.77
  -1   4 -11   46.58    2.73
   1  -4  11   40.83    2.82
   1  -4  11   44.43    3.04
   1  -4  11   45.08    2.97
   1   4  11   45.68    2.75
   1   4  11   46.11    2.87
   1  -4  11   45.76    3.03
   1  -4  11   44.46    3.14
   1   4  11   44.33    2.88
   1  -4  11   44.68    2.97
   1  -4  11   34.10    2.49
   1  -4  11   45.21    3.04
   1   4  11   42.63    2.83
   1  -4  11   40.62    2.83
   1  -4  12   60.21    3.63
   1  -4  12   66.50    3.81
   1  -4  12   55.94    3.39
   1  -4  12   63.85    3.58
   1   4  12   62.18    3.24
   1  -4  12   64.48    3.84
   1   4  12   60.70    3.45
   1  -4  12   59.82    3.47
   1  -4  12   61.90    3.65
   1   4  12   64.07    3.50
   1  -4  12   66.28    3.65
   1  -4  12   60.88    3.53
  -1   4 -12   65.38    3.35
   1  -4  12   63.13    3.68
   1  -4  12   64.42    3.65
   1  -4  13   44.53    2.95
  -1   4 -13   52.68    2.76
   1  -4  13   47.82    3.04
   1  -4  13   46.52    2.93
   1   4  13   48.03    2.82
   1  -4  13   44.88    2.86
   1  -4  13   48.23    3.18
   1  -4  13   52.07    3.20
   1  -4  13   42.03    2.70
   1  -4  13   44.61    2.79
   1  -4  13   44.32    2.84
   1  -4  13   46.45    2.82
   1   4  13   43.73    2.50
   1  -4  13   42.59    2.88
   1  -4  13   47.75    2.90
   1   4  13   52.34    2.91
   1  -4  14    9.30    1.17
   1  -4  14    7.12    1.11
   1  -4  14    9.30    1.20
   1  -4  14    8.87    1.09
   1  -4  14    8.96    1.23
   1  -4  14    9.31    1.32
   1   4  14    8.82    0.95
   1  -4  14   10.22    1.41
   1  -4  14    9.39    1.28
   1  -4  14    7.93    1.18
   1  -4  14   12.17    1.34
   1   4  14    9.08    1.15
  -1   4 -14   11.61    1.17
  -1   4 -15   27.04    1.66
   1  -4  15   26.27    1.90
   1  -4  15   27.48    1.71
   1   4  15   26.25    1.74
   1  -4  15   26.24    1.96
   1  -4  15   28.59    2.08
   1  -4  15   24.04    1.77
   1  -4  15   28.99    1.88
   1  -4  15   26.64    1.71
   1  -4  15   29.29    1.88
   1   4  16   96.04    3.67
  -1   4 -16   98.04    3.65
   1  -4  16   99.44    3.87
   1  -4  16   89.64    3.61
   1  -4  16   99.18    3.85
  -1   5  15   57.49    2.25
  -1  -5  14   63.13    2.69
  -1  -5  14   57.11    2.53
  -1   5  14   61.51    2.64
   1   5 -14   60.97    2.49
  -1  -5  14   54.10    2.44
  -1  -5  13   80.00    2.80
  -1  -5  13   73.89    2.51
  -1  -5  13   81.37    2.68
  -1  -5  13   73.48    2.72
   1   5 -13   82.60    2.37
  -1  -5  13   72.11    2.32
  -1  -5  13   82.56    2.73
   1   5 -12  123.96    4.64
  -1  -5  12   99.36    4.58
  -1  -5  12  124.81    5.03
  -1  -5  12  118.58    4.96
  -1  -5  12  122.69    4.91
  -1  -5  12  111.37    4.60
  -1   5  12  118.50    4.80
  -1  -5  12   89.59    4.39
  -1   5  12  106.25    4.33
   1   5 -11   79.76    3.58
  -1  -5  11   75.07    3.83
  -1  -5  11   67.82    3.58
  -1  -5  11   66.02    3.50
  -1   5  11   71.91    3.60
  -1   5  11   76.00    3.37
  -1  -5  11   72.83    3.55
  -1  -5  11   79.61    3.94
  -1  -5  11   75.31    3.80
  -1   5  11   82.56    3.81
  -1   5  11   74.80    3.76
  -1   5  10   70.42    3.60
  -1  -5  10   68.96    3.69
  -1   5  10   63.69    3.47
   1   5 -10   72.18    3.49
  -1  -5  10   63.14    3.46
  -1  -5  10   62.93    3.45
  -1  -5  10   68.28    3.68
  -1  -5  10   75.43    3.91
  -1   5  10   61.17    3.52
  -1  -5  10   74.30    3.95
  -1   5  10   68.11    3.22
  -1   5  10   68.67    3.67
  -1  -5   9   36.00    2.45
  -1  -5   9   34.92    2.56
  -1   5   9   36.80    2.48
  -1  -5   9   35.01    2.52
   1   5  -9   36.27    2.39
  -1   5   9   39.24    2.66
  -1   5   9   35.30    2.56
  -1  -5   9   43.69    2.91
  -1   5   9   39.58    2.56
  -1  -5   9   36.24    2.53
   1   5  -8  143.13    6.04
  -1   5   8  145.30    6.18
  -1  -5   8  158.90    6.62
  -1  -5   8  139.90    6.02
  -1  -5   8  144.61    6.20
  -1  -5   8  136.58    6.23
  -1   5   8  134.26    6.14
  -1   5   8  153.37    6.57
  -1   5   8  146.81    6.17
  -1   5   8  157.95    6.46
  -1   5   7  104.82    5.89
  -1   5   7  132.43    5.90
  -1  -5   7  127.54    5.86
  -1  -5   7  113.84    5.20
   1   5  -7  128.03    5.41
  -1  -5   7  129.20    5.50
  -1   5   7  120.22    5.45
  -1   5   7  122.67    5.35
  -1   5   7  115.41    5.46
  -1   5   7  126.93    5.61
   1   5  -6  334.66   11.70
  -1  -5   6  325.96   11.68
  -1   5   6  331.67   11.85
  -1  -5   6  319.82   11.52
   1   5  -6  319.26   11.61
  -1   5   6  305.27   12.65
  -1   5   6  324.87   11.55
  -1   5   6  319.09   11.72
  -1   5   6  357.57   12.30
  -1   5   6  310.90   11.72
  -1  -5   5    3.45    0.92
  -1   5   5    3.96    0.98
   1   5  -5    2.64    0.79
   1   5  -5    2.96    0.86
  -1   5   5    3.67    1.01
  -1   5   5    3.42    0.76
  -1   5   5    2.55    1.14
  -1   5   5    3.88    0.96
  -1   5   5    2.67    0.92
  -1  -5   5    3.29    0.84
   1   5  -4  156.99    6.27
  -1   5   4  146.41    6.24
  -1   5   4  147.12    6.30
  -1  -5   4  145.56    6.00
  -1   5   4  138.55    7.21
  -1   5   4  163.59    6.69
  -1   5   4  134.16    5.96
  -1   5   4  156.87    6.46
  -1   5   3   31.37    2.27
  -1   5   3   30.98    2.18
   1   5  -3   31.29    2.21
  -1   5   3   26.85    2.38
   1   5  -3   31.51    2.19
  -1   5   3   31.34    3.00
  -1   5   3   30.91    2.26
  -1   5   3   34.70    2.46
  -1   5   2    2.47    0.75
   1  -5  -2    2.46    1.52
   1   5  -2    2.81    0.79
   1   5  -2    3.10    0.74
  -1   5   2    2.06    0.84
  -1   5   2    2.19    0.75
   1   5  -2    4.33    1.71
   1   5  -2    3.50    0.74
  -1   5   2    3.07    0.80
   1  -5  -2    3.61    1.73
  -1   5   2    3.54    0.91
  -1   5   2    3.22    1.19
   1   5  -1   37.84    2.40
   1   5  -1   33.55    2.21
  -1   5   1   27.13    2.52
   1   5  -1   35.21    2.34
  -1   5   1   38.34    2.48
  -1   5   1   29.79    2.27
  -1   5   1   30.09    2.63
   1   5  -1   31.11    2.16
  -1   5   1   33.68    3.15
  -1   5   1   30.47    2.17
   1   5  -1   34.74    2.18
   1  -5  -1   33.28    4.61
  -1   5   1   35.47    2.47
   1  -5  -1   40.76    5.08
   1   5  -1   40.75    4.77
  -1   5   0   20.08    2.20
   1   5   0   27.39    2.06
  -1   5   0   26.88    2.03
  -1   5   0   23.98    2.71
  -1   5   0   27.05    2.08
   1  -5   0   20.34    3.76
   1   5   0   24.56    3.98
  -1  -5   0   22.06    3.65
   1   5   0   27.38    2.03
  -1   5   0   24.04    2.38
   1   5   0   24.20    1.88
  -1   5   0   24.29    1.88
   1  -5   0   23.49    3.95
   1   5   1   27.45    2.00
   1  -5   1   28.34    4.25
  -1   5  -1   30.90    2.21
   1  -5   1   31.73    2.18
  -1   5  -1   30.01    2.19
   1  -5   1   28.32    4.35
  -1   5  -1   28.20    2.05
   1   5   1   29.03    2.18
   1   5   1   29.42    4.27
  -1   5  -1   30.03    2.18
   1   5   1   31.86    2.18
  -1   5  -1   31.93    2.75
   1   5   1   28.73    2.14
   1  -5   2  260.97   14.17
   1   5   2  257.98    9.18
   1   5   2  249.02    9.15
   1  -5   2  241.28    9.00
  -1   5  -2  233.59   10.07
   1   5   2  213.25    9.75
  -1   5  -2  229.53    8.86
   1   5   2  258.95    9.11
  -1   5  -3  468.55   16.10
  -1   5  -3  459.70   18.02
   1  -5   3  514.41   16.61
   1   5   3  477.53   16.28
   1   5   3  493.26   16.39
   1   5   3  502.11   16.28
   1  -5   3  462.67   16.12
  -1   5  -3  484.09   17.65
   1  -5   3  498.66   16.39
  -1   5  -4  348.35   14.22
   1   5   4  366.72   12.55
   1  -5   4  369.10   12.63
  -1   5  -4  330.76   13.58
   1   5   4  362.60   12.28
   1   5   4  349.79   12.39
   1  -5   4  328.55   12.17
  -1   5  -4  338.92   12.20
   1  -5   4  349.84   12.41
  -1   5  -5  277.53   11.95
   1   5   5  299.71   10.74
  -1   5  -5  279.68   10.46
   1   5   5  269.33   10.39
   1  -5   5  324.71   11.18
   1  -5   5  295.90   10.82
   1   5   5  299.33   10.50
   1   5   5  310.72   10.88
   1  -5   5  291.51   10.73
   1  -5   6   55.94    3.25
   1   5   6   56.93    3.08
   1   5   6   51.99    3.10
   1   5   6   53.39    2.92
   1  -5   6   64.18    3.50
   1   5   6   56.73    3.23
   1   5   6   49.46    2.98
  -1   5  -6   53.01    3.02
   1  -5   6   55.12    3.18
  -1   5  -7   22.10    1.83
   1  -5   7   20.03    2.13
   1  -5   7   20.94    1.88
   1   5   7   22.76    2.00
   1  -5   7   23.50    2.04
   1  -5   7   24.63    2.17
   1   5   7   21.44    1.68
   1   5   7   25.07    1.98
   1  -5   7   23.85    2.00
   1   5   7   24.78    1.91
   1   5   7   19.04    1.83
   1  -5   7   25.99    2.19
  -1   5  -7   20.76    2.55
  -1   5  -8  139.95    5.65
   1   5   8  125.31    5.58
   1   5   8  135.34    5.74
   1  -5   8  131.16    5.77
   1  -5   8  133.55    5.84
   1   5   8  143.22    5.93
   1   5   8  129.40    5.22
   1   5   8  139.87    5.69
  -1   5  -8  124.79    6.75
   1  -5   8  136.35    5.87
   1  -5   8  153.02    6.20
   1  -5   9   95.15    4.59
  -1   5  -9  104.31    4.45
   1  -5   9   96.88    4.58
   1  -5   9   73.03    4.46
   1  -5   9  100.23    4.66
   1   5   9   97.46    4.54
   1  -5   9  111.71    4.97
   1   5   9   94.79    4.56
   1   5   9   84.53    4.26
   1   5   9   97.22    4.41
  -1   5 -10  105.41    4.38
   1  -5  10  100.36    4.34
   1  -5  10   94.55    4.49
   1  -5  10   96.56    4.49
   1  -5  10  109.85    4.90
   1  -5  10  104.33    4.70
   1   5  10  103.45    4.41
   1  -5  10  101.26    4.59
   1   5  10   99.80    4.55
   1   5  10  104.75    4.54
  -1   5 -11    7.92    1.05
   1  -5  11    6.55    1.07
   1  -5  11    7.75    1.03
   1   5  11    6.63    0.99
   1  -5  11    7.45    1.12
   1   5  11    5.19    1.09
   1   5  11    7.20    1.11
   1  -5  11    6.26    1.15
   1  -5  11    6.25    1.22
   1  -5  11    7.15    1.27
   1  -5  11    3.75    0.88
   1  -5  11    7.97    1.23
   1  -5  11    6.52    1.06
  -1   5 -12   60.96    2.78
   1  -5  12   49.96    2.66
   1  -5  12   48.29    2.78
   1   5  12   55.45    2.75
   1  -5  12   56.75    3.08
   1  -5  12   55.14    2.87
   1  -5  12   53.12    3.05
   1  -5  12   54.49    2.92
   1  -5  12   52.77    2.87
  -1   5 -13   11.97    1.06
   1  -5  13   11.67    1.15
   1  -5  13   11.18    1.13
   1   5  13   10.94    1.04
   1  -5  13   11.29    1.27
   1  -5  13   10.51    1.12
   1  -5  13   10.23    1.00
  -1   5 -13    9.34    0.90
   1  -5  13   10.22    1.23
  -1   5 -14    3.31    0.54
   1  -5  14    2.58    0.50
   1   5  14    2.83    0.52
   1  -5  14    2.13    0.54
   1  -5  14    2.95    0.50
   1  -5  14    3.48    0.59
   1   5  14    2.27    0.56
   1  -5  14    2.71    0.46
   1   6 -12   76.35    2.83
   1   6 -12   80.63    2.95
  -1  -6  12   80.76    2.95
  -1  -6  12   70.70    2.89
   1   6 -12   70.11    2.80
   1   6 -11    2.53    0.50
   1   6 -11    1.37    0.45
  -1  -6  11    1.19    0.51
  -1   6  11    2.69    0.46
  -1  -6  11    1.98    0.58
   1   6 -10   25.93    1.51
  -1  -6  10   24.21    1.59
  -1   6  10   24.54    1.44
  -1  -6  10   22.29    1.57
  -1   6  10   23.31    1.49
  -1  -6   9    2.15    0.80
  -1   6   9    3.03    0.61
   1   6  -9    0.63    0.32
  -1   6   9    2.93    0.78
  -1  -6   9    3.04    0.74
  -1  -6   9    3.81    0.79
  -1  -6   9    3.23    0.82
  -1   6   9    3.02    0.74
  -1  -6   8    9.56    1.16
  -1  -6   8   11.46    1.24
  -1   6   8    9.24    1.17
  -1   6   8    8.68    1.17
  -1   6   8    9.79    1.00
  -1  -6   8    6.20    1.26
   1   6  -8    8.58    0.91
  -1  -6   7    2.83    0.80
  -1  -6   7    2.90    0.80
  -1   6   7    2.67    0.58
  -1   6   7    2.35    0.78
  -1  -6   7    2.74    1.01
   1   6  -7    2.75    0.64
  -1   6   7    2.40    0.81
  -1  -6   6   20.72    1.74
  -1  -6   6   18.89    1.87
   1   6  -6   18.78    1.64
  -1   6   6   23.81    1.83
   1   6  -6   21.14    1.60
  -1   6   6   19.72    1.77
  -1   6   6   21.64    1.82
   1   6  -5   34.10    2.27
   1   6  -5   35.06    2.19
  -1  -6   5   31.39    2.43
  -1   6   5   34.70    2.94
  -1   6   5   39.45    2.51
  -1   6   5   35.19    2.41
  -1   6   5   43.82    2.56
  -1  -6   5   36.82    2.35
  -1   6   4   36.12    2.40
   1   6  -4   30.63    2.08
  -1   6   4   31.19    2.90
   1   6  -4   28.78    2.09
  -1   6   4   34.19    2.32
  -1  -6   4   31.26    2.14
  -1   6   4   31.94    2.28
   1   6  -4   31.15    2.18
  -1   6   4   34.04    2.30
  -1   6   3   36.92    3.27
  -1   6   3   41.71    2.66
  -1   6   3   36.91    2.42
   1   6  -3   39.51    2.48
   1   6  -3   43.68    2.54
  -1  -6   3   43.44    2.54
  -1   6   3   42.05    2.64
   1   6  -3   43.21    2.60
  -1   6   3   42.11    2.62
  -1   6   3   41.34    2.65
   1   6  -2  143.40    5.68
  -1   6   2  123.25    6.78
  -1   6   2  137.49    5.75
  -1   6   2  137.42    5.83
  -1   6   2  127.19    5.51
  -1   6   2  141.90    5.82
  -1   6   2  132.92    5.73
   1   6  -2  140.97    5.72
   1   6  -2  124.47    5.50
  -1   6   1  127.99    5.59
  -1   6   1  146.94    5.89
  -1   6   1  134.82    7.13
   1   6  -1  130.26    5.60
  -1   6   1  130.14    5.75
   1   6  -1  144.76    5.82
   1   6  -1  137.93    5.70
  -1   6   1  143.14    5.89
  -1   6   1  141.51    5.92
   1   6   0   12.33    1.37
  -1   6   0   12.54    1.33
  -1   6   0   12.10    1.69
   1   6   0   12.32    1.38
  -1   6   0   10.05    1.96
   1  -6   0   12.64    1.37
  -1   6   0   11.77    1.40
   1   6   0   11.62    1.28
  -1   6   0   10.91    1.38
   1  -6   1   53.74    3.06
  -1   6  -1   47.91    3.92
   1   6   1   52.86    2.95
  -1   6  -1   50.08    2.83
   1   6   1   49.30    2.87
  -1   6  -1   48.91    2.94
  -1   6  -1   46.46    3.45
  -1   6  -1   50.90    3.02
   1   6   1   46.45    2.70
   1  -6   1   51.54    2.89
  -1   6  -2   16.70    1.58
  -1   6  -2   20.00    2.28
   1   6   2   19.30    1.73
   1   6   2   18.07    1.65
   1  -6   2   18.95    1.76
  -1   6  -2   19.22    1.75
   1  -6   2   18.92    1.67
   1   6   3    4.56    1.05
  -1   6  -3    4.83    0.91
   1  -6   3    5.02    1.07
   1  -6   3    4.87    1.00
   1   6   3    4.60    0.97
  -1   6  -3    4.70    0.98
   1  -6   3    5.17    0.93
   1   6   3    5.90    1.00
  -1   6  -3    4.97    1.28
  -1   6  -4   32.24    2.17
   1   6   4   33.00    2.15
   1  -6   4   36.01    2.38
   1   6   4   35.29    2.33
   1  -6   4   40.00    2.58
  -1   6  -4   35.27    2.36
  -1   6  -4   27.33    2.75
   1   6   4   31.42    2.18
   1  -6   4   31.93    2.20
  -1   6  -5   25.14    1.85
   1  -6   5   28.50    2.08
   1   6   5   24.08    1.92
  -1   6  -5   27.65    2.02
   1  -6   5   22.75    1.75
   1   6   5   21.94    1.78
  -1   6  -5   25.26    1.93
   1  -6   5   25.12    2.04
   1   6   5   25.28    1.77
   1  -6   5   24.84    1.95
  -1   6  -5   24.66    1.96
  -1   6  -6    3.50    0.79
   1  -6   6    2.13    1.03
   1  -6   6    3.16    0.76
   1  -6   6    2.88    0.79
   1  -6   6    3.60    0.93
  -1   6  -6    3.71    0.89
   1  -6   6    3.52    0.92
   1   6   6    3.29    0.89
  -1   6  -6    3.66    0.83
   1   6   6    2.89    0.74
   1  -6   7   37.50    2.40
  -1   6  -7   35.67    2.16
   1   6   7   30.61    1.92
   1  -6   7   34.25    2.15
   1   6   7   37.32    2.25
  -1   6  -7   36.08    2.11
   1  -6   7   33.72    2.17
   1  -6   7   37.28    2.37
  -1   6  -7   35.31    2.23
   1   6   7   30.65    1.99
   1  -6   8   48.53    2.54
  -1   6  -8   53.56    2.52
   1  -6   8   51.40    2.76
   1  -6   8   21.27    2.20
   1   6   8   47.06    2.37
   1   6   8   26.31    1.95
  -1   6  -8   51.89    2.63
   1  -6   8   48.94    2.57
   1  -6   8   49.64    2.74
  -1   6  -8   49.96    2.53
   1   6   8   50.93    2.62
  -1   6  -9   66.70    2.67
   1  -6   9   63.23    2.93
   1   6   9   60.91    2.73
   1  -6   9   61.12    2.88
  -1   6  -9   60.43    2.72
   1  -6   9   53.71    2.40
   1  -6   9   61.51    2.90
   1   6   9   58.21    2.56
   1  -6   9   60.53    2.75
   1  -6   9   23.42    2.24
  -1   6  -9   63.63    2.69
   1  -6   9   16.84    1.91
  -1   6 -10   18.78    1.25
   1   6  10   14.79    1.23
   1  -6  10   18.33    1.44
  -1   6 -10   16.94    1.23
  -1   6 -10   16.32    1.25
   1  -6  10   15.30    1.11
   1  -6  10   17.29    1.42
   1  -6  10   15.96    1.29
   1   6  10   18.83    1.28
   1  -6  11   20.49    1.35
  -1   6 -11   18.49    1.22
  -1   6 -11   20.69    1.23
  -1   6 -11   20.54    1.23
   1   6  11   19.30    1.25
   1  -6  11   16.97    1.10
   1  -6  12  143.12    4.81
  -1   6 -12  134.96    4.61
  -1   6 -12  132.73    4.58
   1  -6  12  133.33    4.77
   1   6  12  126.30    4.62
  -1   6 -12  143.49    4.74
  -1   7   8    5.42    0.57
  -1  -7   8    5.47    0.57
  -1   7   7    4.46    0.59
   1   7  -7    6.06    0.58
  -1   7   7    5.84    0.66
  -1  -7   7    4.13    0.48
   1   7  -7    5.46    0.61
   1   7  -6    7.76    0.73
  -1   7   6    6.59    0.78
   1   7  -6    7.75    0.75
  -1   7   6    6.13    0.75
   1   7  -5   28.69    1.34
   1   7  -5   31.88    1.37
  -1   7   5   29.84    1.46
  -1   7   5   29.82    1.44
   1   7  -4    5.71    0.65
  -1  -7   4    4.20    0.89
  -1   7   4   10.44    1.00
   1   7  -4    9.93    0.89
   1   7  -4    8.32    0.84
  -1   7   4    9.47    0.97
   1   7  -3    5.89    0.76
   1  -7  -3    6.83    0.82
   1   7  -3    6.62    0.74
  -1   7   3    7.83    0.92
  -1   7   3    6.36    0.88
   1   7  -3    6.64    0.77
   1   7  -2    9.12    0.89
   1   7  -2    9.83    0.91
  -1   7   2   10.28    1.05
   1   7  -2   10.76    0.97
   1  -7  -2    9.35    0.98
   1   7  -1    4.78    0.72
   1  -7  -1    4.82    0.74
  -1   7   1    4.54    0.79
   1   7  -1    5.24    0.75
  -1   7   1    4.18    0.69
  -1   7   0   10.76    1.05
   1  -7   0   12.36    1.15
  -1   7   0   14.43    1.13
   1   7   0   12.51    1.19
   1   7   0   12.95    1.07
   1   7   0   13.47    1.13
  -1   7   0   13.01    1.18
   1  -7   0   14.21    1.19
   1   7   1  273.50    9.03
   1  -7   1  275.48    9.24
   1  -7   1  271.23    9.09
  -1   7  -1  255.49    8.97
   1   7   1  252.82    8.91
  -1   7  -1  254.12    9.02
   1  -7   2   11.39    1.14
   1   7   2   10.62    1.00
   1   7   2   12.79    1.10
   1  -7   2   11.71    1.10
   1  -7   2   13.27    1.21
  -1   7  -2   12.95    1.12
  -1   7  -2   11.78    1.07
  -1   7  -3  110.77    2.94
  -1   7  -3  116.80    2.90
   1   7   3  110.38    2.73
  -1   7  -3  108.16    2.77
   1  -7   3  117.48    3.06
  -1   7  -3  111.32    2.71
  -1   7  -4   18.72    1.25
   1  -7   4   17.97    1.36
  -1   7  -4   21.13    1.39
   1  -7   4   18.84    1.35
  -1   7  -4   20.63    1.31
   1   7   4   19.49    1.28
  -1   7  -4   17.31    1.25
   1  -7   5    2.00    0.41
  -1   7  -5    2.84    0.54
  -1   7  -5    3.19    0.59
   1   7   5    2.95    0.60
   1  -7   5    0.75    0.59
   1  -7   5    2.39    0.58
  -1   7  -5    3.18    0.59
  -1   7  -6   16.19    1.16
   1   7   6   13.38    1.01
  -1   7  -6   14.81    1.03
   1  -7   6   12.25    0.93
  -1   7  -6   16.29    1.12
  -1   7  -6   16.01    1.08
  -1   7  -6   14.41    1.04
  -1   7  -7   11.63    0.85
  -1   7  -7   11.99    0.86
   1  -7   7   10.40    0.79
  -1   7  -7   11.89    0.93
  -1   7  -7   12.82    0.92
   1   7   7   10.18    0.84
  -1   7  -7   11.78    0.86
  -1   7  -8   10.51    0.77
  -1   7  -8    9.31    0.67
  -1   7  -8   11.04    0.78
  -2   0  19    2.17    0.51
  -2   0  18   12.53    1.26
   2   0 -18   11.71    1.35
  -2   0  18    8.62    0.82
  -2   0  17  155.89    6.47
  -2   0  17  146.79    6.33
   2   0 -17  154.33    6.64
  -2   0  17  167.28    6.36
  -2   0  16   52.45    3.50
  -2   0  16   54.90    3.44
   2   0 -16   61.99    3.93
  -2   0  16   53.25    3.53
  -2   0  16   49.96    3.21
  -2   0  16   54.99    3.55
  -2   0  16   53.67    3.57
  -2   0  15   25.78    2.58
   2   0 -15   30.03    2.87
  -2   0  15   30.93    2.77
  -2   0  15   23.13    1.87
  -2   0  15   29.20    2.67
  -2   0  15   30.99    2.44
  -2   0  15   27.24    2.59
  -2   0  15   25.79    2.45
  -2   0  14  843.73   28.35
  -2   0  14  826.97   28.34
  -2   0  14  782.81   26.92
  -2   0  14  844.35   28.47
  -2   0  14  872.25   28.69
  -2   0  14  902.62   28.44
   2   0 -14  869.43   28.89
  -2   0  13   66.93    4.10
  -2   0  13   61.84    3.94
  -2   0  13   61.58    3.88
  -2   0  13   68.66    4.11
  -2   0  13   63.39    4.10
  -2   0  13   61.04    3.34
  -2   0  13   60.46    4.12
  -2   0  13   59.97    3.99
   2   0 -13   62.94    4.25
  -2   0  12  134.95    6.36
  -2   0  12  123.74    6.28
  -2   0  12  134.28    6.45
  -2   0  12  143.34    6.78
  -2   0  12  136.37    6.53
  -2   0  12  122.44    6.10
  -2   0  12  139.13    6.58
   2   0 -12  110.80   11.16
   2   0 -12  145.62    6.88
  -2   0  12  143.85    5.73
  -2   0  11   34.13    2.71
  -2   0  11   30.89    2.15
  -2   0  11   31.38    2.55
  -2   0  11   32.93    2.61
  -2   0  11   28.23    2.49
  -2   0  11   33.51    2.69
  -2   0  11   43.72    2.72
   2   0 -11   32.23    2.79
   2   0 -11   34.12    5.73
  -2   0  10   16.26    1.81
   2   0 -10   13.53    3.63
  -2   0  10   15.25    1.72
  -2   0  10   15.91    1.81
  -2   0  10   17.67    1.86
   2   0 -10   22.48    3.34
  -2   0  10   14.90    1.70
   2   0 -10   17.11    1.98
  -2   0  10   19.51    1.60
  -2   0  10   24.51    1.95
  -2   0   9  273.79   10.61
   2   0  -9  330.22   14.23
  -2   0   9  303.21   10.46
  -2   0   9  268.53   10.48
   2   0  -9  286.34   10.94
  -2   0   9  334.56   10.31
   2   0  -9  299.71   16.52
  -2   0   9  263.72   10.50
  -2   0   9  279.19   10.65
   2   0  -8  783.63   28.03
   2   0  -8  720.13   30.41
   2   0  -7  355.95   17.43
   2   0  -7  398.30   15.74
   2   0  -6 1122.82   41.01
   2   0  -6 1172.96   39.00
   2   0  -5   23.21    3.25
   2   0  -5   26.85    2.70
   2   0  -4   74.27    4.53
   2   0  -4  101.01    6.38
   2   0  -3    8.08    1.92
  -2   0   3    6.52    1.43
  -2   0   2  630.35   22.06
   2   0  -2  696.13   24.03
   2   0  -1 7658.03  231.11
   2   0  -1 7639.07  233.26
   2   0  -1 7379.15  230.45
   2   0  -1 8084.65  232.35
  -2   0   0  582.11   19.85
   2   0   0  614.55   19.05
   2   0   0  633.37   20.25
  -2   0  -1 1534.52   40.47
   2   0   1 1122.81   38.60
   2   0   1 1509.37   40.62
   2   0   1 1135.42   38.44
   2   0   1 1260.94   38.35
   2   0   2 4325.00  147.55
  -2   0  -2 6228.40  150.04
   2   0   2 6187.36  150.18
   2   0   2 4651.84  147.57
   2   0   3  424.22   15.51
   2   0   3  457.38   14.88
   2   0   4  171.82    6.77
   2   0   4  175.85    7.97
  -2   0  -4  193.03    7.49
  -2   0  -5   13.70    1.83
   2   0   5   15.48    1.92
   2   0   5   13.16    2.22
   2   0   6    8.73    1.66
  -2   0  -6    5.29    1.36
   2   0   6    8.81    2.06
  -2   0  -6    8.88    1.86
   2   0   7   86.52    5.49
  -2   0  -7   91.84    6.07
  -2   0  -8  143.67    8.85
   2   0   8  151.11    8.54
  -2   0  -9    9.68    2.37
   2   0   9   10.20    1.22
   2   0   9    9.46    1.29
   2   0   9    9.61    2.25
   2   0   9    8.01    1.09
   2   0   9    8.76    1.24
   2   0   9    9.52    1.21
   2   0   9    9.08    1.23
  -2   0 -10   -0.30    0.89
   2   0  10    0.22    0.58
   2   0  10    0.16    0.70
   2   0  10    0.45    0.63
   2   0  10    0.60    0.64
   2   0  10    0.48    0.62
   2   0  10    0.31    0.61
  -2   0 -11  249.41   15.00
   2   0  11  264.41   10.41
   2   0  11  269.52   10.57
   2   0  11  273.17   10.60
   2   0  11  281.67   10.49
   2   0  11  267.24   10.38
   2   0  11  277.66   10.50
   2   0  12    4.41    0.97
   2   0  12    4.64    1.16
   2   0  12    3.91    1.22
   2   0  12    5.07    1.19
   2   0  12    4.50    1.07
   2   0  12    4.66    0.98
   2   0  12    4.10    1.15
   2   0  12    5.01    1.22
   2   0  12    4.90    1.28
   2   0  12    4.12    0.96
   2   0  12    4.83    1.03
  -2   0 -12    3.55    1.88
   2   0  13    5.80    1.36
   2   0  13    6.32    1.39
   2   0  13    6.57    1.42
   2   0  13    6.28    1.17
   2   0  13    5.94    1.38
   2   0  13    6.74    1.26
   2   0  13    5.39    1.12
   2   0  13    5.35    1.15
   2   0  13    6.43    1.36
   2   0  13    6.41    1.26
   2   0  14  127.24    6.23
   2   0  14  114.95    5.50
   2   0  14  123.25    6.19
   2   0  14  116.70    5.99
   2   0  14  120.04    5.83
   2   0  14  122.55    5.78
   2   0  14  119.41    6.08
   2   0  14  129.51    5.80
   2   0  14  121.18    5.57
   2   0  15    1.18    0.75
   2   0  15    1.43    0.80
   2   0  15    1.22    0.88
   2   0  15    0.86    0.89
   2   0  15    0.66    0.62
  -2   0 -15    1.37    1.03
   2   0  15    0.71    0.78
   2   0  15    0.40    0.65
   2   0  15    0.94    0.82
   2   0  16   -0.08    0.74
   2   0  16    0.67    0.84
   2   0  16    0.68    0.73
   2   0  16    0.69    0.90
  -2   0 -16    0.29    0.82
   2   0  16    0.79    0.56
   2   0  16    0.09    0.79
   2   0  16    0.62    0.64
   2   0  16   -0.15    0.60
   2   0  17    2.56    0.89
   2   0  17    1.87    0.87
   2   0  17    1.68    0.69
   2   0  17    1.44    0.80
   2   0  17   -0.04    0.25
   2   0  17    1.66    0.67
  -2   0 -17    2.55    0.96
   2   0  17    1.70    0.66
  -2   0 -18  112.05    5.05
   2   0  19   17.44    1.10
  -2   1  19   10.43    0.83
   2   1 -18    0.04    0.15
  -2  -1  18    1.97    0.66
  -2   1  18    1.55    0.64
  -2  -1  18    1.37    0.58
  -2   1  18    3.39    0.72
  -2  -1  18    1.95    0.61
  -2   1  18    2.82    0.60
   2   1 -17   34.01    2.39
  -2  -1  17   18.92    1.60
  -2  -1  17   32.24    1.78
  -2  -1  17   36.24    2.14
  -2  -1  17   34.83    2.23
  -2   1  17   21.83    1.63
  -2   1  17   32.43    2.28
  -2   1  17   29.53    2.12
  -2  -1  17   34.47    2.28
  -2   1  17   33.36    2.07
  -2  -1  17   36.28    2.26
  -2   1  17   34.87    2.27
   2  -1 -17   32.81    2.26
  -2  -1  17   30.08    2.00
   2  -1 -16    8.19    1.44
  -2  -1  16    5.78    0.92
  -2  -1  16    9.67    1.43
  -2  -1  16   10.22    1.32
  -2   1  16   10.07    1.42
  -2  -1  16    9.30    1.46
  -2   1  16    8.33    1.37
  -2  -1  16   10.54    1.54
  -2   1  16    8.80    1.49
  -2  -1  16    9.04    1.41
  -2  -1  16    9.78    1.56
   2   1 -16    9.20    1.55
  -2   1  16   10.63    1.53
  -2  -1  16    8.03    0.97
  -2  -1  16    6.63    1.30
  -2  -1  15   95.18    5.09
  -2  -1  15   72.01    4.00
  -2   1  15  105.47    5.33
  -2  -1  15   82.73    4.08
  -2  -1  15  102.74    5.16
  -2  -1  15  102.10    5.05
  -2   1  15   94.61    4.08
  -2  -1  15  106.30    5.29
  -2  -1  15   88.43    4.34
   2   1 -15  106.61    5.53
   2  -1 -15  105.70    5.43
   2   1 -15   97.58    4.45
  -2   1  15   81.36    4.51
  -2   1  15  104.35    5.07
  -2  -1  15   99.22    5.06
  -2  -1  15  100.08    4.84
  -2   1  15  101.68    5.33
  -2  -1  14  273.49   10.23
  -2  -1  14  241.67    9.98
  -2   1  14  245.27   10.08
  -2   1  14  257.15   10.36
  -2   1  14  260.35    9.76
  -2  -1  14  244.60    9.78
  -2  -1  14  216.80    8.89
  -2   1  14  252.61   10.37
  -2  -1  14  260.89   10.24
  -2  -1  14  257.92   10.27
  -2  -1  14  203.68    8.89
  -2   1  14  255.95   10.43
  -2   1  14  258.61   10.03
  -2  -1  14  239.63    9.90
   2  -1 -14  275.29   10.62
   2   1 -14  269.17   10.64
  -2  -1  14  225.83    9.24
  -2   1  14  250.14    8.93
   2   1 -14  257.78    9.42
  -2  -1  14  237.25    9.92
  -2  -1  13   38.32    2.97
  -2   1  13   35.21    2.96
  -2   1  13   39.26    3.15
  -2  -1  13   38.84    2.96
  -2   1  13   37.25    3.18
  -2   1  13   38.04    2.93
  -2  -1  13   37.31    3.01
  -2  -1  13   34.97    2.89
   2   1 -13   36.31    2.58
  -2   1  13   37.28    3.09
  -2   1  13   30.61    2.46
  -2  -1  13   35.23    2.80
  -2  -1  13   32.91    2.54
  -2   1  13   38.61    3.06
   2   1 -13   37.72    3.17
   2  -1 -13   38.76    3.17
  -2  -1  13   31.90    2.42
  -2  -1  13   40.78    3.06
  -2   1  13   36.79    2.34
  -2  -1  13   39.89    3.10
  -2   1  12  714.53   24.49
  -2  -1  12  718.73   24.10
  -2   1  12  703.80   24.22
  -2  -1  12  659.18   23.47
  -2   1  12  704.18   24.37
  -2   1  12  653.13   24.06
  -2  -1  12  768.99   24.38
  -2   1  12  738.64   23.08
  -2  -1  12  727.07   24.36
   2   1 -12  692.22   32.94
  -2  -1  12  714.30   24.08
  -2  -1  12  686.72   23.94
  -2   1  12  765.15   24.60
  -2  -1  12  694.34   23.97
   2  -1 -12  760.35   24.70
  -2   1  12  632.77   23.31
  -2   1  12  704.40   24.03
   2   1 -12  739.40   24.60
  -2  -1  12  760.37   23.95
   2   1 -12  723.71   23.49
   2  -1 -12  708.23   33.13
  -2  -1  12  705.24   23.98
  -2  -1  12  674.97   23.21
  -2   1  11  154.38    7.22
   2   1 -11  165.65    7.52
  -2  -1  11  181.95    7.18
  -2  -1  11  164.77    7.15
  -2  -1  11  163.65    7.12
  -2   1  11  162.98    7.44
  -2  -1  11  156.03    7.08
  -2  -1  11  158.41    7.11
  -2   1  11  149.38    7.13
   2  -1 -11  178.59    7.67
   2   1 -11  158.66   12.63
   2  -1 -11  176.34   13.25
  -2   1  11  166.49    7.46
  -2  -1  11  158.47    6.60
  -2   1  11  190.74    6.66
  -2   1  10   78.03    4.46
  -2  -1  10   83.50    4.31
   2  -1 -10   74.21    8.03
   2   1 -10   86.70    4.61
  -2   1  10  104.41    4.48
   2  -1 -10   85.61    4.63
   2   1 -10   74.21    8.03
  -2  -1  10   84.03    4.18
  -2   1  10   79.41    4.40
  -2  -1  10   76.64    4.16
  -2  -1  10   79.09    4.17
  -2   1  10   73.42    4.33
  -2  -1  10   80.93    4.24
  -2   1  10   85.83    4.52
  -2  -1  10   81.10    3.92
   2  -1 -10   96.76    6.98
  -2   1  10   97.67    4.00
  -2  -1   9  521.78   18.53
  -2  -1   9  519.91   18.45
  -2   1   9  577.40   18.16
  -2   1   9  550.71   18.93
  -2   1   9  503.71   18.77
  -2   1   9  537.05   18.96
  -2  -1   9  541.22   18.58
  -2   1   9  536.45   18.91
   2  -1  -9  666.34   23.08
  -2   1   9  510.32   18.70
   2  -1  -9  589.16   25.75
   2  -1  -9  586.25   19.19
   2   1  -9  574.72   19.14
  -2  -1   9  581.81   18.65
  -2  -1   9  516.81   18.49
  -2  -1   9  572.50   18.29
   2   1  -9  565.07   25.36
  -2   1   9  675.93   18.92
   2   1  -8  803.51   33.64
   2  -1  -8  818.17   33.80
   2  -1  -7  346.80   16.83
   2  -1  -7  361.44   14.92
   2   1  -7  337.81   16.63
   2  -1  -6 1027.18   34.29
   2   1  -6  985.28   36.33
  -2  -1   6  983.76   34.88
   2  -1  -6  968.50   36.29
  -2  -1   5  208.86    8.93
   2  -1  -5  182.01    9.75
   2   1  -5  176.65    9.55
   2   1  -5  209.56    8.81
   2  -1  -5  198.57    8.57
   2  -1  -4 2039.89   59.96
  -2   1   4 1656.31   57.87
   2   1  -4 1815.91   61.36
  -2  -1   4 2174.97   60.02
   2  -1  -4 1864.68   61.67
  -2   1   3  567.94   20.26
   2  -1  -3  533.45   22.30
   2   1  -3  563.31   22.61
   2  -1  -3  621.06   21.42
  -2  -1   2  410.15   12.52
  -2   1   2  320.89   12.43
   2   1  -2  292.29   13.97
   2   1  -2  344.06   12.81
   2  -1  -2  311.40   14.32
   2  -1  -2  368.81   13.58
   2   1  -1 1829.49   56.19
  -2   1   1 1847.55   56.47
   2  -1  -1 1696.48   56.87
   2   1  -1 1715.69   57.38
   2   1  -1 1844.45   56.82
   2  -1   0  833.62   30.14
   2   1   0  863.22   30.11
   2   1   0  895.24   29.94
  -2   1   0  896.46   29.91
   2  -1   1  916.11   30.61
   2   1   1  855.70   30.35
   2   1   1  943.72   30.70
   2  -1   1  864.55   30.41
  -2   1  -2 2256.78   67.00
  -2  -1  -2 2234.47   67.27
   2   1   2 1886.03   66.38
   2   1   2 2141.85   66.95
   2  -1   2 2168.07   66.88
   2  -1   2 2313.89   66.72
   2  -1   2 1981.93   66.49
   2  -1   3 1821.09   59.77
   2  -1   3 1861.38   60.13
  -2  -1  -3 1765.46   60.01
   2   1   3 1966.90   60.41
   2  -1   3 1844.89   59.52
   2  -1   4  227.40    9.64
  -2  -1  -4  207.86    9.25
   2  -1   4  222.50    9.87
   2   1   4  235.14   10.15
   2  -1   5  137.78    7.21
  -2  -1  -5  127.57    6.78
  -2   1  -5  148.14    7.33
   2  -1   5  141.19    6.91
   2   1   5  136.37    7.28
  -2   1  -5  140.16    6.69
   2  -1   6  468.07   17.15
   2   1   6  441.55   17.53
  -2  -1  -6  424.48   16.86
  -2   1  -6  456.48   17.43
   2  -1   6  414.06   17.09
  -2   1  -7   41.60    4.14
  -2  -1  -7   35.14    3.73
   2  -1   7   46.25    4.26
   2   1   8  470.32   15.71
   2  -1   8  442.47   15.37
   2  -1   8  451.02   15.45
  -2   1  -8  469.05   19.55
  -2  -1  -8  439.34   18.93
   2   1   9    0.06    0.48
   2   1   9    1.11    0.64
   2  -1   9    0.27    1.11
   2  -1   9    0.72    0.54
   2   1   9    0.38    0.56
   2  -1   9    1.02    0.65
   2   1   9    0.63    0.57
   2  -1   9    0.66    0.56
  -2  -1  -9   -0.24    1.11
  -2   1  -9    0.52    1.03
   2   1   9    0.53    0.56
   2  -1   9    0.28    0.61
   2   1  10   50.66    3.09
   2   1  10   52.58    3.19
   2  -1  10   51.93    3.13
   2   1  10   52.84    3.29
   2   1  10   49.58    3.04
   2  -1  10   51.67    3.11
   2  -1  10   48.32    2.90
   2   1  10   52.50    3.20
   2  -1  10   46.61    5.52
   2  -1  10   54.51    3.25
  -2   1 -10   47.29    5.49
  -2  -1 -10   42.57    5.11
   2   1  11  129.41    5.96
   2  -1  11  131.04    6.02
   2  -1  11  130.76    5.73
   2  -1  11  130.91   10.02
   2   1  11  126.21    6.00
   2   1  11  135.45    6.13
   2   1  11  128.53    5.89
   2  -1  11  127.48    5.96
   2   1  11  124.84    6.10
   2  -1  11  124.41    5.94
   2   1  11  133.86    6.20
   2  -1  11  135.04    6.11
  -2  -1 -11  118.37    9.47
  -2   1 -11  122.12    9.89
   2   1  12   12.31    1.77
  -2  -1 -12   13.94    3.54
   2  -1  12   12.55    1.69
   2   1  12   14.29    1.76
   2   1  12   13.69    1.81
   2  -1  12   11.72    1.54
   2   1  12   12.88    1.49
   2  -1  12   14.20    1.59
   2   1  12   17.18    2.05
  -2   1 -12   11.81    3.34
   2  -1  12   15.48    1.69
   2  -1  12   16.32    1.92
   2   1  12   12.78    1.66
   2   1  12   11.45    1.41
   2   1  12   13.32    1.79
   2  -1  12   12.63    1.72
   2  -1  12   13.89    1.57
   2  -1  12   13.00    1.64
   2  -1  12   13.26    1.81
   2  -1  12   13.57    1.66
   2   1  12   12.83    1.37
   2   1  12   10.87    1.57
   2   1  13  366.38   12.93
   2   1  13  354.94   13.34
   2  -1  13  351.94   13.26
   2  -1  13  368.02   12.95
   2   1  13  353.21   13.52
   2  -1  13  381.03   13.86
   2  -1  13  365.13   13.65
   2  -1  13  345.37   12.96
   2   1  13  352.82   12.75
   2   1  13  343.75   13.36
   2  -1  13  368.75   13.16
   2   1  13  361.87   13.39
   2  -1  13  350.35   13.15
   2   1  13  366.01   13.69
   2   1  13  344.07   13.67
   2  -1  13  372.52   13.71
   2  -1  13  382.12   13.30
   2  -1  13  359.73   13.44
   2   1  13  335.76   12.47
   2  -1  13  352.08   13.53
   2  -1  14    2.73    1.15
   2   1  14    2.73    1.11
   2  -1  14    2.29    0.91
   2  -1  14    1.79    0.91
   2   1  14    2.50    0.95
   2  -1  14    2.06    0.80
   2  -1  14    3.93    1.27
   2   1  14    2.76    1.20
   2   1  14    2.27    0.72
   2  -1  14    3.10    1.00
   2   1  14    2.06    1.00
   2   1  14    2.36    1.14
   2  -1  14    1.77    0.84
   2  -1  14    2.86    1.20
   2   1  14    1.66    0.85
   2  -1  14    3.30    1.27
   2  -1  14    1.78    0.88
   2  -1  14    4.28    1.20
   2   1  14    2.01    0.71
   2   1  14    2.01    0.77
   2  -1  15  203.15    8.70
   2   1  15  188.12    8.28
   2  -1  15  215.81    8.22
   2   1  15  193.29    8.54
   2  -1  15  192.50    8.00
   2   1  15  193.67    7.59
   2   1  15  200.85    8.40
   2  -1  15  203.52    8.69
   2  -1  15  218.51    8.38
   2   1  15  195.29    8.45
   2  -1  15  216.21    8.86
   2   1  15  199.92    8.76
   2   1  15  211.54    8.74
  -2  -1 -15  180.79    8.23
   2  -1  15  217.55    8.12
  -2   1 -15  206.49    8.69
   2  -1  15  219.87    9.02
   2  -1  15  199.41    8.33
   2   1  15  191.96    7.54
   2  -1  16   52.85    3.03
   2   1  16   52.22    3.35
   2  -1  16   53.75    3.09
   2  -1  16   55.68    3.30
   2  -1  16   57.39    3.59
   2  -1  16   58.26    3.68
   2   1  16   52.91    3.47
   2   1  16   53.99    3.48
   2  -1  16   56.01    3.61
  -2  -1 -16   49.16    3.28
  -2   1 -16   50.52    3.44
   2   1  16   52.21    3.55
   2  -1  16   52.33    3.48
   2   1  16   54.24    3.38
   2  -1  16   53.22    3.07
   2  -1  16   53.05    3.16
   2  -1  17   20.02    1.72
   2   1  17   20.27    1.59
   2  -1  17   17.95    1.83
   2   1  17   18.54    1.91
   2  -1  17   19.80    1.91
   2   1  17   16.48    1.73
   2  -1  17   17.44    1.48
  -2   1 -17   17.73    1.88
  -2  -1 -17   17.01    1.75
   2  -1  17   17.79    1.83
   2  -1  17   21.57    1.64
   2   1  17   18.59    1.75
   2  -1  17   17.15    1.84
   2  -1  17   18.83    1.61
   2  -1  18   40.27    1.71
   2  -1  18   37.47    1.67
   2   1  18   42.24    1.74
   2  -1  18   40.07    1.83
   2  -1  19   50.07    2.06
  -2   2  18   66.45    2.89
  -2  -2  18   74.16    3.00
   2   2 -17   33.53    1.42
  -2  -2  17   28.37    1.99
  -2   2  17   25.03    1.76
  -2  -2  17   31.20    1.47
  -2   2  17   29.96    1.70
  -2  -2  17   21.49    1.61
  -2  -2  17   35.10    1.92
  -2   2  17   30.43    2.02
  -2  -2  17   34.43    1.78
  -2   2  17   35.15    1.81
   2   2 -16    3.23    0.62
  -2  -2  16    3.17    0.70
  -2   2  16    3.80    0.94
   2  -2 -16    2.38    0.76
   2   2 -16    4.58    1.04
  -2  -2  16    2.86    0.84
  -2   2  16    3.74    0.86
  -2  -2  16    2.87    0.77
  -2  -2  16    3.28    0.79
  -2  -2  16    3.92    0.99
  -2   2  16    4.37    0.93
  -2  -2  16    3.09    0.98
  -2  -2  16    3.53    0.90
  -2  -2  16    3.91    0.96
  -2  -2  16    2.61    0.68
  -2   2  16    3.67    1.07
  -2   2  16    3.26    0.99
  -2   2  16    4.36    0.94
  -2  -2  15   36.21    2.66
   2   2 -15   31.00    1.94
  -2  -2  15   32.09    2.43
  -2  -2  15   34.32    2.47
  -2   2  15   31.45    2.68
  -2   2  15   36.43    2.58
  -2  -2  15   32.08    2.55
  -2  -2  15   35.44    2.45
  -2  -2  15   30.07    2.41
  -2   2  15   35.21    2.88
  -2  -2  15   37.16    2.80
   2   2 -15   33.67    2.73
  -2   2  15   34.15    2.63
   2  -2 -15   30.62    2.50
  -2  -2  15   24.98    2.04
  -2   2  15   32.83    2.19
  -2   2  15   32.97    2.41
  -2  -2  14   12.14    1.58
  -2  -2  14    8.97    1.36
  -2   2  14   12.78    1.70
  -2  -2  14   13.44    1.70
  -2   2  14   14.22    1.64
  -2  -2  14   13.95    1.69
  -2  -2  14   10.92    1.35
   2  -2 -14   13.01    1.73
  -2  -2  14   14.46    1.69
  -2  -2  14   11.83    1.65
  -2  -2  14   14.42    1.90
  -2   2  14   13.87    2.02
  -2   2  14   12.22    1.44
  -2   2  14   17.06    1.86
   2   2 -14   12.50    1.81
  -2  -2  14   12.12    1.72
  -2   2  14   12.99    1.42
   2   2 -14   10.79    1.45
  -2  -2  13  105.95    5.36
  -2  -2  13  117.81    5.59
  -2  -2  13   96.44    4.95
  -2   2  13  106.05    5.10
  -2   2  13  110.42    5.35
   2  -2 -13  104.26    5.54
   2   2 -13  113.02    5.27
  -2  -2  13  108.66    5.47
  -2  -2  13  110.94    5.63
  -2   2  13  111.30    5.99
  -2  -2  13  119.18    5.62
  -2  -2  13  106.24    5.44
  -2  -2  13  110.18    5.69
  -2  -2  13  107.19    5.43
   2   2 -13  111.62    5.80
  -2   2  13  114.70    5.69
  -2  -2  13   96.90    4.93
  -2   2  13  125.73    4.99
  -2   2  13  102.63    5.32
  -2  -2  12   56.70    3.62
  -2  -2  12   75.64    4.06
  -2  -2  12   52.65    3.39
  -2   2  12   57.15    3.58
  -2  -2  12   62.60    3.80
  -2  -2  12   57.83    3.76
   2   2 -12   62.72    3.61
  -2  -2  12   63.98    3.82
  -2  -2  12   61.25    3.85
  -2   2  12   69.83    4.41
  -2  -2  12   60.07    3.80
  -2   2  12   63.67    3.96
   2   2 -12   63.26    4.05
  -2  -2  12   59.49    3.49
  -2  -2  12   65.94    4.05
   2  -2 -12   65.29    3.99
  -2   2  12   75.70    3.46
  -2   2  12   58.49    3.69
  -2  -2  11  158.92    6.98
  -2  -2  11  159.05    7.05
   2   2 -11  153.35    6.73
  -2  -2  11  169.58    7.20
  -2   2  11  148.13    7.28
  -2  -2  11  157.65    6.93
  -2   2  11  186.53    6.58
   2   2 -11  161.27    7.33
   2  -2 -11  166.33    7.30
  -2   2  11  155.95    6.83
  -2  -2  11  156.50    6.67
  -2   2  11  163.29    7.62
  -2  -2  11  156.39    7.24
   2   2 -11  147.61   12.29
  -2  -2  11  167.32    7.15
   2  -2 -11  155.44   12.25
  -2   2  11  168.50    7.29
  -2   2  11  157.07    7.01
  -2   2  10  142.16    5.34
  -2  -2  10  121.81    5.66
  -2   2  10  100.61    5.77
  -2  -2  10  117.66    5.52
  -2   2  10  113.16    6.03
   2  -2 -10  126.28    5.93
  -2  -2  10  127.65    5.74
   2   2 -10  126.27    5.99
   2   2 -10  115.75   10.21
  -2  -2  10  116.38    5.39
   2  -2 -10  115.20   10.06
  -2  -2   9   12.28    1.48
  -2  -2   9   10.00    1.33
  -2   2   9   18.91    1.70
   2   2  -9   14.75    3.36
  -2  -2   9   11.40    1.56
  -2  -2   9    7.82    2.54
  -2   2   9    9.27    1.56
  -2   2   9   11.00    1.63
   2   2  -9   10.40    1.47
   2  -2  -9   12.84    1.56
   2  -2  -9   16.04    2.93
  -2  -2   9   11.99    1.45
  -2   2   9   15.42    1.39
   2  -2  -9   13.40    3.23
  -2  -2   8   21.49    1.81
  -2  -2   8   16.41    1.53
  -2   2   8   30.58    2.16
   2   2  -8   23.29    4.04
  -2  -2   8   19.44    3.42
  -2  -2   8   23.90    1.91
   2  -2  -8   18.71    3.59
   2  -2  -8   23.58    3.34
   2   2  -8   21.93    1.94
  -2   2   8   24.02    1.68
  -2   2   8   18.54    1.97
  -2   2   8   17.44    1.86
   2  -2  -8   21.51    1.93
  -2  -2   7   43.24    4.73
  -2   2   7   59.41    2.69
  -2  -2   7   51.41    2.76
  -2   2   7   43.51    2.99
  -2   2   7   42.72    2.92
   2  -2  -7   58.72    4.99
  -2   2   7   55.57    2.90
   2   2  -7   42.97    5.25
   2  -2  -7   46.36    5.30
  -2  -2   6  902.46   33.12
   2   2  -6  920.83   34.68
   2  -2  -6  954.72   33.10
   2  -2  -6  914.47   34.48
   2  -2  -5  259.56   13.07
   2   2  -5  262.20   13.29
  -2  -2   5  270.25   12.19
   2  -2  -5  291.25   12.69
  -2  -2   4  245.46   10.20
   2   2  -4  236.85   11.55
   2  -2  -4  225.09   11.19
   2  -2  -4  252.42   11.11
  -2  -2   3  278.65   10.59
   2  -2  -3  236.35   11.49
   2  -2  -3  248.82   11.44
  -2   2   3  255.76    9.83
   2   2  -3  253.25   11.94
   2   2  -2  756.21   25.89
   2  -2  -2  794.63   27.14
  -2  -2   2  758.47   25.03
  -2   2   2  767.82   25.36
   2  -2  -2  713.06   25.62
  -2  -2   1  334.00   11.36
  -2   2   1  356.39   12.47
   2  -2  -1  321.95   13.37
   2  -2  -1  293.62   11.97
   2   2  -1  300.13   12.02
  -2   2   0 1071.38   31.76
  -2  -2   0 1006.96   29.67
   2   2   0  839.50   30.45
   2  -2   0  851.21   30.51
  -2   2  -1  485.27   15.61
   2  -2   1  390.61   15.71
   2  -2   1  364.55   14.11
   2  -2   1  480.35   16.39
   2   2   1  353.31   14.07
   2  -2   2  672.94   24.21
   2   2   2  723.13   24.45
   2  -2   2  668.32   25.62
  -2   2  -3  920.23   29.97
  -2  -2  -3  977.26   30.08
   2  -2   3  756.82   28.60
   2   2   3  795.16   28.97
   2  -2   3  948.28   30.47
   2  -2   4  508.59   18.18
  -2  -2  -4  398.34   16.14
   2   2   4  443.12   17.03
  -2  -2  -4  529.92   17.41
   2  -2   4  412.32   16.59
  -2   2  -4  449.62   16.89
   2  -2   5  204.15    9.87
  -2   2  -5  195.12    9.14
  -2   2  -6 1060.22   36.48
  -2  -2  -6  945.19   35.46
   2  -2   7  665.53   21.50
   2  -2   7  655.46   21.28
  -2   2  -7  640.10   24.91
   2  -2   7  666.72   21.43
  -2  -2  -7  577.09   23.90
   2  -2   8  288.53   14.22
   2  -2   8  268.46    9.44
   2  -2   8  252.29    9.64
   2   2   8  253.97    9.69
   2   2   8  249.76    9.88
   2  -2   8  268.62    9.72
   2   2   8  275.28    9.96
   2   2   8  258.47    9.82
   2  -2   8  268.54    9.70
   2  -2   8  269.04    9.78
  -2   2  -8  248.84   13.02
  -2  -2  -8  220.03   12.06
   2  -2   8  284.98    9.72
   2  -2   9   85.31    3.97
   2  -2   9   80.73    7.28
   2   2   9   75.42    3.99
   2   2   9   83.77    4.21
  -2   2  -9   65.95    6.42
   2  -2   9   76.30    4.03
   2   2   9   79.08    4.29
   2  -2   9   82.33    4.17
   2  -2   9   80.44    4.02
   2   2   9   82.45    4.26
   2  -2   9   82.95    4.14
   2  -2   9   80.69    4.06
  -2  -2  -9   64.14    5.93
   2  -2  10   98.45    4.67
   2   2  10   94.75    4.80
   2   2  10  104.96    5.13
   2  -2  10  102.07    4.96
   2   2  10   98.52    5.14
   2  -2  10  105.03    5.03
   2  -2  10  102.95    4.89
   2   2  10   93.54    4.65
  -2   2 -10   76.90    7.44
   2  -2  10  105.19    4.97
   2   2  10   99.96    4.98
   2  -2  10  105.95    5.05
   2  -2  10  103.91    8.95
   2  -2  11   25.81    2.15
   2   2  11   23.41    1.98
   2  -2  11   21.77    4.26
   2  -2  11   23.55    2.10
   2  -2  11   21.42    2.01
   2  -2  11   22.99    2.32
   2   2  11   24.56    2.21
   2   2  11   24.01    2.39
   2  -2  11   20.92    2.13
   2  -2  11   24.23    2.28
  -2   2 -11   21.70    3.99
   2   2  11   23.00    1.89
   2   2  11   22.21    2.03
   2   2  11   22.95    2.31
   2  -2  11   19.41    1.84
   2  -2  11   22.72    2.21
   2   2  11   21.34    2.10
   2   2  11   21.02    1.80
   2  -2  11   23.30    2.12
  -2  -2 -11   17.08    3.37
   2  -2  11   23.25    2.14
   2  -2  11   21.43    1.97
   2   2  11   23.13    2.22
   2   2  11   19.22    1.57
   2   2  12   39.12    2.66
   2   2  12   40.70    3.09
   2  -2  12   38.20    2.66
   2  -2  12   39.61    2.84
   2  -2  12   36.25    2.79
   2   2  12   36.04    2.82
   2  -2  12   36.17    2.75
   2   2  12   33.55    2.77
   2  -2  12   39.16    2.83
   2  -2  12   41.04    3.11
   2  -2  12   40.71    3.02
   2   2  12   36.70    2.74
   2   2  12   36.81    3.06
   2   2  12   35.02    2.88
   2   2  12   33.05    2.36
   2  -2  12   38.06    3.03
   2   2  12   33.93    2.44
   2  -2  12   35.64    2.89
   2  -2  13   14.63    2.03
   2   2  13   14.77    1.82
   2  -2  13   15.77    1.88
   2   2  13   12.05    1.83
   2   2  13   13.57    1.55
   2  -2  13   14.83    2.00
   2   2  13   11.41    1.72
   2   2  13   13.75    2.00
   2  -2  13   16.20    1.68
   2  -2  13   13.30    1.90
   2   2  13   15.16    1.85
   2  -2  13   15.50    1.82
   2  -2  13   14.50    1.92
   2  -2  13   15.81    1.68
   2  -2  13   13.58    1.67
   2  -2  13   13.96    1.76
   2   2  13   13.69    1.47
   2   2  13   14.37    1.54
   2   2  14  118.43    5.31
   2  -2  14  118.22    5.32
   2  -2  14  119.71    5.54
   2  -2  14  116.06    5.19
   2  -2  14  120.58    6.03
   2   2  14  116.30    5.99
   2  -2  14  122.88    5.95
   2   2  14  115.21    5.83
   2   2  14  109.60    4.96
   2  -2  14  122.75    5.67
  -2   2 -14  118.89    5.75
   2  -2  14  124.36    6.04
   2  -2  14  120.88    5.91
   2   2  14  113.04    5.14
   2   2  14  116.13    5.69
  -2  -2 -14   97.77    5.15
   2  -2  14  111.82    5.61
   2   2  14  116.87    5.66
   2  -2  15   51.65    3.47
   2  -2  15   56.07    3.58
   2  -2  15   59.25    3.73
   2   2  15   56.96    3.68
   2   2  15   54.79    3.53
  -2  -2 -15   41.55    2.93
  -2   2 -15   53.68    3.45
   2  -2  15   55.15    3.32
   2   2  15   51.25    3.01
   2  -2  15   55.92    3.12
   2  -2  15   61.78    3.80
   2   2  15   54.62    2.99
   2  -2  15   55.76    3.26
  -2  -2 -16  101.58    5.02
   2  -2  16  128.59    5.41
   2   2  16  125.92    5.77
   2  -2  16  123.33    5.63
   2   2  16  123.03    5.09
   2   2  16  116.84    5.46
   2   2  16  117.67    4.90
   2  -2  16  132.92    5.84
   2  -2  16  127.47    5.30
   2  -2  16  121.77    5.62
  -2   2 -16  120.12    5.54
   2  -2  16  121.18    5.08
   2  -2  16  116.54    5.67
  -2   2 -17  114.26    4.32
   2  -2  17  105.20    4.84
   2  -2  17  114.75    4.47
   2  -2  17  110.24    4.96
   2  -2  17  112.15    4.66
   2  -2  17  101.23    4.86
   2  -2  17  105.08    4.83
   2   2  17  106.93    4.51
   2  -2  17  115.80    4.56
   2  -2  17  108.44    4.73
   2   2  17  102.18    4.20
   2   2  17  111.36    4.42
  -2   2 -18    4.54    0.56
   2   2  18    4.46    0.62
   2  -2  18    4.14    0.66
   2   2  18    4.77    0.59
   2  -2  18    4.65    0.59
   2  -2  18    5.69    0.77
   2  -2  18    4.65    0.60
  -2  -3  17   14.31    0.92
  -2  -3  17   17.30    1.10
  -2  -3  17   18.57    1.29
  -2   3  17   14.72    0.87
   2   3 -16    2.58    0.50
  -2  -3  16    3.45    0.73
  -2  -3  16    2.57    0.60
  -2  -3  16    2.24    0.72
  -2   3  16    2.15    0.75
  -2   3  16    2.96    0.63
  -2   3  16    2.24    0.65
  -2  -3  16    0.03    0.19
   2   3 -15   96.98    3.98
  -2  -3  15   97.02    4.25
  -2  -3  15  100.18    4.77
  -2  -3  15  107.20    4.67
  -2   3  15  106.55    4.89
  -2   3  15  107.57    4.46
  -2   3  15   97.42    4.31
   2   3 -14   12.72    1.20
  -2  -3  14   13.37    1.69
  -2  -3  14   13.39    1.65
  -2  -3  14   13.87    1.73
  -2   3  14   10.88    1.64
  -2  -3  14   11.68    1.62
  -2  -3  14   13.42    1.47
  -2   3  14   11.15    1.71
  -2   3  14   16.44    1.61
  -2  -3  14   11.21    1.40
  -2   3  14    9.01    1.21
  -2   3  14   13.99    1.43
  -2   3  14   12.64    1.58
  -2  -3  14   11.68    1.45
  -2  -3  13  109.24    5.16
  -2  -3  13   86.18    4.68
  -2   3  13   95.17    5.31
  -2  -3  13  105.04    5.16
  -2  -3  13   94.38    4.81
  -2  -3  13  101.82    5.13
  -2   3  13   99.84    4.80
  -2  -3  13   91.03    4.58
  -2  -3  13  100.62    5.22
  -2   3  13   97.05    4.50
   2   3 -13   97.19    4.32
  -2   3  13   97.74    5.06
   2   3 -12  122.42    5.40
  -2  -3  12  129.93    6.17
  -2  -3  12  122.53    5.92
  -2   3  12  132.41    6.33
  -2  -3  12  129.64    6.09
   2   3 -12  136.13    6.05
  -2  -3  12  140.58    6.31
  -2   3  12  138.91    6.07
  -2  -3  12  131.81    5.88
  -2  -3  12  128.20    6.34
  -2  -3  12  133.41    6.36
  -2   3  12  138.59    5.83
   2   3 -11   48.74    2.79
  -2  -3  11   54.61    3.41
   2   3 -11   52.58    3.26
  -2  -3  11   46.12    3.10
  -2   3  11   42.69    2.74
  -2  -3  11   63.61    3.66
  -2  -3  11   50.72    3.19
  -2  -3  11   53.02    3.58
  -2   3  11   56.40    3.24
  -2   3  11   53.27    3.27
  -2   3  11   54.21    3.53
   2   3 -10   37.57    2.31
  -2  -3  10   38.99    2.76
  -2  -3  10   36.53    5.23
  -2  -3  10   35.66    2.62
  -2   3  10   38.27    2.86
  -2  -3  10   39.70    2.90
   2   3 -10   37.41    2.60
  -2   3  10   26.79    2.13
  -2  -3  10   35.49    2.51
  -2  -3  10   35.81    2.85
  -2   3  10   31.28    2.40
  -2   3  10   39.86    2.65
  -2   3  10   31.89    2.69
  -2   3   9    0.63    0.65
  -2   3   9    0.90    0.80
  -2  -3   9    0.69    0.58
  -2  -3   9   -0.24    0.85
  -2  -3   9    0.66    1.37
  -2  -3   9    0.38    0.75
  -2   3   9   -0.21    0.63
  -2   3   9   -0.27    0.79
   2   3  -9   -0.33    1.07
  -2   3   9   -0.45    0.59
  -2  -3   8    8.40    1.21
  -2   3   8    9.01    1.28
  -2  -3   8   11.55    2.78
  -2   3   8    6.23    1.48
  -2   3   8    9.20    1.51
  -2  -3   8    9.45    1.45
   2   3  -8   11.19    2.79
   2  -3  -8   10.77    2.55
  -2  -3   7  111.73    4.77
  -2  -3   7  123.10    5.12
  -2   3   7   95.20    5.28
  -2  -3   7  101.84    7.80
  -2   3   7   94.24    5.02
   2  -3  -7  119.50    8.19
   2   3  -7  141.84    9.29
  -2   3   7  113.35    4.77
  -2  -3   6   87.10    4.08
  -2  -3   6  101.15    7.21
  -2   3   6   81.40    4.71
   2  -3  -6  107.05    7.51
  -2  -3   6  116.67    4.63
   2   3  -6  130.57    8.63
  -2   3   6  103.21    4.40
  -2   3   6   85.40    4.56
  -2  -3   5  148.36    5.31
  -2  -3   5  153.28    8.38
   2  -3  -5  152.72    9.04
  -2  -3   4   19.39    2.61
  -2   3   4   12.48    1.50
   2  -3  -4   22.45    3.36
   2   3  -4   28.98    3.77
   2  -3  -3  905.88   35.27
   2   3  -3 1094.26   36.42
   2  -3  -2  972.78   34.48
   2   3  -2 1047.87   34.33
   2   3  -1  258.78   11.97
   2  -3  -1  263.59   12.45
   2   3   0 1778.55   53.95
   2  -3   0 1714.54   54.21
   2   3   1  243.30   12.04
   2  -3   1  263.13   12.50
   2  -3   2  206.35   11.44
   2   3   2  265.08   12.04
   2  -3   3   59.72    5.36
   2   3   3   68.99    5.50
   2  -3   4   71.68    3.37
   2  -3   4   73.47    3.43
   2  -3   4   72.34    3.41
   2  -3   5  196.58    7.10
   2  -3   5  187.29    7.05
  -2   3  -5  184.85    7.67
  -2   3  -5  167.39    7.66
  -2   3  -5  154.73    7.30
   2  -3   5  186.22    7.04
   2  -3   5  194.40    7.11
  -2   3  -6  171.40    7.88
   2  -3   6  210.10   11.59
   2  -3   6  195.42    7.37
   2  -3   6  205.75    7.41
  -2   3  -6  184.02    7.92
   2  -3   6  196.54    7.38
   2  -3   6  193.47    7.36
   2  -3   6  197.60    7.39
   2  -3   7  125.66    5.09
   2  -3   7  111.59    5.08
   2  -3   7  110.66    5.11
   2  -3   7  109.31    5.09
   2  -3   7  118.92    5.14
  -2   3  -7  108.25    5.61
   2  -3   7  126.46    9.08
   2  -3   7  118.80    5.20
   2  -3   8   24.99    4.16
   2  -3   8   29.77    2.17
   2  -3   8   31.98    2.31
   2  -3   8   34.97    2.44
   2  -3   8   31.71    2.32
   2  -3   8   27.98    2.24
   2  -3   8   27.42    2.21
   2   3   8   27.62    2.42
  -2   3  -8   25.09    2.43
   2  -3   8   23.84    2.16
   2  -3   9   72.71    3.96
   2  -3   9   74.58    3.82
   2  -3   9   56.81    6.68
   2  -3   9   72.36    3.92
   2  -3   9   71.80    3.93
   2   3   9   65.00    3.94
   2  -3   9   62.19    3.63
   2  -3   9   60.74    3.57
   2  -3   9   70.89    3.91
  -2   3  -9   62.67    4.08
   2   3   9   68.95    3.63
   2   3   9   65.26    3.55
   2   3   9   68.35    3.57
   2  -3   9   66.77    3.80
   2   3   9   70.90    4.17
   2  -3  10   86.75    4.58
  -2   3 -10   81.56    3.87
   2  -3  10   92.47    4.47
   2  -3  10   78.06    4.18
   2   3  10   91.79    4.32
   2  -3  10   86.40    4.51
   2  -3  10   78.09    4.23
   2  -3  10   91.41    4.66
   2  -3  10   78.31    4.22
   2   3  10   82.01    4.72
  -2   3 -10   76.73    4.65
   2  -3  10   83.07    4.30
   2   3  10   70.06    3.91
   2   3  10   83.85    4.63
   2   3  10   76.46    3.69
   2  -3  10   80.60    4.43
   2   3  10   82.15    4.14
   2  -3  10   78.10    4.28
   2   3  10   82.89    4.15
   2  -3  10   87.07    4.57
   2   3  11   98.23    4.73
  -2   3 -11   93.79    4.39
   2  -3  11  106.41    5.05
   2   3  11   98.93    4.77
   2  -3  11  103.27    5.23
   2  -3  11   98.05    4.77
   2  -3  11  101.03    5.14
   2  -3  11   95.25    4.89
   2  -3  11   91.94    4.77
   2   3  11   97.13    5.34
   2  -3  11   97.52    4.89
   2  -3  11   99.05    5.10
   2  -3  11   98.19    5.14
   2   3  11   92.04    4.15
   2  -3  11   92.17    4.76
   2   3  11   96.86    5.18
   2  -3  11   97.65    4.96
   2  -3  11  106.04    5.29
   2   3  11   99.64    4.74
  -2   3 -12   54.40    2.97
   2  -3  12   56.08    3.47
   2  -3  12   54.52    3.52
   2  -3  12   53.10    3.34
   2  -3  12   53.57    3.59
   2  -3  12   48.78    3.18
   2  -3  12   48.88    3.14
   2  -3  12   52.68    3.57
   2  -3  12   50.79    3.44
   2  -3  12   53.85    3.58
   2   3  12   51.72    3.15
   2  -3  12   52.86    3.34
   2   3  12   47.23    3.00
   2  -3  12   52.31    3.37
   2   3  12   52.39    3.15
   2  -3  13  108.91    5.64
   2  -3  13  117.26    5.52
   2  -3  13  120.22    5.70
   2  -3  13  112.78    5.34
   2  -3  13  112.56    5.36
  -2   3 -13  117.51    4.97
   2   3  13  111.12    5.08
   2  -3  13  114.93    5.27
   2  -3  13  118.17    5.79
   2  -3  13  115.02    5.76
   2  -3  13  109.98    5.54
   2  -3  13  111.72    5.12
   2   3  13  108.98    5.05
   2  -3  13  108.65    5.37
   2   3  13  108.53    5.09
   2   3  13  108.42    5.08
  -2   3 -14   10.52    1.20
   2  -3  14    8.67    1.20
   2  -3  14    9.35    1.40
   2  -3  14    8.70    1.12
   2  -3  14   10.73    1.41
   2  -3  14    8.66    1.49
   2   3  14   11.31    1.33
   2  -3  14   10.08    1.48
   2   3  14    8.48    1.17
   2   3  14    9.75    1.23
   2  -3  14   10.32    1.63
   2  -3  14    7.33    1.33
   2  -3  14    9.17    1.34
   2  -3  14    8.76    1.24
   2  -3  14    9.54    1.42
   2  -3  14    8.57    1.51
   2   3  14    8.25    1.19
  -2   3 -15   20.85    1.51
   2  -3  15   17.71    1.88
   2  -3  15   15.53    1.61
   2  -3  15   13.64    1.60
   2  -3  15   16.78    1.83
   2  -3  15   16.98    1.48
   2  -3  15   15.49    1.59
   2  -3  15   16.21    1.45
   2  -3  15   17.14    1.86
   2  -3  15   16.18    1.70
   2   3  15   15.52    1.42
   2  -3  15   15.29    1.61
   2   3  15   17.54    1.46
   2   3  15   19.14    1.53
   2   3  15   16.35    1.51
  -2   3 -16    0.23    0.38
   2   3  16    0.28    0.40
   2  -3  16    0.98    0.52
   2  -3  16    0.18    0.51
   2  -3  16    0.06    0.52
   2  -3  16    0.74    0.60
   2   3  16    0.24    0.43
   2  -3  16    0.34    0.63
   2  -3  16    0.43    0.58
   2  -3  16    0.99    0.67
   2   3  16    0.76    0.43
   2  -3  16    0.11    0.57
   2   3  16    0.84    0.54
   2  -3  17    9.95    0.97
  -2   3 -17    9.64    0.78
   2  -3  17   10.37    0.83
   2  -3  17    9.71    0.92
   2  -3  17   10.05    1.03
   2   3  17   10.18    0.86
   2   3  17    9.97    0.80
  -2  -4  16   27.00    1.45
  -2  -4  16   20.85    1.20
  -2   4  16   25.23    1.31
  -2  -4  16   27.78    1.50
  -2   4  16   22.82    1.19
   2   4 -15    1.90    0.43
  -2  -4  15    2.12    0.55
  -2  -4  15    1.60    0.59
  -2   4  15    1.61    0.54
  -2  -4  15    3.09    0.75
  -2   4  15    2.78    0.52
   2   4 -14   77.67    3.17
  -2  -4  14   68.11    3.55
  -2  -4  14   77.57    3.53
  -2  -4  14   69.70    3.59
  -2  -4  14   68.62    3.21
  -2  -4  14   78.90    3.73
  -2  -4  14   67.23    3.27
  -2   4  14   68.17    3.19
  -2   4  14   78.60    3.54
   2   4 -13   25.31    1.72
  -2  -4  13   26.81    2.17
  -2  -4  13   29.79    2.17
  -2  -4  13   27.35    2.21
  -2  -4  13   28.81    2.23
  -2   4  13   31.60    2.17
  -2  -4  13   27.17    2.21
  -2  -4  13   23.76    1.93
  -2   4  13   26.90    1.83
   2   4 -12   63.19    3.14
  -2  -4  12   64.38    3.76
  -2  -4  12   65.43    3.66
  -2  -4  12   68.71    3.76
  -2  -4  12   61.04    3.60
  -2  -4  12   60.03    3.38
  -2  -4  12   65.11    3.75
  -2   4  12   65.09    3.54
  -2   4  12   60.15    3.17
   2   4 -11   69.05    3.36
  -2  -4  11   78.63    4.05
  -2  -4  11   69.99    3.81
  -2  -4  11   72.56    4.05
   2   4 -11   67.67    3.29
  -2  -4  11   69.10    3.67
  -2   4  11   56.95    3.47
  -2  -4  11   71.99    4.01
  -2   4  11   59.76    3.29
  -2   4  11   53.14    3.47
  -2   4  11   60.87    3.28
   2   4 -10   29.35    2.09
  -2  -4  10   34.55    2.55
   2   4 -10   29.31    2.10
  -2   4  10   27.84    2.12
  -2  -4  10   38.51    2.75
  -2  -4  10   33.83    2.54
  -2   4  10   28.05    2.33
  -2   4  10   31.55    2.42
  -2  -4  10   34.39    2.70
  -2   4  10   26.49    2.38
  -2   4  10   25.53    2.01
  -2   4  10   37.75    2.82
   2   4  -9   60.06    3.17
  -2  -4   9   59.41    3.43
  -2  -4   9   67.82    3.83
  -2   4   9   66.88    3.89
   2   4  -9   59.42    3.20
  -2   4   9   52.97    3.09
  -2   4   9   61.28    3.94
  -2   4   9   59.81    3.43
  -2  -4   9   62.41    3.74
  -2   4   9   53.46    3.31
  -2   4   9   48.99    3.42
  -2   4   9   51.50    2.97
   2   4  -8    1.32    0.64
  -2  -4   8    2.69    0.87
  -2   4   8    2.42    0.81
  -2  -4   8    1.51    1.05
  -2   4   8    1.79    0.91
   2   4  -8    1.65    0.65
  -2   4   8    2.57    0.78
  -2  -4   8    2.40    0.90
   2   4  -8    2.04    0.70
  -2   4   8    2.11    0.88
  -2  -4   8    3.20    1.22
  -2   4   8    2.53    1.08
  -2   4   8    3.16    1.01
   2   4  -7  235.70    8.45
  -2  -4   7  225.65    8.52
  -2  -4   7  255.32    9.19
  -2   4   7  233.69    9.20
  -2   4   7  209.78    8.32
  -2   4   7  233.74    9.65
   2   4  -7  237.02    8.54
  -2   4   7  216.54    8.58
   2   4  -7  223.96    8.47
   2   4  -7  266.93   14.43
  -2   4   7  171.48    8.64
  -2  -4   6   10.82    1.31
  -2   4   6    4.91    1.28
  -2   4   6   11.23    1.53
  -2   4   6    8.20    1.20
  -2  -4   6    8.97    1.49
  -2   4   6   10.54    1.43
   2   4  -6   11.20    1.26
  -2   4   6    9.31    1.63
   2   4  -6   11.86    1.35
   2  -4  -6   13.82    2.91
   2   4  -6   14.01    3.13
  -2   4   6   10.60    1.41
  -2  -4   5  156.72    5.78
  -2   4   5  133.36    6.16
   2  -4  -5  160.85   10.27
  -2   4   5  145.74    6.89
   2   4  -5  178.51   10.91
   2  -4  -5  188.68   11.68
  -2   4   5  103.76    5.75
  -2  -4   4    9.40    1.09
   2  -4  -4   13.20    3.13
   2   4  -4    9.55    2.46
  -2   4   4    8.00    1.29
  -2   4   4    9.54    1.58
   2  -4  -4    5.70    2.04
  -2   4   3   19.22    1.97
  -2   4   3   23.79    2.38
   2  -4  -3   23.63    3.75
   2   4  -3   25.23    3.93
   2  -4  -3   27.08    4.18
   2  -4  -2    5.91    2.14
  -2   4   2    3.03    0.93
  -2   4   2    4.76    1.21
   2  -4  -2    6.73    2.19
   2   4  -2    5.63    2.07
  -2   4   1    0.68    0.66
   2  -4  -1    0.29    1.25
   2  -4  -1    1.36    0.69
   2  -4  -1    0.28    1.22
   2   4  -1    3.15    1.51
  -2   4   0  133.21    6.55
   2  -4   0  140.70    5.65
   2  -4   0  134.07    9.26
   2   4   0  167.06    9.75
  -2   4   0  110.67    5.81
   2  -4   0  157.90    9.93
   2  -4   1  102.91    4.45
  -2   4  -1   95.35    5.30
   2  -4   1   94.37    7.67
   2   4   1  125.45    8.29
  -2   4  -1   77.26    4.56
   2  -4   1  106.18    8.01
  -2   4  -2  212.17    9.56
   2  -4   2  220.32    8.48
   2  -4   3  235.88    8.43
  -2   4  -3  220.31    9.13
   2  -4   3  214.65    8.15
  -2   4  -3  180.63    8.65
  -2   4  -3  207.73    9.41
   2  -4   3  211.69   12.63
   2   4   3  264.78   13.17
   2  -4   3  251.48   13.29
   2  -4   4  359.55   11.88
   2  -4   4  358.50   16.98
   2  -4   4  320.21   11.48
   2  -4   4  320.88   11.59
  -2   4  -4  313.46   12.81
   2  -4   4  308.57   16.42
  -2   4  -4  264.54   12.03
   2  -4   4  347.77   11.79
  -2   4  -5  423.08   16.35
  -2   4  -5  433.00   16.07
  -2   4  -5  370.82   15.58
   2  -4   5  436.90   15.00
   2  -4   5  420.89   14.89
   2  -4   5  429.75   20.58
   2  -4   5  498.57   21.42
   2  -4   5  456.26   15.14
   2  -4   5  459.95   15.15
   2  -4   6  160.94   11.03
   2   4   6  157.80    6.39
   2  -4   6  129.02   10.10
  -2   4  -6  142.28    7.09
  -2   4  -6  141.78    7.33
   2  -4   6  159.80    6.49
   2  -4   6  145.47    6.27
   2  -4   6  136.68    6.15
   2  -4   6  148.86    6.36
  -2   4  -7  815.55   27.62
   2  -4   7  922.99   28.38
   2   4   7  883.25   27.79
  -2   4  -7  850.24   29.47
   2  -4   7  828.04   28.26
   2   4   7  830.36   27.89
   2   4   7  922.12   28.34
   2  -4   7  934.80   28.62
   2  -4   7  831.09   28.00
   2  -4   7  879.16   28.35
   2   4   7  838.03   28.02
   2  -4   7  799.15   34.32
   2   4   7  869.85   28.03
   2  -4   7  914.49   28.53
   2  -4   8  125.64    5.81
  -2   4  -8  118.36    5.19
   2  -4   8  142.30    5.84
   2  -4   8  105.02    5.46
   2  -4   8  126.53    5.60
   2  -4   8  128.65    5.76
   2   4   8  117.64    5.14
   2  -4   8  127.81    5.76
   2   4   8  116.90    5.36
   2  -4   8  128.12    5.75
   2  -4   8  131.28    5.88
   2   4   8  133.60    5.71
   2   4   8  123.85    5.53
  -2   4  -8  121.33    6.47
   2   4   8  124.35    5.51
   2  -4   9  255.95    9.65
  -2   4  -9  250.48    8.92
   2  -4   9  257.80    9.48
   2   4   9  252.44    9.31
   2  -4   9  239.90    9.25
   2  -4   9  234.12    9.11
   2  -4   9  259.00    9.73
  -2   4  -9  233.49   10.31
   2   4   9  241.79    8.70
   2  -4   9  242.45    9.48
   2  -4   9  238.53    9.40
   2   4   9  248.34    9.21
   2   4   9  215.37    8.93
   2  -4   9  243.34    9.41
   2  -4  10   76.23    4.24
  -2   4 -10   77.01    3.67
   2  -4  10   76.45    4.11
   2  -4  10   75.00    3.91
   2  -4  10   79.91    4.28
  -2   4 -10   69.00    4.59
   2  -4  10   59.15    3.71
   2   4  10   68.73    3.34
   2  -4  10   72.53    4.00
   2   4  10   76.85    3.92
   2  -4  10   76.84    4.13
   2   4  10   64.94    3.68
   2  -4  10   68.33    3.85
   2  -4  10   70.09    3.81
   2  -4  10   76.54    4.13
   2   4  10   73.60    3.87
  -2   4 -11    1.45    0.67
   2  -4  11    0.74    0.79
   2  -4  11    2.00    0.91
   2  -4  11    0.34    0.81
   2  -4  11    1.19    0.85
   2  -4  11    0.46    0.67
   2  -4  11    1.49    0.74
   2   4  11    0.93    0.46
   2  -4  11    1.37    0.85
   2  -4  11    0.90    0.84
   2   4  11    1.33    0.71
   2  -4  11    2.04    0.88
   2   4  11    0.77    0.67
   2  -4  11    1.42    0.71
   2   4  11    1.82    0.79
  -2   4 -12    7.90    1.08
   2  -4  12    6.16    1.34
   2  -4  12    7.61    1.34
   2  -4  12    5.61    1.13
   2  -4  12    6.83    1.19
   2  -4  12    5.57    1.06
   2  -4  12    7.20    1.34
   2  -4  12    7.24    1.24
   2  -4  12    6.91    1.22
   2   4  12    7.16    1.11
   2   4  12    6.36    1.09
   2  -4  12    8.23    1.24
   2  -4  12    7.39    1.15
   2  -4  13    3.55    1.00
   2  -4  13    5.03    1.01
   2  -4  13    4.38    0.96
   2  -4  13    5.64    1.02
   2   4  13    4.31    0.84
   2  -4  13    5.15    0.87
   2  -4  13    4.60    0.97
   2  -4  13    4.96    1.04
   2  -4  13    3.78    1.00
   2   4  13    3.15    0.85
   2  -4  13    4.81    0.96
   2  -4  13    5.08    0.95
  -2   4 -13    4.37    0.77
   2  -4  13    3.90    0.97
  -2   4 -14   15.71    1.25
   2  -4  14   15.54    1.60
   2  -4  14   14.83    1.61
   2  -4  14   14.78    1.31
   2  -4  14   14.74    1.22
   2  -4  14   13.82    1.36
   2  -4  14   15.04    1.57
   2  -4  14   14.37    1.46
   2  -4  14   14.20    1.45
   2  -4  14   15.78    1.44
   2   4  14   14.62    1.26
   2  -4  14   14.21    1.45
   2  -4  14   15.97    1.43
   2   4  14   15.10    1.39
   2  -4  14   14.69    1.40
   2   4  14   16.86    1.47
   2  -4  15   18.37    1.56
   2  -4  15   16.12    1.15
   2  -4  15   22.69    1.53
   2   4  15   21.50    1.43
  -2   4 -15   19.90    1.26
   2   4  15   17.12    1.19
   2  -4  15   20.37    1.44
   2  -4  15   19.26    1.63
   2  -4  15   18.49    1.34
   2  -4  15   18.77    1.41
   2   4  15   21.41    1.45
  -2   4 -16   19.25    1.02
   2  -4  16   19.45    1.17
   2  -4  16   21.91    1.24
   2   4  16   17.83    1.07
   2  -4  16   22.65    1.27
   2   4  16   20.38    1.22
   2   5 -14   32.00    1.48
  -2  -5  14   41.49    1.88
  -2  -5  14   33.51    1.57
  -2  -5  14   40.41    1.81
  -2  -5  14   37.16    1.67
   2   5 -13   16.87    1.10
  -2  -5  13   17.40    1.35
  -2  -5  13   14.26    1.30
  -2  -5  13   16.55    1.35
  -2  -5  13   16.99    1.27
  -2  -5  13   15.96    1.21
   2   5 -12   55.00    2.55
  -2  -5  12   58.79    2.98
  -2  -5  12   57.89    2.99
  -2  -5  12   50.95    2.81
  -2   5  12   57.78    2.82
  -2  -5  12   55.01    2.76
  -2  -5  12   48.81    2.66
  -2   5  12   55.74    2.89
   2   5 -11   86.99    3.70
  -2  -5  11   79.90    3.85
  -2  -5  11   90.88    4.18
  -2  -5  11   86.98    4.14
  -2  -5  11   88.03    4.04
  -2  -5  11   90.13    4.22
  -2   5  11   87.01    3.95
  -2  -5  11   83.25    3.89
  -2   5  11   93.86    4.22
   2   5 -10   60.98    3.03
  -2  -5  10   59.95    3.24
  -2   5  10   53.47    2.96
  -2  -5  10   61.67    3.46
  -2  -5  10   67.27    3.52
  -2   5  10   63.02    3.26
  -2  -5  10   57.67    3.19
  -2   5  10   64.68    3.49
   2   5  -9  126.73    5.29
  -2  -5   9  121.94    5.45
  -2   5   9  138.76    6.02
  -2  -5   9  129.47    5.79
  -2  -5   9  140.48    5.84
  -2   5   9  115.50    5.24
  -2   5   9  126.55    5.48
  -2   5   9  119.70    5.51
  -2   5   9  138.49    5.90
   2   5  -8  157.22    6.23
  -2  -5   8  148.07    6.28
  -2   5   8  170.30    6.98
  -2  -5   8  148.45    6.37
  -2   5   8  146.38    6.20
  -2   5   8  139.38    7.06
  -2  -5   8  175.46    6.79
   2   5  -8  150.07    6.25
  -2   5   8  169.79    6.84
  -2   5   8  157.49    6.37
  -2   5   8  137.29    6.31
  -2  -5   7   45.37    2.77
  -2   5   7   49.50    3.26
  -2  -5   7   50.23    3.13
  -2   5   7   44.12    2.74
  -2   5   7   43.99    2.88
  -2   5   7   43.16    3.50
  -2   5   7   45.76    2.76
   2   5  -7   45.14    2.78
   2   5  -7   46.77    2.76
  -2   5   7   48.42    3.12
   2   5  -6   24.78    1.94
  -2  -5   6   20.23    1.77
  -2   5   6   25.58    2.30
  -2  -5   6   23.04    2.18
   2   5  -6   20.55    1.85
  -2   5   6   20.51    1.82
  -2   5   6   21.16    2.53
  -2   5   6   22.97    1.86
  -2   5   6   22.15    1.98
   2   5  -5   45.81    2.76
  -2  -5   5   41.60    2.58
  -2   5   5   48.80    3.21
  -2  -5   5   55.44    3.20
  -2   5   5   35.76    2.84
  -2   5   5   48.88    3.03
  -2   5   5   39.67    2.63
  -2   5   5   47.78    3.69
  -2   5   5   42.58    2.79
   2   5  -4  244.76    8.69
  -2  -5   4  211.85    8.26
   2   5  -4  224.85    8.54
  -2   5   4  243.69    9.26
  -2   5   4  226.54    8.55
  -2   5   4  223.33   10.04
   2   5  -4  237.12    8.72
  -2   5   4  225.85    8.66
  -2   5   4  236.91    8.94
  -2   5   3   45.00    2.78
   2   5  -3   58.07    3.15
  -2   5   3   45.66    3.36
   2   5  -3   58.40    3.16
  -2   5   3   56.98    3.10
  -2   5   3   54.57    4.11
   2  -5  -3   60.66    3.40
  -2   5   3   49.82    3.04
  -2   5   3   57.24    3.35
   2   5  -3   54.28    3.02
   2   5  -2   12.22    1.42
   2   5  -2   11.80    1.39
  -2   5   2   10.93    1.23
  -2   5   2    9.75    1.34
  -2   5   2   11.83    2.02
  -2   5   2   11.57    1.67
   2  -5  -2   10.87    1.37
   2   5  -2   10.97    1.27
  -2   5   2   10.31    1.29
  -2   5   2   11.55    1.61
   2   5  -2   16.08    1.53
  -2   5   2   11.24    1.40
  -2   5   2   11.49    1.52
  -2   5   1  156.47    6.52
   2   5  -1  173.57    6.91
   2   5  -1  162.31    6.57
   2   5  -1  190.70    7.04
   2  -5  -1  180.78    6.97
  -2   5   1  141.53    7.35
  -2   5   1  165.29    7.65
   2   5  -1  161.38    6.52
  -2   5   1  170.21    6.80
  -2   5   1  165.76    8.33
   2   5  -1  183.57    6.87
  -2   5   1  168.37    6.87
   2   5  -1  170.83    6.71
  -2   5   1  183.18    7.20
  -2   5   0  105.09    4.71
  -2   5   0  113.43    5.87
   2   5   0  103.23    4.63
   2  -5   0  118.11    5.07
   2   5   0  107.46    4.74
   2   5   0  117.89    5.09
  -2   5   0  117.39    5.02
   2   5   0  116.50    4.92
  -2   5   0   95.70    5.55
   2   5   0  115.49    5.08
  -2   5   0  113.25    5.03
   2   5   1   32.01    2.28
  -2   5  -1   28.32    2.03
   2  -5   1   37.37    2.54
   2   5   1   26.92    1.88
   2   5   1   30.92    2.12
   2   5   1   35.49    2.33
  -2   5  -1   31.48    2.87
   2  -5   1   28.61    2.13
  -2   5  -1   32.66    2.35
  -2   5  -1   30.27    2.18
  -2   5  -1   26.30    2.95
   2   5   1   31.67    2.13
  -2   5  -1   22.92    2.49
  -2   5  -1   33.04    2.28
  -2   5  -2   49.23    2.77
  -2   5  -2   51.30    3.79
  -2   5  -2   50.78    3.72
   2   5   2   50.24    2.77
   2   5   2   58.91    3.21
   2  -5   2   47.34    2.91
   2   5   2   48.09    2.83
  -2   5  -2   53.66    2.99
  -2   5  -2   50.21    3.05
   2  -5   2   52.73    3.15
  -2   5  -2   50.46    4.09
  -2   5  -2   50.26    2.97
   2   5   3   58.48    3.36
  -2   5  -3   56.94    3.05
   2  -5   3   56.02    3.22
   2   5   3   55.12    3.13
   2  -5   3   63.70    3.46
  -2   5  -3   58.76    4.17
  -2   5  -3   60.44    3.40
   2   5   3   64.70    3.35
   2  -5   3   64.61    3.59
  -2   5  -3   60.28    4.51
   2  -5   3   63.20    3.54
   2   5   4    3.32    0.93
  -2   5  -4    3.06    0.76
   2  -5   4    3.41    1.04
  -2   5  -4    3.30    0.88
   2  -5   4    3.35    0.93
   2   5   4    3.32    0.85
   2   5   4    3.39    0.83
   2  -5   4    2.56    0.79
  -2   5  -4    2.33    1.19
  -2   5  -4    1.95    1.30
   2  -5   4    4.08    0.96
   2   5   4    2.55    0.69
   2   5   4    3.07    0.78
  -2   5  -5   79.64    3.77
   2   5   5   72.47    3.76
   2  -5   5   83.57    4.27
  -2   5  -5   81.26    4.08
   2   5   5   77.27    3.88
   2  -5   5   77.51    3.99
   2   5   5   74.58    3.84
   2  -5   5   72.38    3.91
   2   5   5   79.09    3.87
   2  -5   5   79.71    4.07
   2  -5   5   82.23    4.20
  -2   5  -6   81.94    3.93
  -2   5  -6   88.16    4.28
  -2   5  -6   85.08    5.28
   2  -5   6   92.26    4.41
   2  -5   6   84.36    4.25
   2  -5   6   98.41    4.66
   2   5   6   85.04    4.04
   2   5   6   85.78    4.16
   2   5   6   81.82    4.09
   2  -5   6   77.96    4.17
   2   5   6   82.24    4.11
   2  -5   6   93.21    4.55
   2  -5   6   90.10    4.50
  -2   5  -7   86.02    4.04
   2  -5   7   97.15    4.63
   2  -5   7   88.85    4.42
   2  -5   7   99.52    4.71
   2   5   7   91.46    4.09
  -2   5  -7   88.26    5.39
   2  -5   7   91.31    4.43
   2   5   7   88.70    4.24
   2  -5   7  101.13    4.78
  -2   5  -7   92.00    4.36
   2  -5   7   88.88    4.38
   2   5   7   92.14    4.31
   2   5   7   93.94    4.33
   2  -5   7   97.22    4.65
   2  -5   8  280.14   10.14
   2  -5   8  287.52   10.15
   2  -5   8  274.69    9.92
  -2   5  -8  278.00   11.26
   2   5   8  282.59    9.83
   2   5   8  274.15    9.37
  -2   5  -8  278.59    9.74
   2  -5   8  275.82    9.99
   2  -5   8  259.58    9.75
   2  -5   8  255.19    9.53
   2   5   8  264.41    9.68
   2  -5   8  297.99   10.24
   2   5   8  294.74    9.86
  -2   5  -8  280.91    9.52
  -2   5  -9    9.85    1.16
  -2   5  -9    9.21    1.75
   2  -5   9   11.29    1.54
   2  -5   9   11.66    1.44
   2  -5   9   10.90    1.40
   2  -5   9   10.87    1.28
  -2   5  -9   11.34    1.29
   2  -5   9    6.76    1.33
   2   5   9   10.47    1.08
   2   5   9   12.79    1.45
   2  -5   9   12.57    1.42
   2   5   9   10.23    1.35
   2  -5   9   10.98    1.48
   2  -5   9   13.50    1.59
   2   5   9   11.82    1.37
   2  -5  10  115.41    4.97
  -2   5 -10  114.31    4.42
   2  -5  10  111.42    4.91
   2  -5  10  114.68    4.84
   2  -5  10  101.96    4.63
  -2   5 -10   99.46    4.32
   2  -5  10  109.74    4.92
   2   5  10   95.01    4.40
   2  -5  10  100.94    4.45
   2   5  10   95.39    3.93
   2   5  10  109.73    4.66
   2   5  10  111.53    4.62
  -2   5 -11    6.51    0.87
   2  -5  11    8.09    1.20
   2  -5  11    5.65    0.93
   2   5  11    7.30    1.04
   2  -5  11    2.82    0.83
   2  -5  11    6.32    0.97
   2  -5  11    7.68    1.14
  -2   5 -11    5.86    0.83
   2  -5  11    5.37    1.06
   2  -5  11    6.15    1.10
   2  -5  11    7.07    1.12
   2   5  11    7.26    1.04
   2  -5  12    2.27    0.72
   2  -5  12    2.19    0.64
   2  -5  12    1.85    0.71
  -2   5 -12    2.30    0.50
   2  -5  12    2.91    0.78
   2  -5  12    2.18    0.60
   2  -5  12    1.76    0.67
   2   5  12    2.49    0.66
   2  -5  12    3.03    0.78
  -2   5 -12    3.48    0.64
   2  -5  13   76.76    3.17
  -2   5 -13   77.29    3.01
   2  -5  13   73.71    3.21
   2   5  13   76.83    3.28
   2   5  13   79.75    3.24
   2  -5  14    7.47    0.69
   2  -5  14    7.42    0.72
   2   5  14    7.44    0.75
   2   5  14    6.41    0.70
   2   6 -11   12.50    0.81
   2   6 -11   13.40    0.91
  -2  -6  11   14.94    1.03
  -2   6  11   11.74    0.77
  -2  -6  10    8.17    0.78
  -2   6  10    8.08    0.82
   2   6 -10    9.97    0.91
   2   6 -10    7.91    0.77
  -2  -6  10    9.13    0.97
  -2   6  10    7.86    0.75
   2   6  -9    3.27    0.60
  -2  -6   9    3.41    0.59
  -2  -6   9    3.20    0.74
  -2   6   9    3.57    0.69
  -2  -6   9    3.02    0.81
  -2   6   9    0.75    0.33
  -2  -6   9    2.48    0.77
  -2   6   9    0.82    0.35
   2   6  -8   12.75    1.11
  -2  -6   8   12.44    1.30
  -2   6   8   12.13    1.12
  -2  -6   8    9.23    1.18
  -2   6   8   13.08    1.10
   2   6  -7    3.31    0.73
  -2   6   7    3.90    0.85
  -2  -6   7    3.87    0.95
  -2   6   7    3.07    0.93
  -2   6   7    2.70    0.74
  -2  -6   7    2.93    0.94
  -2   6   7    4.48    0.77
   2   6  -6   70.27    3.30
  -2   6   6   79.06    3.69
  -2  -6   6   59.69    3.32
   2   6  -6   65.46    3.21
  -2   6   6   67.98    3.30
  -2  -6   6   55.63    3.20
  -2   6   6   64.52    4.06
  -2   6   6   65.62    3.36
   2   6  -6   70.26    3.21
  -2   6   6   70.45    3.27
   2   6  -5   64.67    3.23
  -2   6   5   68.78    3.51
  -2   6   5   61.45    3.16
  -2   6   5   63.23    4.15
  -2  -6   5   57.90    3.28
   2   6  -5   60.34    3.09
  -2   6   5   65.51    3.37
   2   6  -5   63.31    3.10
  -2   6   4   72.40    3.67
  -2  -6   4   62.05    3.44
   2   6  -4   73.45    3.47
   2   6  -4   68.20    3.26
   2   6  -4   61.82    3.18
  -2   6   4   68.23    3.38
  -2   6   4   61.20    4.26
  -2   6   4   64.87    3.43
  -2   6   4   64.02    3.45
   2   6  -3   23.47    1.85
  -2  -6   3   19.77    1.82
  -2   6   3   21.44    1.92
   2   6  -3   20.79    1.63
  -2   6   3   18.87    2.40
  -2   6   3   21.62    1.76
   2   6  -3   18.24    1.46
  -2   6   3   21.86    1.83
   2   6  -3   20.17    1.61
  -2   6   3   23.20    1.91
  -2   6   2   57.31    3.21
   2   6  -2   53.46    2.97
   2  -6  -2   58.61    3.12
   2   6  -2   48.98    2.69
   2   6  -2   50.07    2.74
  -2   6   2   52.44    2.91
   2   6  -2   48.69    2.62
  -2   6   2   53.36    4.07
  -2   6   2   51.50    2.98
  -2   6   2   52.72    3.07
  -2   6   2   46.51    2.65
  -2   6   1   17.76    1.55
   2   6  -1   19.52    1.76
  -2   6   1   20.51    2.56
  -2   6   1   20.56    1.72
  -2   6   1   19.12    1.72
   2   6  -1   16.97    1.48
   2  -6  -1   22.33    1.85
   2   6  -1   19.14    1.58
  -2   6   1   22.52    1.92
  -2   6   0   18.93    1.62
   2   6   0   24.14    1.93
   2  -6   0   23.50    1.92
  -2   6   0   21.15    2.23
   2   6   0   21.63    1.67
  -2   6   0   23.03    1.83
   2   6   0   20.32    1.64
  -2   6   0   23.78    1.90
  -2   6   0   23.73    1.98
   2   6   1   28.12    2.12
  -2   6  -1   23.49    1.78
   2  -6   1   23.68    1.95
  -2   6  -1   21.37    2.35
   2   6   1   24.66    1.82
  -2   6  -1   26.78    1.97
   2  -6   1   29.79    2.24
  -2   6  -1   31.18    2.16
  -2   6  -1   28.56    2.17
   2  -6   1   25.30    2.03
  -2   6  -2   47.35    2.66
   2   6   2   59.13    3.04
   2  -6   2   57.28    3.18
  -2   6  -2   46.80    2.92
  -2   6  -2   51.20    3.65
   2  -6   2   51.05    2.91
   2   6   2   46.99    2.67
  -2   6  -2   52.04    2.90
  -2   6  -2   49.79    4.04
  -2   6  -2   51.69    2.95
  -2   6  -2   57.04    3.19
   2  -6   2   51.16    2.99
   2   6   2   50.23    2.95
  -2   6  -3   95.99    4.35
  -2   6  -3  104.42    4.79
   2   6   3  105.75    4.64
   2  -6   3  102.37    4.62
  -2   6  -3   99.92    5.59
   2  -6   3  110.03    4.95
   2   6   3  101.54    4.45
  -2   6  -3  106.63    4.65
  -2   6  -3  100.02    4.63
   2  -6   3  111.95    4.93
   2  -6   3  112.47    4.87
  -2   6  -4    1.55    0.60
   2  -6   4    1.71    0.77
   2  -6   4    2.83    0.81
  -2   6  -4    1.62    1.01
   2  -6   4    2.10    0.69
   2  -6   4    2.51    0.86
   2   6   4    2.56    0.69
  -2   6  -4    1.53    0.71
   2  -6   4    2.54    0.71
  -2   6  -4    3.84    0.89
  -2   6  -4    2.34    0.78
   2   6   4    3.09    0.77
  -2   6  -5    8.94    1.04
   2   6   5    8.29    1.04
   2   6   5    5.89    0.99
  -2   6  -5    7.86    1.15
  -2   6  -5    6.29    1.44
   2  -6   5   10.46    1.38
   2  -6   5    7.75    1.19
  -2   6  -5    7.88    1.10
   2  -6   5    5.80    0.98
   2  -6   5    7.38    1.05
  -2   6  -5    8.57    1.16
   2  -6   5    8.12    1.12
  -2   6  -6    3.44    0.70
   2  -6   6    3.96    0.86
   2   6   6    2.85    0.77
   2  -6   6    2.51    0.66
   2  -6   6    4.08    0.84
   2  -6   6    2.86    0.84
   2   6   6    2.83    0.69
  -2   6  -6    2.54    1.06
  -2   6  -6    3.39    0.84
   2  -6   6    1.11    0.86
   2  -6   6    2.35    0.84
   2  -6   6    2.56    0.87
  -2   6  -6    2.88    0.78
   2   6   6    3.11    0.68
  -2   6  -6    3.87    0.84
   2  -6   7   19.07    1.53
  -2   6  -7   19.27    1.30
   2  -6   7   20.22    1.62
   2  -6   7   17.31    1.33
  -2   6  -7   17.93    1.43
   2   6   7   18.51    1.24
   2   6   7   16.30    1.25
   2   6   7   18.65    1.41
  -2   6  -7   19.26    1.44
   2  -6   7   18.19    1.51
   2  -6   7   17.36    1.53
  -2   6  -7   19.28    1.45
   2  -6   7   17.85    1.58
  -2   6  -8  140.08    3.12
   2  -6   8  131.76    3.60
   2  -6   8  135.28    3.75
  -2   6  -8  142.50    3.55
   2  -6   8  141.84    3.81
  -2   6  -8  137.60    3.47
   2   6   8  131.02    2.76
   2  -6   8  131.96    3.35
   2  -6   8  141.61    3.92
   2   6   8  129.31    3.19
   2  -6   8  142.87    3.76
   2   6   8  134.34    3.23
  -2   6  -8  145.47    3.55
  -2   6  -9   20.68    1.18
   2  -6   9   19.55    1.39
   2  -6   9   19.70    1.48
   2  -6   9   22.94    1.51
   2  -6   9   21.85    1.39
  -2   6  -9   22.19    1.34
   2  -6   9   21.01    1.55
  -2   6  -9   22.26    1.38
  -2   6  -9   22.18    1.35
   2   6   9   21.66    1.33
   2  -6   9   19.77    1.45
  -2   6 -10   27.56    1.47
   2  -6  10   28.88    1.68
  -2   6 -10   27.63    1.55
   2  -6  10   30.07    1.78
  -2   6 -10   29.68    1.63
   2   6  10   28.85    1.62
  -2   6 -11    6.94    0.58
   2  -6  11    8.88    0.80
   2  -6  11    8.41    0.83
   2  -6  11    8.79    0.75
   2   6  11    8.06    0.75
  -2   6 -11    8.29    0.71
   2   7  -7   54.20    2.12
  -2   7   7   55.21    2.16
   2   7  -6    8.70    0.73
  -2   7   6    9.95    0.79
   2   7  -5   36.84    1.85
  -2   7   5   42.79    1.94
   2   7  -4    1.95    0.51
  -2   7   4    2.45    0.57
  -2   7   4    2.99    0.61
   2   7  -3    2.54    0.55
  -2   7   3    2.79    0.63
   2  -7  -3    2.16    0.53
  -2   7   3    2.29    0.55
   2   7  -2    1.74    0.54
   2  -7  -2    2.43    0.56
  -2   7   2    2.63    0.58
  -2   7   2    1.86    0.60
   2  -7  -1   13.30    1.16
   2  -7  -1   14.66    1.20
  -2   7   1   13.96    1.15
  -2   7   1   13.41    1.17
  -2   7   1   11.99    1.08
   2   7  -1   12.58    1.11
   2  -7   0   13.06    1.18
   2  -7   0   12.92    1.16
  -2   7   0   13.19    1.11
  -2   7   0   14.16    1.19
  -2   7   0   12.58    1.15
  -2   7  -1   58.91    2.63
   2  -7   1   54.65    2.71
   2  -7   1   56.20    2.68
  -2   7  -1   57.34    2.68
  -2   7  -1   54.29    2.64
   2  -7   2   44.96    2.45
   2  -7   2   50.90    2.52
   2  -7   2   58.28    2.66
   2  -7   2   47.64    2.20
  -2   7  -2   57.46    2.51
  -2   7  -2   58.12    2.58
  -2   7  -2   55.59    2.57
  -2   7  -2   49.06    2.23
   2  -7   3    8.51    0.94
  -2   7  -3   10.48    0.95
   2  -7   3    9.09    0.82
   2  -7   3   10.25    1.01
  -2   7  -3   10.11    0.95
  -2   7  -3   10.22    0.98
  -2   7  -3    8.69    0.76
   2  -7   4   72.08    3.12
  -2   7  -4   79.66    3.04
   2  -7   4   77.68    2.97
  -2   7  -4   79.09    3.08
  -2   7  -4   74.88    3.09
  -2   7  -5   28.13    1.49
   2  -7   5   27.51    1.49
  -2   7  -5   28.67    1.52
  -2   7  -5   27.85    1.54
   2  -7   6    2.17    0.46
  -2   7  -6    1.53    0.41
  -2   7  -6    2.07    0.44
  -2   7  -6    2.04    0.45
  -2   7  -7   12.91    0.85
   2  -7   7   13.23    0.90
  -2   7  -7   11.95    0.82
   2  -7   7   13.61    0.86
  -2   7  -7   11.91    0.84
  -3   0  18    1.89    0.44
  -3   0  17    1.40    0.69
  -3   0  17    2.40    0.76
  -3   0  17    1.40    0.66
   3   0 -17    1.55    0.76
   3   0 -16    0.30    0.88
  -3   0  16    1.32    0.95
  -3   0  16    1.10    0.74
  -3   0  16    1.97    0.81
  -3   0  16    1.56    0.87
  -3   0  16    0.36    0.52
   3   0 -15    2.36    1.02
  -3   0  15    1.67    1.04
  -3   0  15    1.41    0.84
  -3   0  15    1.10    0.90
  -3   0  15    0.98    0.81
  -3   0  15    1.67    0.74
  -3   0  14  110.39    5.80
  -3   0  14  111.57    6.02
   3   0 -14  120.03    5.33
  -3   0  14  120.85    6.08
  -3   0  14  108.06    5.73
  -3   0  14  116.47    5.09
   3   0 -14  111.65    6.26
  -3   0  13   32.91    2.90
  -3   0  13   33.99    3.08
   3   0 -13   34.88    2.57
  -3   0  13   34.70    2.93
  -3   0  13   34.39    2.99
   3   0 -13   37.10    3.36
  -3   0  13   37.93    2.48
  -3   0  12  623.91   18.98
  -3   0  12  523.79   19.36
  -3   0  12  470.89   18.71
  -3   0  12  548.23   19.13
   3   0 -12  521.45   18.28
  -3   0  12  492.66   18.74
   3   0 -12  523.36   19.61
  -3   0  12  588.50   18.27
   3   0 -11  357.59   22.94
  -3   0  11  373.74   15.50
  -3   0  11  584.73   16.17
  -3   0  11  414.78   16.06
  -3   0  11  373.80   15.42
  -3   0  11  400.01   15.73
   3   0 -11  444.04   16.53
  -3   0  11  445.38   15.91
  -3   0  11  518.20   15.37
  -3   0  10   14.76    1.77
  -3   0  10   12.32    1.65
  -3   0  10   18.25    1.66
  -3   0  10   16.52    1.77
  -3   0  10   14.05    1.82
   3   0 -10   14.83    3.19
   3   0 -10   14.95    1.96
   3   0 -10    8.91    3.42
  -3   0   9    4.39    1.07
  -3   0   9    6.94    1.20
   3   0  -9    4.00    1.22
   3   0  -9    2.67    2.13
  -3   0   9    6.51    1.13
   3   0  -9    5.07    1.96
   3   0  -8  179.52   13.17
  -3   0   8  241.87    8.27
  -3   0   8  230.76    8.00
   3   0  -8  179.25   10.79
   3   0  -8  179.98    8.49
  -3   0   8  218.25    8.32
   3   0  -7  107.97    8.86
   3   0  -7  106.69    7.13
  -3   0   6   38.89    3.71
   3   0  -6   45.91    4.17
   3   0  -5 3928.28  120.16
   3   0  -5 3855.59  116.97
  -3   0   4 3111.44  100.80
   3   0  -4 3417.22  104.82
  -3   0   3  202.42    9.48
   3   0  -3  219.19   11.55
   3   0  -3  204.02    9.16
   3   0  -2 4888.89  150.82
  -3   0   2 4668.05  148.20
   3   0  -2 4919.73  147.52
   3   0  -2 4579.88  146.24
   3   0  -1   69.69    4.02
   3   0  -1   73.27    5.05
   3   0  -1   61.89    3.24
   3   0   0  563.49   18.07
   3   0   0  587.65   20.05
   3   0   0  469.70   16.84
   3   0   0  512.82   17.10
  -3   0  -1  282.22   11.03
   3   0   1  236.76    9.03
   3   0   1  280.23   11.22
   3   0   1  213.06    8.19
   3   0   2   47.08    2.52
  -3   0  -2   69.27    4.67
   3   0   2   45.79    2.72
   3   0   2   65.15    4.70
   3   0   3   86.01    5.83
   3   0   3   67.55    3.52
   3   0   3   74.06    3.36
  -3   0  -3   96.82    5.95
   3   0   4  336.05   14.62
   3   0   4  300.34   11.76
   3   0   5  428.49   15.98
   3   0   5  425.15   18.46
  -3   0  -5  467.40   17.51
   3   0   6   29.86    2.93
  -3   0  -6   25.82    3.36
  -3   0  -6   23.78    2.88
   3   0   6   23.62    3.40
   3   0   7  358.60   16.87
  -3   0  -7  407.57   17.25
   3   0   7  385.40   12.75
   3   0   7  382.93   15.10
   3   0   8   98.69    4.50
   3   0   8   97.23    4.53
   3   0   8  102.94    4.50
  -3   0  -8  103.23    7.79
   3   0   8   99.35    6.72
  -3   0  -9   -0.31    0.90
   3   0   9    0.60    0.60
   3   0   9    1.73    0.68
   3   0   9    0.94    0.64
   3   0   9    1.23    0.68
   3   0   9    1.48    0.81
   3   0   9    0.68    0.63
   3   0  10   87.54    4.47
   3   0  10   92.44    4.65
   3   0  10   90.15    4.71
   3   0  10   90.37    4.55
   3   0  10   92.40    4.55
  -3   0 -10   93.04    8.12
   3   0  10   98.70    4.96
   3   0  11  171.81    7.48
   3   0  11  181.87    7.50
   3   0  11  180.26    7.40
   3   0  11  176.92    7.09
   3   0  11  178.92    7.53
   3   0  11  170.91    7.69
   3   0  11  179.39    7.55
   3   0  11  179.96    7.57
   3   0  11  174.80    7.48
   3   0  11  179.12    7.67
   3   0  11  184.81    7.96
  -3   0 -11  165.19   12.08
   3   0  12    5.15    1.24
   3   0  12    5.64    1.07
   3   0  12    4.43    1.08
   3   0  12    4.78    1.09
   3   0  12    5.60    1.31
   3   0  12    4.23    1.14
   3   0  12    6.12    1.28
   3   0  12    5.58    1.23
   3   0  12    6.89    1.50
   3   0  12    4.72    1.13
   3   0  12    5.16    1.35
   3   0  13  330.99   12.89
   3   0  13  345.45   13.30
   3   0  13  343.29   12.81
   3   0  13  355.64   12.81
   3   0  13  336.00   13.08
   3   0  13  352.70   12.70
   3   0  13  331.95   12.87
   3   0  13  336.51   12.95
   3   0  13  346.47   12.87
   3   0  13  353.17   13.30
   3   0  13  343.80   12.42
   3   0  14  191.50    8.28
   3   0  14  194.17    8.44
   3   0  14  196.35    7.79
   3   0  14  200.45    8.10
   3   0  14  196.78    8.62
   3   0  14  196.18    7.95
   3   0  14  190.44    8.21
   3   0  14  183.37    8.18
   3   0  14  200.34    8.57
   3   0  14  191.85    8.09
   3   0  15    2.11    0.83
   3   0  15    2.84    0.83
   3   0  15    1.96    0.88
   3   0  15    2.32    1.11
   3   0  15    1.69    0.95
   3   0  15    2.37    0.62
   3   0  15    2.61    0.92
   3   0  15    2.56    1.01
   3   0  15    2.85    0.99
   3   0  15    3.02    0.98
   3   0  16   16.60    1.76
   3   0  16   18.48    2.01
   3   0  16   20.20    2.04
   3   0  16   22.37    1.83
   3   0  16   18.66    1.83
   3   0  16   18.29    1.85
  -3   0 -16   19.30    2.03
   3   0  16   22.13    1.74
   3   0  16   18.72    1.63
   3   0  16   19.23    1.80
   3   0  17    3.37    0.73
   3   0  17    3.38    0.66
  -3   0 -17    3.27    0.91
   3   0  17    2.65    0.80
   3   0  17    3.14    0.87
   3   0  17    3.19    0.89
   3   0  17    3.02    0.70
   3   0  17    3.67    0.74
   3   0  17    3.15    0.73
   3   0  18   43.47    2.09
   3   0  18   43.63    2.12
  -3   1  18   41.43    2.05
  -3  -1  18   42.38    2.11
  -3   1  18   42.25    1.95
   3  -1 -17    5.75    1.01
  -3  -1  17    4.49    0.92
  -3   1  17    5.59    1.05
  -3  -1  17    4.95    0.96
  -3  -1  17    3.06    0.80
  -3  -1  17    6.89    1.01
  -3   1  17    6.15    0.90
  -3   1  17    5.44    1.01
   3   1 -17    4.88    0.98
  -3   1  16   53.73    3.33
  -3  -1  16   59.91    3.40
  -3   1  16   60.04    3.16
  -3   1  16   58.25    3.42
  -3  -1  16   61.43    3.32
  -3  -1  16   43.41    2.87
  -3  -1  16   36.56    2.44
  -3  -1  16   53.50    3.28
  -3   1  16   57.90    3.38
   3   1 -16   60.97    3.67
   3  -1 -16   59.71    3.54
  -3  -1  16   52.04    2.82
  -3   1  16   57.84    3.17
  -3   1  16   55.08    2.68
  -3  -1  15   49.76    3.36
  -3   1  15   63.78    3.38
  -3  -1  15   43.14    2.99
  -3   1  15   50.53    3.19
   3   1 -15   48.64    2.91
  -3  -1  15   54.07    3.38
  -3   1  15   52.60    3.50
  -3   1  15   50.79    3.43
  -3   1  15   51.46    3.49
  -3  -1  15   50.45    3.38
   3   1 -15   53.74    3.67
   3  -1 -15   54.20    3.64
  -3  -1  15   52.50    3.09
  -3  -1  15   38.49    2.67
  -3   1  15   49.40    2.71
   3   1 -14   32.33    2.94
  -3  -1  14   31.56    2.75
  -3  -1  14   32.58    2.80
  -3   1  14   28.96    2.71
  -3  -1  14   31.67    2.56
  -3   1  14   38.30    2.69
  -3   1  14   29.01    2.49
  -3   1  14   26.04    2.59
  -3   1  14   29.89    2.74
   3  -1 -14   26.79    2.75
  -3  -1  14   28.35    2.41
  -3  -1  14   23.22    2.07
   3   1 -14   31.23    2.37
  -3   1  14   32.80    2.15
  -3  -1  14   30.21    2.65
  -3   1  13  293.62   12.19
  -3  -1  13  284.50   12.16
  -3  -1  13  312.58   12.25
  -3   1  13  298.09   11.94
  -3   1  13  324.06   12.44
  -3   1  13  310.00   12.48
  -3  -1  13  293.59   12.07
   3   1 -13  312.40   11.66
  -3  -1  13  325.54   11.96
   3   1 -13  316.43   12.73
   3  -1 -13  306.27   12.62
  -3  -1  13  290.07   11.79
  -3  -1  13  291.08   11.27
  -3   1  13  338.24   11.30
  -3  -1  12  177.93    8.10
  -3  -1  12  147.70    7.31
   3   1 -12  189.82    8.68
  -3  -1  12  220.36    8.26
  -3   1  12  192.93    8.54
  -3   1  12  174.95    7.94
  -3  -1  12  177.02    8.26
  -3  -1  12  188.19    8.33
  -3   1  12  192.65    8.49
   3   1 -12  188.80    7.82
  -3   1  12  175.51    8.23
   3  -1 -12  187.85    8.66
  -3  -1  12  173.54    7.93
  -3  -1  12  178.22    7.47
  -3   1  12  213.40    7.52
  -3   1  11 1145.25   38.58
  -3  -1  11 1156.01   38.55
  -3  -1  11 1297.92   38.37
  -3   1  11 1141.90   38.77
  -3   1  11 1114.04   38.21
  -3   1  11 1038.11   38.32
   3  -1 -11 1143.48   48.74
   3   1 -11 1126.28   37.87
   3   1 -11 1041.94   47.56
  -3  -1  11 1145.38   38.65
  -3  -1  11 1132.17   38.32
   3  -1 -11 1223.57   43.93
   3   1 -11 1142.65   38.98
   3  -1 -11 1172.07   39.08
  -3  -1  11 1138.43   37.75
  -3   1  11 1313.84   37.64
   3  -1 -10   70.63    8.57
  -3  -1  10   75.42    4.32
  -3   1  10   69.92    4.41
  -3  -1  10  100.84    4.60
  -3   1  10   71.55    4.40
   3  -1 -10   82.01    7.17
   3   1 -10   74.30    4.69
   3  -1 -10   85.59    4.96
   3   1 -10   71.05    8.59
  -3   1  10  100.11    4.19
   3   1  -9  112.74   10.66
   3  -1  -9  107.19   10.35
  -3  -1   9  131.84    5.94
  -3   1   9  139.25    6.26
  -3  -1   9  139.32    5.89
   3   1  -9  121.31    6.30
   3  -1  -9  122.83    8.73
   3  -1  -9  124.62    6.35
  -3   1   9  147.87    5.64
  -3   1   9  118.69    5.97
   3   1  -8   35.75    5.65
   3  -1  -8   40.88    6.07
  -3  -1   8   57.16    3.03
  -3  -1   8   54.50    3.07
  -3   1   8   66.66    3.23
  -3   1   8   54.49    3.28
  -3   1   8   46.17    3.05
   3  -1  -8   45.09    4.88
   3   1  -8   52.13    3.41
   3  -1  -8   50.39    3.39
  -3  -1   8   53.64    2.88
   3   1  -7   34.19    5.18
  -3   1   7   49.06    2.67
   3  -1  -7   36.78    4.21
   3  -1  -7   47.95    5.93
   3  -1  -7   44.22    3.00
  -3  -1   7   47.76    2.55
   3   1  -7   41.70    2.93
  -3   1   7   49.68    2.52
  -3   1   6   76.22    4.75
   3   1  -6   94.27    8.06
   3  -1  -6   96.44    8.28
   3   1  -6  101.06    6.60
   3  -1  -6   94.20    6.34
  -3   1   5  367.54   14.40
   3   1  -5  380.12   18.21
   3  -1  -5  374.42   18.18
   3  -1  -5  418.80   16.19
   3   1  -4  241.94   10.72
  -3   1   4  199.82    9.61
   3   1  -4  226.28   12.53
   3  -1  -4  234.73   13.00
  -3   1   3  186.65    8.70
   3   1  -3  193.59    9.05
   3   1  -3  201.05    9.07
   3   1  -3  184.76   11.29
   3  -1  -3  184.51   10.64
  -3   1   2  139.17    7.09
   3   1  -2  132.36    6.72
   3  -1  -2  157.18    7.47
   3  -1  -2  131.02    7.73
   3   1  -2  140.76    7.87
   3   1  -2  138.87    6.98
  -3  -1   1  264.68   11.31
   3   1  -1  236.21    9.67
   3  -1  -1  271.18   10.74
  -3   1   1  227.87   10.36
   3   1  -1  225.36   11.37
   3  -1  -1  236.57   11.05
   3   1  -1  226.07   10.03
  -3  -1   0  361.61   14.88
  -3   1   0  336.02   13.91
   3   1   0  332.16   12.69
   3  -1   0  402.46   14.12
   3  -1   0  355.40   14.58
   3   1   0  375.64   14.64
   3   1   0  328.45   13.22
   3  -1   0  336.11   13.56
   3  -1   1 1107.77   34.01
   3   1   1  913.89   33.31
   3  -1   1 1070.01   34.87
   3   1   1 1128.77   35.17
  -3  -1  -1 1029.84   35.09
   3  -1   1  925.33   33.42
  -3   1  -2  871.73   26.79
   3   1   2  686.64   25.04
  -3  -1  -2  812.20   26.90
   3  -1   2  683.79   24.99
   3  -1   2  757.51   26.37
   3   1   2  810.98   26.69
   3  -1   2  662.50   24.93
   3  -1   3  977.60   34.47
   3  -1   3 1051.36   35.90
   3   1   3 1072.80   36.06
  -3  -1  -3 1063.90   35.99
   3  -1   3  954.14   34.16
   3  -1   4  667.16   23.18
  -3  -1  -4  572.49   23.47
   3  -1   4  640.37   24.21
   3   1   4  658.87   24.47
   3  -1   4  628.97   22.31
   3  -1   5  558.57   19.77
  -3  -1  -5  461.91   19.50
   3  -1   5  495.78   20.47
  -3   1  -5  588.16   20.46
   3  -1   5  517.39   18.32
   3   1   5  523.59   20.85
   3  -1   6  344.81   13.91
  -3   1  -6  314.23   13.70
   3  -1   6  329.21   14.79
   3   1   6  316.11   14.75
  -3  -1  -6  324.64   14.37
  -3   1  -6  339.46   14.94
   3  -1   7   73.73    5.67
   3  -1   7   71.26    3.40
   3  -1   7   59.42    5.70
   3   1   7   62.91    5.93
  -3  -1  -7   67.66    5.74
   3  -1   7   71.69    3.46
  -3   1  -7   75.44    6.25
   3  -1   7   64.91    3.42
   3   1   7   69.24    3.53
   3  -1   7   71.55    3.57
   3   1   7   68.83    3.53
   3  -1   7   66.27    3.34
   3  -1   8  122.91    5.20
   3  -1   8  120.43    5.25
   3   1   8  120.31    5.32
   3  -1   8  125.38    5.33
   3  -1   8  121.61    5.30
   3   1   8  110.05    5.08
  -3  -1  -8  117.31    8.27
   3  -1   8  120.49    5.10
   3  -1   8  123.61    8.24
   3  -1   8  128.34    5.54
   3   1   8  118.50    5.40
  -3   1  -8  119.91    8.72
   3  -1   9   88.53    4.35
   3  -1   9   80.19    7.09
   3  -1   9   84.67    4.36
   3   1   9   87.93    4.36
   3  -1   9   88.95    4.44
   3  -1   9   90.64    4.32
   3  -1   9   88.95    4.43
   3   1   9   85.26    4.17
  -3  -1  -9   89.81    7.44
  -3   1  -9   98.62    8.05
   3   1   9   93.41    4.57
   3  -1   9   96.98    4.72
   3   1   9   87.08    4.53
   3  -1  10   75.49    4.12
   3  -1  10   81.17    4.32
  -3   1 -10   77.01    7.51
   3  -1  10   83.66    4.39
   3   1  10   79.55    4.33
   3  -1  10   77.87    4.10
   3  -1  10   81.41    7.39
   3  -1  10   82.34    4.30
   3   1  10   69.76    3.87
   3  -1  10   80.07    4.43
  -3  -1 -10   66.77    6.75
   3   1  10   75.75    4.30
   3   1  10   75.21    4.11
   3  -1  11   17.04    1.90
   3   1  11   17.28    1.82
   3   1  11   17.77    1.70
   3   1  11   16.46    1.76
   3   1  11   18.06    2.06
   3  -1  11   17.89    2.07
   3   1  11   17.67    1.90
   3  -1  11   18.01    1.95
   3  -1  11   17.62    1.72
   3   1  11   15.38    1.78
   3   1  11   16.23    1.79
   3   1  11   16.94    1.79
   3  -1  11   16.82    1.98
   3  -1  11   17.27    1.96
   3  -1  11   16.56    1.59
   3   1  11   19.56    1.84
   3   1  11   16.31    1.87
   3  -1  11   18.17    2.08
   3   1  11   16.72    2.01
  -3  -1 -11   11.42    2.99
  -3   1 -11   10.52    3.13
   3  -1  12   14.99    1.86
   3   1  12   15.26    1.77
   3  -1  12   16.36    1.64
   3  -1  12   13.80    1.89
   3  -1  12   14.17    1.61
   3   1  12   14.00    1.81
   3  -1  12   15.39    1.72
   3  -1  12   16.29    2.02
   3   1  12   14.44    1.98
   3   1  12   14.45    1.73
   3   1  12   12.86    1.75
   3   1  12   17.14    1.70
   3  -1  12   14.82    1.94
   3  -1  12   13.17    1.80
   3   1  12   13.18    1.75
   3   1  12   13.90    1.63
   3  -1  12   15.99    2.00
   3   1  12   14.84    1.74
   3   1  12   15.24    1.75
   3  -1  13   30.03    2.69
   3   1  13   27.32    2.46
   3   1  13   32.13    2.40
   3  -1  13   36.30    2.44
   3  -1  13   32.72    2.86
   3   1  13   29.29    2.43
   3   1  13   28.73    2.42
   3   1  13   30.45    2.64
   3  -1  13   29.71    2.41
   3  -1  13   34.49    3.00
   3  -1  13   31.13    2.30
   3  -1  13   34.16    2.61
   3  -1  13   36.75    2.89
   3  -1  13   30.60    2.70
   3   1  13   28.50    2.55
   3   1  13   29.42    2.49
   3  -1  13   31.11    2.56
   3   1  13   35.66    2.96
   3   1  13   29.38    2.66
   3  -1  13   29.68    2.72
   3  -1  13   29.74    2.55
   3   1  13   35.04    2.53
   3   1  13   27.54    2.01
   3   1  14   11.27    1.51
   3  -1  14    8.29    1.26
   3   1  14    9.76    1.34
   3  -1  14    9.32    1.42
   3  -1  14    6.33    1.45
   3   1  14    8.29    1.47
   3   1  14    8.81    1.08
   3  -1  14    8.61    1.66
   3   1  14   10.13    1.64
   3  -1  14   10.85    1.48
   3   1  14    9.89    1.37
   3  -1  14   10.21    1.69
   3  -1  14    8.64    1.55
   3   1  14    9.70    1.45
   3  -1  14    9.51    1.55
   3  -1  14    9.54    1.63
   3   1  14   10.23    1.53
   3   1  14   10.28    1.41
   3   1  14   11.51    1.48
   3  -1  14    9.08    1.44
   3  -1  15   14.34    1.81
   3  -1  15   14.76    1.71
   3   1  15   12.19    1.53
   3  -1  15   14.14    1.86
   3   1  15   14.58    1.56
   3  -1  15   14.40    1.49
   3  -1  15   15.61    1.65
   3  -1  15   12.54    1.72
   3   1  15   12.17    1.42
   3   1  15   14.37    1.76
   3   1  15   13.50    1.17
   3  -1  15   15.42    1.80
   3   1  15   13.08    1.82
   3   1  15   13.46    1.58
   3   1  15   15.56    1.51
   3  -1  15   15.30    1.96
   3  -1  15   15.06    1.73
   3  -1  15   13.12    1.72
   3   1  15   15.54    1.57
   3  -1  16  112.15    4.08
   3   1  16  121.91    3.62
   3  -1  16  111.34    3.33
   3   1  16  106.68    3.05
   3  -1  16  120.18    3.70
   3  -1  16  113.70    3.75
   3   1  16  105.05    3.89
   3  -1  16  114.74    4.35
   3   1  16  112.34    4.22
   3  -1  16  110.49    4.07
   3  -1  16  111.14    3.94
   3   1  16  111.83    3.64
  -3  -1 -16  103.65    3.91
  -3   1 -16  112.57    4.27
   3  -1  16  112.12    3.86
   3  -1  16  111.92    4.19
   3  -1  17   63.33    3.39
   3   1  17   72.02    3.19
   3  -1  17   69.57    3.09
   3  -1  17   74.41    3.35
   3  -1  17   64.21    3.51
   3  -1  17   68.42    3.15
   3  -1  17   68.60    3.65
   3   1  17   64.17    3.51
   3   1  17   67.38    3.23
   3  -1  17   66.18    3.47
  -3   1 -17   71.27    3.72
   3  -1  17   63.10    2.94
   3  -1  17   67.66    3.33
  -3  -1 -17   64.71    3.47
   3  -1  18   66.85    2.85
   3  -1  18   68.44    2.73
   3   1  18   72.57    2.94
   3  -1  18   59.70    2.60
   3  -1  18   65.39    2.77
   3   1  18   73.87    2.85
  -3   2  18   54.79    2.19
  -3  -2  17    1.99    0.60
  -3  -2  17    3.78    0.63
  -3  -2  17    4.10    0.65
  -3   2  17    3.49    0.62
  -3  -2  16   21.67    1.74
  -3   2  16   24.25    1.92
  -3  -2  16   15.38    1.44
  -3   2  16   23.27    1.50
  -3  -2  16   24.70    1.68
  -3  -2  16   22.02    1.58
  -3   2  16   23.84    1.70
  -3  -2  16   26.11    1.74
   3   2 -16   24.11    1.83
   3  -2 -16   19.35    1.54
  -3  -2  16   14.58    1.20
  -3   2  16   23.50    1.44
   3   2 -15   68.22    3.00
  -3   2  15   75.61    4.22
  -3  -2  15   67.13    3.17
  -3  -2  15   60.45    3.63
  -3  -2  15   71.14    3.57
   3   2 -15   77.62    4.17
  -3   2  15   68.59    3.55
  -3  -2  15   81.87    3.98
  -3  -2  15   71.65    3.79
  -3  -2  15   77.10    4.05
  -3   2  15   71.97    3.87
   3   2 -15   78.85    3.77
  -3   2  15   76.34    3.53
   3  -2 -15   70.68    3.87
  -3  -2  15   79.03    4.00
  -3  -2  15   55.61    3.27
  -3   2  15   84.10    3.59
   3   2 -14   34.75    2.06
  -3  -2  14   43.88    3.06
  -3   2  14   63.80    3.40
  -3   2  14   37.32    3.01
  -3  -2  14   44.61    2.99
  -3  -2  14   46.49    3.05
  -3  -2  14   37.36    2.79
  -3   2  14   41.56    2.97
  -3  -2  14   40.33    2.70
  -3   2  14   37.84    2.61
  -3   2  14   40.57    2.58
   3   2 -14   43.87    3.20
   3  -2 -14   37.49    2.89
  -3  -2  14   44.66    3.07
  -3  -2  14   35.13    2.50
  -3   2  14   54.68    2.72
   3   2 -14   43.23    2.79
  -3   2  14   34.49    2.52
   3   2 -13  212.29    8.62
  -3  -2  13  247.04   10.04
  -3  -2  13  260.91   10.13
  -3  -2  13  252.45   10.00
  -3   2  13  260.00   10.17
  -3  -2  13  226.39    9.33
  -3   2  13  232.95    9.49
   3   2 -13  254.12    9.73
  -3   2  13  253.58   10.48
  -3   2  13  249.46   10.39
  -3  -2  13  235.74    9.68
  -3  -2  13  257.01    9.99
   3   2 -13  258.15   10.43
   3  -2 -13  248.91   10.16
  -3  -2  13  254.99   10.18
  -3   2  13  300.69    9.50
  -3   2  13  229.44    9.58
   3   2 -12    4.00    0.71
  -3   2  12    5.07    1.46
  -3  -2  12    5.31    1.31
   3  -2 -12    2.95    1.12
   3   2 -12    4.70    1.30
  -3   2  12    3.82    0.99
  -3  -2  12    4.99    1.25
  -3  -2  12    4.11    1.07
  -3   2  12    3.70    1.16
   3   2 -12    5.29    1.16
  -3   2  12    3.68    1.29
  -3  -2  12    3.71    1.25
  -3  -2  12    6.31    1.39
  -3   2  12    6.01    1.31
  -3  -2  12    3.83    1.20
  -3   2  12    5.43    1.08
  -3   2  12    2.37    0.90
  -3  -2  11  373.22   14.24
  -3  -2  11  393.42   14.24
  -3   2  11  389.27   14.55
  -3   2  11  348.03   13.79
  -3  -2  11  409.90   14.61
   3   2 -11  391.17   14.08
  -3   2  11  392.49   14.91
  -3   2  11  368.18   14.76
  -3  -2  11  362.29   14.25
   3   2 -11  381.21   14.75
   3  -2 -11  383.62   14.66
  -3   2  11  451.81   13.81
  -3   2  11  344.48   13.95
  -3  -2  10  109.31    5.44
  -3  -2  10  117.07    5.49
  -3   2  10  115.38    5.76
   3  -2 -10  100.62    9.95
  -3  -2  10  116.27    5.75
   3   2 -10   86.25    9.53
  -3  -2  10  108.26    5.55
  -3   2  10  112.57    5.97
  -3   2  10  106.22    5.83
   3   2 -10  111.86    5.33
   3  -2 -10  117.78    8.91
   3   2 -10  115.91    5.93
   3  -2 -10  109.07    5.78
  -3   2  10  140.49    5.28
  -3   2  10  103.87    5.36
  -3  -2   9  362.87   12.78
   3   2  -9  303.15   18.81
   3  -2  -9  295.91   18.59
  -3  -2   9  345.34   12.70
  -3   2   9  263.55   12.75
  -3   2   9  306.47   13.05
   3  -2  -9  364.75   17.17
   3   2  -9  347.99   13.29
   3  -2  -9  346.52   13.23
  -3  -2   9  348.67   12.52
  -3   2   9  400.28   12.47
  -3  -2   8  473.74   16.07
   3   2  -8  441.25   22.76
  -3   2   8  599.28   16.65
  -3   2   8  414.27   16.46
  -3  -2   8  494.94   16.17
  -3   2   8  347.76   16.10
   3  -2  -8  517.76   21.05
   3  -2  -8  452.67   22.96
   3   2  -8  485.06   16.78
   3  -2  -8  484.89   16.71
  -3  -2   8  484.59   15.99
  -3  -2   7  391.71   14.87
  -3  -2   7  444.99   15.12
   3   2  -7  458.22   22.03
   3  -2  -7  436.39   21.44
  -3   2   7  411.16   15.61
  -3   2   7  424.02   15.75
   3  -2  -7  449.51   19.29
   3   2  -7  443.00   15.76
   3  -2  -7  431.29   15.61
  -3  -2   7  463.11   15.09
  -3   2   6   28.22    2.24
  -3   2   6   23.57    1.88
  -3  -2   6   22.85    1.79
   3   2  -6   25.19    4.13
   3  -2  -6   23.62    4.13
   3  -2  -6   22.84    3.41
  -3  -2   6   25.31    1.86
  -3   2   6   28.94    1.83
   3   2  -6   29.11    3.78
   3  -2  -5    1.14    1.25
   3   2  -5    1.80    1.43
   3  -2  -5    0.21    0.99
   3   2  -5    0.44    0.95
  -3   2   5    0.66    0.54
  -3   2   4  242.63   10.13
   3   2  -4  215.67   12.68
   3  -2  -4  239.32   11.73
   3   2  -4  248.90   11.99
   3  -2  -4  249.05   12.09
   3  -2  -4  231.77   12.74
  -3   2   3  452.05   17.47
   3  -2  -3  464.57   18.86
   3   2  -3  473.31   19.09
   3  -2  -3  468.59   19.27
  -3   2   2  595.10   20.71
   3  -2  -2  527.08   21.15
   3   2  -2  522.61   21.15
   3   2  -2  619.86   22.12
  -3   2   1  156.01    7.85
   3   2  -1  137.07    7.82
   3  -2  -1  164.48    8.68
   3  -2  -1  146.34    8.02
   3   2  -1  175.03    8.68
   3  -2  -1  172.48    9.08
  -3   2   0 1575.98   50.02
   3  -2   0 1616.71   50.87
   3   2   0 1749.44   51.03
   3  -2   0 1347.11   49.30
   3   2   0 1340.36   49.30
   3  -2   0 1622.68   51.04
  -3   2  -1  498.89   18.32
   3  -2   1  439.24   18.23
   3   2   1  514.04   18.71
   3  -2   1  427.57   17.53
   3   2   1  432.36   17.54
   3  -2   1  513.31   18.91
   3  -2   2   45.91    3.92
   3   2   2   48.36    4.04
  -3  -2  -2   62.99    5.03
   3  -2   2   45.84    4.15
   3   2   2   57.83    4.57
   3  -2   2   57.91    4.67
  -3  -2  -3 1496.27   45.67
   3  -2   3 1179.95   43.74
   3  -2   3 1246.05   44.15
   3   2   3 1259.58   44.17
   3   2   3 1411.44   44.95
   3  -2   3 1409.44   45.14
   3  -2   4 1383.49   42.97
  -3   2  -4 1277.59   42.59
   3  -2   4 1089.60   41.47
   3   2   4 1123.98   41.74
  -3  -2  -4 1383.46   42.81
   3  -2   4 1214.93   41.83
   3  -2   5  152.37    8.73
  -3   2  -5  135.66    8.24
   3  -2   5  145.39    8.37
   3   2   5  145.27    8.51
  -3  -2  -5  130.03    7.65
   3  -2   5  148.50    5.79
   3  -2   5  146.30    8.06
  -3   2  -5  140.48    8.37
   3  -2   6  306.53   14.13
   3   2   6  278.02   13.80
   3  -2   6  269.02   13.45
   3  -2   6  297.75   10.33
   3  -2   6  274.43    9.95
   3  -2   6  293.05   10.24
  -3   2  -6  297.33   14.00
   3  -2   6  290.52   10.36
   3  -2   6  282.88   12.85
   3  -2   6  297.87   10.26
   3  -2   7  259.86   12.92
   3  -2   7  222.23    8.49
   3  -2   7  238.26    8.40
  -3   2  -7  218.38   12.07
   3  -2   7  225.36    8.65
   3   2   7  227.40    8.62
   3  -2   7  221.97    8.47
   3  -2   8  100.65    4.66
   3  -2   8  102.21    8.01
   3  -2   8   98.85    4.66
   3  -2   8   99.28    4.53
  -3  -2  -8   78.98    6.61
  -3   2  -8   89.96    7.48
   3   2   8   88.45    4.58
   3  -2   8   97.92    4.74
   3   2   8   98.39    4.74
   3  -2   9   11.67    1.48
   3  -2   9   15.44    3.38
   3  -2   9   10.84    1.50
   3   2   9   10.16    1.47
   3  -2   9   11.40    1.45
  -3  -2  -9    8.59    2.22
   3  -2   9   11.47    1.58
   3   2   9   11.37    1.56
  -3   2  -9   12.91    2.86
   3  -2  10   34.93    2.56
   3  -2  10   37.34    2.79
   3   2  10   35.49    2.45
   3  -2  10   32.62    2.25
   3  -2  10   37.19    2.71
   3   2  10   36.43    2.55
   3  -2  10   37.53    2.65
   3   2  10   31.64    2.52
   3  -2  10   38.14    2.87
   3   2  10   34.34    2.78
   3   2  10   33.91    2.24
   3  -2  10   39.76    2.67
   3  -2  10   37.12    5.41
   3  -2  10   34.08    2.51
   3   2  10   37.10    2.55
   3  -2  10   38.01    2.89
   3   2  10   35.67    2.45
   3   2  10   40.62    2.92
   3  -2  10   39.09    2.80
  -3  -2 -10   26.63    4.03
  -3   2 -10   31.45    4.84
   3   2  10   36.39    2.44
   3  -2  11   22.83    2.26
   3   2  11   18.74    1.66
   3   2  11   19.71    1.90
   3   2  11   17.76    1.79
   3  -2  11   22.35    1.83
   3  -2  11   22.42    2.07
   3  -2  11   19.70    1.96
   3   2  11   19.41    1.99
   3  -2  11   23.41    2.35
   3   2  11   18.70    2.13
   3   2  11   20.98    1.92
   3  -2  11   18.73    1.92
   3  -2  11   22.10    2.19
   3  -2  11   20.89    1.93
   3  -2  11   23.45    2.28
   3   2  11   18.92    1.78
   3  -2  11   17.93    1.98
   3   2  11   21.98    1.87
   3  -2  12   43.44    3.21
   3   2  12   48.35    2.96
   3  -2  12   40.58    2.59
   3  -2  12   40.07    2.85
   3  -2  12   42.63    2.97
   3   2  12   37.05    2.88
   3   2  12   37.61    3.08
   3   2  12   40.67    2.47
   3   2  12   39.90    2.69
   3  -2  12   39.52    2.70
   3  -2  12   39.44    3.05
   3  -2  12   42.57    2.85
   3  -2  12   43.73    3.15
   3   2  12   38.99    2.59
   3  -2  12   41.22    3.03
   3   2  12   41.87    2.67
   3  -2  13   17.96    2.11
   3  -2  13   19.53    1.85
   3   2  13   17.83    1.79
   3  -2  13   19.06    1.72
   3  -2  13   17.28    1.82
   3  -2  13   18.72    2.17
   3  -2  13   19.17    1.95
   3   2  13   17.24    2.09
   3  -2  13   17.81    2.10
   3   2  13   18.15    1.69
   3   2  13   15.94    1.87
   3   2  13   16.70    1.50
   3   2  13   18.46    1.67
   3  -2  13   18.13    2.00
   3  -2  13   19.12    1.99
   3   2  13   18.16    1.68
   3  -2  14   18.92    2.05
   3  -2  14   14.52    1.45
   3   2  14   13.22    1.36
   3  -2  14   16.64    2.03
   3  -2  14   14.68    1.71
   3   2  14   12.79    1.77
   3   2  14   18.43    1.70
   3  -2  14   15.90    1.89
   3   2  14   13.40    1.58
   3   2  14   11.96    1.16
   3  -2  14   12.39    1.42
   3  -2  14   13.39    1.67
   3  -2  14   13.54    1.68
   3   2  14   13.38    1.42
  -3   2 -15   63.16    3.02
   3  -2  15   74.29    4.03
   3   2  15   70.05    3.47
   3  -2  15   64.69    3.21
   3  -2  15   71.22    4.00
   3  -2  15   64.27    3.56
   3   2  15   65.72    3.82
   3  -2  15   66.70    3.80
   3  -2  15   62.66    3.17
   3   2  15   67.39    3.52
  -3  -2 -15   57.20    3.37
  -3   2 -15   69.75    3.84
   3  -2  15   68.73    3.72
   3   2  15   62.16    3.14
  -3   2 -16   52.23    2.40
   3  -2  16   51.65    3.11
   3  -2  16   53.73    2.59
   3  -2  16   51.55    3.10
   3  -2  16   53.96    3.05
   3   2  16   51.21    2.76
  -3  -2 -16   44.38    2.70
  -3   2 -16   49.49    2.98
   3  -2  16   57.77    2.90
   3   2  16   47.47    2.40
  -3   2 -17    3.80    0.50
   3  -2  17    4.42    0.62
   3  -2  17    5.14    0.75
   3   2  17    5.74    0.78
  -3  -3  17   27.48    1.41
  -3   3  17   26.40    1.27
  -3  -3  16   40.91    2.01
  -3   3  16   43.04    1.95
  -3  -3  16   44.95    2.28
  -3   3  16   43.17    2.00
  -3  -3  15    5.71    1.00
  -3  -3  15    7.79    1.01
  -3  -3  15    5.08    0.98
  -3   3  15    6.90    0.92
  -3   3  15    8.26    0.95
  -3  -3  15    4.87    0.84
  -3   3  15    5.24    0.89
  -3  -3  14    0.53    0.73
   3   3 -14    0.35    0.34
  -3  -3  14    0.07    0.64
  -3  -3  14    0.47    0.44
  -3  -3  14    0.07    0.68
  -3   3  14    0.15    0.78
  -3  -3  14    0.42    0.63
  -3   3  14    0.06    0.59
  -3   3  14   -0.05    0.54
  -3   3  14    0.27    0.64
  -3   3  14    0.41    0.59
   3   3 -13    2.52    0.57
  -3  -3  13    2.24    0.90
  -3   3  13    4.00    1.25
  -3  -3  13    3.39    0.85
  -3  -3  13    3.10    0.99
  -3   3  13    4.58    1.30
  -3  -3  13    2.79    1.02
  -3  -3  13    4.58    0.95
  -3  -3  13    3.86    1.04
   3   3 -13    3.20    0.96
  -3   3  13    3.67    0.95
  -3  -3  13    3.11    1.00
  -3   3  13    2.01    0.90
  -3   3  13    3.85    1.03
   3   3 -12   34.12    2.51
   3   3 -12   28.79    1.91
  -3  -3  12   29.52    2.51
  -3  -3  12   31.92    2.56
  -3  -3  12   26.69    2.28
  -3  -3  12   33.08    2.48
  -3   3  12   33.07    2.88
  -3   3  12   33.79    2.49
  -3  -3  12   30.21    2.44
  -3  -3  12   35.52    2.84
  -3   3  12   41.37    2.55
  -3   3  12   32.14    2.59
   3   3 -11   10.31    1.12
  -3  -3  11   10.47    1.53
  -3   3  11   11.55    1.97
  -3  -3  11   10.99    1.64
  -3   3  11   11.09    1.84
  -3  -3  11   11.42    1.71
  -3   3  11    9.74    1.46
  -3   3  11   10.58    1.57
   3   3 -10    8.61    1.03
  -3   3  10    9.26    1.45
  -3  -3  10    7.47    1.32
  -3   3  10    7.89    1.76
  -3  -3  10    6.57    1.47
  -3   3  10    8.18    1.69
   3   3 -10   10.46    1.22
   3   3 -10    9.77    1.41
  -3   3  10    4.45    1.06
  -3   3  10   11.56    1.53
  -3  -3  10    7.75    1.49
  -3   3  10   10.17    1.54
  -3   3   9   78.04    4.33
   3   3  -9   63.44    3.26
  -3   3   9   72.16    4.09
  -3   3   9   62.55    4.24
   3   3  -9   69.07    3.58
   3   3  -9   71.91    3.85
  -3  -3   9   73.73    3.91
   3   3  -9   73.88    3.65
  -3  -3   9   75.42    4.02
  -3  -3   9   74.02    3.92
  -3   3   9   55.91    3.44
  -3   3   9   88.94    4.05
  -3  -3   8   58.29    3.30
  -3  -3   8   63.34    3.52
  -3   3   8   65.05    3.84
  -3   3   8   52.94    3.44
   3  -3  -8   51.88    5.78
  -3   3   8   58.38    3.95
  -3  -3   8   60.94    3.42
   3   3  -8   70.93    7.00
  -3   3   8   44.99    2.94
  -3   3   8   71.63    3.54
   3   3  -8   57.72    3.30
  -3  -3   7   31.46    2.34
  -3   3   7   27.27    2.55
  -3   3   7   25.25    2.28
  -3  -3   7   29.26    2.26
   3  -3  -7   29.57    4.28
   3   3  -7   32.07    4.63
  -3  -3   6  181.36    6.77
   3  -3  -6  168.21   10.45
   3   3  -6  189.32   11.29
  -3   3   6  177.28    6.63
  -3  -3   6  169.78    6.61
  -3  -3   5  180.38    6.23
   3  -3  -5  178.65   10.37
  -3   3   5  156.61    6.10
  -3  -3   4  274.81    7.81
   3  -3  -4  273.44   12.85
   3   3  -3  191.67   10.20
   3  -3  -3  187.85   10.61
   3  -3  -2   59.02    5.43
   3   3  -2   79.65    6.16
   3  -3  -2   72.87    6.26
   3   3  -1  174.53    9.06
   3  -3  -1  194.89    9.95
  -3   3   0   92.57    4.90
   3  -3   0   96.08    4.48
   3  -3   0   91.05    7.16
   3   3   0  120.02    7.79
   3  -3   0  113.85    7.77
  -3   3  -1   17.20    1.80
  -3   3  -1   20.82    2.05
   3  -3   1   18.79    1.66
   3  -3   1   19.48    3.26
   3   3   1   25.81    3.52
   3  -3   1   19.79    3.34
  -3  -3  -2  311.77   14.78
   3  -3   2  314.20   10.65
  -3   3  -2  250.40   10.72
  -3   3  -2  288.90   11.27
   3  -3   2  283.30   10.43
   3  -3   2  305.64   14.61
   3   3   2  356.48   15.31
   3  -3   2  342.03   15.22
   3  -3   3   77.97    3.76
  -3  -3  -3   85.84    6.65
  -3   3  -3   69.78    4.22
   3  -3   3   77.84    3.77
   3  -3   3   77.02    3.73
   3  -3   3   75.48    6.46
   3   3   3   93.32    7.00
  -3   3  -3   64.98    3.91
   3  -3   3   92.31    6.96
   3  -3   4   51.67    5.31
   3  -3   4   48.16    2.80
  -3   3  -4   40.75    2.95
   3  -3   4   50.64    2.80
  -3   3  -4   43.31    3.19
   3  -3   4   44.70    2.73
   3  -3   4   46.85    2.74
   3  -3   4   41.80    4.82
   3  -3   5   11.12    1.38
   3  -3   5   13.58    2.83
  -3   3  -5    9.82    1.52
   3  -3   5   12.71    1.34
   3  -3   5   11.82    1.39
   3  -3   5   12.71    1.41
   3  -3   5   15.92    3.08
   3  -3   5   12.54    1.44
   3  -3   5   14.03    1.45
   3  -3   6  159.18   10.49
   3  -3   6  161.85    6.55
   3  -3   6  159.77    6.57
   3  -3   6  158.50    6.35
  -3   3  -6  129.27    6.70
   3  -3   6  159.68    6.50
   3  -3   6  151.85    6.38
   3  -3   6  150.32    9.81
   3  -3   6  151.91    6.44
   3  -3   7  264.71   14.73
   3  -3   7  251.10    9.46
  -3   3  -7  268.11   10.70
   3  -3   7  265.91    9.94
   3  -3   7  266.35    9.75
   3  -3   7  256.06    9.86
   3  -3   7  251.52    9.78
   3  -3   7  260.83    9.97
   3  -3   7  259.45    9.90
   3  -3   8  376.84   18.68
   3  -3   8  358.98   12.26
   3   3   8  338.75   12.26
   3  -3   8  327.89   12.23
   3  -3   8  324.43   12.36
   3   3   8  343.48   12.02
  -3   3  -8  338.51   13.30
   3   3   8  330.93   12.19
   3  -3   8  370.68   12.91
   3  -3   8  382.14   12.63
   3  -3   8  327.22   12.45
   3  -3   8  325.89   12.20
   3  -3   8  360.92   12.76
   3  -3   8  343.75   12.54
   3   3   8  336.66   12.27
   3   3   8  336.00   12.23
   3  -3   8  362.86   12.76
   3  -3   9  976.69   31.45
   3  -3   9  987.80   30.92
   3  -3   9  905.02   30.85
   3  -3   9  930.56   30.94
  -3   3  -9  924.82   31.97
   3   3   9 1003.44   31.08
   3  -3   9  983.58   31.55
   3   3   9  916.49   30.47
   3   3   9  931.86   30.84
   3  -3   9  914.16   31.06
   3   3   9  938.20   30.74
   3  -3   9  986.17   31.31
   3  -3   9 1028.46   31.61
   3   3   9  924.06   30.84
   3  -3   9  975.54   31.20
   3   3   9  955.01   30.85
   3  -3   9 1016.31   31.34
   3  -3  10  614.80   20.32
   3   3  10  612.68   20.13
   3  -3  10  581.00   20.29
   3  -3  10  600.91   20.39
   3   3  10  567.12   19.74
   3  -3  10  633.21   21.01
   3  -3  10  636.23   21.03
   3  -3  10  650.79   20.82
   3   3  10  600.81   20.30
   3  -3  10  583.65   20.43
   3  -3  10  612.48   20.64
   3   3  10  577.68   20.19
   3  -3  10  615.10   20.61
   3   3  10  581.80   20.17
  -3   3 -11  106.80    4.77
   3  -3  11  116.02    5.34
   3  -3  11  109.18    5.31
   3  -3  11  114.23    5.38
   3   3  11  113.72    4.86
   3  -3  11  118.11    5.81
   3  -3  11  115.08    5.43
   3  -3  11  111.94    5.71
   3  -3  11  121.19    5.74
   3   3  11  114.71    5.30
   3  -3  11  113.90    5.39
   3  -3  11  114.89    5.48
   3   3  11  115.12    5.25
   3  -3  11  117.02    5.56
   3   3  11  114.96    5.25
   3  -3  12   88.38    4.80
  -3   3 -12   87.81    3.94
   3  -3  12   82.97    4.31
   3  -3  12   84.74    4.00
   3  -3  12   82.61    4.34
   3  -3  12   88.71    4.84
   3  -3  12   85.37    4.40
   3  -3  12   89.26    4.49
   3  -3  12   91.66    4.94
   3   3  12   81.95    3.81
   3  -3  12   91.78    4.89
   3  -3  12   96.10    4.86
   3   3  12   88.28    4.34
   3   3  12   83.87    4.23
   3  -3  12   89.31    4.41
   3  -3  12   82.68    4.48
   3   3  12   86.97    4.28
  -3   3 -13    5.16    0.85
   3  -3  13    6.40    1.32
   3  -3  13    4.68    0.86
   3  -3  13    3.84    0.99
   3  -3  13    5.60    1.26
   3  -3  13    5.56    1.10
   3  -3  13    5.05    1.04
   3  -3  13    6.41    1.47
   3   3  13    4.75    0.73
   3   3  13    6.24    1.07
   3  -3  13    4.65    1.17
   3  -3  13    5.45    1.27
   3  -3  13    5.68    1.05
   3   3  13    4.51    0.96
   3  -3  13    5.39    1.14
   3   3  13    5.47    1.03
  -3   3 -14   13.36    1.17
   3  -3  14   14.71    1.75
   3  -3  14   10.73    1.12
   3  -3  14   12.78    1.45
   3  -3  14   14.58    1.78
   3  -3  14   12.63    1.44
   3  -3  14   13.82    1.67
   3  -3  14   12.61    1.58
   3  -3  14   11.91    1.34
   3   3  14   11.42    1.29
   3  -3  14   11.04    1.19
   3  -3  14   11.64    1.59
   3   3  14   12.44    1.31
   3  -3  14   12.43    1.48
   3   3  14   12.46    1.34
   3  -3  15    8.82    1.02
  -3   3 -15    7.14    0.79
   3  -3  15    9.16    1.30
   3   3  15    7.02    0.93
   3   3  15    8.25    1.04
   3  -3  15    6.11    0.79
   3  -3  15    8.21    1.09
   3  -3  15    7.21    1.05
   3  -3  15    7.60    1.20
   3  -3  15    7.22    1.19
   3  -3  15    7.93    1.17
   3  -3  15    6.61    1.12
   3   3  15    7.20    0.88
   3  -3  15    7.86    1.12
   3   3  15    7.57    0.98
  -3   3 -16   14.80    0.94
   3   3  16   18.66    1.28
   3  -3  16   14.86    1.00
   3  -3  16   17.39    1.34
   3  -3  16   18.19    1.34
   3   3  16   17.44    1.19
   3  -3  16   17.62    1.39
   3   3  16   17.18    1.20
   3  -3  17   12.22    0.88
   3  -3  17   11.24    0.87
  -3  -4  15    8.66    0.66
  -3  -4  15   13.51    0.99
  -3   4  15   14.22    0.95
  -3  -4  15   15.09    1.09
  -3  -4  14    1.91    0.54
  -3  -4  14    1.57    0.63
  -3  -4  14    0.85    0.56
  -3   4  14    2.03    0.58
  -3  -4  14    2.02    0.67
  -3  -4  14    1.65    0.59
  -3   4  14    2.02    0.45
   3   4 -13   43.00    2.13
  -3  -4  13   47.26    2.70
  -3  -4  13   49.01    2.67
  -3  -4  13   43.63    2.68
  -3   4  13   53.56    2.76
  -3  -4  13   57.56    3.06
  -3  -4  13   45.09    2.57
  -3   4  13   46.49    2.33
  -3   4  13   51.14    2.88
   3   4 -12    4.80    0.71
  -3  -4  12    3.61    0.91
  -3  -4  12    4.35    1.04
  -3  -4  12    4.78    0.96
  -3   4  12    6.11    1.08
  -3  -4  12    5.11    1.08
  -3   4  12    4.58    0.74
  -3   4  12    3.26    1.05
  -3   4  12    5.88    1.13
   3   4 -11    0.74    0.50
  -3  -4  11    0.36    0.61
  -3  -4  11   -0.08    0.84
   3   4 -11    0.71    0.51
  -3   4  11    1.61    0.87
  -3  -4  11    1.75    0.89
  -3   4  11    0.70    0.49
  -3   4  11    0.36    0.82
  -3   4  11    0.94    0.78
   3   4 -10   62.73    3.13
  -3  -4  10   66.97    3.64
  -3   4  10   67.43    3.92
  -3  -4  10   76.90    3.92
   3   4 -10   65.15    3.37
  -3   4  10   61.32    4.06
   3   4 -10   65.63    3.33
  -3   4  10   70.75    3.70
  -3  -4  10   67.45    3.67
  -3  -4  10   65.55    3.93
  -3   4  10   54.44    3.36
  -3   4  10   63.50    3.68
   3   4  -9  257.42    9.44
  -3  -4   9  269.84    9.97
  -3   4   9  283.98   10.61
   3   4  -9  269.77    9.84
  -3  -4   9  290.49   10.32
  -3   4   9  268.52   10.98
   3   4  -9  276.46    9.82
  -3  -4   9  274.77   10.07
  -3  -4   9  278.61   10.60
  -3   4   9  232.58    9.76
  -3   4   9  239.46   10.02
   3   4  -8  234.08    8.76
  -3   4   8  269.83    9.97
  -3  -4   8  287.39    9.75
   3   4  -8  247.76    9.18
  -3   4   8  219.49    9.39
   3   4  -8  236.79    9.19
  -3   4   8  263.13   10.56
   3   4  -8  258.23    9.23
  -3  -4   8  261.41    9.41
  -3   4   8  205.91    8.96
  -3   4   8  216.20    9.36
   3   4  -7   16.15    1.49
  -3   4   7   15.52    1.86
  -3  -4   7   22.13    2.03
   3   4  -7   15.55    1.61
  -3   4   7   19.74    2.40
   3   4  -7   18.21    1.74
   3   4  -7   19.14    1.78
  -3  -4   7   19.22    1.94
  -3   4   7   14.39    1.64
   3   4  -6  236.44    8.79
  -3  -4   6  276.76    9.50
   3   4  -6  223.03    8.90
  -3   4   6  258.28   10.59
  -3   4   6  256.30    9.80
   3   4  -6  246.38    9.17
   3   4  -6  256.21    9.37
   3   4  -6  242.30    9.16
  -3  -4   6  264.60    9.28
  -3   4   6  211.49    8.89
  -3   4   6  225.99    9.22
   3   4  -5  112.73    4.79
  -3  -4   5  129.55    5.29
  -3   4   5  114.64    5.66
  -3   4   5  121.47    6.29
   3   4  -5  121.03    5.13
   3  -4  -5  119.00    9.00
   3   4  -5  123.84    5.30
   3   4  -5  115.43    5.07
  -3   4   5  109.68    4.95
   3  -4  -5  128.63    9.99
  -3   4   5  114.62    5.20
  -3  -4   4  240.74    7.68
  -3   4   4  186.85    8.06
  -3   4   4  203.50    8.79
   3   4  -4  195.19    7.35
   3   4  -4  214.19    7.63
   3  -4  -4  196.97   12.01
   3   4  -4  274.19   13.90
   3  -4  -4  226.17   13.28
  -3   4   4  182.17    7.41
  -3   4   3   42.13    3.19
   3  -4  -3   56.35    6.07
   3   4  -3   57.31    6.15
   3  -4  -3   53.67    6.22
  -3   4   2   91.15    5.12
  -3   4   2   98.23    5.60
   3  -4  -2  109.92    5.07
   3  -4  -2   88.51    8.03
   3  -4  -1  266.02    9.83
  -3   4   1  229.57   10.09
  -3   4   1  246.70   10.72
   3  -4  -1  273.93   14.80
  -3   4   0  216.38   10.05
   3  -4   0  243.35    9.17
   3  -4   1  208.95    8.12
  -3   4  -1  195.03    9.13
   3  -4   1  202.76    8.02
   3  -4   1  191.18   12.27
   3  -4   2  227.28    8.44
   3  -4   2  203.58    8.06
  -3   4  -2  168.20    8.45
   3  -4   2  222.51    8.32
  -3   4  -2  197.37    9.26
   3  -4   2  214.66   12.97
   3   4   2  235.50   13.16
   3  -4   2  244.41   13.45
   3  -4   3  218.24   12.97
   3  -4   3  213.28   12.94
   3  -4   3  225.70    8.37
   3  -4   3  215.97    8.24
  -3   4  -3  196.61    9.25
   3  -4   3  205.53    8.01
   3  -4   4   66.27    6.79
   3  -4   4   73.55    3.83
   3   4   4   72.82    3.76
  -3   4  -4   55.96    4.08
   3  -4   4   69.18    3.75
  -3   4  -4   63.97    4.48
  -3   4  -4   66.71    4.39
   3  -4   4   58.41    3.40
   3  -4   4   73.19    7.26
   3   4   4   66.37    3.51
   3  -4   4   70.43    3.82
   3  -4   5    2.11    0.83
   3  -4   5    2.45    1.79
   3  -4   5    2.85    0.79
  -3   4  -5    1.81    0.66
  -3   4  -5    2.52    1.16
  -3   4  -5    2.67    1.11
   3  -4   5    3.48    0.98
   3  -4   5    2.67    0.88
   3  -4   5    3.22    0.95
  -3   4  -5    3.14    1.22
   3  -4   5    1.86    0.72
   3   4   5    2.15    0.73
   3   4   5    2.27    0.65
   3  -4   5    2.08    1.65
   3   4   5    2.31    0.71
   3   4   5    2.31    0.71
   3   4   6   55.97    3.07
   3  -4   6   52.84    3.22
  -3   4  -6   53.14    3.01
  -3   4  -6   54.88    4.07
   3  -4   6   59.04    3.47
   3  -4   6   53.63    3.26
   3  -4   6   57.53    3.41
  -3   4  -6   49.07    3.98
   3  -4   6   50.33    3.27
   3   4   6   52.71    2.91
   3   4   6   52.44    3.10
   3   4   6   56.49    3.20
   3  -4   6   56.32    3.44
   3  -4   7  244.73    8.81
   3   4   7  238.31    8.49
   3  -4   7  245.22    9.17
   3  -4   7  239.93    8.90
   3  -4   7  259.39    9.08
   3  -4   7  244.79    9.10
   3  -4   7  235.32    9.03
   3  -4   7  258.81    9.24
   3   4   7  233.96    8.68
  -3   4  -7  236.04   10.04
   3   4   7  239.15    8.71
   3  -4   7  266.20    9.33
   3  -4   8  248.67    9.48
   3  -4   8  243.86    9.05
   3  -4   8  262.75    9.58
   3  -4   8  243.10    9.42
   3  -4   8  218.04    8.72
   3  -4   8  237.62    9.15
   3   4   8  225.70    8.62
  -3   4  -8  239.07   10.30
   3  -4   8  237.55    9.35
   3  -4   8  249.83    9.31
   3   4   8  192.12    8.34
   3  -4   8  230.28    9.21
   3   4   8  224.06    8.89
   3   4   8  233.58    8.95
   3  -4   9  128.98    5.89
   3  -4   9  118.33    5.40
   3  -4   9  114.10    5.22
   3  -4   9  112.47    5.43
   3  -4   9  129.68    5.91
   3   4   9  117.51    5.03
  -3   4  -9  118.33    6.40
   3  -4   9  124.20    5.80
   3  -4   9  126.80    5.81
   3  -4   9  128.97    5.78
   3  -4  10   67.69    3.98
   3  -4  10   62.55    3.58
   3  -4  10   67.31    3.92
   3  -4  10   59.30    3.43
   3  -4  10   61.70    3.42
   3  -4  10   65.79    3.71
   3   4  10   65.68    3.24
   3  -4  10   66.72    3.91
   3   4  10   72.84    3.76
   3  -4  10   65.36    3.85
   3  -4  10   70.26    4.02
   3  -4  10   62.92    3.69
   3   4  10   63.91    3.57
  -3   4 -10   64.79    4.37
   3  -4  11   45.38    3.09
  -3   4 -11   40.58    2.33
   3  -4  11   39.05    2.72
   3   4  11   43.12    2.74
   3   4  11   38.09    2.25
   3  -4  11   42.86    2.66
   3  -4  11   41.13    2.93
   3  -4  11   41.51    2.60
   3  -4  11   47.12    3.14
  -3   4 -11   39.73    3.21
   3  -4  11   39.73    2.57
   3  -4  11   44.02    2.84
   3  -4  11   44.30    2.98
   3   4  11   43.54    2.72
   3  -4  11   39.88    2.89
   3  -4  11   42.96    2.66
   3   4  11   43.74    2.72
  -3   4 -12   29.58    1.83
   3  -4  12   28.19    2.40
   3  -4  12   25.03    2.06
   3  -4  12   31.75    2.44
   3  -4  12   30.86    2.10
   3  -4  12   32.92    2.56
   3   4  12   31.93    2.17
   3  -4  12   25.64    1.87
   3  -4  12   33.62    2.51
   3  -4  12   29.93    2.37
   3  -4  12   31.31    2.23
   3  -4  12   30.13    2.12
   3   4  12   26.73    1.68
   3   4  12   32.03    2.20
   3  -4  12   31.03    2.13
   3   4  12   30.32    2.15
  -3   4 -13   27.44    1.59
   3  -4  13   24.66    2.11
   3   4  13   28.99    1.91
   3  -4  13   28.61    2.16
   3  -4  13   26.06    1.82
   3  -4  13   23.69    2.10
   3  -4  13   24.25    2.02
   3  -4  13   26.23    1.85
   3  -4  13   27.73    1.96
   3  -4  13   27.20    2.14
   3  -4  13   28.52    1.92
   3  -4  13   25.41    1.84
   3   4  13   25.71    1.87
   3   4  13   28.49    1.95
   3  -4  14    0.80    0.59
   3   4  14    0.04    0.42
   3  -4  14    0.39    0.49
   3  -4  14    0.33    0.46
   3  -4  14    0.11    0.51
   3  -4  14    0.49    0.51
   3  -4  14    0.06    0.55
   3  -4  14   -0.17    0.56
   3  -4  14    0.06    0.50
   3  -4  14    0.11    0.39
   3   4  14    0.57    0.49
   3  -4  14    0.08    0.41
   3   4  14    0.26    0.51
   3  -4  15   43.69    2.01
   3  -4  15   40.83    1.93
   3  -4  15   38.91    1.91
   3   4  15   40.66    1.95
   3  -4  15   36.10    1.85
   3   4  15   46.64    2.07
  -3  -5  13   19.50    1.25
  -3  -5  13   24.08    1.42
  -3  -5  13   17.63    1.13
  -3   5  13   22.37    1.29
  -3  -5  13   20.92    1.24
  -3  -5  12   68.23    2.35
  -3  -5  12   70.11    2.48
  -3   5  12   65.75    2.17
  -3  -5  12   66.55    2.23
  -3   5  12   68.04    2.41
   3   5 -11   94.17    3.84
  -3  -5  11  100.16    4.37
  -3  -5  11  100.90    4.47
  -3  -5  11  110.98    4.63
  -3   5  11  104.97    4.31
  -3  -5  11   99.11    4.29
  -3  -5  11  106.53    4.40
  -3   5  11  112.63    4.62
   3   5 -10   74.86    3.21
  -3  -5  10   87.68    4.02
  -3   5  10   65.24    3.16
  -3   5  10   67.28    3.92
  -3   5  10   81.12    3.63
  -3  -5  10   81.73    3.77
  -3  -5  10   76.03    3.61
  -3  -5  10   80.40    3.71
  -3   5  10   67.79    3.52
  -3   5  10   78.63    3.85
   3   5  -9   44.13    2.36
   3   5  -9   52.02    2.71
  -3  -5   9   47.78    2.81
  -3   5   9   38.31    2.32
  -3   5   9   43.02    3.18
  -3   5   9   47.37    2.65
  -3  -5   9   48.28    2.75
  -3  -5   9   47.27    2.78
  -3   5   9   41.18    2.64
  -3   5   9   48.94    2.96
   3   5  -8    6.22    0.89
   3   5  -8    6.09    1.03
  -3  -5   8    7.75    1.29
  -3   5   8    5.37    0.93
  -3   5   8    5.52    1.32
  -3   5   8    6.12    0.97
  -3  -5   8    6.31    1.08
  -3   5   8    5.32    1.09
  -3  -5   8    6.92    1.25
  -3   5   8    6.29    1.17
   3   5  -7    1.39    0.59
  -3  -5   7    1.22    0.89
  -3   5   7    1.11    0.93
  -3   5   7    1.73    0.68
   3   5  -7    1.04    0.67
  -3   5   7    0.50    0.53
  -3   5   7    0.83    0.69
  -3  -5   7    2.81    0.99
   3   5  -6   16.39    1.48
  -3   5   6   17.69    1.94
  -3  -5   6   16.61    1.78
  -3   5   6   13.37    1.69
   3   5  -6   16.40    1.58
  -3   5   6   14.43    1.44
  -3   5   6   16.02    2.25
  -3   5   6   14.55    1.44
  -3  -5   6   18.60    1.72
  -3   5   6   12.46    1.50
   3   5  -5  215.83    8.03
  -3   5   5  236.73    8.98
   3  -5  -5  244.11    8.88
  -3  -5   5  220.90    8.38
  -3   5   5  184.28    8.63
  -3   5   5  199.07    7.94
  -3   5   5  221.16    9.89
  -3  -5   5  221.45    8.28
  -3   5   5  203.35    8.23
   3   5  -4   93.24    4.29
  -3   5   4  103.15    5.03
  -3  -5   4  102.78    4.59
  -3   5   4   84.49    4.16
  -3   5   4   94.73    5.78
   3   5  -4   96.22    4.44
   3  -5  -4  102.82    4.87
   3   5  -4  105.07    4.70
  -3   5   4   89.90    4.41
  -3   5   4   75.45    4.76
  -3   5   4   95.64    4.69
   3   5  -3   17.03    1.59
   3   5  -3   17.71    1.64
   3   5  -3   17.57    1.65
  -3   5   3   17.32    2.01
  -3   5   3   17.17    1.57
  -3   5   3   14.41    2.32
   3  -5  -3   20.24    1.92
  -3  -5   3   17.40    1.75
   3   5  -3   19.71    1.77
  -3   5   3   14.21    1.55
  -3   5   3   13.48    1.91
  -3   5   3   17.46    1.82
   3   5  -2   92.22    4.31
  -3   5   2   97.01    5.23
   3   5  -2   89.18    4.25
  -3   5   2   80.06    4.95
   3  -5  -2  101.55    4.79
   3   5  -2   91.40    4.36
  -3   5   2   90.95    4.24
   3  -5  -2   95.83    4.65
   3   5  -2  102.36    4.60
  -3   5   2   88.78    4.35
  -3   5   2   97.85    4.69
   3   5  -1   23.88    1.95
  -3   5   1   19.42    2.31
   3   5  -1   22.93    1.94
  -3   5   1   27.36    2.64
   3  -5  -1   27.40    2.16
   3   5  -1   23.08    1.80
  -3   5   1   22.51    1.86
  -3   5   1   24.00    2.85
   3  -5  -1   23.12    2.07
   3   5  -1   24.81    1.99
  -3   5   1   26.58    2.05
  -3   5   1   26.29    2.19
   3   5   0    5.53    1.06
  -3   5   0    7.07    1.19
   3   5   0    6.03    0.90
  -3   5   0    8.86    1.66
  -3   5   0    5.99    1.43
   3  -5   0    7.43    1.15
  -3   5   0    5.28    0.97
  -3   5   0    6.38    1.75
   3   5   0    7.99    1.17
   3  -5   0    6.95    1.15
   3   5   0    6.95    1.11
  -3   5   0    6.79    1.13
  -3   5   0    6.90    1.22
   3   5   1  103.34    4.84
   3  -5   1  129.41    5.56
   3   5   1   97.16    4.46
   3   5   1  122.28    5.13
  -3   5  -1  111.94    5.16
   3  -5   1  119.83    5.27
  -3   5  -1  108.81    4.84
  -3   5  -1   98.55    5.81
  -3   5  -1  117.10    6.67
  -3   5  -1  115.56    6.15
   3   5   1  117.27    5.02
  -3   5  -1  107.10    4.92
   3   5   1  105.17    4.88
   3   5   2    4.33    0.95
   3  -5   2    6.20    1.20
   3  -5   2    6.52    1.26
  -3   5  -2    5.17    1.47
   3  -5   2    5.48    1.10
  -3   5  -2    4.74    0.92
  -3   5  -2    8.93    1.92
   3   5   2    5.36    1.02
   3   5   2    5.95    0.98
  -3   5  -2    5.08    0.98
   3   5   2    5.42    1.01
  -3   5  -2    5.13    1.02
   3  -5   3   60.65    3.60
  -3   5  -3   64.33    3.49
   3   5   3   62.02    3.36
  -3   5  -3   57.55    4.19
   3  -5   3   60.28    3.46
  -3   5  -3   53.92    4.11
  -3   5  -3   55.39    3.14
  -3   5  -3   63.94    4.64
   3  -5   3   57.95    3.33
   3  -5   3   65.23    3.62
   3   5   3   59.70    3.16
  -3   5  -3   63.42    3.36
   3   5   3   62.34    3.34
   3  -5   3   62.66    3.63
   3   5   3   52.75    3.17
   3  -5   4  131.68    5.70
  -3   5  -4  118.18    5.30
   3  -5   4  117.48    5.40
   3  -5   4  115.34    5.40
   3  -5   4  119.36    5.49
  -3   5  -4  119.77    6.77
   3  -5   4  109.66    5.23
   3   5   4  118.52    4.94
   3   5   4  107.06    4.95
  -3   5  -4  114.41    5.13
   3   5   4  114.31    5.17
   3  -5   4  117.40    5.54
   3  -5   5    2.36    0.81
   3  -5   5    3.32    1.04
   3  -5   5    3.24    0.98
   3  -5   5    3.19    1.09
   3   5   5    2.72    0.80
  -3   5  -5    3.92    1.44
  -3   5  -5    2.83    0.85
   3  -5   5    3.51    1.01
   3  -5   5    3.08    0.91
   3  -5   5    2.20    0.87
  -3   5  -5    2.96    1.40
   3   5   5    3.23    0.84
   3   5   5    3.01    0.86
   3  -5   6    4.78    1.10
   3  -5   6    7.66    1.31
  -3   5  -6    4.99    0.99
   3  -5   6    5.72    1.21
   3  -5   6    8.33    1.36
   3   5   6    4.98    0.92
   3   5   6    7.10    1.07
   3  -5   6    5.93    1.12
  -3   5  -6    6.05    1.61
   3  -5   6    7.98    1.27
   3  -5   6    4.19    0.93
   3  -5   6    5.30    1.22
   3   5   6    5.19    0.95
   3   5   6    6.60    1.11
   3  -5   7   15.61    1.71
   3   5   7   16.72    1.60
   3  -5   7   16.29    1.64
  -3   5  -7   17.05    1.55
   3   5   7   17.04    1.52
   3  -5   7   15.70    1.72
   3  -5   7   16.06    1.81
   3   5   7   13.42    1.37
   3  -5   7   17.15    1.78
   3  -5   7   15.44    1.70
   3   5   7   16.46    1.60
   3  -5   7   16.73    1.79
  -3   5  -7   18.36    2.33
   3  -5   7   18.70    1.90
   3  -5   8   87.09    4.45
   3  -5   8   88.64    4.26
   3  -5   8   94.67    4.51
   3  -5   8   86.72    4.23
  -3   5  -8   82.73    3.92
  -3   5  -8   88.82    5.25
   3  -5   8   97.43    4.61
   3  -5   8   87.59    4.37
   3   5   8   86.14    3.90
   3  -5   8   86.67    4.40
   3  -5   8   91.15    4.45
   3   5   8   92.44    4.24
   3   5   8   98.40    4.33
   3  -5   9    3.50    0.95
   3  -5   9    3.28    0.87
   3  -5   9    3.28    0.87
   3   5   9    3.84    0.73
  -3   5  -9    3.68    1.24
  -3   5  -9    2.18    0.60
   3  -5   9    4.73    1.05
   3  -5   9    2.83    0.83
   3  -5   9    3.23    0.91
   3  -5   9    4.77    1.08
   3  -5   9    4.91    1.12
   3   5   9    3.91    0.91
   3   5   9    4.09    0.89
   3  -5  10   48.03    2.97
   3  -5  10   45.07    2.71
   3  -5  10   52.28    2.91
   3  -5  10   48.18    2.88
   3  -5  10   50.27    2.80
   3   5  10   44.61    2.31
   3  -5  10   45.74    2.93
   3  -5  10   50.32    2.77
   3  -5  10   50.78    3.00
   3  -5  10   47.08    2.83
   3   5  10   51.97    2.81
   3   5  10   54.30    2.82
   3  -5  11   31.20    2.16
   3  -5  11   24.92    1.84
   3  -5  11   29.14    1.71
   3  -5  11   29.57    2.05
   3  -5  11   33.20    2.04
   3  -5  11   33.06    2.24
   3   5  11   20.27    1.36
   3  -5  11   30.51    2.14
   3  -5  11   29.37    2.00
   3   5  11   33.63    2.03
   3  -5  11   32.74    1.94
   3   5  11   35.29    2.04
   3  -5  12    3.27    0.75
   3  -5  12    2.55    0.64
   3  -5  12    2.20    0.48
   3  -5  12    2.45    0.71
   3  -5  12   -0.03    0.17
   3  -5  12    1.87    0.64
   3  -5  12    2.91    0.66
   3   5  12    2.39    0.63
   3  -5  13    7.10    0.61
   3  -5  13    8.91    0.81
   3   5  13    8.48    0.84
   3   5  13    9.58    0.85
  -3  -6  11   15.25    0.92
  -3  -6  10   29.85    1.58
  -3  -6  10   27.03    1.39
   3   6 -10   25.80    1.32
  -3  -6   9    1.99    0.60
  -3  -6   9    2.25    0.51
   3   6  -9    2.21    0.44
  -3   6   9    1.82    0.43
  -3   6   9    2.60    0.52
   3   6  -8    8.11    0.80
  -3  -6   8   10.31    0.99
   3   6  -8    9.15    0.87
  -3  -6   8   10.44    1.06
  -3   6   8    8.73    0.88
  -3  -6   8    6.86    1.00
  -3   6   8   10.23    1.05
  -3   6   8   10.16    1.00
   3   6  -7   18.62    1.30
  -3   6   7   24.16    1.75
  -3   6   7   18.36    1.87
  -3  -6   7   17.63    1.39
   3   6  -7   18.69    1.31
  -3  -6   7   20.13    1.54
  -3   6   7   19.94    1.38
   3  -6  -7   18.83    1.40
  -3  -6   7   18.23    1.50
  -3   6   7   18.98    1.51
  -3   6   7   19.68    1.48
   3   6  -6   13.14    1.17
  -3   6   6   15.35    1.50
  -3  -6   6   15.05    1.39
   3   6  -6   13.50    1.14
  -3   6   6   15.86    1.29
  -3   6   6   16.47    1.92
  -3  -6   6   15.47    1.40
  -3   6   6   13.87    1.35
  -3   6   6   15.26    1.33
   3   6  -5  217.33    7.81
   3   6  -5  204.33    7.63
  -3  -6   5  202.54    7.94
  -3   6   5  222.22    7.87
  -3   6   5  224.08    9.36
  -3   6   5  248.35    8.51
  -3  -6   5  202.03    7.90
  -3   6   5  231.97    8.16
  -3   6   5  244.41    8.15
   3   6  -4   77.20    3.41
  -3   6   4   86.09    3.93
  -3   6   4   63.41    3.78
  -3   6   4   70.19    3.33
  -3   6   4   73.76    4.58
  -3  -6   4   61.90    3.31
  -3   6   4   74.44    3.59
  -3   6   4   84.07    3.61
   3   6  -3    5.34    0.90
  -3   6   3    6.66    1.24
  -3   6   3    4.48    0.83
  -3   6   3    8.15    1.67
  -3   6   3    6.66    1.12
  -3   6   3    5.72    1.01
  -3  -6   3    5.55    1.03
   3   6  -2   84.16    3.87
   3  -6  -2   90.41    4.20
  -3   6   2   77.40    4.55
  -3   6   2   92.20    4.34
  -3   6   2   83.99    3.84
  -3   6   2   90.90    5.41
  -3   6   2   89.12    4.06
   3   6  -1   47.70    2.65
   3  -6  -1   51.13    2.91
  -3   6   1   44.87    3.17
  -3   6   1   47.17    2.62
  -3   6   1   51.11    2.80
   3   6   0   70.06    3.49
   3  -6   0   82.08    3.87
   3  -6   0   80.49    3.89
  -3   6   0   75.77    4.94
  -3   6   0   66.96    4.18
  -3   6   0   68.53    3.42
   3   6   0   71.04    3.41
  -3   6   0   72.54    3.59
   3  -6   0   80.67    3.89
   3  -6   1   42.40    2.59
   3  -6   1   42.42    2.62
   3   6   1   38.80    2.39
   3  -6   1   34.67    2.21
  -3   6  -1   37.69    2.29
  -3   6  -1   39.26    3.51
   3   6   1   36.80    2.18
  -3   6  -1   33.62    2.94
  -3   6  -1   38.20    2.37
  -3   6  -1   38.03    2.52
   3  -6   1   39.03    2.53
   3   6   1   37.03    2.30
   3  -6   2    5.99    1.06
   3  -6   2    8.29    1.20
  -3   6  -2    6.75    1.11
   3   6   2    8.51    1.14
  -3   6  -2    6.20    1.39
   3  -6   2    6.82    1.12
   3  -6   2    6.55    1.12
  -3   6  -2    6.17    0.95
  -3   6  -2    6.97    1.61
   3   6   2    7.62    0.90
  -3   6  -2    6.12    1.00
  -3   6  -2    6.95    1.16
   3  -6   3   35.96    2.39
   3  -6   3   32.73    2.28
  -3   6  -3   33.41    2.28
  -3   6  -3   33.93    2.94
   3  -6   3   33.53    2.33
  -3   6  -3   32.85    2.11
  -3   6  -3   29.75    2.09
  -3   6  -3   38.74    2.45
   3  -6   3   34.39    2.35
  -3   6  -4    0.72    0.65
   3  -6   4    0.39    0.59
   3  -6   4    0.18    0.52
   3  -6   4    0.13    0.65
  -3   6  -4    0.77    0.90
   3  -6   4    0.31    0.60
  -3   6  -4    0.41    0.51
   3  -6   4    0.34    0.46
   3   6   4    0.57    0.57
  -3   6  -4    0.43    0.55
  -3   6  -4    0.26    0.64
   3  -6   5    2.35    0.78
   3  -6   5    3.53    0.81
  -3   6  -5    3.95    0.85
   3  -6   5    1.19    0.76
   3  -6   5    2.34    0.77
  -3   6  -5    4.47    1.25
   3   6   5    3.75    0.78
   3  -6   5    3.88    0.87
   3  -6   5    4.33    0.92
  -3   6  -5    4.14    0.79
   3  -6   5    3.84    0.76
  -3   6  -5    3.43    0.74
   3   6   5    3.31    0.65
   3  -6   6    4.20    0.87
   3  -6   6    4.82    0.85
  -3   6  -6    5.28    0.87
   3  -6   6    0.53    0.60
   3  -6   6    5.25    0.97
   3   6   6    4.77    0.76
   3  -6   6    4.54    0.92
  -3   6  -6    5.15    0.83
   3  -6   6    5.18    0.87
   3  -6   6    5.09    0.91
   3   6   6   -0.12    0.24
  -3   6  -6    5.88    0.86
   3   6   6    3.58    0.66
   3  -6   7   20.86    1.66
   3  -6   7   16.59    1.51
   3  -6   7   20.09    1.57
   3  -6   7   18.51    1.35
   3  -6   7   22.56    1.76
  -3   6  -7   20.33    1.47
   3   6   7   21.45    1.40
  -3   6  -7   23.44    2.21
   3  -6   7   22.02    1.72
  -3   6  -7   23.73    1.56
   3  -6   7   22.66    1.61
   3   6   7   18.45    1.37
  -3   6  -7   19.96    1.44
   3   6   7   21.17    1.44
   3  -6   8   10.99    1.16
   3  -6   8    8.01    1.01
   3  -6   8   11.04    1.19
  -3   6  -8   10.63    0.97
   3  -6   8   10.83    1.07
   3   6   8   11.79    0.94
   3  -6   8   11.36    1.22
  -3   6  -8   12.77    1.08
   3  -6   8   11.39    1.11
   3  -6   8   11.29    0.98
   3   6   8   10.33    0.97
  -3   6  -8   11.00    0.97
   3   6   8   10.29    0.95
   3   6   9   53.32    1.46
   3  -6   9   65.26    2.16
  -3   6  -9   61.24    1.91
   3  -6   9   63.55    2.12
   3  -6   9   55.91    1.79
   3   6   9   57.04    1.83
  -3   6  -9   52.41    1.61
   3  -6  10   36.91    1.74
   3  -6  10   32.17    1.61
  -3   6 -10   36.39    1.68
   3  -6  10   38.48    1.81
   3   6  10   30.60    1.59
  -3   7   6    3.11    0.42
   3  -7  -5    7.33    0.55
  -3   7   5    9.15    0.74
  -3   7   4    9.63    0.74
  -3   7   4   11.10    0.89
  -3   7   3   35.37    1.74
  -3   7   3   37.21    1.70
  -3   7   3   38.00    1.84
  -3   7   2    4.90    0.59
  -3   7   2    4.36    0.60
  -3   7   2    4.77    0.65
  -3   7   1    6.48    0.73
   3  -7  -1    5.87    0.61
  -3   7   1    6.12    0.69
  -3   7   1    8.03    0.80
  -3   7   0    2.69    0.51
   3  -7   0    2.73    0.51
  -3   7   0    2.99    0.51
  -3   7   0    3.12    0.58
  -3   7   0    2.81    0.59
   3  -7   1    8.19    0.78
  -3   7  -1    7.89    0.73
  -3   7  -1    8.09    0.77
  -3   7  -1    7.25    0.78
  -3   7  -2    6.08    0.65
   3  -7   2    6.65    0.75
  -3   7  -2    6.09    0.67
   3  -7   3   14.06    0.91
  -3   7  -3   15.85    1.05
  -3   7  -3   16.85    1.08
   3  -7   3   18.44    1.19
   3  -7   4    1.42    0.35
   3  -7   4    2.32    0.52
  -3   7  -4    1.79    0.40
  -3   7  -4    1.46    0.38
   3  -7   5   30.73    1.41
  -3   7  -5   31.39    1.42
  -3   7  -5   27.32    1.34
  -4   0  18  104.85    3.80
  -4   0  17   20.18    1.57
  -4   0  16   13.63    1.51
  -4   0  16   15.24    1.59
  -4   0  16   14.06    1.43
   4   0 -16   14.61    1.64
  -4   0  16   10.50    1.14
  -4   0  15   19.55    2.02
  -4   0  15   24.68    1.95
  -4   0  15   20.19    1.90
   4   0 -15   21.09    1.66
  -4   0  15   19.93    2.01
   4   0 -15   20.65    2.22
  -4   0  15   16.06    1.56
  -4   0  14   62.09    4.01
  -4   0  14   69.36    3.76
  -4   0  14   61.67    3.79
  -4   0  14   62.95    3.87
   4   0 -14   62.64    4.25
  -4   0  14   62.82    3.29
   4   0 -14   62.31    3.42
  -4   0  13    1.26    1.00
  -4   0  13    0.69    0.87
  -4   0  13    0.50    0.82
   4   0 -13    2.11    1.11
  -4   0  13    1.72    0.95
   4   0 -13    1.08    0.74
  -4   0  13    1.01    0.85
  -4   0  12   17.90    2.30
  -4   0  12   17.46    2.09
  -4   0  12   26.20    2.30
   4   0 -12   19.36    1.94
  -4   0  12   21.27    2.31
   4   0 -12   22.91    2.68
  -4   0  11   91.31    5.46
  -4   0  11   90.25    5.24
   4   0 -11   93.67    4.88
   4   0 -11   94.69    5.83
  -4   0  10    9.79    1.55
  -4   0  10    9.55    1.48
   4   0 -10    5.19    1.51
  -4   0  10    7.64    1.40
   4   0 -10    6.21    3.17
   4   0 -10   11.19    1.37
  -4   0  10    6.55    1.43
   4   0 -10    7.92    2.49
  -4   0  10    8.26    1.35
  -4   0   9 1029.04   32.04
   4   0  -9  752.93   40.12
   4   0  -9  840.63   36.56
   4   0  -9  813.12   32.64
  -4   0   9 1159.74   32.69
  -4   0   9 1040.25   31.82
  -4   0   8   22.76    2.03
  -4   0   8   20.69    1.79
   4   0  -8   18.35    3.47
   4   0  -8   14.94    4.07
   4   0  -8   14.01    1.97
  -4   0   8   23.42    1.85
  -4   0   7    2.07    0.71
   4   0  -7    1.66    0.96
  -4   0   7    1.18    1.07
   4   0  -7    3.07    2.09
   4   0  -7    1.47    1.34
  -4   0   7    2.35    0.78
  -4   0   6  466.85   19.86
   4   0  -6  466.23   17.52
   4   0  -6  462.50   23.74
   4   0  -5  564.02   25.76
  -4   0   5  577.96   22.22
   4   0  -5  547.11   21.95
   4   0  -5  578.37   19.45
   4   0  -5  541.97   20.31
  -4   0   4   65.13    5.51
   4   0  -4   89.63    5.91
   4   0  -4   72.53    7.20
   4   0  -4   89.65    6.89
   4   0  -4   73.18    4.47
  -4   0   3   41.63    4.23
   4   0  -3   45.14    3.92
   4   0  -3   44.94    4.76
   4   0  -3   38.98    2.88
  -4   0   2  181.69   10.02
   4   0  -2  207.71    9.48
   4   0  -2  207.90   11.06
  -4   0   1  206.05   10.82
   4   0  -1  229.49    9.90
   4   0  -1  224.80   11.68
   4   0   0   22.66    2.53
   4   0   0   20.31    3.12
   4   0   1    0.66    1.32
   4   0   1    0.52    0.64
  -4   0  -2   13.06    2.68
   4   0   2    9.33    2.29
   4   0   2    9.45    1.42
  -4   0  -3    0.44    1.22
   4   0   3    0.23    1.11
   4   0   4   69.14    6.19
  -4   0  -4  101.93    6.96
  -4   0  -5    3.13    1.70
   4   0   5    4.83    2.07
   4   0   5    3.00    0.83
   4   0   5    3.80    0.81
   4   0   6  318.79   11.36
   4   0   6  291.53   15.58
   4   0   6  294.18   11.12
  -4   0  -7   37.35    4.40
   4   0   7   40.13    2.51
   4   0   7   47.01    5.68
   4   0   7   40.70    2.53
   4   0   7   39.61    2.47
  -4   0  -7   50.22    5.68
   4   0   7   48.13    3.02
   4   0   7   45.32    2.89
   4   0   8  129.59    5.78
   4   0   8  133.25   10.34
   4   0   8  137.57    5.90
   4   0   8  131.04    5.74
   4   0   8  140.48    6.29
   4   0   8  145.12    6.33
   4   0   9  179.11    7.75
   4   0   9  194.00    7.94
   4   0   9  195.99    7.81
  -4   0  -9  205.58   13.38
   4   0   9  212.19    8.47
   4   0  10    3.64    0.82
   4   0  10    3.80    1.02
   4   0  10    4.23    0.96
   4   0  10    3.12    0.98
  -4   0 -10    4.48    2.08
   4   0  10    3.91    1.00
   4   0  10    3.89    1.00
   4   0  11  391.62   13.72
   4   0  11  399.02   14.48
   4   0  11  400.98   14.39
   4   0  11  404.33   13.97
   4   0  11  389.24   14.53
   4   0  11  373.80   14.20
   4   0  11  409.20   14.55
   4   0  12   72.98    3.78
   4   0  12   73.30    3.75
   4   0  12   70.10    4.23
   4   0  12   70.47    4.10
   4   0  12   76.06    4.42
   4   0  12   67.01    4.05
   4   0  12   74.57    4.11
   4   0  12   74.93    4.60
   4   0  12   78.73    4.35
   4   0  13   23.15    1.91
   4   0  13   24.01    2.41
   4   0  13   21.96    2.27
   4   0  13   23.52    2.22
   4   0  13   26.12    2.24
   4   0  13   19.78    2.07
   4   0  13   24.10    2.08
   4   0  13   21.87    2.41
   4   0  13   23.24    2.20
   4   0  14   24.27    1.90
   4   0  14   25.42    2.11
   4   0  14   23.92    2.12
   4   0  14   26.26    2.43
   4   0  14   24.41    2.29
   4   0  14   19.43    1.97
   4   0  14   23.43    1.95
   4   0  14   24.68    2.42
   4   0  14   22.47    2.14
   4   0  15    0.05    0.54
   4   0  15   -0.52    0.68
   4   0  15   -0.14    0.67
   4   0  15   -0.33    0.68
   4   0  15   -0.26    0.75
   4   0  15    0.43    0.57
   4   0  15    0.07    0.59
   4   0  15    0.29    0.69
   4   0  15   -0.14    0.46
   4   0  16   26.78    1.60
   4   0  16   28.23    1.75
   4   0  16   28.79    1.85
   4   0  16   22.22    1.80
   4   0  16   23.19    1.89
   4   0  16   25.89    1.67
  -4   0 -16   26.87    2.14
   4   0  16   27.84    1.86
   4   0  17    5.75    0.69
   4   0  17    7.12    0.80
   4   0  17    5.35    0.72
   4   0  17    6.16    0.73
  -4   1  17    7.39    0.91
  -4   1  17    6.01    0.74
  -4  -1  17    5.58    0.78
  -4  -1  17    6.78    0.86
  -4  -1  16    7.86    1.12
  -4   1  16    7.68    1.16
  -4   1  16    8.66    1.17
  -4   1  16    8.96    1.05
  -4  -1  16   10.13    1.21
  -4  -1  16    4.30    0.91
   4   1 -16    8.73    0.95
  -4  -1  16    8.01    1.13
  -4   1  16    8.47    1.22
   4   1 -16    8.28    1.23
   4  -1 -16    9.33    1.23
  -4   1  16    6.93    0.89
  -4  -1  16    4.34    0.79
   4   1 -15    4.26    1.13
  -4  -1  15    3.47    0.93
  -4   1  15    5.14    1.18
  -4  -1  15    2.73    0.95
  -4   1  15    3.25    0.86
  -4  -1  15    3.43    0.98
  -4   1  15    5.31    1.06
  -4  -1  15    3.69    1.06
  -4   1  15    3.56    1.09
   4   1 -15    4.15    0.87
   4  -1 -15    3.88    1.08
  -4  -1  15    3.17    0.74
  -4  -1  15    2.49    0.84
  -4   1  15    2.83    0.84
  -4  -1  14   26.27    2.35
  -4  -1  14   27.32    2.40
  -4  -1  14   24.69    2.36
  -4  -1  14   23.59    2.17
  -4   1  14   30.01    2.59
  -4   1  14   25.28    2.15
   4   1 -14   27.30    2.15
  -4   1  14   27.75    2.51
   4   1 -14   26.69    2.58
   4  -1 -14   22.37    2.40
  -4  -1  14   20.27    1.91
  -4  -1  14   23.84    2.03
  -4   1  14   29.34    2.00
  -4  -1  13   11.46    1.68
  -4   1  13   10.18    1.75
  -4   1  13   10.29    1.52
  -4  -1  13    7.51    1.42
  -4  -1  13    9.46    1.58
  -4   1  13   10.92    1.64
   4   1 -13   10.18    1.41
   4  -1 -13   11.34    1.38
   4  -1 -13    9.11    1.78
   4   1 -13    8.23    1.72
  -4  -1  13    9.76    1.64
  -4   1  13    8.92    1.64
  -4  -1  13    8.93    1.42
  -4   1  13   13.06    1.43
  -4  -1  13    7.90    1.41
  -4  -1  12  237.04    9.60
  -4   1  12  275.21   10.19
  -4  -1  12  233.90    9.31
  -4   1  12  204.09    9.18
  -4  -1  12  221.62    9.78
   4   1 -12  228.96    9.18
   4  -1 -12  223.04    8.93
  -4  -1  12  220.66    9.66
   4   1 -12  221.30   10.06
   4  -1 -12  229.57   10.18
  -4  -1  12  195.26    9.13
  -4   1  12  225.36    9.87
  -4   1  12  258.68    8.97
  -4  -1  11  162.35    7.16
  -4   1  11  188.39    7.72
  -4  -1  11  165.54    6.99
  -4  -1  11  142.91    7.26
  -4   1  11  134.63    6.80
  -4  -1  11  145.25    7.20
   4  -1 -11  152.82    6.63
   4   1 -11  152.50    6.81
  -4   1  11  146.56    7.35
   4   1 -11  149.48    7.63
   4  -1 -11  149.93    7.65
  -4  -1  11  169.68    6.83
  -4   1  10  703.46   18.23
  -4  -1  10  456.01   17.83
  -4   1  10  456.32   17.88
  -4   1  10  426.48   17.34
  -4  -1  10  460.88   17.79
   4   1 -10  465.09   17.20
   4  -1 -10  485.03   17.14
   4   1 -10  397.53   25.06
  -4   1  10  548.13   18.20
   4  -1 -10  433.44   25.87
  -4  -1  10  511.78   17.47
  -4  -1  10  508.51   17.68
   4   1 -10  473.15   18.35
   4  -1 -10  475.59   18.44
  -4  -1  10  558.62   17.50
  -4   1  10  579.82   17.26
  -4   1   9   90.94    4.29
  -4  -1   9   76.55    4.07
   4   1  -9   64.77    8.35
  -4   1   9   82.65    4.57
   4  -1  -9   74.98    9.02
   4  -1  -9   69.21    6.79
   4   1  -9   66.12    4.52
   4  -1  -9   72.90    4.72
  -4  -1   9   85.43    4.14
  -4   1   9   88.77    4.01
  -4  -1   8   78.44    7.34
  -4  -1   8   99.16    4.90
  -4   1   8  123.96    5.21
  -4   1   8  135.44    5.75
   4  -1  -8   98.39    7.82
   4   1  -8   78.02    9.14
   4  -1  -8   96.02   10.03
   4   1  -8   97.74    5.59
   4  -1  -8  106.31    5.77
  -4  -1   8  130.79    5.24
  -4   1   8  126.60    5.03
  -4  -1   7  120.34    9.13
  -4  -1   7  114.00    5.67
  -4   1   7  151.20    6.05
  -4   1   7  159.36    6.53
   4  -1  -7  136.95    9.16
   4   1  -7  129.22   11.29
   4   1  -7  143.26    6.80
   4  -1  -7  147.01    6.83
   4  -1  -7  110.90   10.65
  -4  -1   7  178.95    6.25
  -4   1   7  165.37    6.01
  -4  -1   6   43.18    4.91
  -4   1   6   41.80    2.51
   4   1  -6   53.43    5.09
   4  -1  -6   41.32    4.50
   4   1  -6   41.71    3.10
   4  -1  -6   43.62    3.14
  -4  -1   6   53.72    2.77
  -4   1   6   49.29    2.57
   4   1  -6   37.17    5.72
   4   1  -6   44.66    4.36
   4  -1  -6   33.51    5.54
  -4  -1   5  304.16   14.51
  -4   1   5  264.82   12.49
   4  -1  -5  244.48   16.07
   4   1  -5  283.78   13.50
   4  -1  -5  308.06   14.93
   4   1  -5  301.59   14.89
   4   1  -5  269.46   16.14
   4   1  -5  281.27   10.95
   4  -1  -5  253.39   10.82
  -4   1   5  280.24    9.88
   4   1  -5  293.17   13.06
  -4  -1   5  318.62   10.15
  -4  -1   4 1257.48   43.55
  -4   1   4 1135.98   41.52
   4   1  -4 1145.66   41.79
   4  -1  -4 1312.54   44.37
   4   1  -4 1339.12   44.58
   4  -1  -4 1327.54   42.76
   4   1  -4 1171.34   41.32
  -4  -1   3  388.45   17.05
  -4   1   3  353.37   15.68
   4   1  -3  366.11   15.50
   4  -1  -3  406.44   16.13
   4  -1  -3  394.82   17.30
   4   1  -3  395.87   17.38
   4   1  -3  365.99   15.14
  -4   1   2  191.43   10.07
   4  -1  -2  215.45   10.09
   4  -1  -2  219.58   11.39
   4   1  -2  191.58    9.37
   4   1  -2  212.40   11.40
   4   1  -2  191.29    9.22
  -4  -1   1  687.95   25.36
  -4   1   1  615.52   24.07
   4   1  -1  607.50   22.59
   4  -1  -1  672.68   23.62
   4  -1  -1  702.62   25.64
   4   1  -1  723.23   25.76
   4   1  -1  596.94   22.56
   4  -1  -1  595.48   23.09
  -4  -1   0  742.91   26.50
  -4   1   0  708.18   25.52
   4   1   0  630.51   23.11
   4  -1   0  692.60   24.23
   4   1   0  594.29   23.20
   4  -1   0  738.63   26.20
   4   1   0  761.81   26.50
   4  -1   0  618.02   23.59
  -4  -1  -1  174.42    9.47
   4  -1   1  143.05    7.56
   4   1   1  142.24    7.29
   4  -1   1  176.43    9.51
   4   1   1  170.91    9.42
   4  -1   1  129.56    7.11
  -4  -1  -2  994.67   32.55
  -4   1  -2 1002.17   31.73
   4  -1   2  751.90   28.56
   4  -1   2  892.93   31.52
   4   1   2  899.45   31.70
   4  -1   2  735.94   28.34
   4  -1   3  350.86   16.36
   4   1   3  374.76   16.73
   4  -1   3  331.96   14.07
  -4  -1  -3  446.11   17.28
  -4   1  -3  424.74   16.80
   4  -1   3  336.05   13.92
   4  -1   4  889.57   30.83
   4  -1   4  883.52   33.35
   4   1   4  918.05   33.70
  -4  -1  -4 1118.03   34.44
  -4   1  -4 1230.21   34.61
   4  -1   4  794.87   28.45
   4  -1   5  636.45   24.13
  -4  -1  -5  749.29   27.15
  -4   1  -5  741.30   26.45
   4  -1   5  634.71   26.56
   4   1   5  665.10   21.95
   4   1   5  661.84   26.88
   4  -1   5  659.35   21.63
   4  -1   5  654.18   21.89
   4  -1   6  441.61   15.88
  -4  -1  -6  494.87   20.29
  -4   1  -6  497.35   20.69
   4  -1   6  500.68   16.23
   4  -1   6  477.03   21.44
   4   1   6  499.87   21.78
   4  -1   6  449.41   15.99
   4  -1   6  492.49   16.30
   4  -1   6  513.08   16.66
   4   1   6  523.95   16.73
   4   1   6  477.25   16.39
   4  -1   7   25.98    1.97
   4   1   7   31.05    4.54
  -4   1  -7   20.48    3.54
   4  -1   7   26.40    2.07
   4  -1   7   33.32    4.73
   4  -1   7   30.66    2.22
   4  -1   7   32.42    2.23
  -4  -1  -7   31.63    4.42
  -4   1  -7   36.08    4.92
   4  -1   7   29.79    2.34
   4   1   7   28.02    2.32
   4  -1   7   33.07    2.45
   4   1   7   27.71    2.22
   4  -1   8   26.96    2.08
   4  -1   8   25.00    2.12
   4  -1   8   28.81    2.23
   4  -1   8   29.18    2.27
  -4  -1  -8   35.49    4.90
  -4   1  -8   30.81    4.73
   4  -1   8   30.93    2.53
   4   1   8   28.55    2.35
   4  -1   9   10.34    1.38
   4   1   9   12.59    1.54
   4   1   9   10.81    1.44
   4  -1   9   11.44    1.57
   4   1   9   10.41    1.57
   4  -1   9   10.34    1.41
   4  -1   9   11.01    1.53
   4   1   9    9.44    1.39
   4  -1   9   10.15    1.35
  -4  -1  -9    8.18    2.59
  -4   1  -9   10.46    2.96
   4  -1   9    9.50    1.45
   4   1   9   11.68    1.44
   4  -1   9   12.18    1.77
   4  -1   9   12.91    1.63
   4  -1  10   58.62    3.60
   4   1  10   62.04    3.70
   4   1  10   64.05    3.38
   4   1  10   62.74    3.64
   4  -1  10   63.97    3.60
   4  -1  10   65.56    3.90
   4   1  10   55.62    3.49
   4  -1  10   61.23    3.63
   4  -1  10   58.94    3.76
   4   1  10   59.95    3.68
   4  -1  10   64.20    3.83
   4   1  10   61.73    3.58
   4  -1  10   64.80    3.55
   4  -1  10   66.21    4.11
   4   1  10   65.70    3.99
   4   1  10   66.40    3.83
   4  -1  10   61.43    3.79
   4  -1  10   60.14    3.54
   4  -1  11   23.46    2.26
   4   1  11   23.59    2.23
   4   1  11   26.31    2.26
   4   1  11   26.36    2.10
   4  -1  11   24.63    1.90
   4  -1  11   28.67    2.32
   4  -1  11   24.54    2.40
   4  -1  11   26.96    2.36
   4  -1  11   27.22    2.21
   4  -1  11   25.39    2.44
   4   1  11   22.02    2.21
   4   1  11   25.50    2.31
   4  -1  11   26.23    2.42
   4   1  11   23.91    2.19
   4  -1  11   24.90    2.07
   4  -1  11   25.79    2.62
   4   1  11   21.30    2.35
   4   1  11   30.62    2.48
   4  -1  11   25.50    2.40
   4  -1  12   51.89    3.47
   4   1  12   55.01    3.17
   4  -1  12   51.18    2.96
   4  -1  12   51.61    3.34
   4  -1  12   50.43    3.56
   4  -1  12   52.59    3.41
   4   1  12   48.06    3.31
   4  -1  12   57.29    3.75
   4   1  12   59.96    3.47
   4  -1  12   58.60    3.71
   4  -1  12   54.56    3.26
   4   1  12   51.69    3.30
   4  -1  12   49.42    3.06
   4   1  12   54.37    3.08
   4   1  12   57.02    3.49
   4  -1  12   58.30    3.90
   4   1  12   59.84    3.87
   4   1  12   60.69    3.60
   4   1  12   53.04    3.56
   4  -1  13   53.59    3.49
   4   1  13   57.45    3.21
   4  -1  13   55.18    3.03
   4  -1  13   57.31    3.74
   4   1  13   61.69    3.56
   4  -1  13   54.68    3.45
   4   1  13   51.36    3.39
   4  -1  13   56.77    3.77
   4   1  13   55.33    3.60
   4  -1  13   56.17    3.21
   4  -1  13   57.08    3.69
   4   1  13   57.12    3.37
   4   1  13   54.65    3.33
   4  -1  13   54.89    3.14
   4  -1  13   55.42    3.38
   4  -1  13   64.03    3.98
   4   1  13   56.86    3.79
   4   1  13   55.25    3.46
   4   1  13   52.83    2.98
   4  -1  14   18.21    1.91
   4   1  14   22.08    1.81
   4  -1  14   20.32    1.64
   4  -1  14   20.31    2.14
   4   1  14   16.94    1.82
   4  -1  14   23.13    2.29
   4   1  14   18.93    1.99
   4   1  14   17.22    1.52
   4  -1  14   20.21    1.69
   4  -1  14   21.14    2.11
   4   1  14   22.79    1.97
   4  -1  14   20.70    1.72
   4   1  14   21.71    1.94
   4   1  14   19.13    1.81
   4  -1  14   21.24    2.16
   4   1  14   17.75    1.79
   4  -1  14   19.01    1.97
   4  -1  15  165.72    6.91
   4  -1  15  171.60    7.23
   4   1  15  183.55    6.70
   4  -1  15  171.95    6.42
   4   1  15  179.78    6.73
   4   1  15  151.09    6.74
   4  -1  15  175.49    7.31
   4   1  15  157.39    6.94
   4   1  15  167.51    6.24
   4   1  15  174.64    6.77
   4  -1  15  168.10    7.10
   4  -1  15  162.57    6.43
   4   1  15  177.66    6.87
   4  -1  15  177.68    6.88
   4  -1  15  182.22    7.34
   4   1  15  168.12    6.69
   4  -1  15  177.80    7.09
   4   1  16   22.20    1.49
   4  -1  16   19.11    1.30
   4  -1  16   18.12    1.55
   4  -1  16   18.73    1.70
   4  -1  16   18.17    1.71
   4  -1  16   18.03    1.19
   4   1  16   19.15    1.38
   4  -1  16   16.30    1.23
   4   1  16   18.25    1.50
   4  -1  16   16.27    1.55
  -4  -1 -16   16.77    1.68
  -4   1 -16   20.64    1.88
   4  -1  16   19.89    1.53
   4  -1  16   17.73    1.59
   4   1  17    3.56    0.58
   4  -1  17    3.07    0.45
   4  -1  17    2.97    0.57
   4  -1  17    3.25    0.63
   4   1  17    2.48    0.57
   4  -1  17    3.04    0.60
  -4  -2  17   10.22    0.75
  -4   2  17    9.28    0.74
  -4   2  16   55.86    2.60
  -4  -2  16   54.56    2.44
  -4  -2  16   44.21    2.17
  -4   2  16   48.27    2.30
  -4  -2  16   49.15    2.27
  -4   2  15   24.58    2.01
  -4  -2  15   22.79    1.68
  -4   2  15   20.88    1.66
  -4  -2  15   12.40    1.36
  -4   2  15   34.65    2.14
  -4  -2  15   27.71    1.87
  -4   2  15    2.30    0.68
  -4  -2  15   20.07    1.66
   4   2 -15   26.34    1.72
  -4   2  15   21.32    1.41
  -4  -2  15   22.71    1.69
  -4  -2  15   14.02    1.33
   4   2 -15   23.35    1.83
   4  -2 -15   18.54    1.56
  -4   2  15   25.51    1.72
  -4  -2  14   10.63    1.39
  -4   2  14    9.93    1.59
  -4  -2  14   11.15    1.38
  -4  -2  14    8.12    1.09
   4  -2 -14    8.26    1.29
  -4   2  14   14.16    1.64
  -4   2  14    9.42    1.13
  -4  -2  14   10.75    1.42
  -4  -2  14    5.41    1.13
  -4   2  14    9.84    1.36
   4   2 -14    9.17    1.27
  -4   2  14   10.33    1.20
   4   2 -14    9.91    1.39
  -4  -2  14    8.25    1.32
  -4   2  14   11.22    1.33
  -4  -2  14    6.88    1.17
  -4   2  14    8.77    1.08
  -4  -2  13   10.59    1.51
  -4   2  13    9.21    1.71
  -4  -2  13   11.69    1.57
  -4   2  13   10.84    1.56
  -4  -2  13    9.88    1.32
   4  -2 -13    9.94    1.57
  -4   2  13   17.43    1.86
  -4   2  13   10.15    1.27
  -4  -2  13   13.90    1.72
  -4  -2  13    9.10    1.46
   4   2 -13   12.24    1.73
  -4  -2  13   10.38    1.54
   4   2 -13   11.33    1.49
  -4   2  13   11.94    1.39
  -4   2  13    9.41    1.23
  -4  -2  12   76.06    4.37
  -4   2  12   92.12    5.00
  -4  -2  12   81.20    4.38
  -4   2  12   88.10    4.75
  -4  -2  12   86.55    4.72
  -4  -2  12   84.06    4.61
   4   2 -12   79.07    4.30
  -4   2  12   67.59    3.94
   4   2 -12   78.83    4.73
   4  -2 -12   84.22    4.77
  -4  -2  12   81.34    4.64
  -4  -2  12   84.69    4.32
  -4   2  12  108.38    4.39
  -4   2  12   73.24    4.11
  -4  -2  11  440.98   15.77
  -4   2  11  521.62   16.87
  -4  -2  11  391.55   15.45
  -4   2  11  390.44   15.19
  -4  -2  11  468.06   16.29
  -4   2  11  452.52   16.17
  -4  -2  11  430.92   15.98
   4   2 -11  443.28   15.66
   4   2 -11  448.47   16.42
   4  -2 -11  412.70   16.12
  -4  -2  11  449.59   15.57
  -4   2  11  396.69   15.39
  -4   2  10   91.85    5.04
  -4  -2  10   89.52    4.65
  -4  -2  10   88.34    5.00
   4  -2 -10   97.22    4.52
   4   2 -10   84.68    4.27
  -4  -2  10   88.31    4.90
   4   2 -10   89.23    5.18
   4  -2 -10   89.10    5.12
  -4  -2  10   95.14    4.72
  -4   2  10   77.28    4.47
   4  -2  -9  512.88   26.68
  -4  -2   9  474.13   23.61
  -4   2   9  413.04   18.05
  -4  -2   9  492.46   18.50
  -4   2   9  732.10   19.49
  -4  -2   9  538.79   19.02
  -4   2   9  546.03   19.17
  -4   2   9  589.41   19.63
   4   2  -9  534.48   18.62
   4  -2  -9  555.63   18.52
   4   2  -9  533.12   18.31
   4   2  -9  543.63   19.47
   4  -2  -9  540.05   19.39
  -4  -2   9  589.81   18.78
  -4   2   9  661.81   18.65
   4   2  -9  499.14   26.50
  -4  -2   9  560.75   19.29
   4   2  -8  122.28   10.93
   4  -2  -8  106.44   10.32
  -4  -2   8  110.92    5.43
  -4   2   8  106.16    5.84
  -4   2   8  147.23    5.94
   4  -2  -8  116.86    9.42
   4   2  -8  111.94    9.27
   4  -2  -8  135.62    9.45
  -4  -2   8  139.12    5.76
   4   2  -8  115.93    6.06
   4  -2  -8  123.57    6.15
  -4   2   8  152.92    5.63
   4   2  -8  128.40    9.29
   4  -2  -7  194.32   13.64
  -4  -2   7  168.60    7.70
   4   2  -7  199.55   13.98
  -4   2   7  227.03    8.29
  -4   2   7  159.36    8.18
   4  -2  -7  199.06   12.34
   4   2  -7  214.17   12.74
   4  -2  -7  224.98   12.37
  -4  -2   7  238.17    8.27
   4   2  -7  212.13    8.77
   4  -2  -7  204.67    8.60
  -4   2   7  247.73    8.06
   4   2  -7  232.43   12.41
  -4   2   6   56.14    3.57
  -4   2   6   54.31    3.22
   4  -2  -6   53.81    5.85
   4   2  -6   58.86    6.11
   4  -2  -6   59.87    5.82
  -4  -2   6   65.55    3.32
   4   2  -6   53.66    3.51
   4  -2  -6   58.34    3.59
  -4   2   6   71.10    3.24
   4   2  -6   65.34    5.95
  -4   2   5  110.37    5.49
  -4   2   5   93.52    5.04
   4  -2  -5  131.18    8.62
   4  -2  -5  110.81    8.44
   4   2  -5  128.63    8.94
  -4  -2   5  144.64    5.36
   4   2  -5  130.94    5.84
   4  -2  -5  120.10    5.68
   4   2  -5  149.82    8.91
  -4   2   5  136.89    5.16
  -4   2   4   23.23    2.78
   4  -2  -4   24.32    3.81
   4   2  -4   22.35    3.58
  -4  -2   4   24.95    1.81
   4   2  -4   24.12    3.46
  -4   2   4   23.76    1.70
   4   2  -4   21.42    2.02
   4  -2  -4   20.17    1.89
  -4   2   3  133.67    7.38
   4  -2  -3  137.16    8.35
   4  -2  -3  133.55    8.53
   4   2  -3  132.09    8.56
   4   2  -3  133.96    8.05
  -4   2   3  105.09    4.69
  -4  -2   2  251.55   12.63
  -4   2   2  208.00   10.47
   4  -2  -2  196.70    8.08
   4  -2  -2  217.44   11.23
   4  -2  -2  214.66   11.48
   4   2  -2  200.66   11.40
   4   2  -2  215.48   10.89
   4  -2  -2  222.12   11.62
  -4  -2   1   42.59    4.85
  -4   2   1   33.04    4.03
   4  -2  -1   33.82    2.38
   4  -2  -1   39.40    4.20
   4   2  -1   39.37    3.99
   4  -2  -1   31.08    4.18
   4   2  -1   32.53    4.15
   4  -2  -1   39.34    4.26
  -4  -2   0    4.17    1.89
  -4   2   0    2.99    1.44
   4   2   0    3.83    1.62
   4  -2   0    2.51    1.30
   4  -2   0    3.10    1.42
   4  -2   0    3.69    1.53
   4   2   0    3.09    1.38
  -4   2  -1  281.87   14.59
   4  -2   1  294.01   13.87
   4   2   1  332.22   14.33
   4  -2   1  297.31   14.21
   4   2   1  308.10   14.43
   4  -2   1  303.54   14.04
  -4  -2  -2    0.49    1.26
  -4   2  -2    1.76    1.33
   4  -2   2    0.38    0.44
   4  -2   2    0.43    0.95
   4   2   2    0.65    0.91
   4  -2   2    0.20    0.84
   4  -2   2    0.12    0.47
   4  -2   2    2.81    0.77
   4  -2   3   67.80    5.79
   4   2   3   59.34    5.56
  -4  -2  -3   74.18    6.48
   4  -2   3   73.02    3.46
  -4   2  -3   67.49    3.74
   4  -2   3   65.09    3.50
   4  -2   3   67.50    5.36
   4  -2   3   73.16    3.57
   4  -2   3   74.22    5.77
  -4  -2  -4    1.00    1.39
  -4   2  -4    0.25    1.02
   4  -2   4    0.56    0.50
   4  -2   4    0.79    0.54
   4   2   4    1.23    1.26
  -4   2  -4    0.32    0.56
   4  -2   4    0.30    0.51
   4  -2   4    0.45    0.57
   4  -2   4    0.42    0.48
   4   2   4    0.49    0.54
   4  -2   4    0.86    0.94
   4  -2   4    0.73    1.16
   4  -2   4    0.55    0.57
   4  -2   4    0.58    0.91
   4  -2   5  606.35   22.85
  -4   2  -5  528.23   22.76
   4  -2   5  518.73   22.74
   4  -2   5  545.23   18.18
   4  -2   5  565.19   18.54
   4  -2   5  532.53   18.34
   4   2   5  545.81   18.41
   4   2   5  525.23   22.92
   4  -2   5  565.07   18.42
   4  -2   5  562.62   18.67
   4  -2   5  536.11   18.20
   4  -2   6   38.33    4.50
   4  -2   6   37.11    2.51
  -4   2  -6   21.82    3.69
   4  -2   6   38.33    4.77
   4  -2   6   41.69    2.53
   4   2   6   38.09    4.80
   4  -2   6   39.95    2.66
  -4  -2  -6   38.15    4.54
  -4   2  -6   32.51    4.66
   4  -2   6   37.69    2.51
   4   2   6   35.72    2.52
   4  -2   6   38.31    2.72
   4   2   6   37.64    2.49
   4  -2   6   41.10    2.56
   4  -2   7   16.73    3.15
   4  -2   7   16.44    1.73
  -4  -2  -7   11.96    2.68
  -4   2  -7   17.96    3.47
   4  -2   7   16.23    1.78
   4  -2   7   15.21    1.48
   4  -2   7   16.43    1.77
   4  -2   7   16.84    1.89
   4   2   7   16.89    1.72
   4  -2   7   15.56    1.65
   4  -2   8   36.71    2.62
   4   2   8   38.77    2.46
   4  -2   8   32.50    2.56
   4  -2   8   38.29    2.68
   4  -2   8   38.58    2.78
   4  -2   8   30.60    2.31
   4   2   8   32.72    2.43
   4  -2   8   32.95    2.50
  -4  -2  -8   29.58    4.26
  -4   2  -8   30.07    4.70
   4  -2   8   37.50    2.86
   4   2   8   34.06    2.44
   4   2   8   32.89    2.55
   4   2   8   35.16    2.54
   4  -2   8   34.27    2.61
   4   2   8   36.07    2.38
   4  -2   9   35.37    2.67
   4   2   9   36.53    2.44
   4  -2   9   33.58    2.69
   4  -2   9   34.92    2.56
   4   2   9   36.87    2.63
   4  -2   9   35.12    2.51
   4   2   9   32.71    2.59
   4  -2   9   38.21    2.66
   4   2   9   36.95    2.42
   4  -2   9   38.81    2.90
   4  -2   9   31.10    2.34
   4  -2   9   34.91    2.53
   4  -2   9   37.95    2.86
   4   2   9   36.92    2.60
   4  -2   9   32.64    2.53
   4  -2   9   35.11    2.89
   4   2   9   36.95    2.51
   4   2   9   35.55    2.74
   4   2   9   31.34    2.55
   4  -2   9   38.08    2.79
   4   2   9   35.61    2.42
   4  -2  10  245.20    9.90
   4   2  10  248.42    9.46
   4  -2  10  243.20    9.60
   4  -2  10  267.16   10.26
   4   2  10  275.63    9.97
   4  -2  10  248.68    9.76
   4  -2  10  252.84    9.75
   4  -2  10  255.43   10.12
   4   2  10  253.13    9.71
   4   2  10  242.95    9.29
   4  -2  10  262.33   10.25
   4  -2  10  245.59    9.62
   4   2  10  244.60    9.70
   4  -2  10  244.42    9.65
   4  -2  10  281.46   10.59
   4   2  10  243.21    9.49
   4   2  10  254.22   10.06
   4   2  10  241.89    9.69
   4  -2  10  252.63    9.99
   4   2  10  241.22    9.38
   4  -2  11  186.17    7.97
   4   2  11  186.71    7.47
   4   2  11  192.89    7.69
   4  -2  11  174.98    7.52
   4  -2  11  184.85    8.11
   4   2  11  197.85    7.76
   4  -2  11  185.58    7.74
   4  -2  11  182.02    7.60
   4  -2  11  190.66    8.13
   4   2  11  175.35    7.18
   4  -2  11  191.03    8.16
   4  -2  11  184.81    7.66
   4   2  11  180.51    7.63
   4  -2  11  176.63    7.48
   4  -2  11  198.82    8.33
   4   2  11  173.43    7.31
   4  -2  11  189.28    7.95
   4   2  11  172.73    7.22
   4  -2  12  220.35    8.99
   4   2  12  227.11    8.49
   4  -2  12  207.98    8.49
   4  -2  12  218.36    9.12
   4  -2  12  210.82    8.62
   4  -2  12  226.83    9.23
   4   2  12  218.87    8.49
   4   2  12  217.83    8.14
   4  -2  12  225.34    9.19
   4  -2  12  216.37    8.65
   4  -2  12  210.13    8.48
   4   2  12  213.73    8.59
   4  -2  12  211.13    8.35
   4   2  12  218.01    8.56
   4  -2  12  228.09    9.21
   4   2  12  195.08    8.14
   4  -2  12  228.56    8.98
   4   2  12  206.15    8.14
   4  -2  13  203.35    8.44
   4   2  13  222.49    8.06
   4   2  13  205.18    7.92
   4  -2  13  196.61    8.02
   4  -2  13  218.07    8.77
   4  -2  13  205.61    8.19
   4  -2  13  207.65    8.00
   4  -2  13  218.21    8.78
   4   2  13  198.18    7.54
   4  -2  13  210.28    8.65
   4  -2  13  184.06    7.95
   4   2  13  211.07    7.96
   4   2  13  205.81    8.12
   4  -2  13  196.25    7.69
   4   2  13  184.87    7.58
   4  -2  13  214.45    8.60
   4  -2  13  210.87    8.43
   4   2  13  191.94    7.59
   4  -2  14   62.26    3.61
   4   2  14   59.39    3.09
   4   2  14   67.83    3.35
   4  -2  14   57.83    2.84
   4  -2  14   61.40    3.34
   4  -2  14   65.42    3.78
   4   2  14   58.83    3.06
   4  -2  14   65.22    3.48
   4  -2  14   65.79    3.82
   4  -2  14   65.29    3.25
   4   2  14   61.25    2.90
   4  -2  14   63.67    3.73
   4   2  14   65.74    3.43
   4   2  14   52.11    2.71
   4  -2  14   62.18    3.60
   4  -2  14   64.28    3.56
   4   2  14   55.50    2.90
   4  -2  15   34.11    2.12
   4  -2  15   32.39    1.46
   4  -2  15   38.42    2.05
   4  -2  15   35.66    2.29
   4  -2  15   39.31    2.12
   4  -2  15   32.11    1.64
   4  -2  15   34.14    2.28
   4   2  15   38.27    1.96
   4   2  15   -0.04    0.28
   4   2  15    1.85    0.45
   4  -2  15   36.49    2.28
   4   2  15   38.82    2.07
  -4  -2 -15   31.40    1.93
  -4   2 -15   30.05    2.05
   4  -2  15   32.87    2.07
   4  -2  15   36.59    2.13
   4   2  16    6.20    0.82
   4  -2  16    6.18    0.86
   4  -2  16    6.28    0.87
   4   2  16    6.47    0.87
   4  -2  16    6.26    0.92
   4  -2  17   95.62    3.58
   4   2  17   92.29    3.43
   4   2  17   93.38    3.51
  -4  -3  16   12.66    0.95
  -4  -3  15    1.12    0.44
  -4   3  15    1.36    0.46
  -4  -3  15    1.89    0.61
  -4  -3  15    0.91    0.47
  -4   3  15    1.13    0.41
  -4  -3  14   28.33    2.16
  -4  -3  14   45.32    2.45
  -4   3  14   63.92    3.08
  -4  -3  14   47.03    2.39
  -4   3  14   48.04    2.45
  -4  -3  14   31.99    2.15
  -4   3  14   49.06    2.57
  -4   3  14   41.77    2.18
  -4   3  14   42.45    2.38
  -4  -3  13    6.21    1.06
  -4  -3  13    4.57    1.00
  -4  -3  13    6.98    1.05
  -4   3  13    7.46    1.32
   4   3 -13    5.66    1.04
  -4   3  13    7.03    1.05
  -4   3  13    6.25    1.18
  -4   3  13    7.80    1.17
  -4  -3  12   57.88    3.19
  -4  -3  12   49.52    3.33
  -4   3  12   97.75    4.39
  -4  -3  12   64.53    3.59
  -4  -3  12   56.92    3.35
  -4   3  12   85.48    3.70
  -4   3  12   61.92    3.56
   4   3 -11   35.90    2.30
  -4  -3  11   30.03    2.48
  -4   3  11   53.81    3.26
  -4  -3  11   39.67    2.81
   4   3 -11   37.74    2.62
   4   3 -11   38.17    2.36
  -4  -3  11   32.00    2.56
  -4  -3  11   35.69    2.86
  -4   3  11   46.44    2.74
  -4   3  11   34.72    2.64
  -4   3  10   26.10    2.24
   4   3 -10   28.77    2.11
  -4  -3  10   24.00    2.19
  -4   3  10   34.50    2.75
  -4  -3  10   27.60    2.41
   4   3 -10   30.57    2.35
   4   3 -10   28.94    2.12
  -4  -3  10   26.56    2.35
  -4   3  10   24.38    2.27
  -4   3   9  123.09    5.90
  -4  -3   9  135.46    5.97
  -4   3   9  156.71    6.72
  -4  -3   9  147.72    6.39
   4   3  -9  136.65    5.97
   4   3  -9  144.95    5.87
   4  -3  -9  127.61    5.48
  -4  -3   9  146.20    6.10
  -4   3   9  106.25    5.36
  -4   3   8  365.25   13.44
  -4  -3   8  368.89   13.26
  -4   3   8  402.16   13.95
  -4  -3   8  389.68   13.74
   4   3  -8  375.20   13.28
   4   3  -8  400.63   13.28
   4  -3  -8  352.25   12.90
  -4  -3   8  391.95   13.38
  -4   3   8  291.52   12.61
  -4   3   8  454.12   13.70
  -4  -3   7  171.39    6.92
  -4   3   7  124.89    6.83
  -4  -3   7  180.37    7.42
  -4   3   7  165.02    7.10
   4   3  -7  175.93    6.97
   4  -3  -7  171.91    6.86
   4   3  -7  185.89    7.03
   4   3  -7  171.51    6.81
  -4  -3   7  189.38    7.12
  -4   3   7  137.73    6.40
  -4   3   7  208.25    7.24
  -4   3   6  619.07   20.30
   4   3  -6  672.15   20.10
   4  -3  -6  657.12   26.01
   4   3  -6  638.64   19.94
  -4  -3   6  669.94   20.12
  -4   3   6  691.31   20.29
   4  -3  -5  868.64   27.52
  -4  -3   5  874.03   19.86
   4  -3  -4  172.24   10.65
  -4  -3   4  171.90    6.32
   4   3  -4  201.95   11.38
   4  -3  -4  192.90   11.74
  -4  -3   3   21.19    1.75
   4   3  -3   28.71    4.18
   4  -3  -3   29.04    4.27
   4  -3  -2   87.08    3.97
   4  -3  -2   78.51    6.69
   4   3  -2   88.07    6.96
   4  -3  -2   96.59    7.61
  -4   3   1  438.02   12.31
   4  -3  -1  420.06   11.10
   4  -3  -1  441.80   16.99
   4   3  -1  511.95   17.79
   4  -3  -1  518.28   18.27
  -4  -3   0  132.11    9.32
  -4   3   0  116.67    5.90
   4  -3   0  115.60    5.28
   4  -3   0  111.81    8.35
   4   3   0  148.96    9.31
   4  -3   0  133.15    8.97
  -4  -3  -1  143.10    9.84
  -4   3  -1  127.42    6.28
  -4   3  -1  135.92    6.58
   4  -3   1  128.78    5.82
   4  -3   1  137.68    9.34
   4   3   1  163.76    9.91
   4  -3   1  151.56    9.70
  -4  -3  -2   31.62    4.64
   4  -3   2   31.38    2.28
   4  -3   2   28.13    2.04
  -4   3  -2   29.30    2.56
  -4   3  -2   28.22    2.64
   4  -3   2   24.31    2.09
   4  -3   2   36.46    4.59
   4   3   2   30.84    4.25
   4  -3   2   29.42    4.15
  -4  -3  -3   69.86    6.72
   4  -3   3   66.63    3.59
   4  -3   3   72.18    3.55
  -4   3  -3   62.21    3.97
  -4   3  -3   60.64    4.09
   4  -3   3   68.04    3.73
   4  -3   3   65.60    6.33
   4  -3   3   64.25    6.28
   4  -3   4   54.75    5.74
   4  -3   4   46.54    2.96
   4  -3   4   48.20    2.88
   4  -3   4   48.92    2.74
   4  -3   4   47.64    3.04
   4  -3   4   54.78    5.63
  -4   3  -4   41.10    3.20
   4  -3   4   48.52    2.94
   4  -3   5   44.09    5.28
   4  -3   5   47.29    2.97
  -4   3  -5   35.35    3.04
   4  -3   5   41.27    2.60
   4  -3   5   42.83    2.76
   4  -3   5   44.01    2.92
   4  -3   5   45.30    5.10
   4  -3   5   45.49    2.87
   4  -3   6   26.79    4.22
   4   3   6   26.93    2.08
   4  -3   6   30.72    2.33
   4  -3   6   28.40    2.22
   4   3   6   28.18    2.07
   4  -3   6   23.20    2.25
   4  -3   6   28.10    2.11
   4   3   6   26.31    2.14
  -4   3  -6   24.74    2.51
   4  -3   6   25.40    2.20
   4  -3   6   26.55    2.29
   4   3   6   26.04    2.27
   4   3   6   27.94    2.10
   4   3   6   24.27    2.06
   4  -3   6   27.64    2.30
   4   3   7   13.85    1.53
   4  -3   7   16.63    3.50
   4   3   7   16.02    1.75
   4  -3   7   14.11    1.75
   4  -3   7   16.79    1.82
   4  -3   7   14.42    1.67
  -4   3  -7   16.69    2.21
   4  -3   7   13.83    1.57
   4   3   7   14.26    1.60
   4  -3   7   14.18    1.68
   4  -3   7   14.15    1.57
   4  -3   7   15.25    1.83
   4   3   7   12.46    1.43
   4   3   7   14.95    1.62
   4   3   7   15.23    1.64
   4  -3   7   14.18    1.70
   4  -3   8  695.29   23.11
  -4   3  -8  711.92   24.04
   4   3   8  711.82   22.69
   4  -3   8  653.45   22.41
   4  -3   8  666.63   22.77
   4  -3   8  717.26   23.15
   4  -3   8  636.10   22.32
   4   3   8  687.48   22.43
   4  -3   8  656.79   22.56
   4   3   8  730.46   22.88
   4  -3   8  660.99   22.61
   4   3   8  679.71   22.72
   4  -3   8  699.73   23.24
   4   3   8  698.10   22.41
   4   3   8  661.66   22.65
   4  -3   8  675.88   22.77
   4   3   8  658.86   22.55
   4  -3   9  357.41   13.12
   4   3   9  377.00   12.85
   4  -3   9  330.89   12.50
   4  -3   9  344.51   12.65
   4  -3   9  347.81   12.81
   4  -3   9  350.44   13.11
   4   3   9  354.40   12.45
  -4   3  -9  343.61   13.68
   4   3   9  372.23   12.76
   4  -3   9  339.46   12.59
   4  -3   9  347.59   12.72
   4   3   9  353.74   12.79
   4  -3   9  340.08   12.82
   4  -3   9  367.03   13.31
   4   3   9  356.71   12.39
   4   3   9  345.29   12.68
   4  -3   9  356.14   12.90
   4   3   9  346.34   12.58
   4  -3  10   80.47    4.41
   4   3  10   76.75    3.99
   4   3  10   78.38    4.00
   4  -3  10   71.60    3.88
   4  -3  10   72.06    3.94
   4  -3  10   81.39    4.48
   4   3  10   73.08    3.73
   4  -3  10   74.82    3.87
   4  -3  10   73.47    4.07
   4   3  10   81.79    4.16
   4  -3  10   73.40    4.07
   4  -3  10   79.09    4.41
   4   3  10   75.54    3.70
   4   3  10   72.51    3.96
   4  -3  10   79.90    4.23
   4   3  10   70.93    3.86
   4  -3  11   27.55    2.51
   4   3  11   31.28    2.32
   4   3  11   29.34    2.19
   4  -3  11   30.30    2.29
   4  -3  11   31.41    2.36
   4  -3  11   33.47    2.47
   4  -3  11   28.64    2.59
   4  -3  11   26.77    2.05
   4  -3  11   32.71    2.50
   4   3  11   33.03    2.40
   4  -3  11   30.53    2.38
   4   3  11   31.38    2.12
   4   3  11   28.56    1.99
   4  -3  11   32.63    2.63
   4   3  11   30.74    2.30
   4  -3  11   29.76    2.40
   4   3  11   32.12    2.28
   4  -3  12  116.91    5.57
   4   3  12  121.25    5.18
   4  -3  12  115.79    5.11
   4  -3  12  121.63    5.24
   4  -3  12  122.54    5.74
   4   3  12  112.22    4.72
   4  -3  12  113.45    5.27
   4  -3  12  114.51    5.19
   4   3  12  126.15    5.29
   4  -3  12  121.31    5.22
   4   3  12   97.60    4.44
   4   3  12  110.16    5.02
   4  -3  12  116.57    5.44
   4  -3  12  109.11    5.24
   4   3  12  112.29    5.00
   4  -3  13   38.36    2.73
   4   3  13   40.74    2.45
   4  -3  13   38.95    2.42
   4  -3  13   40.64    2.50
   4  -3  13   36.11    2.75
   4   3  13   37.89    2.08
   4  -3  13   35.83    2.48
   4   3  13   40.91    2.50
   4  -3  13   37.93    2.34
   4  -3  13   39.13    2.47
   4   3  13   35.47    2.30
   4  -3  13   36.49    2.51
   4  -3  13   38.35    2.55
   4   3  13   39.66    2.36
   4   3  14   -0.10    0.52
   4  -3  14    0.10    0.52
   4  -3  14    0.37    0.55
   4  -3  14    0.79    0.56
   4   3  14    0.42    0.34
   4  -3  14    0.15    0.65
   4  -3  14    0.41    0.62
   4   3  14    0.36    0.50
   4  -3  14   -0.08    0.25
   4   3  14   -0.04    0.45
   4  -3  14    0.35    0.61
   4   3  14    0.66    0.53
   4   3  15   17.69    1.30
   4  -3  15   17.21    1.34
   4  -3  15   18.21    1.26
   4   3  15   17.54    1.27
   4  -3  15   18.64    1.34
   4  -3  15   17.87    1.38
   4   3  15   16.84    1.18
   4   3  16   12.23    0.85
   4  -3  16   11.38    0.85
   4  -3  16   11.46    0.85
   4  -3  16   11.87    0.89
  -4  -4  14   22.74    1.44
  -4   4  14   25.61    1.44
  -4  -4  14   26.57    1.60
  -4  -4  13    6.69    0.79
  -4  -4  13    8.32    1.01
  -4  -4  13    5.30    0.81
  -4   4  13    9.34    0.99
  -4  -4  13    8.56    1.06
  -4  -4  13    5.88    0.91
  -4   4  13    7.46    0.96
   4   4 -12   21.70    1.39
  -4  -4  12   20.61    1.57
  -4  -4  12   16.74    1.53
  -4  -4  12   22.96    1.83
  -4   4  12   18.70    1.76
  -4  -4  12   23.96    1.91
  -4  -4  12   18.43    1.57
  -4   4  12   16.60    1.64
  -4   4  12   23.95    1.84
   4   4 -11   30.15    1.88
  -4  -4  11   24.50    1.96
  -4   4  11   27.21    2.40
  -4  -4  11   25.79    2.00
  -4  -4  11   30.28    2.31
  -4   4  11   25.23    2.08
   4   4 -10   67.46    3.28
  -4  -4  10   52.10    3.23
  -4   4  10   66.25    4.09
   4   4 -10   67.74    3.28
  -4   4  10   61.05    3.35
  -4  -4  10   61.32    3.39
  -4  -4  10   70.05    3.86
  -4   4  10   60.81    3.52
  -4   4  10   71.38    3.81
  -4   4   9  149.60    6.49
   4   4  -9  159.05    6.18
  -4   4   9  140.13    6.44
   4   4  -9  149.82    6.17
  -4   4   9  155.75    7.24
   4   4  -9  171.19    6.26
   4  -4  -9  139.16    5.75
  -4  -4   9  146.51    6.20
  -4  -4   9  154.73    6.28
  -4   4   9  120.77    5.81
  -4   4   8  239.78    8.91
   4   4  -8  232.65    8.42
  -4  -4   8  220.39    8.37
   4   4  -8  209.55    8.21
  -4   4   8  237.46    9.80
   4   4  -8  240.24    8.46
   4  -4  -8  206.94    8.08
  -4  -4   8  237.51    8.53
  -4   4   8  185.36    8.00
  -4   4   8  172.54    8.36
  -4   4   7  140.48    6.20
   4   4  -7  128.98    5.59
  -4   4   7  141.29    7.05
   4   4  -7  143.82    5.87
  -4  -4   7  149.51    5.96
  -4   4   7  114.21    5.44
  -4   4   7  106.99    5.84
   4   4  -7  147.43    5.93
  -4   4   6   41.80    2.91
   4   4  -6   35.65    2.46
   4   4  -6   34.14    2.31
  -4   4   6   38.22    3.40
   4   4  -6   40.67    2.60
   4   4  -6   40.22    2.64
  -4  -4   6   40.67    2.66
  -4   4   6   33.18    2.32
  -4   4   5   89.13    4.47
   4  -4  -5   78.25    3.81
   4   4  -5   83.64    4.02
   4   4  -5   94.68    4.26
  -4  -4   5   81.94    3.97
  -4   4   5   69.55    3.65
  -4   4   5   76.14    3.95
  -4   4   4   75.06    4.53
   4  -4  -4   74.99    3.77
  -4   4   4   90.71    5.30
   4  -4  -4   91.07    4.51
   4   4  -4   89.81    4.11
  -4  -4   4   80.05    3.86
  -4   4   4   68.43    3.56
  -4   4   4   78.73    3.94
  -4   4   3  193.52    8.85
   4  -4  -3  190.36    7.83
   4  -4  -3  186.92    7.81
  -4   4   3  229.35    9.76
   4   4  -3  213.81    7.98
   4  -4  -3  232.61    8.70
   4   4  -3  224.81    8.20
  -4  -4   3  207.71    7.77
  -4   4   3  183.66    7.57
  -4   4   3  205.18    8.04
   4   4  -2   18.72    1.76
   4   4  -2   15.80    1.47
  -4   4   2   16.77    2.14
  -4   4   2   18.16    2.41
   4   4  -2   15.10    1.53
   4  -4  -2   19.68    1.97
   4   4  -2   19.02    1.76
  -4   4   2   14.05    1.57
   4   4  -1   43.63    2.71
   4   4  -1   36.06    2.37
   4  -4  -1   38.10    2.55
  -4   4   1   44.04    3.64
   4   4  -1   39.91    2.50
   4  -4  -1   44.16    2.96
   4   4  -1   43.50    2.74
   4  -4  -1   39.23    5.31
  -4   4   1   41.19    2.70
  -4  -4   0   23.72    4.39
   4   4   0   29.65    2.16
   4   4   0   28.64    2.08
   4  -4   0   34.87    2.56
   4   4   0   30.49    2.23
  -4   4   0   27.51    2.71
   4  -4   0   27.65    2.17
  -4   4   0   30.12    3.04
   4   4   0   24.48    1.92
   4  -4   0   28.35    2.36
   4   4   0   30.78    2.25
   4   4   0   28.00    2.18
  -4   4   0   28.94    2.24
   4  -4   0   29.22    4.55
   4  -4   1    6.13    2.40
  -4   4  -1    9.68    1.26
   4   4   1    9.69    1.21
   4  -4   1   10.66    1.50
   4   4   1    9.14    1.22
  -4   4  -1    7.29    1.57
   4   4   1   10.99    1.32
  -4   4  -1    9.41    1.83
   4   4   1    9.32    1.12
   4  -4   1   10.54    1.51
   4   4   1   10.28    1.32
   4   4   1    8.38    1.14
   4   4   1    9.68    1.29
   4   4   2  141.85    5.77
   4  -4   2  147.97    6.17
  -4   4  -2  125.56    5.68
   4   4   2  147.74    5.87
   4  -4   2  143.07    6.27
   4   4   2  144.24    5.83
  -4   4  -2  147.70    7.42
   4  -4   2  134.90    5.85
   4   4   2  123.62    5.39
  -4   4  -2  124.49    6.68
   4  -4   2  142.95    6.19
   4   4   2  153.21    6.04
   4   4   2  124.60    5.67
   4   4   2  137.47    5.92
   4   4   3   73.52    3.62
   4  -4   3   76.69    3.95
  -4   4  -3   70.05    3.63
   4   4   3   72.82    3.70
   4  -4   3   79.26    4.19
  -4   4  -3   66.42    4.57
  -4   4  -3   70.47    4.88
   4  -4   3   72.70    3.87
   4  -4   3   75.70    4.04
   4   4   3   79.16    3.86
   4   4   3   65.80    3.63
   4   4   3   67.79    3.74
   4  -4   3   78.97    4.13
   4   4   4   46.13    2.65
   4  -4   4   44.85    3.03
   4  -4   4   45.67    2.95
   4  -4   4   41.72    2.74
   4   4   4   47.79    2.83
   4  -4   4   52.12    3.28
  -4   4  -4   38.72    3.42
   4  -4   4   45.27    2.84
   4  -4   4   47.24    3.01
   4  -4   4   45.54    3.03
   4   4   4   50.09    2.89
   4   4   4   43.93    2.80
  -4   4  -4   44.93    3.76
   4   4   4   43.81    2.83
   4  -4   4   49.13    3.18
   4   4   5   92.54    4.64
   4  -4   5   92.54    4.60
   4   4   5  101.34    4.59
  -4   4  -5  103.68    5.90
   4  -4   5   97.83    4.82
   4  -4   5   97.25    4.97
  -4   4  -5   84.95    5.39
   4  -4   5   94.30    4.60
   4  -4   5  107.83    5.14
   4  -4   5   97.53    4.84
   4  -4   5   99.02    4.89
   4   4   5   98.47    4.53
   4   4   5   89.57    4.55
   4   4   5   96.57    4.67
   4  -4   5   98.47    4.91
   4  -4   6   93.33    4.59
   4  -4   6   74.86    3.95
   4   4   6   83.63    4.29
   4  -4   6   87.69    4.37
  -4   4  -6   92.60    5.52
   4  -4   6   84.61    4.29
   4  -4   6   85.63    4.47
   4  -4   6   87.15    4.50
   4   4   6   91.79    4.19
   4  -4   6   83.28    4.52
   4   4   6   78.43    4.18
   4  -4   6   86.76    4.66
   4   4   6   86.21    4.36
   4  -4   6   86.56    4.58
   4  -4   7   12.92    1.47
  -4   4  -7   16.39    2.28
   4  -4   7   15.70    1.87
   4  -4   7   13.65    1.64
   4   4   7   15.86    1.68
   4  -4   7   16.09    1.72
   4  -4   7   14.72    1.75
   4  -4   7   16.38    1.91
   4  -4   7   15.89    1.94
   4  -4   7   18.37    1.90
   4   4   7   15.99    1.52
   4   4   7   15.53    1.64
   4  -4   7   16.56    1.88
   4  -4   8   13.71    1.72
   4  -4   8   11.56    1.36
   4  -4   8   13.05    1.58
   4  -4   8   15.85    1.78
   4   4   8   13.23    1.57
   4   4   8   14.06    1.44
   4  -4   8   14.91    1.61
   4  -4   8   14.21    1.81
   4  -4   8   14.32    1.67
   4  -4   8   12.09    1.68
   4  -4   8   12.61    1.57
   4  -4   8   12.01    1.58
   4  -4   8   14.70    1.72
   4   4   8   11.64    1.28
  -4   4  -8   15.32    2.20
   4  -4   9  116.68    5.66
   4   4   9  120.92    5.38
   4  -4   9  128.36    5.88
   4  -4   9  121.89    5.48
   4  -4   9  125.65    5.75
   4   4   9  117.83    5.07
  -4   4  -9  120.14    6.37
   4  -4   9  113.55    5.06
   4  -4   9  127.81    5.87
   4  -4   9  123.42    5.43
   4  -4   9  115.13    5.37
   4   4   9  112.71    4.82
   4  -4   9  125.71    5.60
   4   4   9  119.46    5.36
   4  -4  10  309.06   11.38
   4   4  10  314.28   11.02
   4  -4  10  289.51   10.57
   4  -4  10  316.71   11.48
  -4   4 -10  287.12   11.79
   4  -4  10  305.97   11.04
   4  -4  10  304.11   11.39
   4   4  10  295.27   10.51
   4  -4  10  315.16   11.49
   4  -4  10  292.83   10.78
   4  -4  10  299.52   11.01
   4   4  10  293.87   10.91
   4   4  10  302.20   10.91
   4  -4  11   71.79    3.82
   4   4  11   68.39    3.43
   4  -4  11   61.03    3.15
   4  -4  11   64.28    3.69
   4  -4  11   68.62    3.51
   4  -4  11   67.20    3.75
   4   4  11   63.57    3.04
   4  -4  11   62.59    3.19
   4  -4  11   67.11    3.74
   4  -4  11   65.66    3.50
   4  -4  11   66.12    3.48
   4   4  11   68.09    3.45
   4   4  11   67.54    3.41
   4  -4  12   83.70    4.15
   4   4  12   91.01    3.91
   4  -4  12   82.92    3.65
   4  -4  12   86.51    4.22
   4  -4  12   79.54    3.56
   4  -4  12   87.32    4.26
   4   4  12   82.42    3.43
   4  -4  12   85.97    4.20
   4  -4  12   76.09    3.85
   4  -4  12   87.43    3.89
   4   4  12   83.89    3.86
   4   4  12   88.74    3.88
   4  -4  13   10.70    1.20
   4  -4  13    8.38    0.82
   4  -4  13    9.61    0.91
   4  -4  13   11.62    1.25
   4  -4  13   10.35    1.06
   4  -4  13    9.40    1.13
   4  -4  13    9.72    0.99
   4   4  13   10.70    1.03
   4  -4  13    9.15    0.87
   4   4  13   13.02    1.12
   4  -4  14    1.77    0.39
   4  -4  14    2.17    0.51
   4   4  14    1.34    0.44
  -4  -5  12   41.63    1.97
  -4  -5  12   48.58    2.19
  -4   5  12   48.21    2.03
  -4  -5  12   42.95    2.01
  -4  -5  11   13.36    1.14
  -4  -5  11   13.59    1.22
   4  -5 -11   12.52    1.11
  -4   5  11   14.49    1.09
  -4  -5  11   15.07    1.18
  -4  -5  11   11.32    1.08
  -4  -5  10    3.77    0.83
   4   5 -10    4.09    0.70
  -4   5  10    2.11    0.77
   4  -5 -10    2.40    0.65
  -4   5  10    4.37    0.70
  -4  -5  10    2.74    0.69
  -4  -5  10    3.29    0.79
  -4   5   9    8.04    1.16
   4   5  -9    6.18    0.91
  -4   5   9    6.78    1.23
   4  -5  -9    7.06    1.04
  -4   5   9    7.75    0.95
  -4  -5   9    6.90    1.00
  -4  -5   9    6.69    1.06
  -4   5   9    7.32    1.12
  -4   5   8   60.74    3.27
   4   5  -8   60.97    2.99
  -4   5   8   52.21    3.61
   4  -5  -8   56.47    3.11
   4  -5  -8   51.99    2.66
  -4   5   8   53.61    2.81
  -4  -5   8   52.74    2.90
  -4  -5   8   56.51    3.06
  -4   5   8   51.66    2.85
  -4   5   8   62.23    3.28
  -4   5   7   21.87    1.94
   4   5  -7   23.63    1.78
  -4   5   7   17.44    1.82
  -4   5   7   24.20    2.48
   4  -5  -7   21.75    1.92
  -4   5   7   20.73    1.60
  -4  -5   7   20.51    1.74
  -4  -5   7   19.79    1.76
  -4   5   7   18.71    1.66
  -4   5   6    5.23    1.14
  -4   5   6    3.61    1.01
  -4   5   6    6.65    1.56
   4  -5  -6    5.26    1.11
  -4   5   6    3.55    0.74
  -4   5   6    3.58    0.88
  -4  -5   6    5.81    1.13
  -4   5   5   16.57    1.81
  -4   5   5   14.40    1.84
  -4   5   5   15.23    2.25
   4   5  -5   17.15    1.62
   4  -5  -5   18.31    1.83
   4   5  -5   17.66    1.60
   4   5  -5   18.11    1.72
  -4  -5   5   13.44    1.54
  -4   5   5   15.79    1.54
   4   5  -4   21.44    1.78
  -4   5   4   22.21    2.08
   4  -5  -4   21.77    2.01
  -4   5   4   17.05    2.09
   4   5  -4   26.43    2.03
  -4  -5   4   23.20    1.84
  -4   5   4   19.07    1.71
  -4   5   4   21.14    1.90
   4  -5  -3  108.87    4.90
  -4   5   3  101.18    5.23
  -4   5   3   87.22    5.10
   4  -5  -3   88.51    4.28
   4   5  -3   96.88    4.37
   4  -5  -3   80.56    4.05
  -4   5   3  109.76    6.14
   4  -5  -3  105.65    4.83
  -4   5   3   91.27    4.31
  -4   5   3   92.08    4.56
   4   5  -2   25.21    1.88
  -4   5   2   22.72    2.46
   4   5  -2   26.80    1.94
   4  -5  -2   29.15    2.29
   4  -5  -2   22.47    1.82
  -4   5   2   27.05    2.95
   4  -5  -2   28.50    2.27
   4   5  -2   27.14    2.09
  -4   5   2   24.45    1.95
  -4   5   2   28.28    2.24
   4   5  -1  101.05    4.43
  -4   5   1   97.11    5.45
   4  -5  -1  103.03    4.83
  -4   5   1   83.68    5.18
   4   5  -1   92.80    4.22
  -4   5   1   86.10    4.09
  -4   5   1  113.28    6.31
   4  -5  -1  101.33    4.76
   4   5  -1  102.96    4.65
  -4   5   1   91.11    4.33
  -4   5   1   95.27    4.71
   4  -5   0   54.74    3.27
   4   5   0   45.87    2.60
   4  -5   0   54.78    3.23
   4   5   0   53.41    2.93
  -4   5   0   52.84    3.86
   4  -5   0   47.47    2.88
  -4   5   0   46.02    2.66
  -4   5   0   52.98    4.22
   4  -5   0   46.99    3.02
   4   5   0   52.82    3.02
  -4   5   0   50.44    2.86
  -4   5   0   52.89    3.14
   4  -5   1  385.81   13.28
   4  -5   1  384.42   13.14
   4   5   1  370.83   12.69
  -4   5  -1  383.11   14.40
   4  -5   1  395.52   13.25
   4  -5   1  365.42   12.85
  -4   5  -1  349.48   12.35
  -4   5  -1  362.75   14.76
   4  -5   1  352.57   12.87
   4   5   1  394.88   12.88
  -4   5  -1  353.05   12.51
  -4   5  -1  367.91   12.98
   4  -5   2    7.76    1.30
   4  -5   2    7.11    1.31
   4  -5   2    8.17    1.33
   4   5   2    9.32    1.23
  -4   5  -2    8.57    1.81
  -4   5  -2    6.78    1.69
   4  -5   2    8.06    1.30
  -4   5  -2    6.93    1.02
   4  -5   2    7.65    1.29
  -4   5  -2    9.15    1.97
   4   5   2    8.61    1.17
   4  -5   2    8.10    1.25
  -4   5  -2    5.98    1.02
   4   5   2    8.53    1.20
  -4   5  -2    8.41    1.31
   4  -5   3   57.40    3.40
   4  -5   3   54.61    3.23
  -4   5  -3   47.12    2.94
   4   5   3   56.74    3.05
   4  -5   3   56.27    3.32
  -4   5  -3   45.33    3.78
   4  -5   3   55.06    3.14
   4  -5   3   52.97    3.23
  -4   5  -3   48.60    2.76
  -4   5  -3   52.77    4.20
   4  -5   3   48.25    2.90
   4  -5   3   50.03    3.05
   4   5   3   58.23    3.03
   4   5   3   46.35    2.78
  -4   5  -3   47.72    2.79
   4   5   3   54.77    3.08
   4  -5   3   57.40    3.37
   4  -5   4   29.80    2.40
  -4   5  -4   23.33    1.95
   4   5   4   29.73    2.10
   4  -5   4   30.09    2.37
   4  -5   4   27.10    2.15
   4  -5   4   31.15    2.39
  -4   5  -4   26.93    1.94
   4  -5   4   28.52    2.16
  -4   5  -4   32.04    3.16
   4  -5   4   32.73    2.39
   4   5   4   27.68    1.98
   4   5   4   25.53    1.98
   4   5   4   27.46    2.13
   4  -5   4   31.79    2.43
   4  -5   5   75.27    4.06
   4  -5   5   87.67    4.10
  -4   5  -5   84.97    4.09
   4   5   5   91.48    4.22
  -4   5  -5   90.78    5.48
   4  -5   5   96.19    4.66
   4  -5   5   91.87    4.38
   4  -5   5   94.63    4.58
   4  -5   5   94.40    4.64
   4  -5   5   93.97    4.53
  -4   5  -5   94.45    4.14
   4  -5   5   93.57    4.43
  -4   5  -5   88.17    5.39
   4   5   5   86.47    3.97
   4   5   5   87.43    4.18
   4   5   5   91.38    4.31
   4  -5   5   98.01    4.68
   4  -5   6   10.74    1.35
   4  -5   6   13.55    1.63
   4  -5   6   16.49    1.75
   4  -5   6   14.80    1.45
  -4   5  -6   13.42    1.32
   4  -5   6   15.28    1.72
   4  -5   6   14.68    1.57
   4  -5   6   17.25    1.75
   4  -5   6   16.12    1.66
  -4   5  -6   16.63    2.27
   4   5   6   15.26    1.32
   4   5   6   14.62    1.48
   4   5   6   17.51    1.65
   4  -5   6   15.96    1.73
   4  -5   7    6.48    1.07
   4  -5   7   11.05    1.27
   4  -5   7   11.49    1.46
   4   5   7    9.88    1.15
  -4   5  -7    9.20    1.71
   4  -5   7    8.17    1.24
   4  -5   7    8.57    1.22
   4  -5   7    8.05    1.25
   4  -5   7    9.16    1.29
   4   5   7    9.52    0.97
   4   5   7   11.10    1.29
   4   5   7   10.43    1.25
   4  -5   8   23.68    1.88
   4  -5   8   35.84    2.21
   4   5   8   32.07    2.00
  -4   5  -8   34.56    2.92
   4  -5   8   32.02    2.11
   4  -5   8   31.38    2.32
   4  -5   8   33.66    2.28
   4  -5   8   32.49    2.22
   4  -5   8   36.86    2.37
   4  -5   8   32.82    2.37
   4   5   8   32.60    2.15
   4   5   8   31.73    2.17
   4  -5   9   10.51    1.33
   4  -5   9   11.79    1.24
   4  -5   9    9.98    1.08
   4   5   9   11.79    1.10
  -4   5  -9   12.89    1.71
   4  -5   9   11.87    1.36
   4  -5   9   11.85    1.29
   4  -5   9   12.27    1.34
   4  -5   9   11.53    1.32
   4   5   9    9.66    1.18
   4   5   9   12.31    1.27
   4   5  10    6.76    0.76
   4  -5  10    5.58    0.87
   4  -5  10    6.54    0.91
   4  -5  10    5.32    0.93
   4  -5  10    5.56    0.88
   4  -5  10    5.89    0.94
   4  -5  10    5.43    0.92
   4   5  10    5.70    0.90
   4   5  10    5.77    0.91
   4   5  11    0.88    0.33
   4  -5  11    0.44    0.38
   4  -5  11    0.51    0.47
   4  -5  12   44.73    1.98
   4  -5  12   42.39    1.95
  -4  -6   9   30.66    1.55
  -4   6   9   29.32    1.42
  -4  -6   8    8.79    0.81
  -4   6   8    7.97    0.78
  -4  -6   7   20.66    1.39
   4  -6  -7   20.67    1.21
  -4   6   7   21.51    1.39
  -4   6   7   25.41    1.52
  -4   6   6   43.73    2.99
   4  -6  -6   43.66    2.29
   4  -6  -6   47.82    2.24
  -4   6   6   47.11    2.35
   4  -6  -5   14.82    1.31
   4  -6  -5   15.95    1.27
  -4   6   5   12.79    1.35
  -4   6   5   17.32    1.93
   4  -6  -5   15.27    1.25
  -4   6   5   16.62    1.32
  -4   6   5   18.40    1.37
  -4   6   4  103.66    4.29
   4  -6  -4  104.81    4.17
   4  -6  -4   91.15    3.88
  -4   6   4   73.54    4.16
  -4   6   4   90.83    4.95
   4  -6  -4   86.66    3.83
  -4   6   4   89.43    3.87
  -4   6   3   21.54    1.70
   4  -6  -3   18.45    1.54
   4  -6  -3   16.84    1.43
  -4   6   3   15.65    1.72
  -4   6   3   15.73    1.22
  -4   6   3   18.12    1.45
  -4   6   2   89.36    3.20
   4  -6  -2   88.25    3.04
   4  -6  -2   86.12    2.96
   4  -6  -2   77.70    2.49
   4  -6  -2   81.47    2.77
  -4   6   2   71.86    3.43
  -4   6   2   77.41    2.32
  -4   6   2   87.44    4.33
  -4   6   2   81.90    2.68
  -4   6   2   81.65    2.92
   4  -6  -1   33.76    2.18
   4  -6  -1   35.06    2.18
  -4   6   1   29.41    2.39
   4  -6  -1   30.11    2.02
  -4   6   1   27.80    2.49
  -4   6   1   30.22    1.81
  -4   6   1   31.37    2.92
   4   6  -1   35.95    2.07
  -4   6   1   31.75    1.98
  -4   6   1   32.93    2.15
   4  -6  -1   33.28    2.04
   4  -6  -1   32.97    2.17
   4  -6   0   49.08    2.70
   4  -6   0   47.84    2.64
  -4   6   0   46.48    3.14
   4  -6   0   44.83    2.55
   4  -6   0   45.38    2.56
   4  -6   0   35.89    2.12
  -4   6   0   45.86    2.31
  -4   6   0   46.41    3.57
   4   6   0   46.38    2.43
  -4   6   0   44.88    2.42
  -4   6   0   46.40    2.64
   4  -6   0   48.52    2.73
   4  -6   1   10.11    1.24
   4   6   1    8.85    1.03
   4  -6   1    8.02    1.12
   4  -6   1    7.51    1.05
   4  -6   1    8.83    1.17
   4  -6   1    8.14    1.09
   4  -6   1    9.12    1.00
  -4   6  -1    7.71    0.92
  -4   6  -1    8.64    1.63
  -4   6  -1   10.04    1.51
   4   6   1    7.19    0.93
  -4   6  -1    8.74    1.01
  -4   6  -1    9.84    1.18
   4  -6   1    9.21    1.16
   4  -6   2    2.33    0.72
   4  -6   2    2.81    0.78
   4   6   2    3.72    0.77
  -4   6  -2    3.16    1.04
   4  -6   2    2.58    0.83
   4  -6   2    3.01    0.69
   4  -6   2    2.44    0.72
  -4   6  -2    2.40    0.59
   4  -6   2    3.82    0.75
  -4   6  -2    3.73    1.21
   4   6   2    3.90    0.67
  -4   6  -2    3.53    0.70
  -4   6  -2    4.05    0.86
   4   6   3   56.87    2.73
   4  -6   3   57.49    2.94
   4  -6   3   52.08    2.79
   4  -6   3   49.26    2.72
   4  -6   3   54.33    2.76
  -4   6  -3   50.81    2.51
   4  -6   3   55.20    2.93
   4   6   3   48.02    2.40
  -4   6  -3   55.99    3.58
  -4   6  -3   49.23    2.53
  -4   6  -3   54.64    2.86
   4  -6   3   57.64    2.97
   4  -6   4    2.72    0.66
   4  -6   4    4.43    0.83
   4   6   4    4.93    0.80
  -4   6  -4    4.43    1.11
   4  -6   4    5.29    0.87
   4  -6   4    3.63    0.76
  -4   6  -4    4.11    0.67
   4  -6   4    4.98    0.82
   4  -6   4    4.58    0.86
  -4   6  -4    4.56    0.68
  -4   6  -4    4.04    0.82
   4  -6   5   17.04    1.44
   4  -6   5   26.49    1.82
   4  -6   5   30.29    1.89
   4  -6   5   22.31    1.66
   4  -6   5   22.41    1.64
   4  -6   5   27.90    1.78
  -4   6  -5   26.41    1.55
   4  -6   5   23.00    1.48
  -4   6  -5   23.13    1.43
  -4   6  -5   28.82    1.83
   4  -6   5   25.21    1.80
   4  -6   6   16.19    1.41
   4  -6   6   15.65    1.36
   4   6   6   17.40    1.23
  -4   6  -6   16.51    1.79
   4  -6   6   18.65    1.42
   4  -6   6   13.87    1.27
   4  -6   6   18.83    1.41
  -4   6  -6   16.51    1.18
   4  -6   6   16.65    1.22
  -4   6  -6   16.56    1.35
   4  -6   7   12.99    1.21
   4  -6   7   14.92    1.29
   4   6   7   14.27    1.04
  -4   6  -7   16.94    1.68
   4  -6   7   14.05    1.13
   4  -6   7   14.45    1.20
  -4   6  -7   13.33    1.00
   4  -6   7   15.33    1.12
  -4   6  -7   14.46    1.17
   4   6   8    1.09    0.36
   4  -6   8    1.45    0.42
  -4   6  -8    0.83    0.33
   4  -6   8    1.00    0.38
  -4   6  -8    0.89    0.40
   4  -6   9  104.84    3.40
   4  -6   9   95.37    3.31
   4  -7  -3    9.28    0.61
   4  -7  -2   10.37    0.72
   4  -7   1    2.39    0.35
   4  -7   2    2.59    0.39
   4  -7   3   44.38    1.70
  -4   7  -3   36.34    1.66
  -5   0  17    2.22    0.41
  -5   0  16    8.08    0.98
  -5   0  16    7.44    0.88
   5   0 -16    6.80    0.64
  -5   0  15   55.28    3.03
  -5   0  15   44.75    2.56
  -5   0  15   50.40    2.78
   5   0 -15   53.13    2.54
   5   0 -15   51.51    3.08
  -5   0  15   50.26    2.49
   5   0 -14    5.92    1.26
  -5   0  14    4.82    1.03
  -5   0  14    3.87    0.93
  -5   0  14    4.63    1.15
   5   0 -14    6.35    1.00
  -5   0  13   79.43    3.90
  -5   0  13   67.97    4.24
  -5   0  13   70.22    4.03
   5   0 -13   75.58    3.84
   5   0 -13   70.96    4.50
  -5   0  13   82.01    3.76
  -5   0  12  192.22    7.19
  -5   0  12  156.81    7.53
  -5   0  12  150.97    7.18
   5   0 -12  157.65    6.87
   5   0 -12  151.54    7.74
  -5   0  12  187.91    6.92
  -5   0  11   94.78    4.43
  -5   0  11   73.55    4.68
  -5   0  11   65.25    4.29
   5   0 -11   80.61    4.24
   5   0 -11   76.58    4.99
  -5   0  11   97.26    4.33
   5   0 -10    2.91    1.41
  -5   0  10    2.66    0.95
  -5   0  10    3.53    1.07
  -5   0  10    1.67    1.00
   5   0 -10    3.63    0.98
   5   0 -10    3.63    0.89
  -5   0  10    3.98    1.16
  -5   0   9  161.28    7.60
  -5   0   9  168.62    7.88
   5   0  -9  177.62    7.35
   5   0  -9  164.28    7.06
   5   0  -9  165.42    8.22
   5   0  -8   11.98    1.93
   5   0  -8   14.43    3.65
  -5   0   8   13.57    1.74
  -5   0   8   13.17    1.75
   5   0  -8   12.74    1.53
   5   0  -8   11.73    3.87
   5   0  -8   13.35    1.43
  -5   0   8   15.18    1.67
   5   0  -7  121.83    9.26
   5   0  -7  117.62    9.99
  -5   0   7  142.05    5.69
   5   0  -7  122.24    6.48
   5   0  -6   47.44    5.25
   5   0  -6   54.85    6.37
  -5   0   6   54.85    2.92
   5   0  -6   48.54    3.52
  -5   0   5   62.07    6.21
   5   0  -5   71.98    6.08
   5   0  -5   67.13    6.93
  -5   0   5   66.64    3.29
   5   0  -5   69.71    4.22
  -5   0   4   31.81    4.29
   5   0  -4   34.53    4.02
   5   0  -4   32.59    4.77
  -5   0   4   26.91    1.85
   5   0  -4   31.18    2.58
  -5   0   3  845.65   33.10
   5   0  -3  911.76   32.04
   5   0  -3  901.22   34.62
   5   0  -3  861.34   28.86
  -5   0   2  659.75   27.32
   5   0  -2  723.73   25.92
   5   0  -2  733.35   28.79
   5   0  -2  673.70   23.11
  -5   0   1    3.50    1.67
   5   0  -1    4.42    0.91
   5   0  -1    1.78    1.52
   5   0  -1    2.72    1.24
   5   0   0  281.84   10.80
   5   0   0  292.15   12.51
   5   0   0  309.91   15.87
  -5   0  -1    4.45    2.04
   5   0   1    2.77    0.90
   5   0   1    3.56    1.96
   5   0   2    0.69    0.69
   5   0   2    0.92    1.41
  -5   0  -2    0.86    1.36
   5   0   2    1.71    0.59
  -5   0  -3    0.58    1.37
   5   0   3   -0.32    1.11
   5   0   3   -0.08    0.61
   5   0   3    0.44    0.49
   5   0   4   77.71    7.62
  -5   0  -4   93.19    7.70
   5   0   4   82.22    4.47
   5   0   4   85.03    4.35
   5   0   4   77.63    4.00
  -5   0  -5    4.18    2.02
   5   0   5    5.71    2.45
   5   0   5    4.75    1.10
   5   0   5    4.53    1.02
  -5   0  -6  334.30   16.18
   5   0   6  317.22   11.66
   5   0   6  295.57   16.96
   5   0   6  280.19   11.16
  -5   0  -7  304.35   16.42
   5   0   7  324.02   18.61
   5   0   7  350.39   13.02
   5   0   7  338.13   12.77
   5   0   7  344.94   12.73
   5   0   8  251.77    9.48
   5   0   8  241.53    9.62
   5   0   8  240.84    9.42
   5   0   8  221.77   15.23
  -5   0  -8  245.00   15.96
   5   0   8  243.36    9.45
   5   0   8  251.04   10.11
   5   0   8  251.65    9.41
   5   0   8  246.07   10.02
   5   0   9  267.68   10.12
   5   0   9  263.69   10.27
   5   0   9  266.23   10.05
   5   0   9  262.91   10.08
   5   0   9  263.26    9.90
   5   0   9  252.58   10.60
   5   0  10  122.19    5.54
   5   0  10  102.16    5.31
   5   0  10  122.18    5.71
   5   0  10  124.82    5.50
   5   0  10  113.31    5.41
   5   0  10  114.26    5.20
   5   0  10  119.48    6.07
   5   0  10  118.63    5.83
   5   0  11   54.28    3.31
   5   0  11   52.38    3.10
   5   0  11   49.55    3.14
   5   0  11   43.00    3.07
   5   0  11   48.04    3.58
   5   0  11   53.50    3.50
   5   0  12   57.82    2.98
   5   0  12   57.57    3.40
   5   0  12   48.99    3.27
   5   0  12   53.97    3.15
   5   0  12   59.76    3.40
   5   0  12   62.74    3.98
   5   0  12   60.98    3.70
   5   0  13    8.00    1.01
   5   0  13    9.23    1.40
   5   0  13    8.64    1.28
   5   0  13    9.12    1.11
   5   0  13    8.65    1.23
   5   0  13   10.56    1.51
   5   0  14    0.98    0.49
   5   0  14    1.21    0.68
   5   0  14    1.52    0.62
   5   0  14    0.75    0.60
   5   0  14    0.14    0.74
   5   0  15    4.07    0.63
   5   0  15    5.30    0.86
   5   0  15    4.94    0.73
   5   0  15    4.72    0.88
   5   0  15    5.07    0.78
   5   0  15    5.45    0.95
   5   0  16   52.35    2.33
   5   0  16   56.76    2.44
   5   0  16   48.90    2.00
   5   0  16   50.96    2.19
  -5  -1  16   45.05    2.25
  -5   1  16   46.56    2.31
  -5  -1  16   50.48    2.32
  -5   1  15   13.32    1.37
  -5   1  15   15.17    1.38
  -5   1  15   13.01    1.18
  -5  -1  15   16.00    1.44
  -5  -1  15   13.31    1.35
   5   1 -15   14.21    1.21
  -5   1  15   15.51    1.24
   5   1 -15   12.63    1.39
   5  -1 -15   14.32    1.47
  -5   1  14   19.69    1.87
  -5  -1  14   16.86    1.71
  -5   1  14   17.25    1.82
  -5  -1  14   11.56    1.36
  -5   1  14   20.64    1.76
  -5   1  14   15.20    1.46
  -5  -1  14   17.95    1.74
   5   1 -14   18.56    1.58
   5  -1 -14   19.90    1.47
  -5  -1  14   15.62    1.38
   5   1 -14   16.59    1.83
   5  -1 -14   15.82    1.77
  -5   1  13  102.87    4.59
  -5  -1  13   56.90    3.52
  -5  -1  13   78.62    4.28
  -5   1  13   79.11    4.34
  -5   1  13  107.71    4.36
  -5   1  13   70.36    3.81
  -5  -1  13   82.07    4.31
   5   1 -13   73.07    3.82
   5  -1 -13   81.40    3.77
  -5  -1  13   66.52    3.69
  -5  -1  13   74.53    3.69
   5   1 -13   74.36    4.40
   5  -1 -13   72.17    4.34
  -5  -1  12   52.65    3.43
  -5   1  12  100.68    4.30
  -5  -1  12   67.25    4.18
  -5   1  12   65.21    4.16
  -5   1  12   59.66    3.68
  -5  -1  12   69.62    4.18
  -5   1  12   91.59    4.47
   5   1 -12   69.61    3.82
   5  -1 -12   74.75    3.75
  -5  -1  12   58.66    3.66
  -5  -1  12   80.28    3.83
   5   1 -12   65.78    4.31
   5  -1 -12   69.62    4.42
  -5   1  12   81.85    3.74
  -5   1  11  313.18   10.21
  -5  -1  11  179.48    8.58
  -5   1  11  314.61    9.61
  -5  -1  11  216.19    9.53
  -5   1  11  222.33    9.64
  -5   1  11  202.52    8.95
  -5  -1  11  211.36    9.37
   5   1 -11  216.26    8.94
   5  -1 -11  236.80    8.97
   5   1 -11  222.81    8.61
   5   1 -11  211.42    9.74
   5  -1 -11  218.29    9.85
  -5  -1  11  265.46    9.17
  -5   1  11  263.15    8.96
  -5   1  10   52.45    3.01
  -5  -1  10   34.75    2.97
  -5   1  10   38.08    3.13
  -5   1  10   33.33    2.70
  -5  -1  10   37.57    3.04
   5   1 -10   37.84    2.72
   5  -1 -10   38.52    2.67
   5   1 -10   37.16    2.46
   5  -1 -10   33.77    2.38
   5   1 -10   37.69    3.28
   5  -1 -10   39.90    3.40
  -5  -1  10   48.24    2.93
  -5   1  10   45.07    2.75
  -5   1   9  300.72   12.94
  -5  -1   9  340.41   13.55
  -5   1   9  331.64   13.53
  -5  -1   9  344.09   13.59
  -5   1   9  414.48   13.23
   5  -1  -9  365.91   13.05
   5   1  -9  368.01   12.82
   5  -1  -9  331.65   12.54
  -5  -1   9  445.21   13.41
   5   1  -9  349.31   14.04
   5  -1  -9  348.09   14.07
  -5   1   9  434.95   13.14
  -5   1   8   18.80    1.91
  -5  -1   8   20.70    2.09
  -5   1   8   20.74    2.16
   5   1  -8   22.01    1.88
   5  -1  -8   19.77    1.95
   5   1  -8   22.44    1.89
   5  -1  -8   19.42    1.78
  -5  -1   8   26.01    2.15
   5   1  -8   22.29    2.42
   5  -1  -8   20.00    2.29
  -5   1   8   23.51    1.91
  -5  -1   7   64.84    6.77
  -5  -1   7   60.57    3.92
  -5   1   7   66.68    4.07
   5   1  -7   68.65    3.73
   5  -1  -7   80.93    4.08
   5   1  -7   69.01    3.73
   5  -1  -7   73.29    3.70
   5  -1  -7   71.05    7.66
   5   1  -7   59.71    6.93
  -5  -1   7   93.30    4.10
   5   1  -7   79.32    4.69
   5  -1  -7   65.45    4.43
  -5   1   7   90.21    3.92
  -5  -1   6   13.81    3.17
   5   1  -6   10.30    1.68
   5  -1  -6   10.98    3.12
   5   1  -6   10.93    3.03
   5  -1  -6    9.67    1.26
   5  -1  -6   10.53    2.78
  -5  -1   6   11.22    1.43
  -5   1   6   11.73    1.35
   5  -1  -6   11.87    1.76
  -5  -1   5   15.18    3.35
  -5   1   5   14.02    2.69
   5  -1  -5   16.59    3.58
   5   1  -5   14.28    3.33
   5  -1  -5   15.31    1.52
   5  -1  -5   19.34    3.26
   5   1  -5   12.61    2.70
  -5  -1   5   15.87    1.59
  -5   1   5   14.48    1.38
   5   1  -5   15.43    1.96
   5  -1  -5   16.84    1.98
  -5  -1   4  165.20   10.69
  -5   1   4  141.83    9.17
   5   1  -4  149.59    9.25
   5  -1  -4  135.69    6.00
   5  -1  -4  179.86    9.90
   5  -1  -4  178.82   11.57
   5   1  -4  162.81   11.32
  -5   1   4  137.37    5.70
   5   1  -4  171.61    7.10
   5  -1  -4  164.04    6.99
  -5  -1   3   35.69    4.80
  -5   1   3   35.34    4.34
   5   1  -3   39.66    4.33
   5  -1  -3   31.84    2.23
   5  -1  -3   42.97    4.50
   5  -1  -3   39.80    5.27
   5   1  -3   36.71    5.10
   5   1  -3   38.91    2.86
   5  -1  -3   37.51    2.75
  -5   1   2   13.41    2.76
   5  -1  -2   14.04    3.07
   5   1  -2   10.07    2.63
   5  -1  -2   11.55    1.29
   5   1  -2   10.51    2.17
   5  -1  -2   12.50    2.45
   5   1  -2   11.37    1.69
   5  -1  -2   13.28    1.59
   5   1  -1  244.34    9.57
   5  -1  -1  256.16    9.66
  -5   1   1  257.16   13.25
   5  -1  -1  236.21    9.02
   5  -1  -1  254.84   12.14
   5  -1  -1  262.30   13.97
   5   1  -1  267.04   14.22
   5   1   0  182.29    7.23
   5  -1   0  182.71    7.18
  -5  -1   0  205.07   11.53
  -5   1   0  188.32   10.81
   5  -1   0  154.14    6.45
   5  -1   0  169.97    9.13
   5  -1   0  152.93    6.55
   5  -1   0  180.18   11.12
   5   1   0  203.55   11.82
  -5  -1  -1    7.70    2.53
   5   1   1    4.29    1.03
   5  -1   1    5.15    0.98
   5  -1   1    2.94    1.83
   5   1   1    2.70    1.82
   5  -1   1    3.95    0.77
   5  -1   1    3.90    0.86
   5  -1   1    4.33    1.48
   5   1   2  167.52    7.02
   5  -1   2  166.48    6.97
   5  -1   2  151.83    6.33
   5  -1   2  169.88    6.71
   5  -1   2  169.75   11.00
   5   1   2  181.05   11.39
   5  -1   3   85.66    7.60
   5   1   3   91.65    7.95
  -5  -1  -3  110.84    8.31
  -5   1  -3  116.71    8.26
   5   1   3   87.12    4.44
   5  -1   3   87.93    4.39
   5  -1   3   79.51    3.89
   5  -1   3   80.65    4.15
   5  -1   4   64.55    6.76
   5   1   4   57.55    6.58
  -5  -1  -4   80.11    7.26
  -5   1  -4   83.24    7.14
   5  -1   4   67.97    3.79
   5   1   4   67.87    3.83
   5  -1   4   64.58    3.39
   5  -1   4   69.02    3.72
   5   1   4   64.55    3.44
  -5  -1  -5  192.00   11.63
  -5   1  -5  203.24   11.74
   5  -1   5  175.13   11.86
   5   1   5  183.67   12.17
   5  -1   5  176.17    6.99
   5  -1   5  182.23    7.48
   5   1   5  182.54    7.53
   5  -1   5  159.43    6.67
   5  -1   5  176.82    7.32
   5   1   5  158.13    6.90
  -5  -1  -6   45.43    5.62
  -5   1  -6   46.71    5.66
   5  -1   6   44.51    2.75
   5  -1   6   46.94    6.00
   5   1   6   46.56    6.03
   5  -1   6   44.58    2.86
   5  -1   6   47.10    3.19
   5   1   6   48.42    3.27
   5  -1   6   46.17    3.17
   5   1   6   48.15    3.04
  -5   1  -7   55.13    6.70
   5   1   7   90.30    4.33
   5  -1   7   82.92    4.09
   5  -1   7   76.83    4.06
   5  -1   7   78.72    4.20
   5  -1   7   82.98    8.29
   5   1   7   78.71    8.17
   5   1   7   79.82    4.10
   5  -1   7   78.18    4.15
  -5  -1  -7   76.76    8.01
  -5   1  -7   74.45    8.22
   5  -1   7   84.99    4.59
   5   1   7   84.59    4.62
   5   1   7   81.04    4.22
   5  -1   7   78.09    4.17
   5  -1   7   83.93    4.61
   5   1   7   78.89    4.05
   5   1   7   77.47    4.29
   5   1   7   80.01    4.40
   5  -1   7   86.01    4.51
   5   1   8  106.55    4.98
   5  -1   8   96.43    4.72
   5  -1   8   96.24    4.83
   5  -1   8  104.07    4.99
   5   1   8  107.74    4.88
   5  -1   8   99.37    4.85
   5  -1   8   90.67    4.68
   5  -1   8   97.29    4.90
   5   1   8  105.02    4.99
   5   1   8   98.52    4.63
   5  -1   8   99.36    4.84
   5   1   8   88.96    4.55
   5   1   8   98.75    5.10
   5   1   8   97.69    5.11
   5  -1   8  102.21    5.17
   5   1   9   24.54    1.90
   5   1   9   29.73    2.35
   5  -1   9   25.03    2.16
   5  -1   9   25.82    2.30
   5   1   9   27.17    2.40
   5  -1   9   29.94    2.41
   5   1   9   30.44    2.28
   5  -1   9   26.37    2.22
   5  -1   9   23.28    2.17
   5  -1   9   27.44    2.33
   5   1   9   26.89    2.29
   5  -1   9   27.87    2.25
   5   1   9   22.34    1.96
   5   1   9   21.80    2.29
   5   1   9   24.95    2.34
   5  -1   9   28.08    2.50
   5   1  10   55.33    3.04
   5  -1  10   53.14    3.31
   5  -1  10   53.95    3.49
   5   1  10   56.93    3.55
   5  -1  10   56.72    3.49
   5   1  10   53.76    3.19
   5  -1  10   52.78    3.32
   5  -1  10   50.72    3.38
   5  -1  10   53.28    3.48
   5   1  10   54.34    3.38
   5  -1  10   51.31    3.23
   5  -1  10   59.97    4.04
   5   1  10   57.92    3.75
   5   1  10   60.34    3.72
   5  -1  10   62.93    3.79
   5   1  11   43.08    2.59
   5  -1  11   43.02    2.84
   5  -1  11   36.76    2.91
   5  -1  11   38.53    2.81
   5  -1  11   34.78    2.78
   5   1  11   39.48    2.57
   5   1  11   43.45    2.71
   5  -1  11   40.07    2.77
   5   1  11   43.03    3.01
   5  -1  11   41.46    3.00
   5   1  11   42.08    2.89
   5  -1  11   43.90    2.77
   5  -1  11   47.91    3.51
   5   1  11   40.05    3.14
   5   1  11   43.59    3.06
   5  -1  11   42.94    3.11
   5   1  12    5.20    0.91
   5   1  12    5.52    1.14
   5  -1  12    3.56    0.97
   5   1  12    4.07    1.01
   5  -1  12    6.03    1.27
   5  -1  12    4.40    1.15
   5  -1  12    3.87    0.95
   5  -1  12    5.66    1.18
   5   1  12    5.66    1.04
   5   1  12    5.38    1.13
   5  -1  12    4.55    1.09
   5  -1  12    4.60    0.92
   5  -1  12    4.96    1.37
   5   1  12    4.96    1.29
   5   1  12    6.75    1.26
   5  -1  12    5.35    1.26
   5   1  13  212.00    7.71
   5   1  13  212.66    8.13
   5  -1  13  209.32    8.09
   5  -1  13  191.96    8.20
   5   1  13  224.08    8.31
   5  -1  13  214.50    8.27
   5  -1  13  206.84    7.87
   5  -1  13  197.66    8.19
   5   1  13  220.64    7.85
   5  -1  13  193.89    8.16
   5  -1  13  191.54    7.60
   5   1  13  207.08    8.10
   5  -1  13  213.76    8.76
   5  -1  13  208.82    8.41
   5   1  14   37.24    2.10
   5   1  14   37.59    2.33
   5  -1  14   36.13    2.33
   5   1  14   36.59    2.37
   5  -1  14   36.69    2.42
   5  -1  14   31.86    2.36
   5  -1  14   33.30    2.04
   5  -1  14   33.84    2.38
   5   1  14   38.70    2.14
   5  -1  14   30.43    2.26
   5   1  14   35.64    2.30
   5  -1  14   36.37    2.67
   5   1  15   35.42    1.91
   5  -1  15   40.18    2.29
   5   1  15   37.45    1.91
   5  -1  15   34.87    1.91
   5  -1  15   41.00    2.22
   5   1  15   37.38    2.16
   5   1  15   38.72    2.13
   5   1  15   34.91    2.09
   5   1  16   45.62    2.01
   5   1  16   51.12    2.16
   5  -1  16   48.99    2.01
   5   1  16   52.07    2.31
  -5  -2  16   13.15    0.85
  -5   2  16    9.96    0.70
  -5  -2  15   39.04    1.97
  -5   2  15   39.01    2.03
   5   2 -15   43.28    2.11
  -5   2  15   37.10    1.81
  -5  -2  15   38.20    2.00
  -5  -2  14   51.52    2.64
  -5   2  14   54.06    2.75
  -5  -2  14   19.77    1.99
  -5   2  14   89.31    3.51
  -5  -2  14   63.74    3.00
   5   2 -14   60.43    2.76
  -5   2  14   54.25    2.50
  -5  -2  14   52.95    2.71
  -5  -2  14   38.21    2.34
  -5   2  14   71.26    2.94
   5   2 -14   51.08    2.75
   5  -2 -14   44.39    2.53
  -5  -2  13   35.72    2.33
  -5  -2  13   17.10    1.73
  -5   2  13   37.12    2.44
  -5  -2  13   20.24    1.66
  -5   2  13   54.42    2.89
  -5  -2  13   38.18    2.50
   5   2 -13   35.42    2.26
  -5  -2  13   37.45    2.43
  -5  -2  13   27.52    2.00
   5   2 -13   33.04    2.38
   5  -2 -13   30.32    2.25
  -5  -2  12   10.56    1.43
  -5   2  12   10.21    1.44
  -5   2  12   16.02    1.78
  -5  -2  12    9.91    1.48
  -5  -2  12    6.46    1.14
   5   2 -12   12.91    1.47
   5  -2 -12   10.58    1.21
  -5  -2  12    9.57    1.41
   5   2 -12   10.21    1.45
   5  -2 -12    9.11    1.39
  -5   2  12   12.16    1.39
  -5  -2  12    9.43    1.37
  -5   2  11   80.68    4.28
  -5  -2  11   61.39    3.73
  -5   2  11   61.25    3.77
  -5   2  11   97.18    4.27
  -5  -2  11   60.83    3.80
   5  -2 -11   63.10    3.34
   5   2 -11   59.81    3.20
  -5  -2  11   54.83    3.35
   5   2 -11   56.88    3.80
   5  -2 -11   58.14    3.75
  -5   2  11   77.45    3.62
  -5   2  11   48.94    3.13
  -5   2  10   42.79    3.11
  -5   2  10   47.53    3.00
  -5  -2  10   32.15    2.67
  -5   2  10   38.55    2.89
  -5  -2  10   39.72    3.03
   5   2 -10   37.28    2.62
   5  -2 -10   36.71    2.51
   5   2 -10   37.90    2.48
   5  -2 -10   30.81    2.19
  -5  -2  10   37.02    2.66
   5   2 -10   30.67    2.78
   5  -2 -10   35.27    2.89
  -5   2  10   44.63    2.70
  -5   2  10   33.71    2.45
  -5   2   9  214.63    8.42
  -5  -2   9  173.46    7.69
  -5   2   9  170.67    7.73
  -5  -2   9  172.46    7.80
   5   2  -9  162.86    7.26
   5  -2  -9  179.68    7.24
   5   2  -9  180.26    7.22
  -5   2   9  212.86    7.83
   5  -2  -9  160.20    6.87
  -5  -2   9  177.20    7.35
   5   2  -9  172.66    7.91
   5  -2  -9  162.57    7.74
  -5   2   9  215.96    7.47
  -5   2   8  310.28   10.55
  -5  -2   8  246.84   10.29
  -5   2   8  252.41   10.41
  -5  -2   8  261.25   10.72
   5   2  -8  248.82    9.98
   5  -2  -8  280.84   10.20
   5   2  -8  278.82   10.07
   5  -2  -8  243.29    9.67
  -5  -2   8  285.43   10.24
  -5   2   8  325.63   10.27
   5   2  -8  246.88   10.60
   5  -2  -8  250.98   10.58
  -5  -2   7   13.07    1.80
  -5  -2   7   15.20    1.78
  -5   2   7   16.93    1.85
   5   2  -7   16.89    1.72
   5   2  -7   14.71    1.58
   5  -2  -7   17.56    1.80
   5   2  -7   15.80    1.65
   5  -2  -7   15.11    1.59
  -5  -2   7   17.57    1.82
  -5   2   7   18.39    1.76
   5   2  -7   14.09    1.86
   5  -2  -7   14.97    1.88
  -5  -2   6  141.10   10.66
  -5  -2   6  126.57    5.95
  -5   2   6  128.37    6.06
   5   2  -6  132.63    5.70
   5   2  -6  137.91    5.94
   5   2  -6  123.33    5.63
   5  -2  -6  135.40    5.83
   5   2  -6  134.88    5.78
   5  -2  -6  129.06    5.66
   5  -2  -6  124.86    9.99
   5   2  -6  118.12    9.77
  -5  -2   6  146.77    5.89
   5   2  -6  146.89    9.36
  -5   2   6  151.92    5.82
   5   2  -6  135.20    6.40
   5  -2  -6  127.97    6.25
  -5  -2   5   21.90    4.09
   5  -2  -5   19.69    3.77
   5   2  -5   17.55    3.58
   5  -2  -5   21.59    2.03
   5  -2  -5   20.73    3.56
  -5  -2   5   18.11    1.86
   5   2  -5   23.16    3.42
  -5   2   5   21.20    1.79
   5   2  -5   21.60    2.19
   5  -2  -5   22.74    2.18
  -5  -2   4  621.86   25.19
   5  -2  -4  528.05   18.11
   5  -2  -4  538.36   22.83
   5  -2  -4  493.49   23.04
   5   2  -4  518.88   23.57
   5   2  -4  592.64   22.35
  -5   2   4  494.24   17.48
   5  -2  -4  526.00   22.81
   5   2  -4  549.23   18.55
   5  -2  -4  529.93   18.32
   5  -2  -3  371.55   13.84
  -5   2   3  419.24   17.45
   5  -2  -3  441.42   14.10
   5  -2  -3  448.83   18.61
   5  -2  -3  471.74   20.04
   5   2  -3  464.84   19.91
   5   2  -3  466.36   18.04
  -5   2   3  327.80   13.07
   5  -2  -3  445.52   18.67
   5   2  -3  370.93   13.94
   5   2  -2  422.86   14.85
   5  -2  -2  434.18   14.76
  -5  -2   2  460.69   20.69
  -5   2   2  431.43   18.41
   5  -2  -2  391.43   14.48
   5  -2  -2  387.36   18.21
   5   2  -2  434.52   18.11
   5  -2  -2  437.25   19.59
   5   2  -2  385.56   19.18
   5  -2  -2  417.67   18.48
   5   2  -1  150.76    6.33
   5  -2  -1  139.39    6.11
  -5  -2   1  166.75   10.90
  -5   2   1  148.86    9.36
   5  -2  -1  143.72    6.18
   5  -2  -1  136.77    8.94
   5   2  -1  143.77    8.73
   5  -2  -1  151.67   10.06
   5   2  -1  155.80   10.37
   5  -2  -1  130.59    8.70
  -5  -2   0   31.44    4.70
   5   2   0   26.68    2.11
  -5   2   0   27.85    4.13
   5  -2   0   26.22    2.07
   5  -2   0   21.42    3.86
   5  -2   0   27.51    2.17
   5  -2   0   25.93    3.60
   5   2   0   24.98    3.51
   5   2   0   25.23    4.44
   5  -2   0   25.06    3.41
  -5  -2  -1  131.73    9.39
  -5   2  -1  119.08    8.55
   5   2   1  115.22    5.24
   5  -2   1  116.19    5.20
   5  -2   1  111.15    4.88
   5  -2   1  105.35    5.03
   5  -2   1  123.29    5.33
   5  -2   1  108.79    7.61
   5   2   1  109.22    7.53
   5  -2   1  112.31    8.65
   5   2   1  126.23    9.10
   5  -2   2  914.34   35.93
   5   2   2 1014.54   36.94
  -5  -2  -2 1023.19   36.87
  -5   2  -2 1023.18   36.50
   5  -2   2  913.46   30.01
   5   2   2  942.11   30.52
   5   2   2  972.98   30.51
   5  -2   2  940.23   30.34
   5  -2   2  900.04   30.38
   5  -2   2  948.02   30.55
   5  -2   2  887.27   33.74
  -5  -2  -3   91.19    7.90
   5  -2   3   69.50    6.79
   5   2   3   71.98    6.98
   5  -2   3   78.01    4.02
   5   2   3   79.37    4.05
   5  -2   3   74.69    3.90
  -5   2  -3   73.45    4.23
   5  -2   3   79.46    3.81
   5  -2   3   69.86    3.61
  -5  -2  -4  257.01   14.52
  -5   2  -4  269.05   14.55
   5  -2   4  241.77   14.21
   5   2   4  260.51   14.65
   5  -2   4  273.93    9.72
   5  -2   4  240.11    9.25
   5  -2   4  276.39    9.95
   5   2   4  270.49   10.01
   5  -2   4  267.12    9.97
   5  -2   4  245.71    9.39
  -5   2  -5  296.34   16.69
   5  -2   5  342.13   12.12
   5   2   5  339.11   12.16
   5  -2   5  304.91   16.98
   5   2   5  302.61   17.04
   5  -2   5  324.94   11.77
   5  -2   5  360.81   12.43
   5  -2   5  337.49   12.36
   5   2   5  338.05   12.36
   5  -2   5  325.04   12.13
   5  -2   5  348.22   12.59
   5   2   5  342.43   12.23
   5  -2   5  331.25   11.87
  -5   2  -6   23.63    4.34
   5   2   6   35.53    2.34
   5   2   6   45.82    2.89
   5  -2   6   38.65    2.69
   5   2   6   39.47    2.84
   5  -2   6   35.62    5.13
   5   2   6   42.99    2.79
   5   2   6   34.71    5.18
   5  -2   6   38.67    2.69
   5  -2   6   39.18    2.58
   5   2   6   40.51    2.53
   5  -2   6   40.87    2.76
   5  -2   6   37.41    2.59
   5  -2   6   37.23    2.75
  -5  -2  -6   35.03    4.88
  -5   2  -6   39.82    5.53
   5  -2   6   40.57    2.88
   5   2   6   38.16    2.84
   5   2   6   43.14    2.67
   5  -2   6   42.17    2.82
   5  -2   6   47.57    3.23
   5   2   6   39.39    2.73
   5  -2   6   38.42    2.77
   5   2   6   44.53    2.74
   5  -2   6   34.33    2.46
   5  -2   7    8.02    1.25
   5   2   7    9.81    1.22
   5   2   7    9.77    1.49
   5  -2   7   11.09    1.43
   5  -2   7    7.72    1.29
   5   2   7    7.83    1.20
   5  -2   7    9.50    1.37
   5  -2   7    8.85    1.29
   5   2   7    9.46    1.27
   5  -2   7    8.63    1.26
   5  -2   7    8.28    1.28
   5  -2   7    8.83    1.46
   5   2   7    9.03    1.36
   5  -2   7   10.34    1.70
   5  -2   7    9.70    1.46
   5   2   7    9.06    1.30
   5  -2   8   36.00    2.65
   5   2   8   38.21    2.50
   5  -2   8   35.12    2.79
   5  -2   8   40.74    2.66
   5   2   8   40.45    2.90
   5  -2   8   43.02    2.83
   5   2   8   39.13    2.67
   5  -2   8   42.31    2.85
   5  -2   8   38.94    2.81
   5   2   8   39.70    2.59
   5  -2   8   39.42    2.95
   5  -2   8   40.51    2.69
   5   2   8   41.25    2.87
   5  -2   8   42.83    2.91
   5  -2   8   44.82    3.32
   5   2   8   41.09    2.80
   5   2   8   36.00    2.73
   5  -2   8   42.98    3.02
   5   2   8   40.36    2.65
   5  -2   9   83.41    4.39
   5   2   9   92.12    4.23
   5  -2   9   79.98    4.19
   5  -2   9   81.78    4.56
   5   2   9   93.43    4.70
   5  -2   9   84.82    4.43
   5  -2   9   80.68    4.43
   5  -2   9   78.69    4.58
   5  -2   9   87.08    4.23
   5  -2   9   79.78    4.34
   5   2   9   89.62    4.56
   5  -2   9   97.33    5.18
   5   2   9   86.88    4.39
   5   2   9   80.59    4.45
   5  -2   9   85.40    4.65
   5   2   9   91.09    4.30
   5  -2  10   40.45    2.86
   5   2  10   43.15    2.65
   5  -2  10   42.83    2.78
   5  -2  10   42.86    3.13
   5   2  10   44.51    3.02
   5  -2  10   40.99    2.85
   5  -2  10   40.44    2.80
   5  -2  10   38.48    2.90
   5   2  10   42.34    2.92
   5  -2  10   40.98    3.07
   5  -2  10   42.74    2.85
   5  -2  10   51.00    3.55
   5   2  10   40.60    2.75
   5  -2  10   46.45    3.16
   5   2  10   41.40    2.63
   5  -2  11  180.97    7.82
   5   2  11  201.69    7.61
   5  -2  11  198.81    7.78
   5  -2  11  193.05    8.21
   5   2  11  202.82    7.99
   5  -2  11  197.60    7.95
   5  -2  11  189.44    7.80
   5  -2  11  189.96    8.07
   5   2  11  213.54    7.71
   5  -2  11  187.12    8.17
   5   2  11  201.55    7.94
   5  -2  11  188.01    7.69
   5  -2  11  206.98    8.63
   5   2  11  183.45    7.58
   5  -2  11  206.31    8.28
   5   2  11  190.60    7.45
   5  -2  12   12.75    1.55
   5   2  12   19.15    1.62
   5   2  12   17.02    1.71
   5  -2  12   16.74    1.66
   5  -2  12   16.47    1.87
   5  -2  12   16.17    1.68
   5  -2  12   19.96    1.76
   5  -2  12   15.75    1.76
   5   2  12   17.71    1.57
   5  -2  12   16.04    1.84
   5  -2  12   17.74    1.62
   5  -2  12   18.42    2.08
   5  -2  12   18.18    1.88
   5   2  12   15.61    1.44
   5  -2  13  107.39    5.05
   5   2  13  125.15    4.98
   5   2  13  120.88    5.10
   5  -2  13  122.79    5.12
   5  -2  13  121.27    5.50
   5  -2  13  123.18    5.26
   5  -2  13  110.73    5.29
   5   2  13  122.59    4.86
   5  -2  13  119.13    5.46
   5  -2  13  123.95    5.11
   5  -2  13  110.63    4.79
   5   2  13  120.18    4.82
   5  -2  13  130.59    5.74
   5  -2  13  121.77    5.40
   5   2  14   64.53    2.90
   5  -2  14   62.97    3.01
   5  -2  14   54.85    3.16
   5  -2  14   63.34    3.11
   5  -2  14   62.10    2.91
   5  -2  14   57.08    3.15
   5   2  14   63.92    2.77
   5   2  14   62.65    2.93
   5  -2  14   53.32    3.13
   5   2  14   56.10    2.61
   5  -2  14   62.24    3.36
   5  -2  14   63.08    3.25
   5   2  15   43.63    1.60
   5  -2  15   46.57    1.80
   5   2  15   41.80    1.34
   5  -2  15   44.76    1.85
   5  -2  15   43.87    1.95
   5  -2  16   32.49    1.52
   5  -2  16   33.71    1.58
  -5  -3  15   15.50    0.98
  -5  -3  14    4.94    0.60
  -5   3  14    5.34    0.66
  -5  -3  14    5.34    0.78
  -5  -3  13    2.48    0.63
  -5  -3  13    2.88    0.66
  -5   3  13    2.87    0.78
   5  -3 -13    1.45    0.52
  -5   3  13    2.96    0.64
  -5  -3  13    2.78    0.76
  -5  -3  13    1.54    0.63
  -5   3  13   -0.03    0.18
  -5   3  13    2.21    0.77
  -5   3  13    1.89    0.55
  -5  -3  12    7.39    1.05
  -5  -3  12    9.67    1.24
   5   3 -12    9.19    1.15
   5  -3 -12    6.64    1.04
  -5  -3  12    6.81    1.09
  -5   3  12    8.63    1.09
   5   3 -11   12.37    1.20
  -5  -3  11   12.90    1.52
   5   3 -11   11.71    1.34
   5   3 -11   12.42    1.24
  -5  -3  11    9.64    1.33
  -5   3  11   12.77    1.59
  -5   3  11   11.73    1.38
   5   3 -10   19.30    1.64
  -5   3  10   17.46    2.14
  -5  -3  10   20.58    1.97
   5   3 -10   19.51    1.77
   5   3 -10   20.88    1.72
   5  -3 -10   16.23    1.46
  -5  -3  10   16.07    1.74
  -5   3  10   22.55    2.08
  -5   3  10   20.16    1.88
  -5   3   9   24.07    2.02
  -5   3   9   20.11    2.37
  -5  -3   9   29.61    2.46
   5   3  -9   26.04    2.10
   5  -3  -9   27.70    2.01
   5   3  -9   31.06    2.19
   5  -3  -9   27.25    2.00
  -5  -3   9   25.66    2.17
  -5   3   8  207.87    8.91
  -5  -3   8  250.86    9.63
   5   3  -8  224.42    8.97
   5  -3  -8  247.37    8.99
   5   3  -8  250.59    9.15
   5  -3  -8  229.35    8.83
  -5  -3   8  228.16    9.06
  -5   3   7  445.05   16.75
  -5  -3   7  524.51   17.62
   5   3  -7  517.79   16.80
   5   3  -7  492.15   16.74
   5  -3  -7  515.29   16.82
   5   3  -7  526.59   16.98
   5  -3  -7  488.53   16.71
   5   3  -7  427.03   16.30
  -5  -3   7  471.30   16.73
  -5   3   7  561.89   17.21
   5   3  -6  127.80    5.45
   5   3  -6  117.37    5.22
   5  -3  -6  116.51    5.30
   5  -3  -6  135.56    6.03
   5   3  -6  122.35    5.42
  -5   3   6  117.05    5.42
   5  -3  -6  117.44    5.32
   5   3  -6  113.51    5.12
  -5  -3   6  117.30    5.32
  -5   3   6  122.73    5.54
  -5   3   5  679.28   23.97
   5   3  -5  787.33   24.13
   5  -3  -5  766.97   24.11
   5  -3  -5  848.94   24.91
   5   3  -5  777.22   24.08
   5   3  -5  710.13   23.71
  -5  -3   5  709.51   23.71
  -5   3   5  608.06   23.73
   5   3  -4  800.16   23.94
   5   3  -4  810.32   23.99
   5   3  -4  824.85   24.21
   5  -3  -4  750.28   23.83
   5  -3  -4  838.20   24.57
   5   3  -4  739.97   23.57
  -5  -3   3  122.70   10.30
   5   3  -3  137.81    5.40
   5   3  -3  141.54    5.50
   5  -3  -3  116.19    5.03
   5  -3  -3  122.04    5.34
   5   3  -3  127.90    5.21
   5   3  -3  124.84    5.15
   5   3  -3  120.93    8.85
   5  -3  -3  136.24    9.61
  -5  -3   2    1.79    1.64
   5   3  -2    1.48    0.74
   5  -3  -2    2.44    1.61
   5   3  -2    2.40    0.78
   5  -3  -2    1.25    0.74
   5   3  -2    1.22    0.73
   5  -3  -2    2.86    0.76
   5  -3  -2    2.53    0.84
   5   3  -2    2.10    0.67
   5   3  -2    2.48    0.74
   5  -3  -2    1.83    1.66
   5   3  -2    0.85    1.06
  -5   3   2    0.45    0.79
  -5  -3   1  147.20   10.92
   5   3  -1  165.54    6.59
   5  -3  -1  146.64    6.26
  -5   3   1  164.86    7.65
   5  -3  -1  149.42    6.36
   5   3  -1  150.79    6.16
   5  -3  -1  165.89   10.65
   5   3  -1  154.28    6.29
   5   3  -1  163.57   10.42
   5  -3  -1  160.65   10.53
  -5  -3   0  174.31   12.46
   5   3   0  197.48    7.44
   5  -3   0  172.97    7.02
   5  -3   0  195.65    7.81
   5   3   0  194.61    7.48
   5   3   0  190.08    7.46
   5  -3   0  180.26    7.37
  -5   3   0  202.15    8.69
   5   3   0  182.70    7.11
   5  -3   0  186.59    7.76
   5  -3   0  196.37   11.84
   5   3   0  190.00    7.38
   5   3   0  222.96   12.12
   5  -3   0  178.26    7.41
   5  -3   0  178.82   11.44
  -5  -3  -1   67.59    7.25
   5   3   1   80.68    3.88
   5  -3   1   77.08    3.94
   5  -3   1   69.25    3.54
   5   3   1   68.52    3.47
   5  -3   1   78.79    4.13
   5   3   1   73.92    3.81
  -5   3  -1   75.22    4.56
   5  -3   1   72.42    3.90
   5   3   1   74.33    3.81
   5  -3   1   76.55    3.96
  -5   3  -1   79.44    4.79
   5  -3   1   75.38    4.15
   5  -3   1   69.39    6.68
   5   3   1   78.83    3.86
   5   3   1   72.82    6.76
   5   3   1   69.32    3.78
   5  -3   1   76.33    6.95
   5  -3   2   72.38    6.71
  -5  -3  -2   68.59    7.34
   5   3   2   80.20    3.93
   5  -3   2   82.85    4.12
   5  -3   2   68.21    3.61
   5   3   2   76.58    3.66
   5  -3   2   78.08    4.17
   5   3   2   79.93    3.91
  -5   3  -2   70.88    4.52
   5  -3   2   73.42    4.01
   5   3   2   79.84    3.89
   5  -3   2   76.07    4.03
   5   3   2   77.58    4.03
   5  -3   2   69.57    3.81
   5  -3   2   78.98    4.27
   5  -3   2   72.71    6.73
   5   3   2   78.43    3.89
   5   3   2   71.71    3.87
   5  -3   3   27.25    4.09
   5  -3   3   37.91    2.63
   5  -3   3   37.35    2.44
   5  -3   3   30.95    2.29
   5   3   3   31.71    2.22
   5   3   3   35.76    2.38
   5  -3   3   41.15    2.82
  -5   3  -3   35.15    3.03
   5  -3   3   32.57    2.50
   5   3   3   36.66    2.47
   5   3   3   36.60    2.36
   5  -3   3   35.05    2.60
   5   3   3   36.37    2.54
   5  -3   3   33.05    2.46
   5  -3   3   35.78    2.69
   5   3   3   33.62    2.47
   5   3   3   34.82    2.52
   5  -3   3   36.75    2.52
   5   3   4   92.19    4.29
   5   3   4   77.80    4.02
   5  -3   4   90.73    4.49
   5  -3   4   89.64    4.33
   5   3   4   86.37    4.11
   5   3   4   84.42    4.06
   5  -3   4   91.02    4.61
  -5   3  -4   74.88    4.78
   5  -3   4   82.13    4.33
   5  -3   4   81.90    4.14
   5   3   4   94.44    4.39
   5  -3   4   92.52    4.51
   5  -3   4   87.01    4.66
   5   3   4   82.96    4.35
   5   3   4   86.25    4.33
   5  -3   4   86.14    4.33
   5   3   5   28.04    2.13
   5   3   5   27.11    2.08
   5  -3   5   26.02    2.24
   5  -3   5   25.33    2.11
   5  -3   5   27.60    2.23
   5   3   5   31.24    2.17
   5  -3   5   31.67    2.57
   5  -3   5   26.62    2.25
  -5   3  -5   22.81    2.55
   5  -3   5   28.68    2.34
   5   3   5   26.27    2.08
   5  -3   5   30.86    2.41
   5  -3   5   31.00    2.57
   5   3   5   33.27    2.32
   5   3   5   25.95    2.17
   5  -3   5   28.05    2.24
   5   3   6  101.06    4.51
   5   3   6   88.10    4.40
   5  -3   6   99.58    4.94
   5  -3   6   93.74    4.71
   5  -3   6   94.40    4.65
   5   3   6   97.97    4.52
   5  -3   6   89.69    4.58
   5  -3   6   98.39    5.08
   5  -3   6   98.02    4.80
   5  -3   6   96.46    4.86
   5  -3   6   94.93    5.08
   5   3   6  106.59    4.74
   5   3   6   97.64    4.72
   5  -3   6   92.81    4.70
   5  -3   7   62.94    3.76
   5   3   7   69.99    3.56
   5   3   7   71.01    3.70
   5  -3   7   70.97    4.04
   5  -3   7   71.48    3.92
   5  -3   7   66.58    3.81
  -5   3  -7   81.26    4.93
   5   3   7   67.70    3.62
   5  -3   7   75.28    4.24
   5  -3   7   64.93    3.78
   5  -3   7   70.49    3.71
   5   3   7   72.65    3.95
   5  -3   7   71.21    3.96
   5  -3   7   76.27    4.37
   5   3   7   72.37    3.78
   5   3   7   75.34    4.00
   5   3   7   65.40    3.70
   5  -3   8   65.68    3.83
   5   3   8   69.02    3.41
   5   3   8   70.29    3.64
   5  -3   8   66.37    3.98
   5  -3   8   69.52    3.85
   5  -3   8   65.19    3.80
   5   3   8   70.29    3.61
  -5   3  -8   71.84    4.58
   5  -3   8   62.77    3.46
   5  -3   8   69.45    4.11
   5   3   8   75.85    3.98
   5  -3   8   63.90    3.68
   5   3   8   71.02    3.86
   5  -3   8   73.58    4.29
   5   3   8   70.51    3.65
   5   3   8   67.01    3.80
   5   3   8   70.22    3.75
   5   3   9    3.58    0.89
   5   3   9    2.90    0.92
   5  -3   9    4.08    0.88
   5  -3   9    3.66    1.06
   5  -3   9    4.43    1.01
   5  -3   9    2.62    0.95
   5  -3   9    3.40    0.96
   5  -3   9    3.07    0.88
   5   3   9    4.21    1.03
   5  -3   9    3.45    1.07
   5  -3   9    3.69    1.04
   5   3   9    4.13    0.92
   5   3   9    3.16    0.94
   5  -3   9    4.22    1.22
   5  -3   9    4.00    1.00
   5   3   9    3.66    0.93
   5  -3  10    9.34    1.42
   5   3  10   11.30    1.32
   5  -3  10    8.63    1.19
   5  -3  10   11.04    1.54
   5  -3  10   10.96    1.31
   5  -3  10    9.66    1.38
   5  -3  10   10.28    1.45
   5   3  10   11.02    1.33
   5  -3  10   10.77    1.61
   5  -3  10    8.84    1.20
   5   3  10   10.60    1.38
   5  -3  10   10.16    1.41
   5   3  10    8.47    1.14
   5  -3  10   11.78    1.68
   5   3  10   10.15    1.36
   5  -3  10   11.45    1.45
   5   3  10   10.96    1.35
   5  -3  11  307.22   11.65
   5   3  11  331.70   11.39
   5  -3  11  318.30   11.28
   5  -3  11  322.46   11.97
   5  -3  11  322.45   11.40
   5  -3  11  310.38   11.77
   5   3  11  335.19   11.27
   5  -3  11  302.69   11.01
   5  -3  11  333.29   12.07
   5   3  11  328.58   11.62
   5  -3  11  331.49   11.57
   5   3  11  328.59   11.16
   5  -3  11  335.84   12.12
   5   3  11  314.54   11.46
   5  -3  11  334.69   11.69
   5   3  11  324.79   11.36
   5  -3  12   15.64    1.57
   5   3  12   17.51    1.49
   5  -3  12   16.92    1.45
   5  -3  12   16.03    1.71
   5  -3  12   17.34    1.49
   5  -3  12   17.13    1.54
   5  -3  12   17.63    1.71
   5   3  12   17.69    1.39
   5  -3  12   16.50    1.77
   5   3  12   18.89    1.62
   5  -3  12   15.06    1.44
   5   3  12   15.88    1.26
   5  -3  12   18.32    1.77
   5  -3  12   16.65    1.57
   5   3  12   16.27    1.42
   5   3  13   70.05    3.09
   5  -3  13   66.82    3.02
   5  -3  13   67.04    3.45
   5  -3  13   65.74    3.05
   5  -3  13   66.45    3.13
   5  -3  13   64.61    3.33
   5   3  13   68.20    2.88
   5  -3  13   63.45    3.40
   5  -3  13   67.76    3.01
   5  -3  13   64.76    3.28
   5  -3  13   70.01    3.23
   5   3  13   59.12    2.86
   5   3  14    4.63    0.64
   5  -3  14    4.15    0.61
   5  -3  14    4.69    0.63
   5  -3  14    4.36    0.63
   5   3  14    3.96    0.50
   5  -3  14    4.89    0.70
   5   3  14    3.96    0.54
  -5  -4  13    7.49    0.72
  -5   4  13    8.19    0.73
  -5  -4  13    7.57    0.79
  -5  -4  12   26.37    1.67
  -5  -4  12   28.86    1.80
  -5   4  12   29.64    1.70
   5   4 -11   41.85    2.09
  -5  -4  11   36.16    2.06
  -5   4  11   41.84    2.75
   5  -4 -11   43.11    2.40
  -5   4  11   44.62    2.33
  -5  -4  11   50.53    2.69
  -5  -4  11   36.62    2.17
  -5   4  11   47.86    2.50
   5   4 -10   85.43    3.55
  -5   4  10   65.46    3.63
  -5   4  10   82.53    4.37
   5   4 -10   87.41    3.57
   5  -4 -10   83.34    3.88
   5  -4 -10   75.31    3.19
  -5   4  10   82.53    3.65
  -5  -4  10   68.07    3.43
  -5  -4  10   89.81    4.12
  -5   4  10   57.56    3.54
  -5   4  10   83.01    3.87
  -5   4   9   10.28    1.27
   5   4  -9   12.73    1.27
  -5   4   9    9.36    1.35
  -5   4   9   11.47    1.72
   5   4  -9   11.02    1.21
   5  -4  -9   11.60    1.43
   5  -4  -9    9.56    1.08
  -5  -4   9    9.51    1.25
  -5   4   9    5.52    1.22
  -5   4   9   10.38    1.35
  -5   4   8    0.07    0.60
   5   4  -8    0.30    0.54
  -5   4   8    0.36    0.71
  -5   4   8    0.23    0.86
   5   4  -8   -0.18    0.57
   5  -4  -8    0.05    0.62
  -5  -4   8    0.18    0.78
  -5   4   8   -0.31    0.85
  -5   4   7   74.88    3.85
   5   4  -7   81.84    3.78
  -5   4   7   70.06    4.17
   5   4  -7   67.34    3.35
   5  -4  -7   67.02    3.35
   5   4  -7   83.68    3.84
   5  -4  -7   78.21    3.66
  -5  -4   7   69.32    3.58
  -5   4   6  125.05    5.60
   5   4  -6  130.66    5.44
   5  -4  -6  129.29    5.20
  -5   4   6  136.54    6.79
   5   4  -6  135.78    5.50
   5  -4  -6  135.46    5.93
   5  -4  -6  129.00    5.39
   5   4  -6  127.26    5.29
  -5  -4   6  120.18    5.19
  -5   4   5   79.33    4.19
  -5   4   5   81.96    4.78
   5  -4  -5   73.24    3.80
  -5   4   5   86.25    5.30
   5  -4  -5   82.58    4.43
   5   4  -5   79.06    3.93
  -5   4   4  130.61    6.75
   5  -4  -4  134.61    5.84
  -5   4   4  149.86    7.48
   5   4  -4  144.15    5.99
   5  -4  -4  146.45    6.45
   5   4  -4  141.16    5.93
  -5   4   4  130.25    5.82
   5  -4  -3  174.22    7.27
   5  -4  -3  186.71    7.50
  -5   4   3  212.57    9.28
   5   4  -3  195.29    7.50
   5  -4  -3  195.84    7.98
   5   4  -3  192.56    7.51
  -5   4   3  172.65    7.31
   5  -4  -2   35.86    2.58
   5   4  -2   28.92    2.28
  -5   4   2   32.66    2.94
   5  -4  -2   26.92    2.22
   5  -4  -2   27.02    2.17
  -5   4   2   32.95    3.23
   5   4  -2   29.23    2.16
   5  -4  -2   26.89    2.38
   5   4  -2   28.96    2.21
  -5   4   2   27.49    2.14
   5   4  -1  104.76    4.82
   5   4  -1   95.83    4.34
   5  -4  -1  118.71    5.34
  -5   4   1   98.88    5.67
   5  -4  -1   97.34    4.84
   5  -4  -1   99.92    4.68
  -5   4   1  108.79    6.16
   5   4  -1   99.25    4.57
   5  -4  -1  101.84    5.08
   5   4  -1  111.16    4.89
  -5   4   1   92.64    4.60
   5   4   0   94.73    4.56
   5  -4   0  104.65    4.92
   5  -4   0   93.28    4.47
   5   4   0   88.80    4.19
   5  -4   0  103.24    5.01
   5   4   0  100.01    4.66
  -5   4   0   89.28    5.42
   5  -4   0   97.91    4.79
   5  -4   0   97.47    4.65
  -5   4   0  103.95    5.95
   5   4   0   92.80    4.33
   5  -4   0   96.69    4.89
   5   4   0  101.35    4.65
  -5   4   0   87.34    4.41
   5   4   1   91.23    4.23
   5  -4   1   92.54    4.51
   5   4   1   78.72    3.74
   5  -4   1   82.58    4.09
   5   4   1   83.06    3.93
   5  -4   1   96.39    4.68
   5   4   1   83.74    4.18
  -5   4  -1   76.16    4.94
   5  -4   1   84.88    4.40
   5  -4   1   83.56    4.30
  -5   4  -1   96.00    5.59
   5   4   1   75.36    3.78
   5  -4   1   84.15    4.49
   5   4   1   80.66    4.22
  -5   4  -1   81.51    4.11
   5   4   2  198.83    7.42
   5  -4   2  195.72    7.78
   5  -4   2  182.64    7.37
   5   4   2  177.64    7.14
   5   4   2  190.49    7.39
   5  -4   2  204.34    8.01
  -5   4  -2  170.38    8.38
   5  -4   2  186.92    7.72
   5  -4   2  168.72    7.01
   5  -4   2  186.16    7.67
  -5   4  -2  181.32    8.76
   5  -4   2  178.47    7.32
   5  -4   2  184.58    7.78
   5   4   2  196.95    7.51
   5   4   2  184.31    7.53
   5  -4   2  181.57    7.58
  -5   4  -2  188.28    7.42
   5   4   3  100.60    4.53
   5  -4   3  101.22    4.91
   5   4   3  100.43    4.51
   5  -4   3  104.93    5.10
  -5   4  -3   87.14    5.39
   5  -4   3   90.41    4.31
   5  -4   3   97.59    4.64
   5  -4   3  103.63    4.96
   5  -4   3   97.17    4.69
   5  -4   3   94.56    4.92
   5   4   3  104.38    4.71
   5   4   3   89.02    4.61
  -5   4  -3  102.10    4.66
   5  -4   3  101.41    4.87
   5   4   4   29.39    2.10
   5  -4   4   35.66    2.59
   5  -4   4   30.19    2.31
   5  -4   4   29.65    2.20
   5   4   4   30.01    2.16
   5  -4   4   33.42    2.64
   5  -4   4   32.53    2.50
  -5   4  -4   29.52    2.91
   5  -4   4   27.05    2.04
   5  -4   4   32.50    2.49
   5  -4   4   31.24    2.38
   5  -4   4   32.12    2.57
   5   4   4   35.41    2.38
   5   4   4   28.19    2.27
   5  -4   4   31.07    2.41
   5   4   5   10.63    1.19
   5  -4   5    8.27    1.34
   5  -4   5    9.32    1.27
   5  -4   5    7.87    1.26
   5   4   5    9.30    1.22
  -5   4  -5    8.56    1.74
   5  -4   5    9.81    1.54
   5  -4   5    8.72    1.40
  -5   4  -5    8.03    1.67
   5  -4   5    8.49    1.14
   5  -4   5    8.65    1.43
   5  -4   5   10.62    1.46
   5  -4   5    9.84    1.52
   5   4   5    8.88    1.23
   5   4   5    8.20    1.26
   5  -4   5    9.75    1.39
   5  -4   6    8.26    1.32
   5   4   6    9.86    1.12
   5  -4   6    8.88    1.29
   5  -4   6    9.56    1.42
   5   4   6    8.76    1.19
  -5   4  -6   10.46    1.83
   5  -4   6    9.99    1.40
   5  -4   6   10.13    1.50
   5  -4   6    9.70    1.48
   5  -4   6    7.89    1.32
   5  -4   6   10.87    1.57
   5   4   6   10.43    1.28
   5   4   6   10.39    1.37
   5   4   6   10.14    1.37
   5  -4   7    5.11    1.06
   5  -4   7    4.09    1.08
   5  -4   7    3.84    0.95
   5  -4   7    5.27    1.08
   5   4   7    5.79    1.01
  -5   4  -7    5.98    1.51
   5  -4   7    4.98    1.07
   5  -4   7    4.50    1.08
   5  -4   7    5.67    1.22
   5  -4   7    5.26    1.07
   5   4   7    5.44    0.94
   5   4   7    4.74    1.01
   5  -4   7    5.85    1.19
   5   4   7    5.24    1.05
   5  -4   8    8.75    1.34
   5  -4   8   10.45    1.48
   5  -4   8   11.04    1.36
   5  -4   8    9.28    1.35
  -5   4  -8   10.59    1.76
   5  -4   8   10.23    1.24
   5  -4   8    9.79    1.32
   5  -4   8    8.54    1.41
   5  -4   8   10.19    1.42
   5   4   8   11.02    1.21
   5  -4   8   11.58    1.54
   5   4   8    8.57    1.23
   5  -4   9   33.92    2.44
   5  -4   9   36.98    2.62
   5  -4   9   36.49    2.37
   5  -4   9   30.69    2.37
  -5   4  -9   33.19    2.80
   5  -4   9   32.90    2.03
   5  -4   9   38.25    2.66
   5  -4   9   33.02    2.24
   5  -4   9   38.99    2.49
   5   4   9   36.14    2.07
   5  -4   9   34.98    2.52
   5   4   9   34.07    2.34
   5   4   9   32.87    2.25
   5  -4  10  106.92    4.81
   5  -4  10  111.29    4.69
   5  -4  10  103.95    4.80
   5   4  10  108.54    4.40
   5  -4  10  109.36    4.49
   5  -4  10  105.80    4.94
   5   4  10  103.20    4.14
   5  -4  10  108.99    4.80
   5   4  10  103.82    4.63
   5   4  10  106.80    4.59
   5  -4  11   86.69    3.69
   5  -4  11   98.05    3.66
   5  -4  11   91.01    3.80
   5   4  11   94.03    3.29
   5  -4  11   94.99    3.95
   5  -4  11  100.40    3.68
   5   4  11   99.15    3.60
   5  -4  12    7.26    0.84
   5   4  12    6.56    0.68
   5  -4  12    6.66    0.82
   5   4  12    6.02    0.78
   5  -4  13   83.42    3.10
   5   4  13   83.08    3.15
  -5  -5  11    7.80    0.71
  -5   5  11    8.49    0.73
  -5  -5  10   11.77    0.95
  -5  -5  10   13.71    1.11
  -5   5  10   12.98    0.90
  -5  -5  10   13.52    1.01
  -5   5  10   13.68    1.10
   5   5  -9   59.93    2.50
   5  -5  -9   51.61    2.51
  -5   5   9   53.36    3.06
   5  -5  -9   52.09    2.56
   5  -5  -9   45.76    2.10
  -5   5   9   54.17    2.37
  -5  -5   9   58.83    2.61
  -5   5   8   44.54    2.40
   5   5  -8   44.47    2.23
  -5   5   8   42.22    2.90
   5  -5  -8   40.14    2.32
   5  -5  -8   41.27    2.02
  -5   5   8   41.02    2.07
  -5  -5   8   35.16    2.04
  -5  -5   8   45.84    2.38
  -5   5   7    0.75    0.61
   5   5  -7    0.51    0.55
  -5   5   7    0.80    0.62
   5  -5  -7    0.32    0.44
  -5   5   7    0.29    0.74
   5  -5  -7    0.90    0.60
   5  -5  -7    0.33    0.54
  -5   5   7    0.61    0.40
  -5  -5   7    0.84    0.57
  -5  -5   7    0.62    0.58
  -5   5   6   26.02    1.91
   5  -5  -6   24.85    1.83
  -5   5   6   21.19    1.91
   5  -5  -6   23.50    1.78
   5  -5  -6   23.48    1.65
  -5   5   6   18.76    1.43
  -5   5   5   20.81    1.80
   5   5  -5   20.48    1.56
   5  -5  -5   18.28    1.67
  -5   5   5   16.29    1.85
   5  -5  -5   13.24    1.18
  -5   5   5   16.93    2.14
   5  -5  -5   17.53    1.65
  -5   5   4    8.51    1.27
   5   5  -4    9.81    1.12
  -5   5   4    7.91    1.27
  -5   5   4    6.79    1.30
   5  -5  -4    6.92    0.90
   5  -5  -4    7.22    1.15
  -5   5   4    8.91    1.68
   5   5  -4    9.46    1.16
   5  -5  -4    7.53    1.15
  -5   5   3    1.18    0.77
   5   5  -3    1.71    0.65
   5  -5  -3    0.48    0.59
   5  -5  -3    1.12    0.66
  -5   5   3    0.71    0.79
   5  -5  -3    1.05    0.56
   5  -5  -3    0.50    0.62
  -5   5   3    1.67    1.05
   5   5  -3    0.83    0.66
   5  -5  -3    0.78    0.62
  -5   5   3    1.25    0.68
   5  -5  -2   56.95    3.27
   5   5  -2   57.40    2.91
   5  -5  -2   58.73    3.11
   5   5  -2   55.49    2.73
   5  -5  -2   58.80    3.33
   5  -5  -2   58.69    3.08
  -5   5   2   52.96    3.70
   5  -5  -2   52.71    2.91
  -5   5   2   64.31    4.37
   5  -5  -2   61.14    3.34
  -5   5   2   55.16    3.11
   5   5  -1   16.04    1.36
   5  -5  -1   13.59    1.45
   5   5  -1   17.41    1.38
   5  -5  -1   13.52    1.62
   5  -5  -1   17.92    1.68
   5  -5  -1   12.58    1.39
  -5   5   1   14.95    2.18
   5  -5  -1   14.94    1.61
  -5   5   1   14.04    1.52
   5   5   0    4.55    0.74
   5  -5   0    4.77    0.92
   5   5   0    5.82    0.88
  -5   5   0    5.57    1.38
   5  -5   0    5.62    1.10
  -5   5   0    6.67    1.48
   5  -5   0    5.69    0.98
   5  -5   0    5.85    1.00
   5  -5   0    4.04    1.04
  -5   5   0    5.33    1.44
   5   5   0    6.33    1.03
   5  -5   0    5.28    1.07
  -5   5   0    5.06    1.00
   5  -5   1    1.57    0.80
   5  -5   1    1.82    0.71
   5   5   1    1.55    0.61
  -5   5  -1    2.39    1.11
   5  -5   1    2.13    0.95
  -5   5  -1    1.41    1.01
   5  -5   1    1.87    0.76
   5  -5   1    1.44    0.62
   5  -5   1    2.03    0.86
  -5   5  -1    1.17    1.09
   5   5   1    2.22    0.71
   5  -5   1    1.94    0.78
  -5   5  -1    1.96    0.77
   5  -5   2   10.69    1.35
   5   5   2   14.68    1.37
  -5   5  -2   12.65    1.98
   5  -5   2   15.86    1.63
   5  -5   2   15.30    1.66
  -5   5  -2   11.20    1.81
   5  -5   2   11.78    1.28
   5  -5   2   15.05    1.58
  -5   5  -2   14.27    2.08
   5  -5   2   14.24    1.58
   5   5   2   13.97    1.39
  -5   5  -2   13.76    1.48
   5  -5   2   14.98    1.58
   5  -5   3   39.49    2.53
   5   5   3   40.01    2.36
   5  -5   3   41.48    2.75
   5  -5   3   45.24    2.78
  -5   5  -3   35.91    3.12
   5  -5   3   35.29    2.27
   5  -5   3   46.06    2.71
   5  -5   3   40.93    2.36
  -5   5  -3   39.18    3.26
   5  -5   3   40.09    2.63
   5   5   3   45.70    2.53
  -5   5  -3   42.65    2.58
   5  -5   3   38.82    2.60
   5  -5   4   88.94    4.32
   5   5   4   94.05    4.16
  -5   5  -4  101.86    5.55
   5  -5   4  101.75    4.70
   5  -5   4   79.62    3.97
   5  -5   4  105.00    4.58
   5  -5   4  100.03    4.28
   5  -5   4   92.52    4.45
   5   5   4   98.75    4.20
   5   5   4   92.97    4.32
  -5   5  -4   98.40    4.36
   5  -5   4   97.75    4.53
   5  -5   5   24.19    1.96
   5   5   5   28.00    1.87
  -5   5  -5   28.07    2.70
   5  -5   5   30.64    2.16
   5  -5   5   26.83    2.15
   5  -5   5   21.83    1.70
   5  -5   5   32.16    2.20
   5  -5   5   30.45    2.03
   5  -5   5   25.12    2.00
   5   5   5   27.86    1.82
   5   5   5   29.05    2.03
  -5   5  -5   28.86    1.96
   5  -5   5   27.47    2.07
   5  -5   6    8.30    1.21
   5  -5   6    8.26    1.23
   5  -5   6    8.76    0.98
   5  -5   6    8.35    1.15
   5   5   6   10.25    1.08
  -5   5  -6   10.94    1.73
   5  -5   6    8.99    1.17
   5  -5   6    8.28    1.21
   5  -5   6    9.58    1.25
   5  -5   6    6.16    0.90
   5  -5   6    9.45    1.15
   5   5   6    9.72    1.01
   5   5   6    8.97    1.11
  -5   5  -6    7.97    1.02
   5  -5   7   15.39    1.49
   5  -5   7   15.45    1.53
   5  -5   7   16.38    1.32
   5  -5   7   14.31    1.44
   5   5   7   17.02    1.34
  -5   5  -7   17.42    1.98
   5  -5   7   14.56    1.34
   5  -5   7   16.92    1.61
   5  -5   7   17.04    1.46
   5   5   7   15.82    1.18
   5   5   7   17.07    1.46
  -5   5  -7   14.03    1.23
   5  -5   8   35.20    2.20
   5  -5   8   40.00    2.35
   5  -5   8   35.08    1.96
   5  -5   8   33.16    2.15
  -5   5  -8   35.20    2.63
   5  -5   8   33.94    1.90
   5  -5   8   36.56    2.29
   5  -5   8   40.09    2.19
   5  -5   8   38.16    2.15
   5   5   8   37.52    2.11
  -5   5  -8   29.64    1.78
   5  -5   9    6.60    0.93
   5  -5   9    7.38    0.80
   5   5   9    7.13    0.76
   5  -5   9    6.56    0.84
   5  -5   9    6.88    0.92
   5  -5   9    7.02    0.87
   5   5  10   28.15    1.43
   5  -5  10   29.68    1.55
   5  -5  10   28.55    1.49
   5  -5  10   30.89    1.64
  -5   6   7   26.88    1.31
  -5   6   6   26.25    1.46
   5  -6  -6   25.12    1.24
  -5   6   6   27.27    1.40
  -5   6   5    4.35    0.70
   5  -6  -5    5.02    0.65
  -5   6   5    4.48    0.64
  -5   6   4   73.57    3.14
   5  -6  -4   62.68    2.92
  -5   6   4   65.33    3.67
   5  -6  -4   69.60    2.88
  -5   6   4   71.88    2.96
  -5   6   3   70.20    3.08
   5  -6  -3   59.52    2.85
  -5   6   3   62.38    3.64
   5  -6  -3   63.67    2.80
  -5   6   2    0.42    0.50
   5  -6  -2    0.43    0.44
   5  -6  -2    0.32    0.36
   5  -6  -2    1.00    0.42
  -5   6   2    0.20    0.53
   5  -6  -2   -0.04    0.49
  -5   6   2    0.08    0.64
  -5   6   1   37.83    2.08
   5  -6  -1   31.93    1.90
   5  -6  -1   29.95    1.78
   5  -6  -1   31.59    1.88
   5  -6  -1   34.93    1.74
  -5   6   1   31.76    2.53
  -5   6   0   22.53    1.62
   5  -6   0   20.16    1.50
   5  -6   0   18.68    1.38
  -5   6   0   19.93    1.75
   5  -6   0   19.88    1.47
   5  -6   0   21.41    1.41
   5  -6   0   17.14    1.19
  -5   6   0   19.65    1.97
   5   6   0   22.81    1.41
  -5   6   0   21.76    1.48
   5  -6   1   20.84    1.52
  -5   6  -1   23.02    1.93
   5  -6   1   22.66    1.49
   5  -6   1   20.99    1.51
   5  -6   1   19.16    1.22
   5  -6   1   17.90    1.25
  -5   6  -1   19.93    1.98
   5  -6   1   19.45    1.43
   5   6   1   22.59    1.36
  -5   6  -1   20.04    1.42
   5  -6   2    5.69    0.84
   5  -6   2    5.80    0.81
   5   6   2    7.87    0.80
  -5   6  -2    7.73    1.18
   5  -6   2    8.95    0.98
   5  -6   2    6.04    0.82
   5  -6   2    7.36    0.79
   5  -6   2    5.41    0.74
   5   6   2    7.36    0.75
  -5   6  -2    7.79    0.90
   5  -6   3    0.66    0.42
   5   6   3    1.12    0.42
  -5   6  -3    1.01    0.60
   5  -6   3    1.26    0.61
   5  -6   3    0.94    0.46
   5  -6   3    0.54    0.40
   5  -6   3   -0.03    0.20
   5   6   3    0.74    0.35
  -5   6  -3    1.28    0.47
   5   6   4    1.67    0.46
   5  -6   4    1.70    0.51
   5  -6   4    1.01    0.45
   5   6   4    0.02    0.12
  -5   6  -4    1.14    0.42
   5   6   5    1.90    0.45
   5  -6   5    1.79    0.51
   5  -6   5    2.12    0.54
   5  -6   5    1.92    0.48
  -5   6  -5    2.26    0.45
   5   6   6   15.03    0.94
   5  -6   6   15.29    0.99
   5  -6   6   16.93    1.07
   5  -6   6   14.04    0.98
   5  -6   7  117.86    4.02
   5  -6   7  107.12    3.95
  -6   0  15   22.74    1.46
  -6   0  15   23.53    1.34
   6   0 -15   20.66    1.17
  -6   0  14   67.79    3.33
  -6   0  14   65.19    3.11
   6   0 -14   69.16    2.98
  -6   0  14   67.69    2.95
   6   0 -14   65.35    3.37
  -6   0  13   29.74    2.26
  -6   0  13   27.86    2.04
   6   0 -13   31.61    1.98
  -6   0  13   33.65    1.96
   6   0 -13   27.19    2.26
  -6   0  12   27.49    2.38
  -6   0  12   26.63    2.16
   6   0 -12   27.95    2.02
   6   0 -12   30.21    1.82
   6   0 -12   23.02    2.30
  -6   0  11   23.31    2.29
  -6   0  11   21.59    2.05
   6   0 -11   24.13    1.96
   6   0 -11   24.08    1.77
  -6   0  11   25.26    1.94
   6   0 -11   21.66    2.33
  -6   0  10   43.27    3.21
  -6   0  10   41.16    3.01
   6   0 -10   44.84    2.84
   6   0 -10   48.70    2.73
  -6   0  10   55.07    2.94
   6   0 -10   44.37    3.42
  -6   0   9  112.28    5.85
  -6   0   9  117.75    6.10
   6   0  -9  127.25    5.72
   6   0  -9  116.13    6.34
  -6   0   8  202.88    9.19
  -6   0   8  207.72    9.43
   6   0  -8  259.19    9.02
  -6   0   8  270.97    9.05
   6   0  -8  220.65    9.89
   6   0  -7    0.47    0.91
  -6   0   7    1.03    0.72
   6   0  -7    0.58    0.65
  -6   0   7    0.49    0.77
   6   0  -7    1.01    0.68
  -6   0   7    1.01    0.71
  -6   0   6   55.49    3.66
  -6   0   6   50.92    3.58
   6   0  -6   60.47    3.35
   6   0  -6   62.02    3.31
  -6   0   6   62.20    3.17
   6   0  -6   59.67    4.02
  -6   0   5  304.64   16.29
   6   0  -5  281.62   10.53
  -6   0   5  283.20   11.36
   6   0  -5  293.94   10.73
   6   0  -5  318.50   10.92
   6   0  -5  322.97   12.05
  -6   0   4   15.11    3.24
   6   0  -4   14.21    3.46
   6   0  -4   11.89    1.35
  -6   0   4   13.33    1.66
   6   0  -4   12.50    1.39
   6   0  -4   14.60    1.49
   6   0  -4   11.61    1.32
   6   0  -4    9.35    2.66
   6   0  -4   13.31    1.83
   6   0  -3  117.68    5.73
  -6   0   3  112.56    9.12
   6   0  -3  105.31    4.83
   6   0  -3  106.46    4.92
  -6   0   3  124.70    5.61
   6   0  -3  119.99    8.14
   6   0  -3  109.92    4.87
   6   0  -3  125.52    9.93
   6   0  -2   64.94    3.91
  -6   0   2   54.39    6.38
   6   0  -2   62.65    5.52
   6   0  -2   59.93    6.76
   6   0  -1   40.73    2.93
  -6   0   1   31.76    4.94
   6   0  -1   33.52    5.25
   6   0   0   15.41    1.81
   6   0   0   14.14    3.83
  -6   0  -1  115.13    9.27
   6   0   1  107.84    5.26
   6   0   1   88.55    4.36
   6   0   1   96.93    9.01
  -6   0  -2   19.02    3.73
   6   0   2   15.37    1.93
   6   0   2   13.24    3.51
   6   0   2   13.30    1.49
   6   0   3  339.23   19.35
  -6   0  -3  429.08   19.87
   6   0   3  367.98   13.86
   6   0   3  404.21   13.31
   6   0   3  380.81   13.78
   6   0   3  384.38   13.06
   6   0   3  368.12   13.01
   6   0   3  373.67   13.15
   6   0   3  306.29   12.87
  -6   0  -4   18.39    3.86
   6   0   4   15.81    1.58
   6   0   4   18.90    1.85
   6   0   4   19.48    1.86
   6   0   4   19.89    2.11
   6   0   4   21.20    1.84
   6   0   4   18.82    4.13
   6   0   4   18.36    1.73
   6   0   4   14.57    1.69
   6   0   5    1.46    0.65
   6   0   5    2.46    0.87
   6   0   5    2.04    0.78
   6   0   5    1.64    0.71
   6   0   5    1.26    0.69
   6   0   5    1.27    0.91
   6   0   5    2.43    0.88
   6   0   5    1.52    0.83
   6   0   6   44.39    2.83
   6   0   6   41.18    2.92
   6   0   6   43.18    2.66
   6   0   6   41.44    2.67
   6   0   6   42.45    3.27
   6   0   6   40.95    2.80
   6   0   6   46.17    2.94
   6   0   6   40.55    3.04
   6   0   7   46.86    3.19
   6   0   7   52.12    3.23
   6   0   7   49.98    3.07
   6   0   7   49.67    2.90
   6   0   7   52.00    3.67
   6   0   7   47.95    3.09
   6   0   7   46.91    3.04
   6   0   7   48.59    3.45
   6   0   8   25.46    2.18
   6   0   8   30.11    2.40
   6   0   8   28.55    2.42
   6   0   8   27.79    2.28
   6   0   8   28.04    2.70
   6   0   8   30.38    2.36
   6   0   8   25.85    2.52
   6   0   8   28.81    2.60
   6   0   9   17.12    1.78
   6   0   9   17.40    1.90
   6   0   9   18.34    1.84
   6   0   9   16.83    1.77
   6   0   9   21.13    1.89
   6   0   9   16.12    2.00
   6   0  10   59.04    3.39
   6   0  10   54.30    3.42
   6   0  10   57.12    3.31
   6   0  10   59.47    3.36
   6   0  10   54.49    3.11
   6   0  10   56.40    3.73
   6   0  11   21.00    1.84
   6   0  11   16.79    1.78
   6   0  11   19.02    1.71
   6   0  11   19.35    1.68
   6   0  11   19.29    1.76
   6   0  11   18.28    1.56
   6   0  11   16.51    1.99
   6   0  12    2.46    0.82
   6   0  12    1.60    0.80
   6   0  12    1.68    0.65
   6   0  12    1.67    0.68
   6   0  12    1.81    0.67
   6   0  12    1.38    0.90
   6   0  13   77.28    2.77
   6   0  13   70.04    2.48
   6   0  13   67.59    3.04
   6   0  14    5.04    0.80
   6   0  14    3.61    0.64
   6   0  15    4.64    0.50
  -6  -1  15   41.05    1.96
  -6   1  15   45.07    2.06
   6   1 -15   41.66    1.85
  -6  -1  14   27.01    1.57
  -6   1  14   24.01    1.52
   6   1 -14   23.95    1.34
   6  -1 -14   24.77    1.20
  -6   1  14   26.94    1.42
  -6  -1  13  157.49    4.26
  -6   1  13  154.08    4.30
  -6   1  13  131.26    3.33
   6   1 -13  155.57    3.73
   6  -1 -13  163.05    3.60
  -6  -1  13  134.78    3.27
   6   1 -13  141.92    4.20
   6  -1 -13  139.47    4.15
  -6   1  12    9.79    1.42
  -6   1  12    9.78    1.20
  -6  -1  12   10.32    1.40
   6   1 -12   10.46    1.22
   6  -1 -12   11.31    1.25
   6   1 -12   11.58    1.10
  -6  -1  12    7.84    1.07
  -6  -1  12    7.96    1.16
  -6   1  12   12.22    1.31
   6   1 -12    9.87    1.43
   6  -1 -12   11.27    1.51
  -6  -1  11   82.77    4.46
  -6   1  11   83.75    4.52
  -6   1  11   71.10    3.93
   6   1 -11   85.85    4.13
   6  -1 -11   90.17    4.11
   6   1 -11   88.33    3.87
   6  -1 -11   83.78    3.81
  -6  -1  11   88.72    4.06
  -6   1  11   99.53    4.10
   6   1 -11   71.91    4.38
   6  -1 -11   78.58    4.51
  -6  -1  10   40.15    2.94
  -6   1  10   38.46    2.94
  -6   1  10   31.22    2.45
   6  -1 -10   43.67    2.66
   6   1 -10   41.40    2.50
   6  -1 -10   36.38    2.33
  -6  -1  10   45.49    2.69
  -6   1  10   50.99    2.73
   6   1 -10   35.79    2.97
   6  -1 -10   37.85    3.05
   6   1  -9    5.04    1.32
   6  -1  -9    5.23    1.38
  -6   1   9    3.71    0.95
  -6  -1   9    5.03    1.24
  -6   1   9    4.57    1.17
   6   1  -9    5.65    1.09
   6  -1  -9    5.77    1.10
   6   1  -9    4.80    0.95
   6  -1  -9    5.16    0.97
  -6  -1   9    7.78    1.26
  -6   1   9    5.72    1.07
  -6   1   8   88.01    4.81
  -6  -1   8   86.64    5.12
  -6   1   8   97.44    5.32
   6   1  -8  101.15    4.87
   6  -1  -8  125.24    5.20
   6   1  -8  108.80    4.93
   6  -1  -8  115.82    4.92
  -6  -1   8  122.54    5.02
  -6   1   8  122.96    4.95
   6   1  -8   93.96    5.45
   6  -1  -8   97.88    5.54
  -6   1   7  132.24    6.60
  -6  -1   7  140.78    7.00
  -6   1   7  142.10    7.05
   6   1  -7  159.43    6.63
   6   1  -7  154.72    6.66
   6  -1  -7  187.19    6.98
   6   1  -7  172.94    6.78
   6  -1  -7  163.71    6.61
  -6  -1   7  192.13    6.82
  -6   1   7  184.94    6.70
   6   1  -7  163.93    7.59
   6  -1  -7  162.76    7.65
  -6   1   6   85.82    4.58
  -6  -1   6   84.70    4.72
  -6   1   6   88.26    4.85
   6   1  -6   91.84    4.33
   6   1  -6   95.43    4.53
   6   1  -6   87.71    4.36
   6   1  -6   95.84    4.49
   6  -1  -6  106.93    4.62
  -6  -1   6   95.40    4.31
  -6   1   6   95.46    4.29
   6   1  -6   93.93    5.19
   6  -1  -6   94.63    5.21
  -6   1   5   80.09    4.29
   6   1  -5   77.22    3.93
  -6  -1   5   80.47    4.48
  -6   1   5   81.77    4.55
   6   1  -5   78.91    4.07
   6   1  -5   77.33    3.93
   6  -1  -5   73.42    3.81
   6  -1  -5   90.87    4.13
  -6   1   5   78.42    3.75
   6   1  -5   84.29    4.80
   6  -1  -5   96.75    5.12
  -6  -1   4   52.90    6.25
  -6   1   4   39.35    4.97
   6   1  -4   42.04    2.67
   6  -1  -4   39.31    2.55
  -6  -1   4   45.05    3.12
  -6   1   4   44.44    3.14
   6   1  -4   43.65    2.81
   6  -1  -4   42.64    2.64
   6   1  -4   34.46    2.43
   6  -1  -4   48.43    2.88
   6   1  -4   40.53    2.72
   6  -1  -4   49.86    5.39
   6   1  -4   42.81    2.70
   6  -1  -4   41.91    2.62
   6  -1  -4   45.84    5.96
   6   1  -4   45.40    6.11
   6   1  -4   44.04    3.24
   6  -1  -4   48.94    3.41
   6   1  -3   94.78    4.88
   6  -1  -3   89.07    4.72
  -6  -1   3   84.32    8.06
  -6   1   3   72.35    6.99
   6   1  -3   73.26    3.74
   6   1  -3   77.15    3.92
   6  -1  -3   71.41    3.75
   6   1  -3   80.22    4.07
   6  -1  -3   75.48    3.89
  -6  -1   3   87.29    4.43
  -6   1   3   88.35    4.50
   6   1  -3   79.67    3.86
   6  -1  -3   88.85    4.12
   6   1  -3   76.59    4.01
   6  -1  -3   86.42    7.05
   6   1  -3   83.42    4.00
   6  -1  -3   73.27    3.84
   6  -1  -3   83.76    3.96
   6  -1  -3   94.65    8.52
   6   1  -3   96.97    8.74
   6   1  -2  128.95    5.99
   6  -1  -2  122.13    5.78
  -6  -1   2  122.28    9.77
  -6   1   2  116.66    9.02
   6   1  -2  102.40    5.13
   6   1  -2  115.16    5.14
   6  -1  -2  112.17    5.09
   6   1  -2  115.34    5.22
   6  -1  -2  114.54    5.15
  -6  -1   2  112.44    5.58
  -6   1   2  130.22    5.85
   6  -1  -2  131.13    5.34
   6   1  -2  112.29    5.20
   6  -1  -2  110.47    7.96
   6   1  -2  118.45    5.12
   6  -1  -2  112.82    5.11
   6  -1  -2  120.95    5.10
   6  -1  -2  135.93   10.28
   6   1  -2  117.90    9.65
   6   1  -1  313.45   11.21
   6  -1  -1  306.85   11.13
  -6   1   1  295.20   15.59
   6   1  -1  269.60   10.24
   6  -1  -1  276.42   10.28
   6   1  -1  281.37   10.37
   6  -1  -1  264.69   10.26
   6   1  -1  283.87   10.44
   6  -1  -1  297.35   13.94
   6  -1  -1  269.96   10.27
   6  -1  -1  304.10   16.49
   6   1  -1  291.55   16.52
  -6  -1   0   67.77    7.18
  -6   1   0   83.36    7.62
   6   1   0   82.25    4.43
   6  -1   0   86.99    4.44
   6  -1   0   72.87    3.77
   6  -1   0   69.52    3.78
   6   1   0   71.72    3.86
   6  -1   0   72.20    3.82
   6  -1   0   82.66    7.97
   6   1   0   82.64    8.11
  -6  -1  -1  139.44   10.53
  -6   1  -1  144.74   10.26
   6  -1   1  131.61    6.21
   6   1   1  123.44    5.69
   6   1   1  151.52    6.47
   6   1   1  132.70    5.66
   6   1   1  139.52    5.84
   6  -1   1  129.61    5.80
   6   1   1  127.34    5.73
   6  -1   1  125.01    5.74
   6  -1   1  133.53   10.48
   6   1   1  137.72   10.80
   6  -1   2  473.97   23.89
   6   1   2  520.47   24.68
  -6  -1  -2  603.00   25.09
   6   1   2  497.18   18.11
   6  -1   2  509.75   18.08
   6   1   2  570.63   17.75
   6  -1   2  500.83   17.34
   6   1   2  529.08   17.36
   6  -1   2  513.06   17.43
   6   1   2  500.76   17.31
   6  -1   2  491.36   17.41
   6  -1   2  527.91   17.71
   6   1   2  484.57   17.05
   6  -1   3   49.75    6.42
   6   1   3   50.06    6.48
  -6  -1  -3   57.45    6.72
  -6   1  -3   57.98    6.47
   6   1   3   52.77    3.15
   6   1   3   58.88    3.76
   6  -1   3   57.97    3.70
   6   1   3   64.07    3.49
   6  -1   3   57.49    3.29
   6  -1   3   53.43    3.55
   6   1   3   55.86    3.64
   6   1   3   62.75    3.29
   6  -1   3   59.05    3.31
   6   1   3   60.49    3.34
   6  -1   3   55.31    3.32
   6   1   3   54.56    3.27
   6  -1   3   57.25    3.34
   6  -1   3   51.41    3.33
  -6  -1  -4  148.96   11.41
   6   1   4  168.30    7.11
   6  -1   4  175.41    7.24
   6   1   4  158.70    6.63
   6  -1   4  180.34    7.81
   6   1   4  182.27    7.85
   6   1   4  193.71    7.16
   6  -1   4  180.98    7.20
   6   1   4  194.48    7.30
   6  -1   4  170.72    7.23
   6   1   4  184.45    7.38
   6  -1   4  184.97    7.42
   6  -1   4  167.82    7.44
   6   1   5   52.90    3.18
   6   1   5   50.51    3.33
   6  -1   5   47.06    3.11
   6   1   5   53.50    3.28
   6  -1   5   60.26    3.42
   6   1   5   53.78    2.93
   6   1   5   56.52    3.07
   6  -1   5   53.88    3.13
   6  -1   5   52.61    3.60
   6   1   5   53.91    3.69
   6   1   5   56.72    3.13
   6  -1   5   54.76    3.23
   6   1   5   58.33    3.41
   6  -1   5   53.10    3.52
   6   1   6  136.66    5.92
   6  -1   6  123.41    5.55
   6   1   6  131.17    6.04
   6  -1   6  126.62    5.85
   6   1   6  136.10    5.93
   6   1   6  124.09    5.38
   6   1   6  138.85    5.52
   6  -1   6  128.78    5.58
   6  -1   6  108.45    5.45
   6  -1   6  133.51    5.78
   6  -1   6  126.82    5.85
   6  -1   6  130.51    6.35
   6   1   6  126.57    6.39
   6   1   6  136.73    6.04
   6   1   6  143.84    5.94
   6  -1   6  129.52    6.25
   6   1   6  116.98    5.76
   6  -1   6  133.68    6.23
   6   1   7   51.84    3.16
   6  -1   7   45.12    2.89
   6   1   7   48.27    3.27
   6  -1   7   51.81    3.26
   6   1   7   50.97    3.18
   6  -1   7   52.44    3.20
   6   1   7   47.41    2.80
   6  -1   7   50.82    2.87
   6  -1   7   49.97    3.00
   6  -1   7   40.94    2.85
   6   1   7   50.60    3.24
   6  -1   7   51.92    3.61
   6   1   7   46.94    3.51
   6   1   7   49.86    3.06
   6  -1   7   53.22    3.24
   6  -1   7   47.02    3.44
   6   1   7   39.09    2.97
   6  -1   7   49.99    3.41
   6   1   8   66.12    3.74
   6  -1   8   63.91    3.57
   6   1   8   64.34    3.86
   6  -1   8   69.09    3.88
   6   1   8   68.29    3.73
   6   1   8   66.76    3.47
   6  -1   8   63.02    3.43
   6  -1   8   57.23    3.50
   6   1   8   67.58    3.82
   6   1   8   72.96    3.70
   6  -1   8   68.63    3.77
   6  -1   8   66.14    4.20
   6   1   8   59.41    3.77
   6  -1   8   67.08    4.06
   6   1   9   32.56    2.44
   6  -1   9   30.62    2.31
   6  -1   9   32.12    2.51
   6   1   9   35.37    2.50
   6  -1   9   30.83    2.40
   6   1   9   30.68    2.21
   6  -1   9   24.80    2.18
   6   1   9   35.99    2.60
   6   1   9   30.94    2.21
   6  -1   9   34.54    2.44
   6  -1   9   30.71    2.79
   6   1   9   30.81    2.59
   6  -1   9   34.49    2.76
   6   1  10  198.80    7.89
   6  -1  10  196.12    7.70
   6  -1  10  192.68    7.90
   6   1  10  191.11    7.59
   6  -1  10  186.99    7.72
   6   1  10  201.17    7.56
   6   1  10  200.70    7.94
   6  -1  10  186.45    7.59
   6  -1  10  203.11    8.56
   6   1  10  182.28    8.01
   6  -1  10  199.42    8.22
   6   1  11   13.94    1.54
   6  -1  11   12.10    1.38
   6   1  11   13.37    1.57
   6  -1  11   12.14    1.49
   6   1  11   11.90    1.27
   6  -1  11   11.71    1.40
   6   1  11   13.76    1.41
   6   1  11   13.08    1.51
   6  -1  11   10.93    1.29
   6   1  11   10.61    1.50
   6  -1  11   12.04    1.64
   6  -1  12  104.26    4.51
   6   1  12  101.77    4.69
   6  -1  12  101.64    4.65
   6  -1  12  104.90    4.49
   6   1  12  101.06    4.58
   6  -1  12   94.59    4.17
   6  -1  12  102.10    4.82
   6  -1  13   39.69    2.28
   6  -1  13   41.94    2.43
   6  -1  13   39.15    2.19
   6   1  13   40.44    2.16
   6   1  13   40.35    2.33
   6  -1  14   59.01    2.02
   6  -1  14   59.27    2.17
   6   1  14   60.83    2.08
   6   1  14   62.32    1.89
   6   1  14   56.69    1.82
   6  -1  15   77.22    3.03
   6  -1  15   83.91    3.15
   6  -1  15   80.25    2.92
  -6  -2  14    8.64    0.81
   6   2 -14    7.18    0.71
  -6   2  14    6.70    0.57
  -6  -2  13   84.67    3.62
  -6   2  13   89.25    3.73
   6  -2 -13   91.69    3.38
  -6  -2  13   83.72    3.66
  -6  -2  12  108.96    4.64
  -6   2  12  116.02    4.83
  -6  -2  12  117.11    4.91
   6  -2 -12  123.03    4.44
   6   2 -12  112.88    4.25
  -6  -2  12  105.88    4.67
  -6  -2  12   84.72    4.22
   6   2 -12   91.95    4.50
   6  -2 -12   90.90    4.44
  -6  -2  11   68.40    3.54
  -6   2  11   65.48    3.56
  -6  -2  11   67.96    3.66
   6   2 -11   67.75    3.34
   6  -2 -11   72.68    3.26
   6   2 -11   71.68    3.20
   6  -2 -11   63.67    2.96
  -6  -2  11   48.79    3.01
   6   2 -11   54.43    3.34
   6  -2 -11   60.30    3.41
  -6  -2  10   55.86    3.41
  -6   2  10   61.50    3.57
  -6  -2  10   64.18    3.69
   6   2 -10   61.11    3.29
   6  -2 -10   77.95    3.46
   6   2 -10   66.68    3.25
   6  -2 -10   52.78    3.01
   6  -2 -10   64.80    3.08
  -6  -2  10   54.04    3.10
  -6   2  10   84.75    3.61
   6   2 -10   54.48    3.45
   6  -2 -10   56.63    3.44
  -6  -2   9  231.09    9.02
  -6   2   9  227.09    9.05
  -6  -2   9  236.83    9.29
   6   2  -9  216.87    8.58
   6  -2  -9  239.78    8.64
   6  -2  -9  209.61    8.44
   6   2  -9  243.69    8.67
   6  -2  -9  225.27    8.40
  -6  -2   9  203.47    8.39
   6   2  -9  202.77    8.91
   6  -2  -9  209.24    8.91
  -6  -2   8   95.41    4.96
  -6   2   8   98.09    5.00
  -6  -2   8  109.05    5.35
   6   2  -8   96.07    4.64
   6  -2  -8  123.89    5.00
   6  -2  -8   90.64    4.59
   6   2  -8  108.47    4.78
   6  -2  -8  107.62    4.65
  -6  -2   8   87.60    4.46
  -6   2   8  132.35    5.05
   6   2  -8   88.79    5.00
   6  -2  -8   87.23    4.91
  -6  -2   7   88.48    4.75
  -6  -2   7   77.67    4.34
  -6   2   7   91.73    4.61
   6   2  -7   81.21    3.98
   6   2  -7   75.27    4.02
   6  -2  -7  102.01    4.45
   6  -2  -7   78.50    4.17
   6   2  -7   90.61    4.30
   6  -2  -7   84.47    4.11
  -6  -2   7   74.08    3.92
  -6   2   7  104.55    4.42
   6   2  -7   81.71    4.56
   6  -2  -7   77.98    4.49
   6  -2  -6   86.07    4.63
  -6  -2   6   82.79    4.47
  -6   2   6   82.31    4.52
   6   2  -6   86.22    4.20
   6   2  -6   85.64    4.36
   6   2  -6   77.90    4.07
   6  -2  -6   99.82    4.56
   6  -2  -6   87.66    4.37
   6   2  -6   89.28    4.34
   6  -2  -6   90.37    4.29
  -6   2   6   98.54    4.36
   6   2  -6   81.40    4.61
   6   2  -5   69.39    4.06
   6  -2  -5   70.04    4.01
   6   2  -5   65.10    3.47
  -6  -2   5   64.63    3.75
  -6   2   5   71.06    3.91
   6   2  -5   65.90    3.58
   6   2  -5   67.99    3.75
   6   2  -5   58.73    3.33
   6  -2  -5   70.97    3.74
   6  -2  -5   69.76    3.77
   6  -2  -5   67.50    3.59
  -6   2   5   67.48    3.56
   6   2  -4  597.90   19.41
   6  -2  -4  605.76   19.35
   6   2  -4  526.74   18.60
  -6  -2   4  577.00   19.01
  -6   2   4  592.21   19.19
   6  -2  -4  471.40   18.19
   6   2  -4  539.71   18.79
   6  -2  -4  631.50   19.12
   6   2  -4  505.87   18.35
   6   2  -4  542.42   18.61
   6  -2  -4  583.54   18.92
   6   2  -3   87.69    4.54
   6  -2  -3   89.74    4.47
   6   2  -3   78.30    3.91
   6   2  -3   76.50    4.00
   6  -2  -3   69.49    3.76
  -6  -2   3   70.89    4.03
  -6   2   3   90.58    4.43
   6   2  -3   79.45    4.13
   6  -2  -3   71.02    3.81
   6   2  -3   79.19    3.97
   6  -2  -3   86.59    4.25
   6  -2  -3   78.09    3.95
   6   2  -2  952.41   28.61
   6  -2  -2  981.75   28.55
   6   2  -2  866.73   27.75
   6   2  -2  851.51   27.89
   6  -2  -2  778.56   27.61
   6   2  -2  847.82   28.08
  -6  -2   2  895.75   28.13
  -6   2   2  914.83   28.30
   6  -2  -2  775.61   27.65
   6  -2  -2  937.84   28.12
   6   2  -2  847.03   28.05
   6   2  -2  831.36   27.67
   6  -2  -2  940.66   28.25
   6  -2  -2  819.25   27.66
   6   2  -2  766.63   27.34
   6   2  -1  218.78    8.36
   6  -2  -1  214.27    8.16
   6   2  -1  200.13    7.67
   6  -2  -1  185.32    7.73
   6   2  -1  193.37    7.75
   6  -2  -1  173.18    7.53
   6  -2  -1  185.59    7.66
  -6  -2   1  203.11    7.97
  -6   2   1  200.33    8.04
   6  -2  -1  200.68    7.86
   6   2  -1  203.92    8.00
   6   2  -1  175.89    7.41
   6  -2  -1  225.94    8.18
   6  -2  -1  186.43    7.51
   6   2  -1  186.61    7.40
   6   2  -1  194.52   13.22
   6   2   0  424.11   21.22
   6   2   0  470.64   14.88
   6   2   0  463.67   15.44
   6  -2   0  434.14   15.18
   6   2   0  421.26   15.01
   6  -2   0  414.95   14.79
   6  -2   0  403.19   14.70
   6   2   0  446.40   15.01
   6  -2   0  422.49   14.82
   6  -2   0  424.61   14.85
   6   2   0  438.64   15.12
   6  -2   0  389.69   14.50
   6   2   0  416.85   14.47
   6  -2   0  430.36   15.08
   6  -2   0  402.31   14.45
   6   2   0  412.01   14.47
   6  -2   0  455.66   21.28
   6   2   1   74.22    3.73
   6   2   1   81.79    4.21
   6  -2   1   78.60    4.08
   6   2   1   76.78    4.04
   6  -2   1   65.74    3.67
   6   2   1   69.37    3.73
   6  -2   1   67.15    3.71
   6   2   1   71.75    3.77
   6  -2   1   69.88    3.78
   6  -2   1   63.52    3.64
   6  -2   1   62.85    3.57
   6  -2   1   68.72    3.87
   6  -2   1   65.55    3.45
   6   2   1   62.56    3.44
   6  -2   2  106.46    5.09
   6   2   2  130.86    5.99
   6  -2   2  125.61    5.81
   6  -2   2  112.35    5.32
   6  -2   2  123.30    5.77
   6   2   2  127.07    5.89
   6  -2   2  124.18    5.57
   6   2   2  132.69    5.60
  -6   2  -2  113.91    5.93
   6   2   2  145.40    5.80
   6  -2   2  126.27    5.69
   6  -2   2  116.38    5.44
   6   2   2  134.74    5.82
   6  -2   2  123.10    5.54
   6  -2   2  145.70    6.11
   6   2   2  113.58    5.23
   6  -2   3  127.22    5.70
   6   2   3  159.94    6.48
   6  -2   3  133.00    5.94
   6   2   3  129.14    5.52
   6   2   3  152.87    6.07
   6  -2   3  135.22    6.29
   6   2   3  144.48    6.46
   6  -2   3  128.84    5.97
   6  -2   3  140.14    6.09
   6   2   3  150.47    6.09
   6   2   3  151.30    6.32
   6  -2   3  136.87    6.11
   6  -2   3  143.92    6.45
   6   2   3  140.50    5.91
   6   2   3  129.67    5.90
   6  -2   4   58.82    3.45
   6   2   4   75.31    3.95
   6  -2   4   71.51    3.82
   6   2   4   66.54    3.41
   6   2   4   76.17    3.72
   6  -2   4   71.08    3.85
   6  -2   4   69.54    3.76
   6   2   4   69.20    3.87
   6   2   4   71.08    3.65
   6  -2   4   69.34    4.03
   6   2   4   72.54    4.16
   6  -2   4   68.46    3.87
   6   2   4   76.09    3.95
   6  -2   4   66.99    3.86
   6  -2   4   70.25    4.14
   6   2   4   70.16    3.68
   6   2   4   68.35    3.72
   6   2   5  171.64    7.14
   6  -2   5  142.14    6.67
   6   2   5  191.30    7.36
   6  -2   5  164.88    7.06
   6   2   5  160.49    6.61
   6   2   5  178.55    6.84
   6  -2   5  173.54    7.00
   6  -2   5  161.54    7.08
   6  -2   5  167.76    7.10
   6  -2   5  170.70    7.40
   6   2   5  166.21    7.44
   6   2   5  185.82    7.16
   6  -2   5  165.77    7.13
   6  -2   5  175.25    7.60
   6   2   5  174.23    6.95
   6   2   5  167.92    6.95
   6   2   6  104.70    5.05
   6  -2   6   91.40    4.75
   6   2   6  113.22    5.14
   6  -2   6  103.58    5.06
   6   2   6  105.82    4.73
   6  -2   6  104.99    4.87
   6  -2   6  100.97    5.08
   6  -2   6  106.41    5.05
   6  -2   6   98.72    5.20
   6   2   6  106.81    5.39
   6   2   6  118.56    5.08
   6  -2   6  107.93    5.16
   6   2   6  109.30    4.92
   6  -2   6  105.17    5.20
   6   2   6  105.94    4.93
   6   2   7  150.19    6.48
   6  -2   7  123.58    6.11
   6   2   7  155.25    6.41
   6  -2   7  150.84    6.50
   6   2   7  149.65    6.12
   6  -2   7  148.25    6.12
   6  -2   7  137.37    6.44
   6  -2   7  146.15    6.31
   6   2   7  165.59    6.35
   6   2   7  157.58    6.35
   6  -2   7  151.84    6.70
   6   2   7  145.34    6.20
   6   2   8   18.60    1.86
   6  -2   8   15.56    1.71
   6  -2   8   19.22    1.82
   6   2   8   21.11    1.87
   6  -2   8   18.70    1.85
   6   2   8   18.50    1.68
   6  -2   8   17.37    1.57
   6  -2   8   17.96    1.90
   6  -2   8   18.27    1.73
   6   2   8   18.49    1.92
   6   2   8   19.25    1.67
   6  -2   8   20.08    1.90
   6  -2   8   20.52    2.27
   6  -2   8   17.73    1.95
   6   2   8   17.98    1.69
   6  -2   9    0.38    0.56
   6  -2   9    0.31    0.64
   6  -2   9    0.65    0.66
   6   2   9    0.55    0.55
   6  -2   9    0.15    0.68
   6   2   9    0.80    0.67
   6  -2   9    0.72    0.57
   6   2   9    0.71    0.76
   6  -2   9    1.40    0.81
   6  -2   9    0.15    0.68
   6   2   9    0.13    0.59
   6  -2   9    0.31    0.91
   6  -2   9    1.28    0.84
   6   2   9    0.77    0.55
   6   2  10   33.84    2.10
   6  -2  10   33.44    2.25
   6  -2  10   30.90    2.37
   6  -2  10   35.52    2.40
   6   2  10   33.59    2.15
   6   2  10   38.74    2.35
   6  -2  10   30.85    2.02
   6  -2  10   33.55    2.49
   6   2  10   39.75    2.62
   6  -2  10   37.45    2.46
   6   2  10   39.02    2.39
   6  -2  10   37.23    2.92
   6  -2  10   37.68    2.67
   6   2  11   18.05    1.40
   6   2  11   18.00    1.67
   6  -2  11   18.63    1.55
   6  -2  11   15.97    1.61
   6  -2  11   19.92    1.71
   6  -2  11   19.18    1.69
   6   2  11   21.89    1.63
   6  -2  11   17.65    1.70
   6  -2  11   17.53    1.59
   6   2  11   19.68    1.59
   6  -2  11   20.81    2.05
   6  -2  11   19.86    1.83
   6   2  12   59.73    2.78
   6   2  12   68.24    3.24
   6  -2  12   63.63    3.02
   6  -2  12   54.48    3.07
   6  -2  12   70.57    3.24
   6  -2  12   63.17    3.13
   6  -2  12   57.73    3.15
   6  -2  12   66.70    3.04
   6   2  12   66.85    3.03
   6  -2  12   66.15    3.60
   6  -2  12   71.50    3.44
   6   2  13   66.59    1.81
   6  -2  13   72.05    2.21
   6  -2  13   75.63    2.40
   6  -2  13   75.48    2.33
   6   2  13   76.10    2.17
   6   2  13   74.89    2.12
   6  -2  13   75.92    2.87
   6  -2  14   16.19    1.03
   6  -2  14   15.59    1.07
   6  -2  14   14.34    0.95
   6   2  14   17.97    1.01
  -6  -3  13    4.35    0.52
  -6   3  13    4.98    0.58
  -6  -3  13    4.26    0.61
  -6  -3  12   26.25    1.56
  -6  -3  12   33.42    1.83
   6   3 -12   31.51    1.71
   6   3 -12   29.83    1.50
  -6   3  12   33.57    1.79
  -6  -3  12   34.58    1.97
  -6   3  12   26.38    1.52
   6   3 -11   22.29    1.40
  -6  -3  11   24.44    1.72
   6   3 -11   24.20    1.57
   6  -3 -11   23.71    1.39
  -6   3  11   23.76    2.09
   6   3 -11   25.78    1.52
   6  -3 -11   19.39    1.47
   6  -3 -11   21.24    1.28
  -6  -3  11   14.69    1.34
  -6   3  11   29.53    1.89
  -6   3  11   20.50    1.47
   6   3 -10    5.12    0.78
  -6  -3  10    4.88    0.99
   6  -3 -10    5.56    0.79
   6   3 -10    5.53    0.86
   6  -3 -10    6.10    0.79
   6   3 -10    5.96    0.87
   6  -3 -10    5.11    0.89
  -6  -3  10    3.69    0.80
  -6   3  10    5.31    1.13
  -6   3  10    5.21    0.85
  -6  -3   9   46.04    2.77
   6   3  -9   37.58    2.28
   6  -3  -9   42.04    2.32
   6   3  -9   42.23    2.39
   6  -3  -9   37.43    2.44
   6  -3  -9   38.13    2.22
  -6   3   9   45.88    2.70
  -6   3   9   38.68    2.43
  -6  -3   8   18.17    1.84
   6   3  -8   17.99    1.56
   6  -3  -8   20.05    1.64
   6   3  -8   21.35    1.73
   6  -3  -8   18.28    1.75
   6  -3  -8   18.56    1.59
  -6  -3   8   13.23    1.44
  -6   3   8   21.31    1.90
  -6  -3   7   94.94    4.72
   6   3  -7   85.39    4.04
   6  -3  -7   90.33    4.20
   6   3  -7   95.51    4.37
   6  -3  -7   87.91    4.45
   6  -3  -7   93.05    4.25
  -6   3   7   89.50    4.46
  -6  -3   6    8.73    1.49
   6   3  -6   10.59    1.29
   6   3  -6    8.37    1.09
   6  -3  -6    9.66    1.35
   6   3  -6   11.17    1.38
   6  -3  -6    8.78    1.38
   6  -3  -6   10.20    1.37
   6   3  -6    8.25    1.02
  -6   3   6    6.67    1.31
   6   3  -5  104.14    4.56
   6  -3  -5  103.20    4.58
   6  -3  -5  110.80    4.94
   6  -3  -5  106.92    4.60
   6   3  -4   51.94    3.03
   6  -3  -4   50.23    2.78
   6  -3  -4   56.36    3.19
   6   3  -4   53.22    3.00
   6   3  -4   49.25    2.73
   6   3  -3   90.77    4.28
   6   3  -3   89.96    4.38
   6  -3  -3   76.37    4.02
   6   3  -3   98.46    4.59
   6  -3  -3   90.51    4.44
  -6   3   3   80.34    5.11
   6   3  -3   81.08    4.15
   6  -3  -3   93.31    4.62
   6  -3  -3   84.64    4.25
   6   3  -3   78.34    3.95
   6   3  -2   17.67    1.71
   6  -3  -2   13.85    1.52
   6  -3  -2   16.49    1.80
   6   3  -2   16.41    1.71
   6  -3  -2   13.97    1.61
   6   3  -2   16.66    1.78
   6  -3  -2   17.10    1.66
   6  -3  -2   15.00    1.71
  -6   3   2   16.15    2.21
   6   3  -2   15.88    1.61
   6  -3  -2   16.89    1.90
   6  -3  -2   16.22    1.71
   6   3  -2   16.20    1.58
   6   3  -1   92.23    4.28
   6  -3  -1   80.61    4.11
   6  -3  -1   86.71    4.46
   6  -3  -1   76.69    4.15
   6   3  -1   89.68    4.44
   6  -3  -1   76.03    4.09
  -6   3   1   86.67    5.13
   6   3  -1   80.49    4.03
   6  -3  -1   92.41    4.65
   6  -3  -1   80.79    4.13
   6   3  -1   90.40    4.17
   6  -3   0    3.60    0.90
   6   3   0    4.83    1.03
   6  -3   0    4.27    1.09
  -6   3   0    4.97    1.28
   6   3   0    4.00    1.02
   6  -3   0    5.94    1.16
   6  -3   0    3.80    0.95
  -6   3   0    4.24    1.20
   6   3   0    5.14    0.92
   6  -3   0    5.01    1.09
   6   3   0    4.34    0.97
   6  -3   1   46.25    2.87
   6  -3   1   53.01    3.22
   6   3   1   51.63    3.03
  -6   3  -1   44.86    3.50
   6  -3   1   50.10    3.09
   6   3   1   49.42    3.05
   6  -3   1   50.08    3.09
   6  -3   1   46.81    3.04
   6  -3   1   41.37    2.74
   6   3   1   42.64    2.58
   6  -3   1   48.19    2.83
   6   3   1   47.67    2.85
   6  -3   1   40.92    2.66
   6   3   2   65.74    3.40
   6  -3   2   52.60    3.15
   6   3   2   53.28    2.86
   6   3   2   56.33    3.22
   6  -3   2   58.90    3.50
  -6   3  -2   54.56    3.83
   6  -3   2   52.54    3.29
   6   3   2   56.32    3.22
   6  -3   2   59.72    3.46
   6  -3   2   55.87    3.25
   6  -3   2   52.48    2.98
   6   3   2   59.27    3.22
   6  -3   2   47.00    2.93
   6   3   3  130.20    5.36
   6  -3   3  117.16    5.25
   6  -3   3  112.85    5.10
   6   3   3  107.91    4.81
   6   3   3  119.30    5.23
   6  -3   3  109.13    5.37
  -6   3  -3   95.92    5.61
   6   3   3  114.21    5.12
   6  -3   3  123.84    5.53
   6  -3   3  121.87    5.40
   6  -3   3  120.37    5.72
   6   3   3  125.10    5.28
   6   3   3  119.72    5.40
   6  -3   3  104.62    4.96
   6   3   4  179.82    6.70
   6  -3   4  147.57    6.53
   6  -3   4  158.22    6.57
   6   3   4  149.43    6.20
   6   3   4  165.74    6.45
   6  -3   4  162.15    6.93
   6  -3   4  156.53    6.65
   6   3   4  164.21    6.37
   6  -3   4  163.96    6.80
   6  -3   4  157.98    7.11
   6   3   4  160.01    6.57
   6   3   4  158.01    6.73
   6  -3   4  140.40    6.31
   6   3   5   77.96    3.76
   6  -3   5   67.54    3.75
   6  -3   5   74.91    3.84
   6   3   5   68.09    3.48
   6   3   5   73.77    3.51
   6  -3   5   67.77    3.74
   6  -3   5   66.25    3.92
   6  -3   5   71.69    3.90
   6  -3   5   75.24    4.26
   6   3   5   73.83    3.87
   6  -3   5   61.57    3.49
   6  -3   6   30.58    2.27
   6   3   6   35.52    2.34
   6  -3   6   30.88    2.40
   6  -3   6   36.98    2.55
   6   3   6   35.09    2.29
   6  -3   6   34.46    2.38
   6  -3   6   32.49    2.59
   6  -3   6   39.51    2.65
   6  -3   6   37.17    2.61
   6  -3   6   38.26    2.91
   6   3   6   36.57    2.52
   6  -3   7   55.79    3.33
   6   3   7   72.96    3.46
   6  -3   7   58.50    3.54
   6  -3   7   72.84    3.74
   6  -3   7   59.15    3.37
   6   3   7   71.63    3.47
  -6   3  -7   70.77    4.42
   6  -3   7   68.57    3.46
   6  -3   7   66.96    3.86
   6  -3   7   71.80    3.69
   6  -3   7   72.93    3.83
   6  -3   7   76.02    4.22
   6   3   7   73.21    3.63
   6   3   7   68.75    3.63
   6  -3   8   14.65    1.49
   6   3   8   13.50    1.34
   6  -3   8   14.66    1.63
   6  -3   8   16.32    1.65
   6  -3   8   13.74    1.47
   6   3   8   15.24    1.45
   6  -3   8   17.29    1.46
   6  -3   8   14.01    1.66
   6  -3   8   17.07    1.63
   6  -3   8   15.77    1.66
   6  -3   8   17.06    1.94
   6   3   8   17.11    1.55
   6   3   8   16.21    1.58
   6   3   9   41.99    2.30
   6  -3   9   40.86    2.73
   6  -3   9   47.78    2.79
   6  -3   9   40.76    2.58
   6   3   9   49.75    2.61
   6  -3   9   44.94    2.56
   6  -3   9   45.50    2.92
   6   3   9   47.18    2.60
   6  -3   9   50.88    3.23
   6   3   9   46.73    2.64
   6  -3  10   25.70    2.05
   6  -3  10   29.63    2.06
   6   3  10   30.88    1.91
   6  -3  10   26.45    1.79
   6  -3  10   27.65    2.15
   6  -3  10   32.20    2.10
   6   3  10   34.92    1.99
   6  -3  10   31.53    2.39
   6   3  10   29.24    1.91
   6  -3  11   14.29    1.41
   6  -3  11   19.23    1.48
   6  -3  11   15.49    1.47
   6  -3  11   17.33    1.41
   6   3  11   16.06    1.22
   6  -3  11   14.79    1.53
   6   3  11   15.67    1.23
   6   3  12   48.35    2.15
   6  -3  12   47.22    2.23
   6   3  12   42.48    1.98
   6  -3  13   68.79    2.78
   6   3  13   70.88    2.64
   6   4 -11   12.70    0.82
  -6  -4  11   14.41    1.03
  -6   4  11   15.27    1.02
  -6   4  11   15.48    1.04
   6   4 -10    0.89    0.38
   6   4 -10    1.01    0.42
   6  -4 -10    1.13    0.34
  -6   4  10    0.99    0.41
  -6  -4  10    1.03    0.53
  -6   4  10    0.92    0.45
   6   4  -9    9.12    0.92
  -6   4   9    8.13    1.09
   6   4  -9    9.28    0.96
   6  -4  -9    9.72    1.06
   6  -4  -9    8.04    0.82
  -6  -4   9   10.04    1.15
  -6   4   9    8.40    1.01
   6   4  -8   14.70    1.26
  -6  -4   8   15.62    1.32
  -6   4   8   13.29    1.52
   6  -4  -8   13.15    1.07
  -6   4   8   14.41    1.76
   6   4  -8   15.75    1.31
   6  -4  -8   14.14    1.37
   6  -4  -8   14.32    1.20
  -6   4   7   15.21    1.40
   6   4  -7   15.93    1.38
  -6  -4   7   16.12    1.46
  -6   4   7   14.05    1.67
   6  -4  -7   15.45    1.27
  -6   4   7   15.34    1.97
   6   4  -7   19.11    1.51
   6  -4  -7   14.48    1.46
   6  -4  -7   16.26    1.42
  -6   4   6   43.36    2.53
  -6  -4   6   44.75    2.63
  -6   4   6   38.11    2.96
   6  -4  -6   42.08    2.36
  -6   4   6   44.58    3.38
   6   4  -6   46.65    2.58
   6  -4  -6   42.58    2.70
   6  -4  -6   45.96    2.54
   6   4  -6   37.13    2.21
  -6   4   5   83.79    4.12
  -6  -4   5   97.16    4.41
   6  -4  -5   93.10    4.42
   6  -4  -5   86.43    3.99
  -6   4   5   94.90    5.28
   6  -4  -5   94.52    4.22
   6   4  -5   85.53    3.92
  -6   4   4  126.65    5.38
   6  -4  -4  131.73    5.56
   6  -4  -4  108.43    4.79
   6  -4  -4  117.10    5.13
  -6   4   4  122.44    6.38
   6   4  -4  125.71    5.20
   6  -4  -4  128.21    5.32
   6   4  -4  112.97    4.94
  -6   4   3  256.97    9.67
   6  -4  -3  255.88    9.55
   6  -4  -3  272.25    9.91
  -6   4   3  250.56   10.53
   6  -4  -3  242.44    9.25
   6  -4  -3  258.05    9.50
  -6   4   3  276.60   11.08
   6   4  -3  265.70    9.46
   6   4  -3  257.01    9.35
   6  -4  -2  156.63    6.55
   6  -4  -2  169.20    6.90
  -6   4   2  154.82    7.49
   6  -4  -2  158.24    6.48
   6  -4  -2  155.82    6.26
   6  -4  -2  161.97    6.62
  -6   4   2  164.28    7.84
   6   4  -2  159.89    6.40
   6  -4  -2  169.67    6.94
   6  -4  -2  166.71    6.65
   6   4  -2  165.55    6.46
   6  -4  -1   15.27    1.58
   6  -4  -1   17.11    1.77
  -6   4   1   16.39    2.10
   6  -4  -1   16.48    1.68
   6  -4  -1   15.80    1.54
   6  -4  -1   17.08    1.70
  -6   4   1   15.45    2.14
   6   4  -1   16.74    1.52
   6  -4  -1   17.22    1.81
   6  -4  -1   17.20    1.68
   6   4  -1   16.34    1.57
   6   4   0   24.22    1.92
   6  -4   0   22.26    1.91
   6   4   0   24.65    1.97
   6  -4   0   20.00    1.94
  -6   4   0   20.47    2.35
   6  -4   0   21.07    1.92
   6  -4   0   23.37    1.92
   6  -4   0   21.54    1.96
  -6   4   0   23.13    2.51
   6   4   0   21.63    1.69
   6  -4   0   21.58    2.03
   6  -4   0   25.57    1.97
   6   4   0   23.61    1.87
   6  -4   0   20.23    1.80
   6   4   1   31.19    2.17
   6  -4   1   26.86    2.15
   6   4   1   27.97    1.81
   6   4   1   26.22    1.79
   6   4   1   29.35    2.15
   6  -4   1   33.49    2.43
   6  -4   1   31.48    2.33
  -6   4  -1   28.63    2.69
   6  -4   1   33.52    2.37
   6  -4   1   29.73    2.27
   6   4   1   24.91    1.79
   6  -4   1   30.06    2.39
   6  -4   1   30.99    2.14
   6   4   1   30.63    2.14
   6  -4   1   27.42    2.11
   6  -4   2    0.71    0.59
   6   4   2    0.55    0.60
   6  -4   2    0.42    0.61
   6  -4   2    1.09    0.56
   6   4   2    0.10    0.47
   6  -4   2    0.29    0.75
  -6   4  -2    0.68    0.73
   6  -4   2    0.51    0.73
   6  -4   2    0.48    0.65
   6  -4   2    0.83    0.60
   6  -4   2    0.96    0.68
   6   4   2    0.31    0.59
   6  -4   2    0.41    0.72
   6   4   3   76.67    3.54
   6  -4   3   65.89    3.60
   6  -4   3   61.66    3.31
   6   4   3   71.70    3.34
   6  -4   3   75.74    3.94
  -6   4  -3   62.74    4.17
   6  -4   3   74.82    3.83
   6  -4   3   71.26    3.55
   6  -4   3   66.86    3.24
   6  -4   3   73.85    3.98
   6  -4   3   64.79    3.50
   6   4   4   11.30    1.23
   6  -4   4    8.04    1.22
   6  -4   4    8.63    1.12
   6   4   4    9.46    1.10
   6  -4   4   10.26    1.41
   6  -4   4    8.37    1.33
  -6   4  -4    7.86    1.47
   6  -4   4    9.03    1.36
   6  -4   4   11.11    1.33
   6   4   4    9.05    1.21
   6  -4   4    8.95    1.42
   6  -4   4    9.20    1.20
   6  -4   5    5.45    0.95
   6   4   5    6.88    0.95
   6  -4   5    5.79    1.05
   6  -4   5    6.54    0.98
   6  -4   5    5.36    0.91
   6   4   5    7.13    0.96
  -6   4  -5    6.61    1.50
   6  -4   5    6.21    1.13
   6  -4   5    6.58    1.15
   6  -4   5    5.83    1.12
   6  -4   5    7.41    1.13
   6   4   5    6.44    1.02
   6  -4   5    5.87    1.15
   6   4   5    7.08    1.11
   6  -4   6   12.07    1.37
   6   4   6   14.12    1.23
   6  -4   6   13.09    1.48
   6  -4   6   15.57    1.42
   6  -4   6   13.50    1.35
   6   4   6   13.19    1.29
  -6   4  -6   16.03    2.06
   6  -4   6   13.33    1.44
   6  -4   6   15.31    1.65
   6  -4   6   13.70    1.47
   6  -4   6   15.86    1.73
   6   4   6   14.34    1.38
   6   4   6   14.34    1.51
   6  -4   7   10.58    1.18
   6  -4   7   11.00    1.26
   6  -4   7   13.34    1.27
   6  -4   7    9.94    1.11
   6   4   7   12.42    1.14
  -6   4  -7   10.20    1.54
   6  -4   7   10.37    1.13
   6  -4   7    9.20    1.25
   6  -4   7   11.63    1.28
   6  -4   7   12.41    1.32
   6   4   7   12.82    1.19
   6  -4   7   11.70    1.40
   6   4   7   12.78    1.31
   6  -4   8   15.17    1.37
   6  -4   8   15.29    1.48
   6  -4   8   18.57    1.48
   6  -4   8   13.62    1.31
   6   4   8   16.61    1.31
  -6   4  -8   15.59    1.72
   6  -4   8   17.01    1.29
   6  -4   8   17.13    1.61
   6  -4   8   19.05    1.52
   6  -4   8   17.37    1.51
   6   4   8   19.20    1.40
   6  -4   8   18.01    1.68
   6   4   8   17.75    1.47
   6  -4   9    3.08    0.73
   6  -4   9    4.48    0.77
   6   4   9    4.99    0.72
   6  -4   9    3.34    0.70
   6  -4   9    3.98    0.83
   6  -4   9    4.21    0.81
   6   4   9    4.51    0.66
   6  -4   9    4.46    0.83
   6   4   9    4.74    0.79
   6  -4  10   18.20    1.26
   6  -4  10   15.00    1.05
   6   4  10   14.12    0.96
   6   4  10   16.01    1.19
   6  -4  11    9.07    0.79
   6   4  11    8.99    0.73
   6  -4  11    9.03    0.81
  -6  -5   9   30.41    1.51
  -6   5   9   35.85    1.57
   6   5  -8   38.70    1.76
   6  -5  -8   36.30    1.60
  -6  -5   8   36.92    1.73
   6  -5  -7    1.03    0.40
  -6  -5   7    1.52    0.44
  -6   5   7    1.98    0.52
  -6   5   6    9.18    0.99
   6   5  -6   11.16    0.95
   6  -5  -6    8.61    0.95
  -6   5   6   11.84    1.46
   6  -5  -6    9.38    0.98
   6  -5  -6   10.33    0.94
  -6  -5   6   10.65    0.98
  -6   5   5   19.30    1.43
   6  -5  -5   15.44    1.27
   6   5  -5   20.22    1.30
   6  -5  -5   15.42    1.32
  -6   5   5   15.65    1.57
   6  -5  -5   14.20    1.03
  -6   5   5   17.57    1.87
   6  -5  -5   16.88    1.38
   6  -5  -5   19.36    1.34
  -6   5   4   33.10    2.01
   6  -5  -4   30.12    1.88
   6   5  -4   31.40    1.78
   6  -5  -4   33.18    2.03
  -6   5   4   27.18    2.23
   6  -5  -4   26.17    1.60
  -6   5   4   32.75    2.60
   6  -5  -4   31.88    2.01
   6  -5  -4   34.59    1.95
   6   5  -4   32.49    1.81
  -6   5   3  104.62    4.21
   6  -5  -3   87.01    3.89
   6   5  -3   92.23    3.71
  -6   5   3   89.93    4.40
   6  -5  -3   94.06    4.07
   6  -5  -3   84.46    3.55
   6  -5  -3   81.88    3.62
  -6   5   3   91.32    4.85
   6  -5  -3   92.21    4.06
   6   5  -3   94.63    3.83
  -6   5   2    9.54    1.21
   6  -5  -2    9.58    1.13
   6   5  -2    9.54    0.93
   6  -5  -2   10.63    1.22
  -6   5   2    7.61    1.28
   6  -5  -2   10.90    1.07
  -6   5   2   10.39    1.48
   6  -5  -2    8.49    0.97
  -6   5   2    9.37    1.54
   6  -5  -2    9.54    1.17
   6  -5  -2   12.43    1.23
   6   5  -2   10.44    1.07
   6  -5  -2    8.69    1.08
  -6   5   1   81.86    3.69
   6   5  -1   68.52    3.01
   6  -5  -1   68.76    3.37
  -6   5   1   77.95    4.17
   6  -5  -1   70.78    3.50
   6  -5  -1   76.34    3.37
  -6   5   1   66.25    4.00
   6  -5  -1   67.71    3.24
  -6   5   1   66.59    4.11
   6  -5  -1   80.79    3.46
   6  -5  -1   73.77    3.55
   6   5  -1   77.66    3.37
   6  -5  -1   68.13    3.33
   6  -5   0   36.41    2.22
   6   5   0   33.63    1.78
  -6   5   0   39.75    2.89
   6  -5   0   36.72    2.30
   6  -5   0   42.81    2.31
  -6   5   0   36.78    2.79
   6  -5   0   38.99    2.07
   6  -5   0   36.88    2.18
  -6   5   0   34.21    2.77
   6  -5   0   36.29    2.14
   6  -5   0   37.95    2.35
   6  -5   0   34.21    2.13
   6  -5   1   45.73    2.56
   6  -5   1   36.09    2.18
   6   5   1   42.14    2.11
  -6   5  -1   47.82    3.25
   6  -5   1   46.81    2.65
   6  -5   1   51.41    2.63
  -6   5  -1   44.58    3.10
   6  -5   1   45.58    2.40
   6  -5   1   48.00    2.53
  -6   5  -1   44.67    3.07
   6  -5   1   49.39    2.43
   6  -5   1   48.46    2.68
   6  -5   1   42.42    2.43
   6  -5   2   22.37    1.72
   6  -5   2   18.36    1.45
   6   5   2   23.20    1.44
   6  -5   2   22.37    1.80
   6  -5   2   24.00    1.77
  -6   5  -2   20.63    2.07
   6  -5   2   25.57    1.72
   6  -5   2   24.27    1.75
   6  -5   2   23.83    1.52
   6  -5   2   23.99    1.82
   6   5   2   26.48    1.67
   6  -5   2   21.20    1.66
   6  -5   3   32.18    1.84
   6  -5   3   26.95    1.52
   6   5   3   34.85    1.53
  -6   5  -3   42.38    2.76
   6  -5   3   41.32    2.01
   6  -5   3   34.93    1.97
   6  -5   3   38.53    1.91
   6  -5   3   36.73    1.90
   6  -5   3   32.06    1.89
   6   5   3   39.96    1.79
   6  -5   3   33.38    1.78
   6  -5   4    2.71    0.64
   6  -5   4    3.49    0.73
   6  -5   4    3.07    0.62
   6   5   4    2.48    0.55
  -6   5  -4    3.02    0.98
   6  -5   4    3.79    0.81
   6  -5   4    3.24    0.75
   6  -5   4    3.16    0.59
   6   5   4    3.95    0.68
   6  -5   4    3.55    0.77
   6  -5   5   15.51    1.29
   6  -5   5   16.30    1.38
   6   5   5   18.08    1.22
  -6   5  -5   16.70    1.78
   6  -5   5   18.17    1.37
   6  -5   5   16.02    1.43
   6  -5   5   19.09    1.43
   6  -5   5   14.40    1.16
   6   5   5   16.94    1.22
   6  -5   5   16.52    1.41
   6  -5   6    8.53    0.97
   6   5   6    9.22    0.85
   6  -5   6    9.44    0.96
   6  -5   6    9.86    1.07
   6  -5   6   11.07    1.06
   6  -5   6    9.78    0.99
   6  -5   6    9.38    0.90
   6   5   6    9.40    0.84
   6   5   7    0.94    0.39
   6  -5   7    2.01    0.43
   6  -5   7    1.43    0.48
   6  -5   7    1.46    0.44
   6   5   7    1.01    0.31
   6   5   8    0.50    0.32
   6  -5   8    0.34    0.35
   6  -5   8    0.85    0.35
   6  -5   8    0.76    0.34
  -6   6   3    6.78    0.61
  -6   6   2   23.25    1.26
   6  -6  -2   23.30    1.15
  -6   6   1  100.60    3.75
   6  -6  -1  100.62    3.54
  -6   6   0   28.37    1.44
   6  -6   0   26.68    1.20
  -6   6  -1    7.38    0.71
   6  -6   1    7.90    0.62
  -6   6  -2    2.22    0.44
   6  -6   2    2.62    0.41
   6  -6   2    2.11    0.34
  -6   6  -3    1.99    0.37
   6  -6   3    2.56    0.37
  -7   0  13    1.08    0.37
  -7   0  13    1.43    0.51
   7   0 -13    1.52    0.41
   7   0 -12    0.54    0.51
  -7   0  12    0.26    0.43
  -7   0  12    0.93    0.55
   7   0 -12    0.15    0.43
   7   0 -12    0.38    0.33
   7   0 -11   18.77    1.78
  -7   0  11   22.26    1.89
  -7   0  11   20.44    1.68
   7   0 -11   28.19    1.78
   7   0 -11   26.85    1.57
  -7   0  11   22.71    1.59
   7   0 -10    0.08    0.68
  -7   0  10    0.19    0.58
  -7   0  10    1.00    0.67
   7   0 -10   -0.05    0.58
   7   0 -10    0.32    0.49
  -7   0  10   -0.04    0.53
   7   0  -9   57.18    3.63
  -7   0   9   59.33    3.61
  -7   0   9   56.67    3.39
   7   0  -9   71.66    3.25
  -7   0   9   67.28    3.10
   7   0  -8   49.72    3.42
  -7   0   8   45.33    3.05
  -7   0   8   45.88    3.20
   7   0  -7   87.00    4.92
  -7   0   7   94.57    4.80
  -7   0   7   85.47    4.76
   7   0  -7  105.09    4.55
   7   0  -7  100.73    4.44
   7   0  -6    5.79    1.36
  -7   0   6    7.33    1.34
   7   0  -6    5.46    0.92
   7   0  -6    6.16    1.01
   7   0  -6    6.80    1.09
  -7   0   6    6.34    1.32
   7   0  -6    6.60    1.07
   7   0  -5  116.56    5.79
  -7   0   5  124.59    5.65
   7   0  -5  105.25    4.78
  -7   0   5  111.23    5.53
   7   0  -5  111.02    4.95
   7   0  -5  110.65    4.96
   7   0  -4    9.56    1.59
   7   0  -4    7.99    1.12
   7   0  -4    7.16    1.16
   7   0  -4    7.56    1.14
  -7   0   4    8.18    1.39
   7   0  -4    9.01    1.22
   7   0  -3  105.22    5.29
   7   0  -3   93.77    4.46
  -7   0   3  106.79    5.17
   7   0  -3   92.22    4.52
   7   0  -3  101.19    4.49
   7   0  -3   89.44    4.39
   7   0  -3   99.84    4.51
   7   0  -2   11.99    1.69
   7   0  -2   13.09    1.43
   7   0  -2   13.04    1.44
   7   0  -2   14.31    1.53
  -7   0   2   13.58    1.72
   7   0  -2   12.90    1.37
   7   0  -2   12.62    1.44
   7   0  -2   13.47    1.45
   7   0  -1  114.53    5.64
   7   0  -1  105.03    4.89
   7   0  -1  104.31    4.91
   7   0  -1  111.47    5.06
  -7   0   1  118.95    5.63
   7   0  -1  108.46    4.73
   7   0  -1  106.15    4.97
   7   0  -1  110.07    4.80
   7   0   0   40.30    2.98
   7   0   0   32.18    2.36
   7   0   0   34.10    2.41
   7   0   0   31.92    2.37
   7   0   0   37.04    2.53
   7   0   0   34.00    2.23
   7   0   1  183.91    8.33
   7   0   1  188.07    7.58
   7   0   1  189.54    7.66
   7   0   2   56.55    3.85
   7   0   2   62.49    3.49
   7   0   2   60.32    3.91
   7   0   2   55.23    3.25
   7   0   2   59.86    3.41
   7   0   2   62.20    3.52
   7   0   3   77.33    4.03
   7   0   3   75.18    3.82
   7   0   3   79.37    3.99
   7   0   3   71.02    3.90
   7   0   4  803.20   25.15
   7   0   4  844.60   24.92
   7   0   4  800.56   24.90
   7   0   5   67.01    3.49
   7   0   5   70.26    3.79
   7   0   5   71.51    3.60
   7   0   5   69.64    3.59
   7   0   5   65.57    4.16
   7   0   5   55.50    3.59
   7   0   6   10.31    1.29
   7   0   6   10.56    1.45
   7   0   6    8.04    1.05
   7   0   6   10.09    1.24
   7   0   6    9.48    1.23
   7   0   6    9.42    1.36
   7   0   6    8.59    1.63
   7   0   6    6.90    1.31
   7   0   7  103.48    4.64
   7   0   7   95.72    4.28
   7   0   7  102.07    4.33
   7   0   7  103.42    4.45
   7   0   7   95.27    5.26
   7   0   7  111.69    4.88
   7   0   8   71.48    3.58
   7   0   8   67.39    3.64
   7   0   8   67.79    3.28
   7   0   8   74.39    3.67
   7   0   8   60.57    3.71
   7   0   9   78.50    3.76
   7   0   9   76.46    3.81
   7   0   9   78.02    3.53
   7   0   9   78.96    3.72
   7   0   9   68.70    3.92
   7   0  10   10.94    1.19
   7   0  10    9.61    1.19
   7   0  10    8.56    1.01
   7   0  10    9.27    1.07
   7   0  10    7.99    1.23
   7   0  11    8.84    0.99
   7   0  11    8.45    0.96
   7   0  11   10.35    0.99
   7   0  11    7.80    1.06
   7   0  12   74.60    3.20
   7   0  12   68.93    3.00
   7   0  13    0.51    0.34
   7   0  13    0.88    0.36
   7   0  13    0.52    0.33
  -7  -1  13   14.65    1.06
  -7   1  13   14.03    1.09
  -7  -1  13   15.68    1.10
   7   1 -13   14.54    0.98
   7  -1 -13   15.53    0.94
  -7  -1  12   43.60    2.37
  -7   1  12   43.90    2.43
  -7  -1  12   45.88    2.38
   7  -1 -12   48.34    2.20
   7   1 -12   43.33    1.95
   7  -1 -12   45.36    1.93
   7   1 -11    3.99    0.83
   7  -1 -11    4.26    0.84
  -7  -1  11    5.43    0.93
   7  -1 -11    6.15    0.87
  -7  -1  11    6.16    1.00
  -7   1  11    5.54    1.00
   7   1 -11    4.62    0.67
   7  -1 -11    5.54    0.75
  -7   1  11    6.50    0.89
  -7  -1  11    4.74    0.71
   7   1 -10   51.96    3.18
   7  -1 -10   54.13    3.24
  -7  -1  10   54.75    3.20
  -7   1  10   60.82    3.38
  -7   1  10   39.36    2.60
  -7  -1  10   58.97    3.27
   7   1 -10   61.41    2.99
   7  -1 -10   70.31    3.15
   7   1 -10   70.69    3.02
   7  -1 -10   73.23    3.00
  -7  -1  10   54.31    2.72
  -7   1  10   76.33    3.16
   7   1  -9   23.73    2.12
   7  -1  -9   24.48    2.16
  -7  -1   9   26.24    2.16
  -7   1   9   22.11    2.08
  -7   1   9   20.67    1.73
  -7  -1   9   25.09    2.15
   7   1  -9   30.15    1.98
   7  -1  -9   32.70    2.08
   7   1  -9   30.41    1.97
   7  -1  -9   30.95    1.94
  -7  -1   9   21.58    1.66
  -7   1   9   31.86    1.98
   7   1  -8   18.81    1.95
   7  -1  -8   15.00    1.80
  -7   1   8   13.52    1.46
  -7  -1   8   15.06    1.80
  -7  -1   8   18.17    1.86
  -7   1   8   17.06    1.85
   7   1  -8   18.36    1.61
   7  -1  -8   22.20    1.81
   7   1  -8   22.59    1.74
   7  -1  -8   19.81    1.60
  -7   1   8   19.83    1.60
   7   1  -7  208.84    8.88
   7  -1  -7  224.54    9.05
  -7   1   7  189.75    8.17
  -7  -1   7  235.16    9.05
  -7  -1   7  219.12    8.79
  -7   1   7  218.84    8.88
   7   1  -7  219.03    8.20
   7   1  -7  211.68    8.22
   7   1  -7  242.51    8.44
   7  -1  -7  239.01    8.38
   7   1  -6   52.57    3.44
   7  -1  -6   52.95    3.45
  -7   1   6   43.68    2.87
  -7  -1   6   58.45    3.51
  -7  -1   6   46.63    3.19
  -7   1   6   51.88    3.33
   7   1  -6   49.21    2.77
   7   1  -6   45.14    2.81
   7   1  -6   46.69    2.80
   7  -1  -6   58.87    3.10
   7  -1  -6   52.55    2.91
   7   1  -5   96.86    5.05
   7  -1  -5   97.42    5.08
  -7   1   5   96.02    4.57
   7   1  -5   92.75    4.34
  -7  -1   5   90.00    4.79
  -7   1   5  101.85    5.01
   7  -1  -5   83.48    4.09
   7   1  -5   94.42    4.46
   7  -1  -5   91.96    4.26
   7   1  -5   85.97    4.22
   7  -1  -5  106.51    4.57
   7   1  -5   95.00    4.43
   7   1  -4   40.16    2.98
   7  -1  -4   41.90    3.03
   7   1  -4   37.56    2.45
   7  -1  -4   34.29    2.34
  -7  -1   4   35.34    2.77
  -7   1   4   39.85    2.95
   7   1  -4   31.83    2.41
   7  -1  -4   33.09    2.34
   7   1  -4   36.54    2.35
   7  -1  -4   42.67    2.61
   7   1  -4   36.63    2.45
   7  -1  -4   37.36    2.45
   7   1  -3   60.96    3.71
   7  -1  -3   55.21    3.55
   7   1  -3   46.01    2.71
   7   1  -3   52.29    3.04
   7  -1  -3   52.42    2.99
  -7  -1   3   52.02    3.32
  -7   1   3   57.94    3.55
   7   1  -3   47.23    3.01
   7  -1  -3   53.04    3.04
   7   1  -3   52.18    2.89
   7  -1  -3   59.02    3.17
   7   1  -3   50.36    3.06
   7   1  -3   50.40    2.99
   7  -1  -3   51.01    2.95
   7   1  -2   32.31    2.55
   7  -1  -2   30.62    2.49
   7   1  -2   24.06    1.87
   7   1  -2   24.99    2.05
   7  -1  -2   28.80    2.16
   7   1  -2   26.45    2.13
   7  -1  -2   25.78    2.10
  -7  -1   2   27.35    2.33
  -7   1   2   28.11    2.48
   7  -1  -2   28.20    2.13
   7   1  -2   24.19    2.06
   7  -1  -2   24.92    1.96
   7   1  -2   26.01    2.06
   7  -1  -2   28.38    2.10
   7  -1  -2   23.90    1.96
   7   1  -1  883.44   27.14
   7  -1  -1  856.43   26.98
   7   1  -1  757.11   25.78
   7   1  -1  787.35   26.17
   7   1  -1  780.79   26.10
   7  -1  -1  783.55   26.03
   7   1  -1  810.13   26.26
   7  -1  -1  811.46   26.19
  -7  -1   1  830.54   26.70
  -7   1   1  897.12   27.07
   7  -1  -1  845.32   26.09
   7   1  -1  795.73   26.23
   7  -1  -1  739.77   25.88
   7   1  -1  777.54   25.89
   7  -1  -1  775.04   25.87
   7  -1  -1  777.98   25.99
   7   1   0  583.27   19.62
   7   1   0  681.88   20.95
   7  -1   0  646.41   20.77
   7   1   0  590.55   19.93
   7  -1   0  521.42   19.46
   7  -1   0  594.73   19.83
   7  -1   0  601.99   19.96
   7  -1   0  585.77   19.61
   7   1   0  594.50   19.95
   7  -1   0  565.09   19.72
   7   1   0  605.67   19.59
   7  -1   0  587.49   19.48
   7  -1   0  598.88   19.86
   7   1   1  366.73   13.21
   7  -1   1  362.13   13.13
   7   1   1  348.73   12.51
   7  -1   1  319.95   12.18
   7   1   1  385.42   13.28
   7   1   1  360.51   12.44
   7  -1   1  361.81   12.44
   7   1   1  370.34   12.55
   7  -1   1  342.76   12.47
   7  -1   1  306.91   11.92
   7   1   1  355.26   12.58
   7  -1   1  333.18   12.37
   7  -1   1  318.97   11.84
   7  -1   1  361.02   12.57
   7   1   2  394.76   14.50
   7  -1   2  387.75   14.40
   7   1   2  392.24   13.87
   7  -1   2  377.98   13.66
   7  -1   2  367.08   14.28
   7   1   2  415.22   14.57
   7   1   2  432.74   13.90
   7  -1   2  403.05   13.80
   7   1   2  440.27   13.96
   7  -1   2  323.87   13.11
   7   1   2  422.97   14.04
   7  -1   2  387.05   13.82
   7  -1   2  393.09   13.93
   7   1   2  368.58   13.32
   7   1   3   39.59    2.71
   7  -1   3   33.57    2.47
   7  -1   3   28.75    2.61
   7   1   3   33.83    2.85
   7   1   3   39.74    2.54
   7  -1   3   34.07    2.45
   7   1   3   42.34    2.59
   7  -1   3   33.62    2.51
   7  -1   3   34.07    2.54
   7  -1   3   29.32    2.46
   7   1   3   34.16    2.26
   7   1   4   85.42    4.23
   7  -1   4   72.45    3.96
   7   1   4   81.35    3.93
   7  -1   4   78.21    3.92
   7  -1   4   63.94    4.20
   7   1   4   74.03    4.44
   7   1   4   82.36    3.99
   7  -1   4   79.05    4.04
   7   1   4   82.78    4.14
   7  -1   4   74.29    4.05
   7  -1   4   64.57    3.99
   7   1   4   73.31    3.70
   7   1   5   46.33    2.84
   7  -1   5   46.84    2.99
   7   1   5   42.08    2.46
   7   1   5   49.46    2.85
   7  -1   5   47.82    2.82
   7   1   5   50.58    2.85
   7  -1   5   45.25    2.86
   7  -1   5   43.81    3.26
   7   1   5   45.19    3.34
   7   1   5   47.75    2.99
   7  -1   5   48.47    3.06
   7  -1   5   39.99    2.99
   7   1   5   44.12    2.69
   7   1   6    1.53    0.74
   7   1   6    0.76    0.68
   7  -1   6    0.61    0.74
   7   1   6    0.63    0.54
   7   1   6    1.25    0.60
   7  -1   6    0.72    0.65
   7   1   6    0.81    0.56
   7  -1   6    1.14    0.71
   7  -1   6    1.81    0.96
   7   1   6    1.44    0.89
   7   1   6    0.80    0.66
   7   1   6    1.37    0.66
   7  -1   6    1.12    0.87
   7   1   7   34.66    2.41
   7  -1   7   34.15    2.43
   7   1   7   36.10    2.48
   7  -1   7   37.55    2.55
   7   1   7   32.83    2.11
   7  -1   7   32.25    2.14
   7  -1   7   33.00    2.24
   7   1   7   33.65    2.35
   7  -1   7   35.27    2.46
   7  -1   7   31.61    2.67
   7   1   7   36.32    2.31
   7   1   8   35.09    2.33
   7  -1   8   28.90    2.03
   7  -1   8   30.23    2.25
   7   1   8   32.93    2.28
   7  -1   8   28.24    2.21
   7   1   8   32.63    2.03
   7  -1   8   30.02    1.99
   7   1   8   32.16    2.19
   7  -1   8   29.13    2.20
   7  -1   8   33.00    2.64
   7   1   9   19.37    1.68
   7  -1   9   16.93    1.49
   7  -1   9   19.93    1.72
   7   1   9   17.87    1.61
   7   1   9   20.34    1.53
   7   1   9   17.03    1.48
   7  -1   9   19.81    1.68
   7   1   9   19.25    1.59
   7  -1   9   17.79    1.89
   7   1  10   16.80    1.51
   7  -1  10   14.85    1.33
   7  -1  10   15.42    1.48
   7   1  10   14.63    1.36
   7  -1  10   17.76    1.54
   7   1  10   17.95    1.38
   7  -1  10   15.45    1.29
   7  -1  10   17.37    1.45
   7   1  10   19.05    1.49
   7  -1  10   15.24    1.69
   7   1  11   24.70    1.69
   7  -1  11   22.43    1.52
   7  -1  11   27.76    1.78
   7   1  11   21.10    1.43
   7  -1  11   23.38    1.64
   7   1  11   27.03    1.60
   7  -1  11   24.49    1.52
   7  -1  11   25.25    1.57
   7   1  11   25.82    1.62
   7  -1  11   19.76    1.78
   7  -1  12   28.72    1.60
   7  -1  12   28.94    1.65
   7   1  12   31.94    1.62
   7  -1  12   29.47    1.57
   7   1  13   11.20    0.77
   7  -1  13   10.05    0.74
   7   1  13   10.42    0.76
  -7  -2  12   57.14    2.39
   7   2 -12   48.18    2.09
   7  -2 -12   54.08    2.06
   7   2 -12   45.29    1.86
  -7  -2  12   41.44    2.01
   7   2 -11   38.36    1.87
  -7  -2  11   44.28    2.22
  -7   2  11   46.43    2.32
  -7  -2  11   49.89    2.50
   7   2 -11   45.34    2.17
   7  -2 -11   56.43    2.28
   7   2 -11   47.57    2.11
   7  -2 -11   44.00    1.98
  -7  -2  11   42.19    2.26
   7   2 -10    4.73    0.77
   7  -2 -10    3.86    0.70
  -7  -2  10    5.59    0.99
   7   2 -10    5.50    0.79
   7  -2 -10    5.84    0.82
  -7  -2  10    3.97    0.75
  -7   2  10    4.87    0.85
   7   2 -10    5.36    0.78
   7  -2 -10    5.57    0.75
  -7   2  10    4.95    0.87
   7   2  -9   40.43    2.58
   7  -2  -9   39.01    2.52
  -7  -2   9   45.69    2.68
  -7   2   9   45.39    2.74
  -7  -2   9   47.16    2.86
   7   2  -9   42.84    2.43
   7  -2  -9   58.67    2.74
   7   2  -9   51.67    2.59
   7  -2  -9   53.64    2.54
  -7   2   9   62.81    2.87
   7   2  -8    2.72    0.81
   7  -2  -8    2.33    0.75
  -7  -2   8    3.57    1.00
  -7  -2   8    3.16    0.87
  -7   2   8    4.07    0.92
   7   2  -8    3.13    0.73
   7  -2  -8    3.57    0.82
   7   2  -8    3.87    0.84
   7  -2  -8    3.33    0.77
  -7   2   8    4.68    0.93
   7   2  -7   87.49    4.53
   7  -2  -7   84.63    4.47
  -7  -2   7   87.93    4.50
  -7   2   7   98.65    4.74
  -7  -2   7  105.78    4.98
   7   2  -7   95.52    4.17
   7   2  -7   88.23    4.18
   7  -2  -7  129.75    4.83
   7   2  -7  107.60    4.53
   7  -2  -7  104.63    4.48
  -7   2   7  115.63    4.56
   7   2  -6  108.41    5.09
   7  -2  -6  111.04    5.06
  -7  -2   6  135.38    5.73
  -7  -2   6  110.57    5.04
  -7   2   6  119.02    5.25
   7  -2  -6   97.64    4.62
   7   2  -6  101.47    4.58
   7   2  -6  105.35    4.78
   7   2  -6   96.08    4.47
   7  -2  -6  134.24    5.12
   7  -2  -6   95.98    4.55
   7  -2  -6  106.27    4.72
   7   2  -5   52.91    3.26
   7  -2  -5   53.90    3.24
   7  -2  -5   52.17    2.90
  -7  -2   5   56.82    3.26
  -7   2   5   59.33    3.32
   7   2  -5   51.10    2.89
   7  -2  -5   46.96    2.65
   7   2  -5   51.79    3.03
   7   2  -5   46.23    2.66
   7   2  -5   53.35    3.01
   7  -2  -5   47.90    2.86
   7   2  -4   12.73    1.62
   7  -2  -4   12.30    1.57
   7   2  -4    8.45    1.13
   7  -2  -4    9.94    1.21
  -7  -2   4   12.03    1.51
  -7   2   4   11.29    1.47
   7   2  -4    9.93    1.27
   7  -2  -4    9.42    1.20
   7   2  -4   12.50    1.48
   7  -2  -4   10.38    1.22
   7   2  -4   10.35    1.30
   7  -2  -4   10.54    1.36
   7  -2  -4   10.23    1.31
   7   2  -3  133.00    5.91
   7  -2  -3  127.74    5.85
   7   2  -3  115.96    5.21
   7  -2  -3  119.13    5.28
   7   2  -3  119.26    5.43
  -7  -2   3  121.53    5.65
  -7   2   3  137.33    5.98
   7  -2  -3  113.62    5.22
   7   2  -3  123.29    5.58
   7  -2  -3  122.99    5.32
   7  -2  -3  139.44    5.67
   7   2  -3  121.40    5.35
   7  -2  -3  126.88    5.40
   7  -2  -3  133.60    5.62
   7   2  -2   11.58    1.34
   7   2  -2   11.18    1.61
   7  -2  -2   11.71    1.63
   7   2  -2   10.97    1.41
   7  -2  -2   10.67    1.35
  -7  -2   2   11.12    1.48
  -7   2   2   10.25    1.47
   7   2  -2   12.68    1.49
   7  -2  -2    9.29    1.26
   7  -2  -2   10.41    1.40
   7  -2  -2    7.91    1.21
   7   2  -2   10.84    1.32
   7  -2  -2   10.12    1.28
   7  -2  -2   10.48    1.42
   7   2  -1   28.20    2.14
   7   2  -1   35.23    2.71
   7  -2  -1   35.77    2.66
   7  -2  -1   26.18    2.09
   7   2  -1   30.30    2.32
   7  -2  -1   30.60    2.30
  -7  -2   1   30.81    2.37
  -7   2   1   34.21    2.64
   7  -2  -1   30.38    2.29
   7  -2  -1   32.06    2.37
   7   2  -1   34.13    2.48
   7   2  -1   30.46    2.16
   7  -2  -1   30.33    2.17
   7  -2  -1   31.01    2.37
   7   2  -1   26.28    1.93
   7   2   0   39.25    2.48
   7   2   0   42.41    3.02
   7  -2   0   36.76    2.82
   7  -2   0   40.24    2.79
   7   2   0   42.82    2.99
   7  -2   0   28.15    2.23
  -7   2   0   31.64    2.74
   7  -2   0   37.00    2.53
   7   2   0   41.64    2.75
   7  -2   0   35.28    2.53
  -7  -2   0   35.61    2.67
  -7   2   0   38.41    2.86
   7  -2   0   35.23    2.50
   7   2   0   41.30    2.78
   7  -2   0   32.07    2.34
   7   2   0   36.35    2.31
   7  -2   0   32.49    2.22
   7  -2   0   42.31    2.81
   7   2   0   35.98    2.26
   7   2   1    6.12    1.07
   7   2   1    8.05    1.25
   7  -2   1    5.14    1.09
   7   2   1    5.86    1.14
   7  -2   1    5.78    1.15
   7  -2   1    6.47    1.13
  -7  -2  -1    3.12    0.95
  -7   2  -1    5.76    1.21
   7  -2   1    5.81    1.17
   7  -2   1    3.60    0.93
   7   2   1    5.31    1.15
   7  -2   1    5.53    1.02
   7  -2   1    4.41    0.87
   7   2   1    6.16    0.97
   7  -2   1    6.46    1.22
   7   2   2   36.12    2.36
   7  -2   2   31.68    2.23
   7   2   2   34.54    2.43
   7  -2   2   29.23    2.45
   7   2   2   33.35    2.61
   7  -2   2   24.19    2.05
   7   2   2   34.70    2.46
   7  -2   2   30.20    2.36
   7  -2   2   28.23    2.18
   7   2   2   33.07    2.47
   7  -2   2   32.53    2.35
   7  -2   2   31.67    2.52
   7   2   2   31.25    2.15
   7   2   3   29.16    2.15
   7  -2   3   24.66    2.03
   7   2   3   27.79    2.16
   7  -2   3   26.87    2.12
   7  -2   3   19.63    1.82
   7   2   3   26.12    2.11
   7  -2   3   23.85    2.22
   7   2   3   26.99    2.38
   7  -2   3   25.07    1.98
   7   2   3   26.94    2.19
   7  -2   3   27.71    2.20
   7  -2   3   29.43    2.41
   7   2   3   26.29    1.97
   7   2   4   68.98    3.77
   7  -2   4   71.92    3.68
   7   2   4   62.40    3.10
   7   2   4   73.51    3.61
   7  -2   4   66.37    3.55
   7  -2   4   55.41    3.31
   7   2   4   68.70    3.52
   7  -2   4   69.20    3.71
   7  -2   4   62.39    3.78
   7   2   4   69.66    3.95
   7  -2   4   57.67    3.23
   7   2   4   76.18    3.79
   7  -2   4   68.87    3.70
   7  -2   4   66.55    3.88
   7   2   4   69.08    3.49
   7   2   5   77.50    3.87
   7  -2   5   73.26    3.75
   7   2   5   64.89    3.19
   7   2   5   74.31    3.53
   7  -2   5   71.72    3.58
   7   2   5   72.76    3.47
   7  -2   5   57.26    3.39
   7  -2   5   72.57    3.73
   7  -2   5   55.99    3.16
   7  -2   5   64.90    3.84
   7   2   5   63.85    3.85
   7   2   5   76.54    3.77
   7  -2   5   74.40    3.83
   7  -2   5   67.17    3.95
   7   2   5   73.45    3.55
   7   2   6   75.85    3.83
   7  -2   6   76.36    3.85
   7   2   6   69.18    3.35
   7   2   6   80.45    3.51
   7  -2   6   68.02    3.49
   7  -2   6   60.77    3.49
   7  -2   6   74.12    3.74
   7   2   6   78.85    3.76
   7  -2   6   73.40    3.85
   7  -2   6   68.58    4.05
   7   2   6   79.53    3.69
   7   2   7   36.86    2.38
   7  -2   7   33.69    2.35
   7   2   7   32.44    2.02
   7  -2   7   32.32    2.05
   7  -2   7   32.73    2.19
   7  -2   7   25.33    2.02
   7   2   7   36.31    2.25
   7  -2   7   34.61    2.37
   7  -2   7   30.51    2.51
   7   2   7   34.03    2.19
   7   2   8    5.70    0.93
   7   2   8    8.10    1.08
   7  -2   8    6.60    1.09
   7   2   8    6.96    0.90
   7  -2   8    6.02    0.79
   7  -2   8    6.69    0.96
   7   2   8    6.34    0.91
   7   2   8    8.18    1.07
   7  -2   8    7.62    1.30
   7   2   9  101.41    4.16
   7  -2   9  101.78    4.43
   7   2   9  101.84    4.13
   7  -2   9   91.70    3.97
   7  -2   9   98.06    4.35
   7   2   9  108.54    4.33
   7   2  10   60.11    2.77
   7  -2  10   66.08    3.11
   7   2  10   67.50    2.91
   7  -2  10   62.85    3.01
   7   2  11   32.20    1.39
   7  -2  11   27.87    1.25
   7  -2  11   29.55    1.40
   7   2  11   30.20    1.38
   7  -2  12   19.70    1.25
   7   2  12   24.25    1.24
   7  -2  12   21.19    1.16
   7   2  12   24.83    1.25
  -7  -3  11   26.84    1.38
   7   3 -11   25.33    1.21
  -7   3  11   29.74    1.44
  -7  -3  11   28.13    1.48
   7   3 -10  290.44    9.92
  -7  -3  10  335.51   10.38
   7  -3 -10  299.82    9.91
   7   3 -10  323.54   10.08
   7  -3 -10  301.74    9.90
  -7  -3  10  311.28   10.41
   7   3  -9    6.72    0.74
  -7  -3   9    6.68    0.91
   7  -3  -9    6.35    0.73
  -7   3   9    7.28    1.17
   7   3  -9    7.08    0.79
   7  -3  -9    7.43    0.77
  -7   3   9    5.87    0.68
  -7  -3   8    4.73    0.90
   7  -3  -8    3.48    0.69
   7  -3  -8    3.77    0.69
  -7   3   8    3.82    1.03
   7   3  -8    3.39    0.70
   7  -3  -8    4.27    0.72
   7  -3  -8    2.53    0.58
  -7   3   8    2.69    0.58
  -7  -3   7   43.80    2.59
   7  -3  -7   36.44    2.29
   7  -3  -7   44.77    2.34
  -7   3   7   45.10    3.08
   7   3  -7   42.55    2.33
   7  -3  -7   33.03    2.21
   7  -3  -7   42.66    2.29
   7  -3  -6   70.75    3.59
   7  -3  -6   77.02    3.57
  -7   3   6   72.58    4.34
   7  -3  -6   68.88    3.58
   7  -3  -6   81.70    3.64
  -7  -3   5   36.66    2.59
   7  -3  -5   34.25    2.26
   7   3  -5   33.09    2.10
   7  -3  -5   33.40    2.18
  -7   3   5   30.20    2.71
   7   3  -5   31.39    2.09
   7  -3  -5   27.79    2.13
   7  -3  -4   85.59    3.95
   7   3  -4   84.05    3.85
   7  -3  -4   74.84    3.51
   7  -3  -4   87.53    3.94
  -7   3   4   82.88    4.65
   7   3  -4   82.09    3.79
   7  -3  -4   82.16    3.95
   7  -3  -3   15.09    1.54
   7   3  -3   14.50    1.50
  -7   3   3   14.29    1.87
   7  -3  -3   13.94    1.40
   7  -3  -3   13.14    1.28
   7  -3  -3   14.98    1.55
  -7   3   3   13.18    1.79
   7   3  -3   15.23    1.45
   7  -3  -3   13.69    1.46
   7  -3  -3   14.21    1.55
   7   3  -3   13.72    1.24
   7   3  -2   61.96    3.16
   7  -3  -2   58.71    3.24
   7   3  -2   60.68    3.28
  -7   3   2   51.58    3.61
   7  -3  -2   57.51    3.12
   7  -3  -2   59.24    3.09
  -7   3   2   52.74    3.64
   7   3  -2   57.85    3.05
   7  -3  -2   59.10    3.14
   7  -3  -2   69.01    3.56
   7   3  -2   54.75    2.87
   7   3  -1  184.82    6.67
   7  -3  -1  154.26    6.53
  -7   3   1  135.78    7.01
   7  -3  -1  167.77    6.60
   7   3  -1  168.99    6.76
   7  -3  -1  164.08    6.53
   7  -3  -1  165.87    6.67
   7   3  -1  159.36    6.30
   7  -3  -1  160.71    6.39
   7  -3  -1  174.39    6.91
   7   3  -1  153.41    6.23
   7   3   0   81.31    3.68
   7   3   0   72.83    3.69
   7  -3   0   68.35    3.58
   7  -3   0   67.34    3.58
  -7   3   0   58.09    3.90
   7   3   0   71.22    3.66
   7  -3   0   73.50    3.68
   7  -3   0   72.13    3.70
   7   3   0   66.38    3.27
   7  -3   0   65.19    3.35
   7  -3   0   69.89    3.82
   7   3   0   72.46    3.43
   7   3   1   12.53    1.38
   7   3   1   10.50    1.37
   7  -3   1   11.50    1.27
   7  -3   1   10.75    1.38
   7   3   1   11.15    1.36
  -7   3  -1    9.41    1.48
   7  -3   1   11.65    1.45
   7  -3   1   12.09    1.46
   7  -3   1   11.08    1.23
   7  -3   1   10.61    1.19
   7  -3   1   10.49    1.52
   7   3   1   12.61    1.31
   7   3   2   13.93    1.48
   7  -3   2   12.60    1.43
   7  -3   2   14.46    1.59
  -7   3  -2   11.19    1.53
   7   3   2   14.85    1.48
   7  -3   2   14.58    1.58
   7  -3   2   12.95    1.55
   7  -3   2   15.21    1.50
   7  -3   2   11.97    1.17
   7  -3   2   17.06    1.82
   7   3   2   13.35    1.41
   7   3   3    2.59    0.81
   7   3   3    2.26    0.55
   7   3   3    3.01    0.80
   7   3   3    3.47    0.78
   7  -3   3    2.64    0.91
   7  -3   3    2.19    0.78
   7  -3   3    1.90    0.75
   7  -3   3    2.64    0.82
   7   3   3    2.15    0.75
   7  -3   3    2.43    0.92
   7   3   4   76.99    3.55
   7  -3   4   68.37    3.39
   7   3   4   61.27    3.03
   7   3   4   67.42    3.32
   7  -3   4   72.69    3.60
   7  -3   4   59.96    3.44
   7  -3   4   77.40    3.76
   7  -3   4   67.55    3.48
   7  -3   4   74.33    3.67
   7   3   4   77.61    3.55
   7   3   5   41.69    2.38
   7  -3   5   41.04    2.42
   7   3   5   38.70    2.14
   7   3   5   38.11    2.17
   7  -3   5   36.50    2.35
   7  -3   5   35.81    2.44
   7  -3   5   37.03    2.31
   7  -3   5   42.18    2.59
   7   3   5   43.94    2.46
   7   3   6   29.23    1.84
   7  -3   6   29.43    1.97
   7   3   6   24.56    1.65
  -7   3  -6   23.77    2.24
   7  -3   6   27.71    1.85
   7  -3   6   20.87    1.82
   7  -3   6   27.18    1.95
   7  -3   6   25.50    1.74
   7  -3   6   28.38    2.03
   7  -3   6   23.37    2.12
   7   3   6   29.06    1.90
   7   3   7   79.92    2.50
   7  -3   7   76.20    2.73
   7   3   7   70.90    2.30
   7  -3   7   70.23    2.33
   7  -3   7   75.64    2.69
   7  -3   7   78.13    2.90
   7  -3   7   72.96    3.16
   7   3   8    3.86    0.63
   7  -3   8    3.99    0.77
   7   3   8    2.87    0.60
   7  -3   8    3.33    0.71
   7  -3   8    2.37    0.62
   7  -3   8    3.22    0.78
   7  -3   8    2.60    0.82
   7  -3   9   18.18    1.26
   7   3   9   17.07    1.08
   7  -3   9   14.05    0.98
   7   3   9   16.61    1.12
   7  -3   9   18.64    1.50
   7  -3  10   13.12    1.05
   7   3  10   13.00    0.93
   7  -3  10   13.18    1.05
   7   3  10   13.24    0.97
   7  -3  11    0.84    0.33
   7   3  11    0.78    0.27
   7  -3  11    0.60    0.29
   7   4  -9   20.59    1.04
  -7  -4   9   21.95    1.24
   7   4  -8    1.18    0.37
   7  -4  -8    1.30    0.29
   7   4  -8    1.52    0.41
   7  -4  -8    1.38    0.35
  -7   4   8    1.44    0.34
  -7  -4   8    1.48    0.48
  -7   4   8    1.01    0.40
   7   4  -7    2.71    0.51
  -7  -4   7    2.48    0.51
   7  -4  -7    2.57    0.48
   7   4  -7    2.97    0.55
   7  -4  -7    3.01    0.55
  -7   4   7    3.16    0.61
  -7  -4   6   11.81    1.07
   7  -4  -6    8.72    0.95
   7  -4  -6   10.12    0.92
  -7   4   6   10.40    1.38
   7  -4  -6   12.00    1.04
   7  -4  -6   10.20    1.04
   7   4  -5    5.30    0.76
  -7  -4   5    6.03    0.90
   7  -4  -5    5.96    0.84
  -7   4   5    5.25    1.00
   7  -4  -5    5.84    0.79
  -7   4   5    6.08    1.14
   7   4  -5    5.83    0.80
   7  -4  -5    5.90    0.87
   7  -4  -5    5.91    0.85
   7   4  -4    2.59    0.60
  -7  -4   4    3.13    0.74
  -7   4   4    1.97    0.79
   7  -4  -4    3.38    0.69
   7  -4  -4    2.17    0.65
  -7   4   4    3.46    0.96
   7   4  -4    3.10    0.67
   7   4  -4    1.95    0.51
   7  -4  -4    1.71    0.62
   7   4  -3   58.69    2.80
  -7  -4   3   72.66    3.30
   7  -4  -3   55.00    2.97
   7  -4  -3   61.05    2.77
  -7   4   3   56.51    3.46
   7  -4  -3   61.26    2.95
  -7   4   3   54.18    3.49
   7   4  -3   64.66    2.89
   7  -4  -3   67.98    3.03
   7  -4  -3   58.27    3.11
   7   4  -3   57.96    2.72
   7  -4  -2   53.41    2.84
   7   4  -2   63.95    2.93
   7  -4  -2   62.41    3.22
   7  -4  -2   70.53    3.10
  -7   4   2   59.83    3.64
   7  -4  -2   69.07    3.22
  -7   4   2   60.83    3.70
   7   4  -2   66.82    2.99
   7  -4  -2   71.15    3.17
   7  -4  -2   66.79    3.37
   7   4  -2   70.95    3.04
  -7   4   1   52.23    2.71
   7   4  -1   52.19    2.49
   7  -4  -1   43.11    2.49
   7  -4  -1   54.60    2.89
   7  -4  -1   57.42    2.80
  -7   4   1   47.61    3.17
   7  -4  -1   54.27    2.62
   7  -4  -1   59.09    2.92
   7   4  -1   52.16    2.51
   7  -4  -1   57.11    2.71
   7   4  -1   54.12    2.63
   7   4   0   -0.03    0.25
   7  -4   0   -0.23    0.57
   7  -4   0    0.57    0.63
  -7   4   0    0.17    0.55
   7  -4   0    0.48    0.58
   7  -4   0    0.23    0.46
   7  -4   0    0.17    0.52
   7   4   0    0.45    0.48
   7  -4   1    8.21    1.00
   7  -4   1   11.52    1.22
   7  -4   1   11.20    1.27
  -7   4  -1    8.14    1.28
   7  -4   1   11.49    1.22
   7  -4   1    9.79    0.99
   7  -4   1   10.81    1.32
   7   4   1   10.41    1.11
   7  -4   2    8.24    0.95
   7  -4   2   10.71    1.18
   7  -4   2    9.83    1.13
  -7   4  -2    7.65    1.22
   7  -4   2   11.73    1.23
   7  -4   2   10.61    1.19
   7  -4   2    8.95    1.21
   7   4   2    9.95    1.02
   7   4   3   27.79    1.70
   7  -4   3   20.33    1.58
   7   4   3   21.63    1.34
   7  -4   3   23.49    1.78
   7  -4   3   28.13    1.89
   7  -4   3   26.14    1.79
   7  -4   3   26.26    1.62
   7  -4   3   22.16    1.85
   7   4   3   26.97    1.72
   7   4   4   20.36    1.41
   7  -4   4   15.50    1.33
   7   4   4   16.19    1.16
  -7   4  -4   19.65    1.96
   7  -4   4   21.89    1.56
   7  -4   4   17.09    1.50
   7  -4   4   20.97    1.61
   7  -4   4   17.93    1.46
   7  -4   4   17.80    1.36
   7  -4   4   20.14    1.70
   7   4   4   21.90    1.47
   7   4   5   47.40    2.20
  -7   4  -5   48.91    3.07
   7  -4   5   50.05    2.47
   7  -4   5   42.89    2.52
   7  -4   5   54.70    2.65
   7  -4   5   48.55    2.46
   7  -4   5   50.29    2.46
   7  -4   5   49.65    2.78
   7  -4   6   23.62    1.39
   7   4   6   25.80    1.44
   7  -4   6   26.34    1.55
   7  -4   6   25.46    1.72
   7  -4   6   25.99    1.55
   7  -4   6   28.97    1.68
   7   4   6   28.19    1.59
   7  -4   6   24.22    1.81
   7  -4   7   16.11    1.08
   7   4   7   19.34    1.13
   7  -4   7   17.34    1.09
   7  -4   7   19.26    1.28
   7  -4   7   14.48    1.01
   7  -4   7   19.88    1.30
   7   4   7   20.19    1.22
   7  -4   8   13.76    0.91
   7   4   8   16.02    0.94
   7  -4   8   14.75    1.00
   7  -4   8   17.67    1.12
   7   4   8   15.65    0.97
   7   4   9    2.04    0.32
   7  -4   9    1.77    0.37
   7  -5  -5    1.73    0.32
  -7   5   5    1.63    0.36
   7   5  -4   75.02    2.51
   7  -5  -4   61.20    2.42
   7  -5  -3   29.74    1.32
   7  -5  -3   34.98    1.48
  -7   5   2   18.68    1.16
   7  -5  -2   20.05    1.05
   7  -5  -2   23.92    1.25
   7  -5  -2   26.63    1.31
   7   5  -2   23.11    1.22
   7  -5  -1  117.71    4.11
   7  -5  -1  113.74    4.19
   7  -5  -1  124.04    4.16
   7   5  -1  116.74    4.16
  -7   5   0   45.86    2.16
   7  -5   0   53.99    2.22
   7  -5   0   49.98    2.22
   7  -5   0   47.64    2.03
   7   5   0   54.15    2.21
  -7   5  -1   34.83    1.77
   7  -5   1   42.69    1.89
   7  -5   1   34.94    1.65
   7  -5   1   38.74    1.85
   7   5   1   39.57    1.79
  -7   5  -2    4.64    0.59
   7  -5   2    6.46    0.69
   7  -5   2    5.99    0.61
   7  -5   2    6.01    0.70
   7  -5   3   10.05    0.81
   7  -5   3    8.99    0.75
   7  -5   4    5.57    0.59
   7  -5   4    5.78    0.60
   7   5   4    5.24    0.53
   7  -5   5   21.27    1.10
  -8   0  11    6.74    0.74
  -8   0  10   41.43    2.23
   8   0 -10   43.09    1.98
   8   0  -9    0.98    0.51
  -8   0   9    1.13    0.49
  -8   0   9    1.07    0.61
   8   0  -9    2.19    0.55
   8   0  -9    1.98    0.50
   8   0  -8   -0.06    0.51
  -8   0   8   -0.20    0.46
  -8   0   8    0.55    0.64
   8   0  -8    0.12    0.46
   8   0  -8   -0.04    0.47
   8   0  -7   32.01    2.30
  -8   0   7   31.11    2.11
  -8   0   7   30.96    2.28
   8   0  -7   37.70    2.06
   8   0  -7   34.09    2.00
   8   0  -6  290.62   10.77
  -8   0   6  299.62   10.54
  -8   0   6  285.83   10.71
   8   0  -6  282.52    9.88
   8   0  -6  292.78   10.02
   8   0  -6  305.46   10.18
   8   0  -5    0.70    0.69
  -8   0   5   -0.07    0.62
   8   0  -5    0.09    0.46
   8   0  -5    0.40    0.49
   8   0  -5    0.59    0.55
  -8   0   5    0.74    0.74
   8   0  -5    0.05    0.54
   8   0  -4   71.10    3.86
  -8   0   4   74.79    3.71
  -8   0   4   74.06    3.84
   8   0  -4   61.84    3.16
   8   0  -4   65.60    3.30
   8   0  -4   66.85    3.20
   8   0  -4   65.84    3.26
   8   0  -3    5.01    1.19
   8   0  -3    5.58    0.95
   8   0  -3    6.51    1.02
   8   0  -3    6.13    0.90
  -8   0   3    5.92    1.15
   8   0  -3    5.15    0.86
   8   0  -3    6.78    0.98
   8   0  -2   21.34    2.08
   8   0  -2   21.32    1.71
  -8   0   2   24.59    2.08
   8   0  -2   20.91    1.74
   8   0  -2   19.45    1.50
   8   0  -2   16.89    1.54
   8   0  -2   19.74    1.58
   8   0  -1   54.82    3.45
   8   0  -1   53.07    2.93
  -8   0   1   59.47    3.45
   8   0  -1   57.42    3.07
   8   0  -1   48.16    2.84
   8   0  -1   55.02    2.80
   8   0   0  257.36    9.75
   8   0   0  290.66   11.08
   8   0   0  282.34   10.19
   8   0   0  312.87   11.07
   8   0   0  288.23   10.26
   8   0   0  283.13   10.32
  -8   0   0  315.98   11.09
   8   0   0  288.01   10.30
   8   0   0  277.61    9.85
   8   0   1    0.05    0.47
   8   0   1    0.50    0.59
  -8   0  -1    1.77    0.80
   8   0   1    0.53    0.84
   8   0   1   -0.07    0.62
   8   0   2  899.50   30.77
   8   0   2  982.96   31.24
   8   0   2 1051.00   31.23
   8   0   2  878.03   31.70
   8   0   2 1029.95   31.30
   8   0   2 1017.29   31.34
   8   0   3  360.25   12.73
   8   0   3  380.17   12.63
   8   0   3  376.12   12.69
   8   0   3  384.00   12.87
   8   0   4    0.13    0.66
   8   0   4    0.98    0.65
   8   0   4    0.68    0.59
   8   0   4   -0.26    0.79
   8   0   4    0.26    0.66
   8   0   5  305.04   10.25
   8   0   5  311.02    9.96
   8   0   5  290.25    9.91
   8   0   5  264.95   10.54
   8   0   5  245.19    9.42
   8   0   6    1.22    0.68
   8   0   6    1.47    0.57
   8   0   6    0.68    0.46
   8   0   6    1.28    0.82
   8   0   6    0.79    0.65
   8   0   6    0.44    0.41
   8   0   7   31.62    1.78
   8   0   7   29.12    1.47
   8   0   8   19.71    1.24
   8   0   8   21.48    1.50
   8   0   8   19.23    1.31
   8   0   9   11.94    1.08
   8   0   9   11.47    0.87
   8   0   9   11.61    0.99
   8   0   9   11.11    0.92
   8   0  10   22.41    1.33
   8   0  10   22.63    1.15
   8   0  10   22.81    1.22
   8   0  11    1.42    0.31
   8  -1 -11   15.53    0.90
  -8  -1  10    3.17    0.58
   8  -1 -10    3.72    0.56
  -8  -1  10    3.55    0.61
  -8   1  10    4.52    0.68
   8   1 -10    3.36    0.49
   8   1 -10    3.40    0.51
   8  -1 -10    3.83    0.51
  -8  -1   9    8.39    0.96
  -8   1   9    9.12    1.03
  -8  -1   9    8.32    0.99
   8   1  -9    9.17    0.85
   8   1  -9    9.79    0.91
   8  -1  -9    9.98    0.89
   8   1  -8   12.31    1.26
   8  -1  -8   10.90    1.23
  -8  -1   8   11.35    1.23
  -8   1   8   13.58    1.37
  -8  -1   8   11.21    1.24
   8   1  -8   10.94    1.02
   8   1  -8   16.69    1.25
   8  -1  -8   14.92    1.17
   8   1  -7   11.08    1.29
   8  -1  -7   12.57    1.37
  -8  -1   7   11.79    1.33
  -8   1   7   12.07    1.41
  -8  -1   7   11.88    1.34
   8   1  -7   12.27    1.10
   8  -1  -7   15.45    1.28
   8   1  -7   12.47    1.17
   8  -1  -7   13.63    1.20
   8   1  -6   23.39    1.94
   8  -1  -6   21.88    1.90
  -8  -1   6   28.27    2.07
  -8  -1   6   23.62    1.89
  -8   1   6   24.92    1.99
   8   1  -6   22.78    1.52
   8   1  -6   20.59    1.54
   8   1  -6   20.88    1.51
   8  -1  -6   27.57    1.77
   8   1  -5   64.77    3.47
   8  -1  -5   62.60    3.41
  -8  -1   5   72.20    3.62
  -8  -1   5   62.58    3.36
  -8   1   5   64.08    3.49
   8   1  -5   55.45    2.84
   8  -1  -5   54.26    2.76
   8   1  -5   54.89    2.93
   8  -1  -5   58.68    2.84
   8   1  -5   52.79    2.73
   8  -1  -5   65.70    3.07
   8   1  -5   59.90    2.97
   8  -1  -5   63.50    3.02
   8   1  -4   20.09    1.89
   8  -1  -4   19.45    1.84
  -8  -1   4   19.12    1.81
  -8   1   4   22.88    1.99
   8   1  -4   19.34    1.55
   8  -1  -4   18.32    1.46
   8   1  -4   17.80    1.56
   8  -1  -4   17.19    1.49
   8   1  -4   15.02    1.28
   8  -1  -4   22.41    1.63
   8   1  -4   18.33    1.53
   8  -1  -4   19.30    1.55
   8   1  -3    1.88    0.85
   8  -1  -3    2.34    0.85
   8   1  -3    1.62    0.71
   8  -1  -3    1.17    0.63
   8   1  -3    1.25    0.66
   8  -1  -3    2.15    0.72
   8  -1  -3    1.57    0.61
  -8  -1   3    1.56    0.78
  -8   1   3    3.58    1.00
   8   1  -3    2.25    0.67
   8  -1  -3    1.93    0.70
   8   1  -2   47.17    2.53
   8   1  -2   57.09    3.34
   8  -1  -2   55.60    3.28
   8   1  -2   50.94    2.83
   8  -1  -2   49.39    2.76
  -8  -1   2   55.30    3.14
  -8   1   2   63.16    3.41
   8   1  -2   49.79    2.88
   8  -1  -2   54.42    2.90
   8  -1  -2   50.54    2.72
   8   1  -2   46.18    2.64
   8  -1  -2   49.15    2.69
   8   1  -1   89.94    4.11
   8   1  -1  106.86    5.04
   8  -1  -1  114.28    5.10
   8  -1  -1  115.64    5.08
   8   1  -1  107.48    4.99
   8   1  -1  102.27    4.51
   8  -1  -1   99.17    4.42
  -8  -1   1  102.86    4.78
  -8   1   1  121.83    5.17
   8   1  -1   98.00    4.52
   8  -1  -1   99.12    4.47
   8  -1  -1   92.80    4.18
   8   1  -1   90.56    4.40
   8  -1  -1   90.97    4.24
   8   1  -1   92.98    4.18
   8  -1  -1   91.34    4.15
   8   1   0   75.83    3.51
   8   1   0   82.50    4.30
   8  -1   0   82.20    4.25
   8  -1   0   79.49    4.17
   8   1   0   82.51    4.23
   8  -1   0   77.47    3.71
   8  -1   0   80.00    3.80
  -8  -1   0   81.76    4.10
  -8   1   0   94.13    4.41
   8  -1   0   63.78    3.31
   8   1   0   73.79    3.75
   8  -1   0   74.89    3.65
   8   1   0   69.56    3.33
   8  -1   0   69.37    3.33
   8   1   1   25.77    1.84
   8  -1   1   23.34    1.84
   8  -1   1   26.04    2.26
   8   1   1   26.71    2.29
   8   1   1   30.79    2.13
   8  -1   1   26.56    1.99
   8   1   1   27.45    2.06
   8  -1   1   25.70    2.02
  -8  -1  -1   33.83    2.37
  -8   1  -1   32.49    2.45
   8  -1   1   22.92    1.65
   8   1   1   30.56    2.16
   8  -1   1   25.91    1.96
   8   1   2   58.02    2.98
   8   1   2   62.18    3.28
   8  -1   2   52.75    2.97
   8   1   2   61.39    3.18
   8  -1   2   51.68    3.36
   8   1   2   54.63    3.43
   8   1   2   66.85    3.27
  -8  -1  -2   60.88    3.43
  -8   1  -2   59.00    3.54
   8   1   2   61.60    3.30
   8  -1   2   55.30    3.12
   8  -1   2   48.54    2.98
   8   1   3   -0.05    0.55
   8   1   3    0.45    0.63
   8  -1   3    0.66    0.61
   8   1   3   -0.28    0.61
   8  -1   3    0.91    0.66
   8   1   3    0.23    0.57
   8  -1   3    0.30    0.70
   8  -1   3   -0.33    0.73
   8   1   3   -0.25    0.71
   8  -1   3    0.32    0.60
   8   1   3    0.44    0.42
   8  -1   3    0.51    0.55
   8   1   4   73.91    3.36
   8   1   4   72.22    3.54
   8  -1   4   66.31    3.38
   8   1   4   76.87    3.40
   8  -1   4   72.53    3.33
   8   1   4   69.55    3.34
   8  -1   4   65.87    3.30
   8  -1   4   57.50    3.55
   8   1   4   57.76    3.60
   8  -1   4   69.08    3.48
   8   1   4   64.17    3.04
   8  -1   4   49.50    3.16
   8   1   5   46.22    2.49
   8   1   5   47.31    2.68
   8  -1   5   44.08    2.56
   8   1   5   43.66    2.39
   8  -1   5   42.93    2.36
   8   1   5   45.47    2.40
   8  -1   5   42.51    2.43
   8  -1   5   37.67    2.70
   8   1   5   35.07    2.65
   8   1   5   48.44    2.65
   8  -1   5   46.33    2.63
   8   1   5   45.06    2.31
   8  -1   5   30.92    2.35
   8  -1   6  146.26    3.87
   8  -1   6  133.14    3.14
   8  -1   6  135.24    3.38
   8   1   6  145.49    3.73
   8  -1   6  146.45    3.87
   8   1   6  139.42    3.27
   8   1   7   27.60    1.66
   8  -1   7   23.88    1.59
   8   1   7   21.22    1.14
   8  -1   7   21.95    1.31
   8   1   7   27.84    1.58
   8   1   7   26.00    1.41
   8   1   8    3.77    0.70
   8  -1   8    3.60    0.74
   8   1   8    3.37    0.53
   8   1   8    4.21    0.66
   8  -1   8    3.70    0.71
   8   1   8    3.87    0.64
   8   1   9   47.11    2.14
   8   1   9   48.64    1.98
   8  -1   9   43.14    1.86
   8  -1   9   47.73    2.21
   8   1   9   48.61    2.12
   8   1  10    4.12    0.51
   8   1  10    4.10    0.46
   8  -1  10    4.85    0.52
   8   1  10    5.08    0.55
  -8  -2  10    6.20    0.62
   8  -2 -10    7.00    0.56
   8   2 -10    5.21    0.49
  -8  -2   9   94.75    2.48
   8   2  -9   92.86    2.05
   8  -2  -9   92.33    1.99
  -8  -2   8  147.16    5.90
  -8   2   8  152.35    6.03
  -8  -2   8  180.96    6.35
   8  -2  -8  197.54    6.13
   8   2  -8  165.50    5.94
   8  -2  -8  180.53    6.00
  -8  -2   7   65.83    3.24
  -8   2   7   69.71    3.40
  -8  -2   7   84.77    3.67
   8  -2  -7   92.40    3.45
   8  -2  -7   77.65    3.27
   8   2  -6    3.70    0.73
   8  -2  -6    2.95    0.69
  -8  -2   6    4.73    0.95
   8   2  -6    4.09    0.64
  -8  -2   6    3.79    0.73
  -8   2   6    5.23    0.88
  -8   2   6    3.96    0.88
   8   2  -6    4.93    0.76
   8   2  -5   63.71    3.29
   8  -2  -5   63.42    3.24
  -8  -2   5   84.39    3.81
  -8  -2   5   72.71    3.35
  -8   2   5   71.45    3.44
   8   2  -5   61.00    2.98
   8  -2  -5   78.65    3.30
   8   2  -5   61.88    3.04
   8  -2  -5   64.48    3.09
   8   2  -4   60.00    3.07
   8  -2  -4   57.01    2.98
  -8  -2   4   62.16    3.01
  -8   2   4   71.20    3.25
   8   2  -4   51.35    2.69
   8  -2  -4   49.29    2.56
   8   2  -4   51.26    2.77
   8  -2  -4   45.46    2.48
   8  -2  -4   64.14    2.94
   8   2  -4   52.70    2.70
   8  -2  -4   52.60    2.71
   8   2  -3  223.30    7.71
   8  -2  -3  213.80    7.59
   8  -2  -3  195.06    7.41
   8   2  -3  191.38    7.48
  -8  -2   3  219.47    7.50
  -8   2   3  235.79    7.79
   8   2  -3  182.07    7.14
   8  -2  -3  178.35    7.01
  -8   2   3  200.35    7.81
   8   2  -3  185.01    7.25
   8  -2  -3  171.41    6.96
   8  -2  -3  204.67    7.29
   8   2  -3  175.06    6.98
   8  -2  -3  180.92    7.04
   8   2  -2   55.06    2.71
   8   2  -2   63.21    3.27
   8  -2  -2   60.22    3.20
   8  -2  -2   57.75    3.09
   8   2  -2   64.06    3.21
   8   2  -2   54.96    2.90
  -8  -2   2   63.89    3.09
  -8   2   2   61.43    3.15
   8  -2  -2   52.20    2.79
  -8   2   2   46.28    3.02
   8   2  -2   53.65    2.92
   8  -2  -2   50.32    2.76
   8  -2  -2   52.62    2.81
   8   2  -2   47.66    2.62
   8  -2  -2   51.29    2.69
   8  -2  -2   53.81    2.85
   8   2  -1    1.67    0.64
  -8   2   1    3.99    0.76
   8   2  -1    2.18    0.76
   8  -2  -1    1.72    0.72
   8  -2  -1    1.47    0.67
   8  -2  -1    1.86    0.69
  -8  -2   1    3.60    0.67
   8  -2  -1    3.69    0.68
   8   2  -1    3.02    0.64
   8   2  -1    1.63    0.57
   8  -2  -1    2.41    0.64
   8  -2  -1    1.95    0.66
   8   2   0  356.93   11.05
   8  -2   0  318.42   11.05
   8  -2   0  354.52   11.52
   8   2   0  369.52   11.62
  -8  -2   0  333.40   11.21
  -8   2   0  321.64   11.34
   8   2   0  324.07   11.24
   8  -2   0  321.14   11.11
   8  -2   0  277.72   10.75
   8  -2   0  284.64   10.70
   8  -2   0  270.04   10.51
   8  -2   0  339.59   11.23
   8   2   0  310.64   10.56
   8   2   1  118.33    4.57
   8   2   1  106.61    4.68
   8  -2   1  106.38    4.60
  -8  -2  -1   98.90    4.57
  -8   2  -1  107.76    4.80
   8   2   1  114.79    4.70
   8  -2   1  107.38    4.81
   8  -2   1  105.68    4.63
   8   2   1  105.14    4.81
   8  -2   1   89.57    4.26
   8  -2   1  100.35    4.43
   8  -2   1  112.05    4.77
   8   2   1  110.10    4.28
   8   2   2   17.11    1.43
   8   2   2   15.64    1.42
   8   2   2   15.17    1.44
  -8  -2  -2   11.95    1.31
  -8   2  -2   14.04    1.47
   8  -2   2   14.84    1.50
   8  -2   2   12.04    1.42
   8   2   2   10.21    1.35
   8  -2   2   11.72    1.16
   8  -2   2   13.34    1.33
   8  -2   2   11.80    1.38
   8   2   2   14.34    1.20
   8   2   3   28.73    1.83
   8  -2   3   23.36    1.64
   8   2   3   23.43    1.73
   8  -2   3   21.30    1.70
   8   2   3   25.81    1.77
  -8  -2  -3   21.91    1.72
  -8   2  -3   22.75    1.83
   8  -2   3   19.62    1.43
   8  -2   3   20.77    1.79
   8   2   3   22.76    1.89
   8  -2   3   24.15    1.80
   8  -2   3   21.38    1.84
   8   2   3   21.66    1.55
   8   2   4    6.29    0.94
   8  -2   4    5.70    0.90
   8   2   4    6.19    0.89
   8  -2   4    6.26    0.94
   8   2   4    6.46    0.86
   8  -2   4    6.86    1.04
  -8   2  -4    5.21    0.93
  -8  -2  -4    4.24    0.84
   8  -2   4    4.24    0.86
   8   2   4    5.72    0.98
   8  -2   4    6.02    0.99
   8   2   4    4.75    0.78
   8  -2   4    5.67    1.02
   8  -2   5   18.17    1.47
   8   2   5   18.30    1.31
   8  -2   5   16.10    1.35
   8  -2   5   18.66    1.48
  -8   2  -5   16.04    1.47
  -8  -2  -5   18.03    1.49
   8  -2   5   18.59    1.54
   8   2   5   20.19    1.41
   8  -2   5   16.86    1.60
   8  -2   6    9.20    1.04
   8   2   6    8.05    0.74
   8  -2   6   10.19    0.97
   8  -2   6    9.32    1.01
  -8   2  -6    9.22    1.07
  -8  -2  -6    9.89    1.05
   8  -2   6    8.19    1.06
   8   2   6    9.65    0.96
   8  -2   6    7.36    1.07
   8   2   7   16.40    1.14
   8  -2   7   16.39    1.22
   8   2   7   14.31    0.86
   8  -2   7   14.99    1.05
  -8   2  -7   13.82    1.11
  -8  -2  -7   15.41    1.14
   8  -2   7   17.03    1.25
   8   2   7   18.14    1.13
   8  -2   7   13.00    1.22
   8   2   8   20.77    1.11
   8  -2   8   21.81    1.26
   8   2   8   18.94    0.90
  -8  -2  -8   18.11    1.06
   8  -2   8   -0.05    0.16
  -8   2  -8   -0.06    0.18
   8   2   8   22.02    1.15
   8   2   9   44.97    1.91
   8  -2   9   49.34    2.13
   8   2   9   41.82    1.79
   8  -2   9   48.26    2.10
   8   2   9   48.33    2.00
   8   3  -8    7.43    0.59
  -8  -3   8    7.84    0.70
   8  -3  -8    9.30    0.65
   8   3  -8    8.14    0.63
   8  -3  -8    8.14    0.63
   8   3  -7    5.92    0.61
  -8  -3   7    6.20    0.78
   8  -3  -7    6.51    0.67
   8  -3  -7    6.82    0.67
  -8  -3   6   52.59    2.46
   8  -3  -6   51.32    2.23
   8  -3  -6   46.87    2.18
  -8  -3   5   11.63    1.22
  -8   3   5    8.33    1.11
   8  -3  -5   10.33    0.98
   8   3  -5    9.02    0.87
  -8  -3   4   11.53    1.25
   8  -3  -4    9.02    0.78
  -8   3   4    7.93    1.12
   8   3  -4    9.07    0.88
   8  -3  -4    9.15    0.95
  -8  -3   3    4.62    0.92
   8   3  -3    2.85    0.65
   8  -3  -3    2.49    0.56
  -8   3   3    2.81    0.76
   8   3  -3    3.51    0.61
   8  -3  -3    3.28    0.65
   8  -3  -3    3.16    0.66
   8   3  -2    2.87    0.68
   8  -3  -2    2.58    0.63
  -8   3   2    2.65    0.74
   8  -3  -2    2.36    0.54
   8  -3  -2    2.63    0.68
   8   3  -2    2.34    0.51
   8  -3  -2    3.02    0.60
   8   3  -2    2.33    0.46
   8  -3  -2    1.67    0.60
   8  -3  -1  117.22    3.03
   8  -3  -1  112.82    2.89
   8  -3  -1  117.03    3.08
   8  -3  -1  107.40    2.63
   8  -3  -1  124.30    3.39
   8   3  -1  102.28    2.38
   8   3   0    8.92    1.03
   8  -3   0   11.24    1.13
   8  -3   0   10.31    1.09
   8  -3   0   12.11    1.14
   8  -3   0    8.33    0.83
   8  -3   0   10.59    1.18
   8   3   0    9.15    0.87
   8   3   1    1.63    0.59
   8   3   1    1.16    0.53
   8  -3   1    1.81    0.68
   8  -3   1    1.34    0.62
   8  -3   1    1.24    0.60
   8   3   1    1.52    0.47
   8  -3   1    0.82    0.53
   8   3   2   25.51    1.59
   8   3   2   22.38    1.52
   8  -3   2   21.79    1.56
   8  -3   2   22.64    1.63
   8  -3   2   21.60    1.50
   8  -3   2   18.34    1.32
   8  -3   2   20.15    1.71
   8   3   2   23.55    1.45
   8   3   3    0.25    0.42
   8  -3   3    0.58    0.56
   8  -3   3   -0.18    0.41
   8  -3   3    0.38    0.46
   8   3   3    0.31    0.42
   8  -3   3    0.65    0.55
   8   3   4   43.10    1.75
   8  -3   4   38.49    1.70
   8  -3   4   37.95    1.77
   8  -3   4   38.27    1.70
   8   3   4   40.12    1.63
   8   3   5    5.73    0.71
   8  -3   5    4.53    0.57
   8  -3   5    5.06    0.69
   8  -3   5    4.95    0.74
   8   3   5    5.00    0.68
   8   3   6  139.99    4.80
   8  -3   6  123.00    4.67
   8  -3   6  127.45    4.68
   8  -3   6  134.37    4.88
   8  -3   6  140.47    4.96
   8   3   6  142.53    4.83
   8   3   7   30.16    1.44
   8  -3   7   30.03    1.47
   8  -3   7   32.17    1.53
   8  -3   7   35.62    1.69
   8   3   7   34.98    1.58
   8  -3   8   27.64    1.33
   8   3   8   27.12    1.25
   8   4  -4   18.79    0.98
   8  -4  -4   22.41    1.13
   8  -4  -4   22.27    1.11
   8   4  -3    5.65    0.49
  -8  -4   3    7.14    0.67
   8  -4  -3    7.36    0.68
   8  -4  -3    7.57    0.64
  -8  -4   2   12.67    0.94
   8  -4  -2   10.28    0.72
   8  -4  -2   12.09    0.91
   8  -4  -2   11.54    0.78
  -8  -4   1   21.15    1.16
   8  -4  -1   20.89    1.03
  -8  -4   0   34.97    1.71
   8  -4   0   33.26    1.58
   8  -4   0   28.85    1.42
   8  -4   0   33.31    1.64
   8   4   0   28.80    1.42
   8  -4   1  139.81    4.74
   8  -4   1  129.58    4.61
   8  -4   1  130.46    4.69
   8   4   1  126.72    4.54
   8  -4   2   37.93    1.75
   8  -4   2   37.79    1.71
   8  -4   2   34.35    1.66
   8   4   2   32.84    1.57
   8  -4   3    5.83    0.62
   8  -4   3    5.05    0.53
   8   4   3    5.32    0.54
   8  -4   4   24.47    1.23
   8  -4   4   27.18    1.31
   8   4   4   24.00    1.19
  -9   0   7   20.99    1.32
  -9   0   6   40.16    1.74
   9   0  -6   38.54    1.35
   9   0  -5   -0.02    0.24
   9   0  -5    0.02    0.30
  -9   0   5   -0.44    0.47
   9   0  -5    0.42    0.34
   9   0  -4    4.13    0.75
   9   0  -4    3.59    0.55
   9   0  -4    4.13    0.61
  -9   0   4    4.58    0.78
   9   0  -4    4.09    0.72
   9   0  -4    3.64    0.57
   9   0  -3    2.26    0.52
   9   0  -3    1.04    0.46
  -9   0   3    2.12    0.65
   9   0  -3    0.77    0.56
   9   0  -3    1.33    0.41
   9   0  -2    0.30    0.44
   9   0  -2    0.43    0.43
  -9   0   2    0.47    0.48
   9   0  -2    0.32    0.50
   9   0  -2   -0.05    0.25
   9   0  -1   17.88    1.33
  -9   0   1   19.89    1.59
   9   0  -1   18.66    1.61
   9   0  -1   20.37    1.41
   9   0   0    7.77    0.91
  -9   0   0    8.61    1.12
   9   0   0    7.14    0.91
   9   0   0    8.18    0.90
   9   0   0    6.34    1.03
  -9   0  -1    3.49    0.82
   9   0   1    3.88    0.86
   9   0   1    4.63    0.74
   9   0   2   81.87    3.46
   9   0   2  106.89    3.94
  -9   0  -2   96.89    4.17
   9   0   2  104.69    3.95
   9   0   2   86.98    4.12
   9   0   2  100.31    3.95
   9   0   3   38.07    1.87
   9   0   3   47.14    2.15
   9   0   3   46.58    2.17
  -9   0  -3   39.79    2.30
   9   0   3   33.27    2.25
   9   0   3   46.00    2.23
   9   0   4  128.16    4.49
   9   0   4  128.10    4.53
  -9   0  -4  116.97    4.76
   9   0   4  130.72    4.69
   9   0   5   54.28    2.36
   9   0   5   59.57    2.34
   9   0   5   58.41    2.38
  -9   0  -5   61.48    2.74
   9   0   6    0.95    0.34
  -9   0  -6    0.60    0.42
   9   0   6    1.24    0.42
   9   0   7    2.14    0.34
  -9   0  -7    2.24    0.42
   9   0   7    2.20    0.39
   9   1  -7   58.22    2.23
  -9  -1   6   47.52    2.18
  -9   1   6   48.64    2.28
  -9  -1   6   47.65    2.14
   9  -1  -6   45.94    1.96
   9   1  -6   43.67    1.96
   9  -1  -6   50.75    2.04
  -9  -1   5    7.52    0.82
  -9   1   5    7.55    0.88
  -9  -1   5    7.83    0.85
   9   1  -5    5.51    0.57
   9  -1  -5    6.26    0.64
   9   1  -5    6.77    0.66
   9  -1  -5    7.39    0.70
  -9  -1   4  139.94    4.55
  -9  -1   4  125.43    4.45
  -9   1   4  127.80    4.59
   9   1  -4   98.34    3.96
   9  -1  -4  102.38    3.91
   9  -1  -4  101.26    3.91
   9  -1  -4  109.20    3.97
   9   1  -4  103.30    3.96
   9  -1  -4  107.91    4.01
  -9  -1   3   24.32    1.52
  -9  -1   3   19.11    1.38
  -9   1   3   23.57    1.56
   9   1  -3   19.04    1.24
   9  -1  -3   17.62    1.18
   9   1  -3   18.84    1.28
   9  -1  -3   19.81    1.24
   9   1  -3   17.81    1.10
   9  -1  -3   17.80    1.14
  -9  -1   2   23.66    1.49
  -9  -1   2   23.23    1.42
  -9   1   2   22.61    1.48
   9   1  -2   17.77    1.12
   9  -1  -2   19.05    1.16
   9  -1  -2   18.88    1.39
   9   1  -2   18.61    1.36
   9   1  -2   18.58    1.21
   9  -1  -2   18.41    1.16
   9   1  -1   64.63    2.95
  -9  -1   1   72.28    3.17
  -9   1   1   74.48    3.30
   9  -1  -1   68.69    2.96
   9  -1  -1   64.85    3.19
   9   1  -1   71.20    3.26
   9   1  -1   66.51    3.00
   9  -1  -1   63.91    2.93
   9   1   0  101.51    3.97
   9  -1   0  115.10    4.32
  -9  -1   0  120.48    4.55
  -9   1   0  125.13    4.69
   9  -1   0  110.84    4.34
   9  -1   0  110.09    4.61
   9   1   0  114.71    4.63
   9  -1   0   97.67    4.07
   9   1   1   92.40    3.59
   9   1   1  101.23    3.89
   9  -1   1   98.62    3.85
  -9  -1  -1   99.41    4.03
  -9   1  -1  104.67    4.20
   9   1   1   98.84    3.91
   9  -1   1   94.65    3.88
   9  -1   1   81.03    3.98
   9   1   1   93.47    4.10
   9  -1   1   88.23    3.71
   9   1   2   15.69    1.08
   9   1   2   19.84    1.27
  -9  -1  -2   14.74    1.26
  -9   1  -2   14.89    1.31
   9   1   2   17.44    1.24
   9  -1   2   10.75    1.21
   9   1   2   11.93    1.26
   9  -1   2   14.30    1.15
   9   1   3   10.36    0.87
   9   1   3    9.59    0.89
   9  -1   3    8.97    0.87
  -9  -1  -3    8.47    0.95
  -9   1  -3    8.18    0.98
   9   1   3   10.76    0.90
   9  -1   3   10.21    0.95
   9  -1   3    9.10    0.90
   9   1   4   68.83    2.76
   9  -1   4   65.99    2.78
   9   1   4   70.53    2.74
   9  -1   4   69.51    2.78
   9   1   4   68.08    2.70
  -9  -1  -4   59.86    2.88
  -9   1  -4   62.06    2.95
   9  -1   4   70.33    2.85
   9  -1   4   71.94    2.93
   9   1   5   25.33    1.32
   9  -1   5   22.46    1.33
   9  -1   5   23.28    1.21
  -9  -1  -5   21.23    1.36
  -9   1  -5   22.03    1.41
   9  -1   5   23.33    1.28
   9  -1   5   27.30    1.45
   9   1   6  117.22    3.96
   9  -1   6  116.58    4.02
  -9  -1  -6   97.61    3.98
  -9   1  -6  100.04    4.01
   9  -1   6  126.67    4.13
   9  -2  -5   45.02    1.84
   9  -2  -5   42.52    1.79
   9   2  -4   32.68    1.50
   9  -2  -4   37.51    1.63
   9   2  -3   51.15    1.55
   9  -2  -3   46.92    1.35
   9  -2  -3   53.33    1.52
   9  -2  -3   46.97    1.34
  -9  -2   2   17.53    0.95
  -9  -2   2   25.57    1.40
   9   2  -2   16.62    0.98
   9  -2  -2   17.80    0.98
   9  -2  -2   16.84    0.91
   9  -2  -2   16.10    0.88
  -9   2   2    0.03    0.16
  -9  -2   1   68.99    2.30
  -9  -2   1   50.29    1.57
   9   2  -1   54.98    1.74
   9  -2  -1   51.47    1.68
   9  -2  -1   49.80    1.63
   9  -2  -1   11.63    0.72
   9  -2   0   50.11    1.69
   9  -2   0   51.04    1.70
   9   2   1  130.91    2.62
   9  -2   1  135.28    2.72
   9  -2   1  132.16    2.74
   9   2   2   45.40    1.48
  -9  -2  -2   29.23    1.16
   9   2   2   42.61    1.44
   9  -2   2   43.39    1.57
   9  -2   2   33.82    1.20
   9   2   3   13.92    0.93
   9   2   3   11.87    0.83
   9  -2   3   12.02    0.90
   9  -2   3   12.57    0.87
   9   2   4    2.40    0.41
   9  -2   4    2.89    0.42
   9  -2   4    2.94    0.48
   9  -2   4    2.33    0.40
   9   2   5    0.57    0.25
   9  -2   5    0.59    0.26
   9  -2   5    0.54    0.26
   0   0   0    0.00    0.00


TITL exp_37 in P2(1)/m
REM P2(1)/m (#11 in standard setting)
CELL 1.54184   7.703635   6.163273  15.565353  90.0000  90.6701  90.0000
ZERR    3.00   0.000100   0.000084   0.000179   0.0000   0.0011   0.0000
LATT  1
SYMM -x, y+1/2,-z
SFAC C H N O
UNIT 33.00 30.00 3.00 3.00
TREF
HKLF 4
END
_computing_structure_solution     'SHELXT 2018/2 (Sheldrick, 2018)'
;
_shelx_hkl_checksum              37094
_olex2_submission_special_instructions 'No special instructions were received'
_oxdiff_exptl_absorpt_empirical_details
;
Empirical correction (ABSPACK) includes:
- Absorption correction using spherical harmonics
- Frame scaling
;
_oxdiff_exptl_absorpt_empirical_full_max 1.844
_oxdiff_exptl_absorpt_empirical_full_min 0.650
loop_
_space_group_symop_operation_xyz
'x, y, z'
'-x, y+1/2, -z'
loop_
_atom_site_label
_atom_site_type_symbol
_atom_site_fract_x
_atom_site_fract_y
_atom_site_fract_z
_atom_site_U_iso_or_equiv
_atom_site_adp_type
_atom_site_occupancy
_atom_site_site_symmetry_order
_atom_site_calc_flag
_atom_site_refinement_flags_posn
O20 O 0.1716(2) 0.9469(3) 0.07057(10) 0.0251(4) Uani 1 1 d .
O13 O 0.6435(2) 0.1520(3) 0.18842(11) 0.0317(4) Uani 1 1 d .
O22 O 0.7420(2) 0.0754(4) 0.32024(12) 0.0391(5) Uani 1 1 d .
C4 C 0.2419(2) 0.4806(4) 0.20865(12) 0.0198(4) Uani 1 1 d .
C14 C 0.3799(2) 0.1814(4) 0.37864(13) 0.0214(4) Uani 1 1 d .
C9 C 0.2666(3) 0.6384(4) 0.14584(13) 0.0203(4) Uani 1 1 d .
C15 C 0.3567(3) 0.2998(4) 0.45346(14) 0.0242(5) Uani 1 1 d .
H15 H 0.404909 0.437607 0.458554 0.029 Uiso 1 1 calc R
C19 C 0.3107(3) -0.0282(4) 0.37292(14) 0.0246(5) Uani 1 1 d .
H19 H 0.327879 -0.110087 0.323556 0.029 Uiso 1 1 calc R
C18 C 0.2168(3) -0.1149(4) 0.44026(14) 0.0271(5) Uani 1 1 d .
H18 H 0.170784 -0.254005 0.435834 0.033 Uiso 1 1 calc R
C17 C 0.1916(3) 0.0063(5) 0.51428(14) 0.0286(5) Uani 1 1 d .
H17 H 0.127959 -0.051323 0.559276 0.034 Uiso 1 1 calc R
C5 C 0.0959(3) 0.4890(4) 0.26225(13) 0.0229(4) Uani 1 1 d .
H5 H 0.078406 0.382012 0.303395 0.027 Uiso 1 1 calc R
C11 C 0.5703(3) 0.5002(4) 0.12386(14) 0.0253(5) Uani 1 1 d .
H11A H 0.660781 0.484748 0.081482 0.030 Uiso 1 1 calc R
H11B H 0.619284 0.573715 0.173630 0.030 Uiso 1 1 calc R
C21 C 0.0458(3) 1.1142(4) 0.05641(15) 0.0284(5) Uani 1 1 d .
H21A H 0.078678 1.199773 0.007694 0.043 Uiso 1 1 calc GR
H21B H 0.040241 1.205252 0.106351 0.043 Uiso 1 1 calc GR
H21C H -0.065850 1.049945 0.045692 0.043 Uiso 1 1 calc GR
C3 C 0.3649(3) 0.2909(3) 0.21879(12) 0.0209(4) Uani 1 1 d .
H3 H 0.295817 0.157589 0.215212 0.025 Uiso 1 1 calc R
C2 C 0.4720(3) 0.2819(4) 0.30316(13) 0.0215(4) Uani 1 1 d .
H2 H 0.506577 0.429968 0.318723 0.026 Uiso 1 1 calc R
C8 C 0.1420(3) 0.8035(4) 0.13632(13) 0.0215(4) Uani 1 1 d .
C10 C 0.4208(3) 0.6335(4) 0.08642(13) 0.0232(4) Uani 1 1 d .
H10A H 0.460196 0.780734 0.076310 0.028 Uiso 1 1 calc R
H10B H 0.385304 0.572107 0.031601 0.028 Uiso 1 1 calc R
C12 C 0.5041(3) 0.2785(4) 0.14967(14) 0.0248(5) Uani 1 1 d .
H12 H 0.457830 0.202592 0.099044 0.030 Uiso 1 1 calc R
C16 C 0.2613(3) 0.2135(4) 0.52121(15) 0.0292(5) Uani 1 1 d .
H16 H 0.244459 0.294607 0.570808 0.035 Uiso 1 1 calc R
C6 C -0.0215(3) 0.6581(4) 0.25308(13) 0.0260(5) Uani 1 1 d .
H6 H -0.116132 0.665738 0.289540 0.031 Uiso 1 1 calc R
C1 C 0.6336(3) 0.1571(4) 0.27575(15) 0.0282(5) Uani 1 1 d .
C7 C -0.0006(3) 0.8167(4) 0.19038(14) 0.0255(5) Uani 1 1 d .
H7 H -0.080279 0.929258 0.184659 0.031 Uiso 1 1 calc R
loop_
_atom_site_aniso_label
_atom_site_aniso_U_11
_atom_site_aniso_U_22
_atom_site_aniso_U_33
_atom_site_aniso_U_23
_atom_site_aniso_U_13
_atom_site_aniso_U_12
O20 0.0223(7) 0.0279(8) 0.0250(7) 0.0042(6) -0.0002(6) 0.0041(6)
O13 0.0266(8) 0.0409(10) 0.0279(8) 0.0074(7) 0.0112(6) 0.0156(8)
O22 0.0262(8) 0.0552(12) 0.0362(9) 0.0159(8) 0.0089(7) 0.0170(8)
C4 0.0148(9) 0.0272(10) 0.0174(9) -0.0025(8) 0.0015(7) 0.0007(7)
C14 0.0156(9) 0.0285(11) 0.0202(9) 0.0014(8) 0.0008(7) 0.0034(8)
C9 0.0151(8) 0.0264(10) 0.0195(9) -0.0028(8) 0.0010(7) 0.0008(8)
C15 0.0190(9) 0.0306(11) 0.0231(9) -0.0001(8) 0.0021(7) -0.0010(8)
C19 0.0231(10) 0.0303(12) 0.0204(9) -0.0003(8) 0.0027(7) 0.0025(8)
C18 0.0221(10) 0.0304(11) 0.0289(11) 0.0023(9) 0.0038(8) -0.0014(8)
C17 0.0225(11) 0.0395(13) 0.0239(10) 0.0039(9) 0.0066(8) -0.0007(9)
C5 0.0165(9) 0.0329(11) 0.0193(9) 0.0007(8) 0.0027(7) 0.0018(8)
C11 0.0155(9) 0.0359(12) 0.0246(10) 0.0036(8) 0.0063(7) 0.0032(8)
C21 0.0276(11) 0.0281(11) 0.0296(10) -0.0007(9) -0.0052(8) 0.0055(9)
C3 0.0178(9) 0.0262(10) 0.0188(9) -0.0002(8) 0.0044(7) 0.0021(8)
C2 0.0153(9) 0.0276(10) 0.0216(9) 0.0011(8) 0.0037(7) 0.0036(7)
C8 0.0181(9) 0.0279(10) 0.0185(9) -0.0012(8) -0.0013(7) 0.0008(8)
C10 0.0182(9) 0.0297(10) 0.0220(9) 0.0041(9) 0.0052(7) 0.0016(8)
C12 0.0210(10) 0.0316(11) 0.0219(10) 0.0027(8) 0.0065(7) 0.0064(9)
C16 0.0260(11) 0.0392(13) 0.0225(10) -0.0035(9) 0.0056(8) 0.0018(10)
C6 0.0166(9) 0.0400(12) 0.0217(10) -0.0009(9) 0.0040(7) 0.0047(9)
C1 0.0221(10) 0.0340(11) 0.0289(11) 0.0068(9) 0.0100(8) 0.0071(9)
C7 0.0182(10) 0.0343(11) 0.0240(9) -0.0020(9) -0.0003(8) 0.0066(9)
loop_
_atom_type_symbol
_atom_type_description
_atom_type_scat_dispersion_real
_atom_type_scat_dispersion_imag
_atom_type_scat_source
C C 0.0181 0.0091 'International Tables Vol C Tables 4.2.6.8 and 6.1.1.4'
H H 0.0000 0.0000 'International Tables Vol C Tables 4.2.6.8 and 6.1.1.4'
O O 0.0492 0.0322 'International Tables Vol C Tables 4.2.6.8 and 6.1.1.4'
loop_
_exptl_crystal_face_index_h
_exptl_crystal_face_index_k
_exptl_crystal_face_index_l
_exptl_crystal_face_perp_dist
-5 0 1 0.0903
3 3 2 0.0917
-5 0 4 0.0767
-3 0 7 0.0586
2 3 -7 0.0896
0 4 -3 0.1042
-2 -4 -4 0.0869
-2 -1 -9 0.0942
-2 3 -3 0.1135
-4 0 -5 0.1032
-4 0 5 0.0775
-1 3 7 0.0821
0 0 -10 0.0646
2 0 1 0.0127
-2 -1 -2 0.0870
4 -3 -1 0.0491
-3 2 -7 0.0926
-3 -3 -6 0.0779
1 -4 2 0.0655
3 0 8 0.0325
3 0 8 0.0288
5 0 -4 0.0152
0 0 10 0.0406
-2 -4 2 0.0781
loop_
_geom_angle_atom_site_label_1
_geom_angle_atom_site_label_2
_geom_angle_atom_site_label_3
_geom_angle
C8 O20 C21 117.42(18)
C1 O13 C12 110.62(16)
C9 C4 C5 120.42(19)
C9 C4 C3 121.49(17)
C5 C4 C3 118.03(18)
C15 C14 C19 119.08(19)
C15 C14 C2 120.17(19)
C19 C14 C2 120.70(19)
C4 C9 C8 118.72(18)
C4 C9 C10 121.96(18)
C8 C9 C10 119.30(18)
C14 C15 C16 120.5(2)
C18 C19 C14 120.6(2)
C19 C18 C17 119.9(2)
C18 C17 C16 120.1(2)
C6 C5 C4 119.4(2)
C12 C11 C10 109.42(18)
C4 C3 C2 116.38(16)
C4 C3 C12 114.11(16)
C12 C3 C2 102.97(16)
C14 C2 C3 115.11(17)
C14 C2 C1 113.69(18)
C1 C2 C3 102.08(17)
O20 C8 C9 115.17(18)
O20 C8 C7 123.5(2)
C7 C8 C9 121.4(2)
C9 C10 C11 111.81(16)
O13 C12 C11 110.18(19)
O13 C12 C3 104.80(16)
C11 C12 C3 112.50(18)
C17 C16 C15 119.8(2)
C5 C6 C7 121.29(19)
O13 C1 C2 110.21(18)
O22 C1 O13 121.6(2)
O22 C1 C2 128.2(2)
C6 C7 C8 118.8(2)
loop_
_geom_bond_atom_site_label_1
_geom_bond_atom_site_label_2
_geom_bond_distance
O20 C21 1.430(3)
O20 C8 1.373(3)
O13 C12 1.452(3)
O13 C1 1.363(3)
O22 C1 1.191(3)
C4 C9 1.393(3)
C4 C5 1.410(3)
C4 C3 1.512(3)
C14 C15 1.388(3)
C14 C19 1.400(3)
C14 C2 1.512(3)
C9 C8 1.406(3)
C9 C10 1.514(3)
C15 C16 1.398(3)
C19 C18 1.388(3)
C18 C17 1.389(3)
C17 C16 1.389(4)
C5 C6 1.386(3)
C11 C10 1.525(3)
C11 C12 1.514(3)
C3 C2 1.544(3)
C3 C12 1.530(3)
C2 C1 1.528(3)
C8 C7 1.394(3)
C6 C7 1.392(4)
loop_
_exptl_oxdiff_crystal_face_indexfrac_h
_exptl_oxdiff_crystal_face_indexfrac_k
_exptl_oxdiff_crystal_face_indexfrac_l
_exptl_oxdiff_crystal_face_x
_exptl_oxdiff_crystal_face_y
_exptl_oxdiff_crystal_face_z
-4.9793 -0.2031 0.9202 0.2679 -0.9064 -0.3265
2.6273 3.2706 2.2966 -0.1440 0.2117 0.9667
-4.5492 -0.1451 4.2931 0.5585 -0.8132 -0.1635
-3.4820 -0.0263 7.3378 0.7926 -0.6083 0.0412
1.5733 2.6030 -7.0246 -0.9102 0.0245 0.4135
-0.2613 3.7965 -3.1310 -0.5886 -0.4033 0.7007
-1.5511 -3.5166 -3.6023 0.0082 0.0040 -1.0000
-2.4687 -0.7380 -8.5278 -0.6401 -0.4408 -0.6293
-1.9786 3.3985 -3.4807 -0.5306 -0.6902 0.4919
-4.3816 0.1826 -4.7468 -0.3040 -0.8595 -0.4109
-4.3656 0.4013 4.9304 0.5662 -0.8242 -0.0089
-1.0203 2.6162 7.3785 0.4982 -0.3837 0.7775
0.4204 -0.0074 -10.0802 -0.9391 0.0252 -0.3428
2.0001 0.0016 0.9992 0.0246 0.3785 0.1636
-2.0001 -1.0040 -2.0000 -0.0347 -0.2947 -0.4196
3.6547 -2.7149 -0.8204 0.0238 0.9193 -0.3929
-2.8146 1.8291 -6.8958 -0.6882 -0.7250 -0.0294
-2.5021 -2.5041 -5.9761 -0.2606 -0.2762 -0.9251
0.9397 -3.8076 2.4216 0.5016 0.5271 -0.6860
3.1619 0.4974 7.6515 0.5561 0.5869 0.5885
3.1793 0.2243 7.7040 0.5826 0.6147 0.5317
4.5206 0.0367 -4.4315 -0.5614 0.8168 0.1329
-0.1900 0.4744 10.0307 0.8887 -0.0240 0.4578
-1.8581 -3.6478 1.7917 0.5244 -0.0127 -0.8513
