#------------------------------------------------------------------------------
#$Date: 2018-01-28 01:57:52 +0200 (Sun, 28 Jan 2018) $
#$Revision: 205785 $
#$URL: file:///home/coder/svn-repositories/cod/cif/4/12/70/4127096.cif $
#------------------------------------------------------------------------------
#
# This file is available in the Crystallography Open Database (COD),
# http://www.crystallography.net/
#
# All data on this site have been placed in the public domain by the
# contributors.
#
data_4127096
loop_
_publ_author_name
'Wei, Peifa'
'Zhang, Jing-Xuan'
'Zhao, Zheng'
'Chen, Yuncong'
'He, Xuewen'
'Chen, Ming'
'Gong, Junyi'
'Sung, Herman H.-Y.'
'Williams, Ian D.'
'Lam, Jacky W. Y.'
'Tang, Ben Zhong'
_publ_section_title
;
 Multiple yet Controllable Photoswitching in a Single AIEgen System.
;
_journal_name_full               'Journal of the American Chemical Society'
_journal_paper_doi               10.1021/jacs.7b13364
_journal_year                    2018
_chemical_formula_moiety         'C20 H14 Br N O'
_chemical_formula_sum            'C20 H14 Br N O'
_chemical_formula_weight         364.23
_chemical_name_systematic
;
 ? 
;
_space_group_crystal_system      triclinic
_space_group_IT_number           2
_space_group_name_Hall           '-P 1'
_space_group_name_H-M_alt        'P -1'
_symmetry_space_group_name_Hall  '-P 1'
_symmetry_space_group_name_H-M   'P -1'
_atom_sites_solution_hydrogens   geom
_atom_sites_solution_primary     dual
_audit_creation_date             2017-08-09
_audit_creation_method
;
Olex2 1.2
(compiled 2017.07.20 svn.r3457 for OlexSys, GUI svn.r5370)
;
_cell_angle_alpha                92.973(4)
_cell_angle_beta                 93.628(4)
_cell_angle_gamma                109.163(5)
_cell_formula_units_Z            2
_cell_length_a                   8.9865(4)
_cell_length_b                   9.1599(5)
_cell_length_c                   10.2998(5)
_cell_measurement_reflns_used    3340
_cell_measurement_temperature    100.15
_cell_measurement_theta_max      74.0190
_cell_measurement_theta_min      4.2940
_cell_volume                     796.87(7)
_computing_cell_refinement       'CrysAlisPro 1.171.38.46 (Rigaku OD, 2015)'
_computing_data_collection       'CrysAlisPro 1.171.38.46 (Rigaku OD, 2015)'
_computing_data_reduction        'CrysAlisPro 1.171.38.46 (Rigaku OD, 2015)'
_computing_molecular_graphics    'Olex2 (Dolomanov et al., 2009)'
_computing_publication_material  'Olex2 (Dolomanov et al., 2009)'
_computing_structure_refinement  'ShelXL (Sheldrick, 2015)'
_computing_structure_solution    'ShelXT (Sheldrick, 2015)'
_diffrn_ambient_temperature      100.15
_diffrn_detector                 'CCD plate'
_diffrn_detector_area_resol_mean 10.3577
_diffrn_detector_type            Atlas
_diffrn_measured_fraction_theta_full 0.979
_diffrn_measured_fraction_theta_max 0.977
_diffrn_measurement_details
;
List of Runs (angles in degrees, time in seconds):

  # Type    Start    End  Width  t~exp~   \w     \q     \k     \f   Frames
--------------------------------------------------------------------------
  1  \w     71.00 109.00   1.00    4.00    --  107.97 -94.00  30.00   38
  2  \w    -66.00  23.00   1.00    2.00    --  -40.57  37.00  30.00   89
  3  \w    -95.00  -4.00   1.00    2.00    --  -40.57 125.00  60.00   91
  4  \w   -116.00 -15.00   1.00    2.00    --  -40.57 -37.00-150.00  101
  5  \w     37.00 108.00   1.00    4.00    --  107.97 -94.00 150.00   71
  6  \w     33.00 119.00   1.00    4.00    --  107.97 -45.00   0.00   86
  7  \w     50.00 176.00   1.00    4.00    --  107.97  15.00 -90.00  126
  8  \w     85.00 178.00   1.00    4.00    --  107.97  77.00 -60.00   93
  9  \w    118.00 174.00   1.00    4.00    --  107.97  61.00 150.00   56
 10  \w     41.00 107.00   1.00    4.00    --  107.97 -94.00 -30.00   66
 11  \w     34.00  61.00   1.00    4.00    --  107.97 -94.00  30.00   27
 12  \w     37.00 130.00   1.00    4.00    --  107.97 -61.00-180.00   93
;
_diffrn_measurement_device       'kappa diffractometer'
_diffrn_measurement_device_type  'SuperNova, Dual, Cu at zero, Atlas'
_diffrn_measurement_method       '\w scans'
_diffrn_orient_matrix_type
'CrysAlisPro convention (1999,Acta A55,543-557)'
_diffrn_orient_matrix_UB_11      0.0804345000
_diffrn_orient_matrix_UB_12      -0.1066080000
_diffrn_orient_matrix_UB_13      0.0634768000
_diffrn_orient_matrix_UB_21      0.1545234000
_diffrn_orient_matrix_UB_22      0.1383446000
_diffrn_orient_matrix_UB_23      0.0279607000
_diffrn_orient_matrix_UB_31      -0.0532042000
_diffrn_orient_matrix_UB_32      0.0372495000
_diffrn_orient_matrix_UB_33      0.1333590000
_diffrn_radiation_monochromator  mirror
_diffrn_radiation_probe          x-ray
_diffrn_radiation_type           CuK\a
_diffrn_radiation_wavelength     1.54184
_diffrn_reflns_av_R_equivalents  0.0154
_diffrn_reflns_av_unetI/netI     0.0175
_diffrn_reflns_Laue_measured_fraction_full 0.979
_diffrn_reflns_Laue_measured_fraction_max 0.977
_diffrn_reflns_limit_h_max       10
_diffrn_reflns_limit_h_min       -10
_diffrn_reflns_limit_k_max       10
_diffrn_reflns_limit_k_min       -10
_diffrn_reflns_limit_l_max       12
_diffrn_reflns_limit_l_min       -10
_diffrn_reflns_number            4290
_diffrn_reflns_point_group_measured_fraction_full 0.979
_diffrn_reflns_point_group_measured_fraction_max 0.977
_diffrn_reflns_theta_full        66.500
_diffrn_reflns_theta_max         67.486
_diffrn_reflns_theta_min         4.314
_diffrn_source                   'micro-focus sealed X-ray tube'
_diffrn_source_current           0.80
_diffrn_source_power             0.040
_diffrn_source_target            Cu
_diffrn_source_type              'SuperNova (Cu) X-ray Source'
_diffrn_source_voltage           50
_exptl_absorpt_coefficient_mu    3.535
_exptl_absorpt_correction_T_max  1.00000
_exptl_absorpt_correction_T_min  0.86560
_exptl_absorpt_correction_type   multi-scan
_exptl_absorpt_process_details
;
CrysAlisPro 1.171.38.46 (Rigaku Oxford Diffraction, 2015)
Empirical absorption correction using spherical harmonics,
 implemented in SCALE3 ABSPACK scaling algorithm.
;
_exptl_crystal_colour            colourless
_exptl_crystal_colour_primary    colourless
_exptl_crystal_density_diffrn    1.518
_exptl_crystal_density_method    'not measured'
_exptl_crystal_description       plate
_exptl_crystal_F_000             368
_exptl_crystal_size_max          0.10
_exptl_crystal_size_mid          0.08
_exptl_crystal_size_min          0.02
_refine_diff_density_max         0.389
_refine_diff_density_min         -0.309
_refine_diff_density_rms         0.048
_refine_ls_extinction_method     none
_refine_ls_goodness_of_fit_ref   1.004
_refine_ls_hydrogen_treatment    constr
_refine_ls_matrix_type           full
_refine_ls_number_parameters     209
_refine_ls_number_reflns         2804
_refine_ls_number_restraints     0
_refine_ls_restrained_S_all      1.004
_refine_ls_R_factor_all          0.0211
_refine_ls_R_factor_gt           0.0205
_refine_ls_shift/su_max          0.001
_refine_ls_shift/su_mean         0.000
_refine_ls_structure_factor_coef Fsqd
_refine_ls_weighting_details
'w=1/[\s^2^(Fo^2^)+(0.0290P)^2^+0.3900P] where P=(Fo^2^+2Fc^2^)/3'
_refine_ls_weighting_scheme      calc
_refine_ls_wR_factor_gt          0.0510
_refine_ls_wR_factor_ref         0.0514
_reflns_Friedel_coverage         0.000
_reflns_number_gt                2728
_reflns_number_total             2804
_reflns_threshold_expression     'I > 2\s(I)'
_cod_data_source_file            E-BPMNAN.cif
_cod_data_source_block           peifa13cult
_cod_database_code               4127096
_shelx_shelxl_version_number     2014/7
_shelx_space_group_comment
;
The symmetry employed for this shelxl refinement is uniquely defined
by the following loop, which should always be used as a source of
symmetry information in preference to the above space-group names.
They are only intended as comments.
;
_shelx_estimated_absorpt_t_max   0.933
_shelx_estimated_absorpt_t_min   0.719
_reflns_odcompleteness_completeness 98.50
_reflns_odcompleteness_iscentric 1
_reflns_odcompleteness_theta     67.46
_olex2_refinement_description
;
1. Fixed Uiso
 At 1.2 times of:
  All C(H) groups
 At 1.5 times of:
  All C(H,H,H) groups
2.a Aromatic/amide H refined with riding coordinates:
 C4(H4), C5(H5), C7(H7), C8(H8), C9(H9), C11(H11), C12(H12), C14(H14),
 C16(H16), C17(H17), C19(H19)
2.b Idealised Me refined as rotating group:
 C20(H20A,H20B,H20C)
;
_shelx_res_file
;
    peifa13cult.res created by SHELXL-2014/7

TITL peifa13cult_a.res in P-1
REM Old TITL peifa13CuLT in P-1 #2
REM SHELXT solution in P-1
REM R1 0.071, Rweak 0.011, Alpha 0.046, Orientation as input
REM Formula found by SHELXT: C20 Br N O
CELL 1.54184 8.9865 9.1599 10.2998 92.973 93.628 109.163
ZERR 2 0.0004 0.0005 0.0005 0.004 0.004 0.005
LATT 1
SFAC C H Br N O
UNIT 40 28 2 2 2

L.S. 6
PLAN  20
SIZE 0.02 0.08 0.1
TEMP -173
CONF
BOND $H
list 4
fmap 2
acta 133
OMIT 0 135
OMIT 4 2 0
OMIT 1 1 4
OMIT -2 4 2
OMIT -2 4 1
OMIT -1 4 1
OMIT 3 1 3
OMIT -3 0 3
OMIT 0 1 4
OMIT 3 -2 5
OMIT 3 2 3
OMIT -1 1 6
OMIT 2 -3 4
OMIT -3 7 9
OMIT 0 -4 3
OMIT 1 2 5
OMIT -3 -3 1
OMIT -1 5 2
OMIT 3 1 4
OMIT -4 5 0
OMIT -4 -1 2
OMIT 1 1 5
OMIT -3 4 3
OMIT 2 0 3
REM <olex2.extras>
REM <HklSrc "%.\\peifa13CuLT.hkl">
REM </olex2.extras>

WGHT    0.029000    0.390000
FVAR       0.80707
BR1   3   -0.173412    0.720408    0.539657    11.00000    0.02336    0.02959 =
         0.01662    0.00151    0.00572    0.00822
O1    5    0.593405    0.043768    0.339148    11.00000    0.02574    0.02403 =
         0.02956    0.00817    0.00149    0.01163
N1    4    0.073497    0.856843   -0.150715    11.00000    0.03338    0.02303 =
         0.02135    0.00488    0.00064    0.01271
C1    1    0.108110    0.790186   -0.069213    11.00000    0.01869    0.01744 =
         0.01838   -0.00032    0.00339    0.00513
C2    1    0.152602    0.706127    0.032933    11.00000    0.01489    0.01473 =
         0.01770    0.00271    0.00020    0.00265
C3    1    0.080374    0.712082    0.157639    11.00000    0.01269    0.01759 =
         0.01748    0.00179   -0.00002    0.00446
C4    1    0.038728    0.840861    0.196579    11.00000    0.01927    0.01673 =
         0.01975    0.00357    0.00152    0.00572
AFIX  43
H4    2    0.062892    0.927351    0.144987    11.00000   -1.20000
AFIX   0
C5    1   -0.037487    0.844789    0.309531    11.00000    0.02032    0.01904 =
         0.02198   -0.00011    0.00180    0.00843
AFIX  43
H5    2   -0.064135    0.933354    0.335968    11.00000   -1.20000
AFIX   0
C6    1   -0.073618    0.716953    0.382495    11.00000    0.01653    0.02423 =
         0.01535    0.00047    0.00095    0.00574
C7    1   -0.036489    0.586387    0.345249    11.00000    0.01667    0.01915 =
         0.01807    0.00502    0.00002    0.00344
AFIX  43
H7    2   -0.063791    0.499160    0.395985    11.00000   -1.20000
AFIX   0
C8    1    0.040790    0.584164    0.233380    11.00000    0.01504    0.01645 =
         0.01886    0.00150   -0.00019    0.00552
AFIX  43
H8    2    0.067183    0.495192    0.207777    11.00000   -1.20000
AFIX   0
C9    1    0.247694    0.625288   -0.000775    11.00000    0.01605    0.01803 =
         0.01675    0.00154    0.00257    0.00364
AFIX  43
H9    2    0.270366    0.624480   -0.089603    11.00000   -1.20000
AFIX   0
C10   1    0.320214    0.538343    0.084187    11.00000    0.01229    0.02055 =
         0.01845    0.00437    0.00458    0.00528
C11   1    0.401438    0.604782    0.207422    11.00000    0.01744    0.01829 =
         0.02073    0.00031    0.00337    0.00675
AFIX  43
H11   2    0.404950    0.705601    0.238008    11.00000   -1.20000
AFIX   0
C12   1    0.474603    0.524753    0.282359    11.00000    0.01616    0.02336 =
         0.01708   -0.00039    0.00044    0.00596
AFIX  43
H12   2    0.530438    0.571761    0.363445    11.00000   -1.20000
AFIX   0
C13   1    0.468102    0.372335    0.240425    11.00000    0.01304    0.02092 =
         0.01783    0.00346    0.00498    0.00508
C14   1    0.541953    0.286682    0.317912    11.00000    0.01601    0.02453 =
         0.01895    0.00383    0.00369    0.00704
AFIX  43
H14   2    0.598326    0.331354    0.399370    11.00000   -1.20000
AFIX   0
C15   1    0.530967    0.139140    0.273892    11.00000    0.01599    0.02230 =
         0.02466    0.00932    0.00669    0.00730
C16   1    0.449200    0.072306    0.151343    11.00000    0.01918    0.01726 =
         0.02916    0.00307    0.00444    0.00529
AFIX  43
H16   2    0.442930   -0.029770    0.122039    11.00000   -1.20000
AFIX   0
C17   1    0.379454    0.153538    0.075194    11.00000    0.01808    0.02006 =
         0.02209    0.00018    0.00142    0.00393
AFIX  43
H17   2    0.325893    0.107891   -0.006983    11.00000   -1.20000
AFIX   0
C18   1    0.386423    0.305505    0.117919    11.00000    0.01157    0.01881 =
         0.02081    0.00294    0.00485    0.00297
C19   1    0.316607    0.392943    0.040385    11.00000    0.01252    0.02149 =
         0.01709    0.00092    0.00219    0.00422
AFIX  43
H19   2    0.266355    0.350227   -0.043465    11.00000   -1.20000
AFIX   0
C20   1    0.695285    0.109597    0.454395    11.00000    0.03012    0.03282 =
         0.03068    0.01017   -0.00186    0.01394
AFIX 137
H20A  2    0.784295    0.198019    0.432919    11.00000   -1.50000
H20B  2    0.735270    0.031369    0.490471    11.00000   -1.50000
H20C  2    0.636251    0.144607    0.518936    11.00000   -1.50000
AFIX   0
HKLF 4

REM  peifa13cult_a.res in P-1
REM R1 =  0.0205 for    2728 Fo > 4sig(Fo)  and  0.0211 for all    2804 data
REM    209 parameters refined using      0 restraints

END

WGHT      0.0285      0.3471

REM Highest difference peak  0.389,  deepest hole -0.309,  1-sigma level  0.048
Q1    1   0.6157  0.2812  0.4763  11.00000  0.05    0.39
Q2    1  -0.1029  0.7821  0.5961  11.00000  0.05    0.30
Q3    1  -0.0774  0.7541  0.4813  11.00000  0.05    0.28
Q4    1  -0.2551  0.6932  0.5962  11.00000  0.05    0.27
Q5    1  -0.2073  0.6186  0.5339  11.00000  0.05    0.26
Q6    1  -0.3032  0.6858  0.5057  11.00000  0.05    0.26
Q7    1  -0.3078  0.8036  0.5391  11.00000  0.05    0.26
Q8    1   0.4456  0.3482  0.1697  11.00000  0.05    0.23
Q9    1   0.0472  0.6463  0.1962  11.00000  0.05    0.22
Q10   1   0.1491  0.6277  0.0023  11.00000  0.05    0.21
Q11   1   0.0336  0.7595  0.1633  11.00000  0.05    0.20
Q12   1   0.5040  0.1159  0.2070  11.00000  0.05    0.20
Q13   1   0.3483  0.5596  0.1509  11.00000  0.05    0.19
Q14   1   0.3999  0.2421  0.0962  11.00000  0.05    0.19
Q15   1   0.1093  0.6956  0.1009  11.00000  0.05    0.18
Q16   1  -0.0216  0.5794  0.2711  11.00000  0.05    0.18
Q17   1  -0.0290  0.7996  0.3594  11.00000  0.05    0.18
Q18   1   0.5734  0.2261  0.2732  11.00000  0.05    0.18
Q19   1   0.3796  0.3572  0.0805  11.00000  0.05    0.17
Q20   1  -0.0102  0.6793  0.3813  11.00000  0.05    0.17
;
_shelx_res_checksum              32826
_shelx_hkl_file
;
 -11   4   2    0.26    0.41
 -11   5   2   39.61    1.49
 -10   0   3  134.16    2.90
 -10   0   4   19.09    1.17
 -10   0   5  175.61    3.02
 -10   1   2  293.56    4.86
 -10   1   3   89.81    2.79
 -10   1   4  187.85    3.90
 -10   1   5    2.25    0.60
 -10   1   6   10.62    0.84
 -10   2   1   86.30    2.78
 -10   2   2   17.85    1.41
 -10   2   3  162.39    3.99
 -10   2   4    5.15    0.88
 -10   2   5  116.58    3.08
 -10   2   6  171.12    3.26
 -10   3   0  151.36    3.64
 -10   3   1  439.64    6.57
 -10   3   2  155.38    4.04
 -10   3   3  135.32    3.78
 -10   3   4  171.63    4.10
 -10   3   5   90.15    2.78
 -10   3   6  183.25    3.42
 -10   4   0   73.01    2.64
 -10   4   1  262.04    5.22
 -10   4   2   79.17    2.95
 -10   4   3    0.95    0.69
 -10   4   4   21.56    1.53
 -10   4   5   37.05    1.79
 -10   4   6   80.13    2.18
 -10   5  -1   52.74    2.11
 -10   5   0   52.03    2.27
 -10   5   1  181.32    4.33
 -10   5   2   20.49    1.57
 -10   5   3  234.46    4.82
 -10   5   4  248.78    4.67
 -10   5   5  213.65    3.90
 -10   6  -2  254.42    3.84
 -10   6  -1   87.38    2.64
 -10   6   0   78.59    2.70
 -10   6   1  119.37    3.40
 -10   6   2  357.86    5.79
 -10   6   3   61.36    2.35
 -10   6   4  154.10    3.38
 -10   7  -1    3.76    0.70
 -10   7   0   23.57    1.43
 -10   7   1   42.05    1.89
 -10   7   2    7.15    0.87
 -10   7   3  297.50    4.47
 -10   8   0   65.66    1.95
 -10   8   1  108.14    2.50
 -10   8   2   63.79    1.82
  -9  -2   3  145.25    3.02
  -9  -2   4   39.45    1.65
  -9  -2   5    4.06    0.66
  -9  -1   2  195.70    4.19
  -9  -1   3   47.44    2.20
  -9  -1   4  447.68    6.55
  -9  -1   5  129.08    3.40
  -9  -1   6  435.24    5.62
  -9  -1   7    4.57    0.61
  -9   0   2   54.90    2.55
  -9   0   3   71.30    2.97
  -9   0   4   47.47    2.43
  -9   0   5    1.12    0.74
  -9   0   6   31.63    1.79
  -9   0   7   93.86    2.57
  -9   1   1    4.40    0.95
  -9   1   2  152.88    4.47
  -9   1   3  232.94    5.57
  -9   1   4  521.93    8.22
  -9   1   5   83.41    3.22
  -9   1   6  318.76    5.72
  -9   1   7  267.09    4.61
  -9   2   0  612.11    8.51
  -9   2   1   31.93    2.14
  -9   2   2  528.84    8.50
  -9   2   3  347.81    6.95
  -9   2   4   66.74    3.08
  -9   2   5   26.13    1.92
  -9   2   6   13.98    1.37
  -9   2   7  170.12    3.78
  -9   3  -1    7.07    1.09
  -9   3   0    0.98    0.73
  -9   3   1  119.93    4.09
  -9   3   2   35.70    2.35
  -9   3   3   24.65    1.99
  -9   3   4  386.30    7.25
  -9   3   5  192.44    4.93
  -9   3   6  413.60    6.62
  -9   3   7  505.92    6.34
  -9   4  -1  146.87    4.24
  -9   4   0  155.62    4.56
  -9   4   1  499.39    8.35
  -9   4   2  994.55   11.84
  -9   4   3   40.97    2.49
  -9   4   4   27.00    1.99
  -9   4   4   20.37    1.59
  -9   4   5  134.50    4.04
  -9   4   5  128.43    3.73
  -9   4   6   32.69    1.87
  -9   4   7    5.45    0.74
  -9   5  -2  476.56    7.13
  -9   5   1    0.81    0.79
  -9   5   2  116.43    4.09
  -9   5   3    3.85    1.01
  -9   5   4  103.66    3.63
  -9   5   4  100.37    3.20
  -9   5   5  118.18    3.60
  -9   5   5  121.56    3.46
  -9   5   6  185.54    4.02
  -9   5   6  175.85    3.88
  -9   6   2    4.42    1.02
  -9   6   3  143.20    4.24
  -9   6   4  418.02    6.77
  -9   6   5  227.51    4.53
  -9   6   5  220.79    4.25
  -9   6   6   78.99    2.38
  -9   6   6   75.62    2.14
  -9   7   2   12.06    1.33
  -9   7   3  287.20    5.46
  -9   7   4    2.57    0.67
  -9   7   5   15.88    1.06
  -9   8   2  132.80    3.45
  -9   8   3  291.84    4.66
  -9   8   4  217.81    3.36
  -9   9   1   17.25    1.12
  -9   9   2  108.41    2.39
  -8  -3   3    3.35    0.75
  -8  -3   4   10.58    1.09
  -8  -3   5  267.62    4.69
  -8  -3   6  197.94    3.71
  -8  -3   7  172.86    2.95
  -8  -2   2  323.82    5.95
  -8  -2   3  390.11    6.78
  -8  -2   4   20.94    1.71
  -8  -2   5   10.44    1.28
  -8  -2   6  463.41    6.77
  -8  -2   7    3.43    0.72
  -8  -2   8    3.08    0.54
  -8  -1   2   35.10    2.22
  -8  -1   3    2.05    0.86
  -8  -1   4  294.12    6.45
  -8  -1   5    4.66    1.09
  -8  -1   6   41.76    2.35
  -8  -1   7 1182.64   10.74
  -8  -1   8  252.55    4.19
  -8   0   1  499.89    8.16
  -8   0   2   82.83    3.53
  -8   0   3  586.14    9.36
  -8   0   4  323.96    7.01
  -8   0   5  444.75    8.02
  -8   0   6  116.11    3.96
  -8   0   7   55.70    2.56
  -8   0   8    3.35    0.73
  -8   1   0  308.65    6.32
  -8   1   1  193.86    5.23
  -8   1   2   64.80    3.17
  -8   1   3    7.25    1.32
  -8   1   4   64.72    3.25
  -8   1   5    5.22    1.18
  -8   1   6  315.63    6.60
  -8   1   7  196.63    4.83
  -8   1   8  219.04    4.42
  -8   2   0  122.52    4.13
  -8   2   1  604.53    9.36
  -8   2   2  158.05    4.94
  -8   2   3  454.19    8.39
  -8   2   4  217.59    5.67
  -8   2   4  221.08    5.88
  -8   2   5  398.01    7.69
  -8   2   5  403.32    7.79
  -8   2   6   79.48    3.38
  -8   2   6   76.41    3.37
  -8   2   7  315.76    6.10
  -8   2   8  161.13    3.74
  -8   3  -1  400.28    7.29
  -8   3   0  638.23    9.51
  -8   3   1  342.50    7.15
  -8   3   2   95.99    3.90
  -8   3   3  388.21    7.24
  -8   3   3  401.08    7.90
  -8   3   4   26.42    2.15
  -8   3   4   24.90    2.00
  -8   3   5    1.44    0.84
  -8   3   5    2.95    0.97
  -8   3   6   13.34    1.54
  -8   3   6   11.53    1.38
  -8   3   7    1.49    0.76
  -8   3   7    2.30    0.75
  -8   3   8  413.18    5.58
  -8   4   3   63.41    2.94
  -8   4   3   65.16    3.26
  -8   4   4   44.83    2.57
  -8   4   4   45.09    2.71
  -8   4   5  700.29    9.95
  -8   4   5  706.88   10.03
  -8   4   6  289.63    6.26
  -8   4   6  286.78    6.05
  -8   4   7  439.24    7.25
  -8   4   7  423.62    6.48
  -8   4   8  440.49    6.50
  -8   5   0  459.44    7.91
  -8   5   1  348.58    7.20
  -8   5   2  617.45    9.72
  -8   5   3  624.94    8.90
  -8   5   4   31.44    2.14
  -8   5   4   27.84    2.13
  -8   5   5   -0.08    0.70
  -8   5   5    0.72    0.65
  -8   5   6    1.26    0.65
  -8   5   6    1.33    0.71
  -8   5   7    1.17    0.74
  -8   5   8   66.43    2.41
  -8   6  -1   80.56    3.24
  -8   6   0   99.26    3.78
  -8   6   1   34.16    2.36
  -8   6   2  637.29    9.95
  -8   6   3    1.24    0.83
  -8   6   4  111.47    3.76
  -8   6   4  111.15    3.90
  -8   6   5  213.13    5.10
  -8   6   5  192.72    4.73
  -8   6   6  194.38    4.07
  -8   6   6  206.21    4.79
  -8   6   7  363.45    5.77
  -8   6   8  233.11    3.90
  -8   7  -1   92.36    3.44
  -8   7   0  233.96    5.74
  -8   7   1  569.63    9.07
  -8   7   2  435.48    8.02
  -8   7   3    0.89    0.79
  -8   7   4  170.74    4.41
  -8   7   4  158.60    4.14
  -8   7   5   46.59    2.21
  -8   7   5   45.71    2.03
  -8   7   6  176.73    3.94
  -8   7   7    0.21    0.45
  -8   8  -2   70.22    2.64
  -8   8  -1  110.89    3.58
  -8   8   0   34.91    2.18
  -8   8   1   91.44    3.50
  -8   8   2    1.05    0.78
  -8   8   3   15.14    1.53
  -8   8   4   23.12    1.41
  -8   8   4   23.51    1.43
  -8   8   5    1.84    0.57
  -8   8   6   10.53    0.85
  -8   9  -2   -0.03    0.48
  -8   9  -1   29.74    1.70
  -8   9   0  163.42    4.00
  -8   9   1   47.67    2.23
  -8   9   2   47.40    2.19
  -8   9   3  143.53    2.95
  -8   9   3  166.72    3.79
  -8  10   0   48.06    1.73
  -8  10   1  180.80    3.29
  -7  -5   4   13.25    0.96
  -7  -5   5    9.71    0.83
  -7  -4   3  615.59    7.66
  -7  -4   4  184.60    4.29
  -7  -4   5   46.07    2.18
  -7  -4   6  223.63    4.36
  -7  -4   7  134.21    2.99
  -7  -3   2   48.36    2.46
  -7  -3   3  176.81    4.78
  -7  -3   4  174.61    4.83
  -7  -3   5    1.38    0.82
  -7  -3   6  171.95    4.50
  -7  -3   7  113.18    3.33
  -7  -3   8  159.64    3.34
  -7  -2   2  143.61    4.47
  -7  -2   3  436.66    8.01
  -7  -2   4  577.67    9.33
  -7  -2   5  120.03    4.30
  -7  -2   6  190.62    5.18
  -7  -2   7  333.03    6.31
  -7  -2   8  202.84    4.32
  -7  -2   9  152.06    2.93
  -7  -1   1  296.76    6.26
  -7  -1   2  959.89   11.69
  -7  -1   3  265.35    6.36
  -7  -1   4  586.75    9.59
  -7  -1   5  275.86    6.62
  -7  -1   6   10.53    1.49
  -7  -1   7   17.81    1.69
  -7  -1   8   18.91    1.55
  -7  -1   9   68.67    2.24
  -7   0   1    6.20    1.16
  -7   0   2   50.32    2.77
  -7   0   3  294.88    6.71
  -7   0   4  137.20    4.70
  -7   0   5  759.61   11.01
  -7   0   6   77.68    3.53
  -7   0   7  267.41    6.14
  -7   0   8  410.44    6.89
  -7   0   9  530.52    6.40
  -7   1   0  692.51    9.28
  -7   1   1  986.51   11.45
  -7   1   2  850.48   10.93
  -7   1   3  301.72    6.58
  -7   1   3  306.78    6.75
  -7   1   4  315.58    6.98
  -7   1   4  310.45    6.90
  -7   1   5  519.42    9.11
  -7   1   5  520.02    9.00
  -7   1   6  341.36    7.45
  -7   1   6  344.40    7.29
  -7   1   7    1.11    0.93
  -7   1   7    2.23    0.88
  -7   1   8    3.26    0.84
  -7   2   1  288.67    6.27
  -7   2   2    7.49    1.20
  -7   2   3   56.19    2.93
  -7   2   3   57.80    2.87
  -7   2   4    2.17    0.86
  -7   2   4    0.94    0.80
  -7   2   5  796.27   11.26
  -7   2   5  784.22   10.99
  -7   2   6  150.52    4.78
  -7   2   6  152.17    4.99
  -7   2   7  408.09    7.50
  -7   2   7  420.39    8.04
  -7   2   8  530.68    8.41
  -7   2   8  512.12    7.54
  -7   3   1  700.94    9.62
  -7   3   3 1024.02   11.80
  -7   3   3 1039.07   12.38
  -7   3   4  544.92    9.01
  -7   3   4  541.94    8.99
  -7   3   5  531.89    9.12
  -7   3   5  539.06    8.98
  -7   3   6    4.23    1.03
  -7   3   6    3.68    1.02
  -7   3   7  112.01    3.86
  -7   3   7  115.97    4.25
  -7   3   8   15.89    1.57
  -7   3   9  102.99    3.27
  -7   4   0  437.72    7.55
  -7   4   1  180.33    5.07
  -7   4   2    2.87    0.89
  -7   4   3   85.51    3.74
  -7   4   3   89.16    3.53
  -7   4   4  146.20    4.73
  -7   4   4  145.31    4.67
  -7   4   5  193.76    5.53
  -7   4   5  196.45    5.41
  -7   4   6  241.11    6.16
  -7   4   6  240.21    5.75
  -7   4   7  173.91    4.49
  -7   4   7  177.31    5.13
  -7   4   8  275.43    5.89
  -7   4   9   91.09    2.98
  -7   5  -1    1.87    0.89
  -7   5   0  136.49    4.48
  -7   5   1  381.80    7.61
  -7   5   2  243.08    6.24
  -7   5   3  620.82   10.10
  -7   5   3  628.44    9.43
  -7   5   4  140.78    4.88
  -7   5   4  143.63    4.68
  -7   5   5   81.39    3.46
  -7   5   5   81.11    3.60
  -7   5   6  441.29    7.35
  -7   5   6  448.74    8.23
  -7   5   7  341.25    6.87
  -7   5   8   74.67    2.97
  -7   5   9  165.20    3.67
  -7   6  -1  593.96    9.26
  -7   6   0    1.80    0.91
  -7   6   1  506.70    9.06
  -7   6   2  489.82    9.02
  -7   6   3  281.51    6.32
  -7   6   3  276.14    6.87
  -7   6   4  133.46    4.75
  -7   6   4  123.46    4.31
  -7   6   5    8.89    1.20
  -7   6   5    9.47    1.42
  -7   6   5    9.13    1.34
  -7   6   6    2.37    0.93
  -7   6   7  102.63    3.58
  -7   6   8   46.58    2.16
  -7   6   9  127.29    2.77
  -7   7  -2   37.70    2.36
  -7   7  -1    6.63    1.20
  -7   7   0  269.10    6.58
  -7   7   1  338.56    7.48
  -7   7   2   25.38    2.17
  -7   7   3  402.83    8.10
  -7   7   3  401.76    7.37
  -7   7   4  361.36    7.04
  -7   7   4  364.57    7.53
  -7   7   5  316.94    6.46
  -7   7   5  315.88    6.61
  -7   7   6  102.08    3.52
  -7   7   7  178.29    4.18
  -7   7   8  216.31    3.83
  -7   8  -3   47.57    2.37
  -7   8  -2   74.42    3.18
  -7   8  -1  317.52    6.78
  -7   8   0  212.52    5.71
  -7   8   1  532.17    9.02
  -7   8   2  410.10    7.94
  -7   8   3  104.74    3.48
  -7   8   3  107.51    3.99
  -7   8   4  104.73    3.13
  -7   8   4  105.50    3.48
  -7   8   4  101.23    3.66
  -7   8   5   28.73    1.80
  -7   8   6   10.12    1.06
  -7   8   7    0.51    0.44
  -7   9  -3   62.57    2.42
  -7   9  -2  171.11    4.34
  -7   9  -1    3.55    0.90
  -7   9   0   18.55    1.68
  -7   9   1    2.53    0.90
  -7   9   2   42.78    2.35
  -7   9   3   27.22    1.54
  -7   9   3   27.87    1.83
  -7   9   4   90.45    2.65
  -7   9   4   85.37    2.82
  -7   9   5  101.89    2.60
  -7  10  -3   35.34    1.43
  -7  10  -2   19.02    1.27
  -7  10  -1   74.00    2.53
  -7  10   0   97.58    2.97
  -7  10   1  117.27    3.20
  -7  10   2   67.05    2.33
  -7  10   3  230.59    3.84
  -6  -6   4  211.23    3.56
  -6  -6   5  147.91    2.95
  -6  -5   3  142.22    3.79
  -6  -5   4  758.70    8.87
  -6  -5   5   35.00    1.96
  -6  -5   6    3.28    0.82
  -6  -5   7   26.05    1.47
  -6  -5   8   60.89    1.74
  -6  -4   2   12.19    1.40
  -6  -4   3   83.52    3.36
  -6  -4   4   48.73    2.68
  -6  -4   5    2.92    0.93
  -6  -4   6  183.28    4.82
  -6  -4   7  260.05    5.27
  -6  -4   7  230.09    4.38
  -6  -4   8  250.91    4.48
  -6  -3   2  412.57    7.51
  -6  -3   3  801.28   10.84
  -6  -3   4  687.48   10.26
  -6  -3   5   97.83    3.97
  -6  -3   6   59.03    3.08
  -6  -3   7  118.29    4.00
  -6  -3   7  111.62    3.42
  -6  -3   8   38.59    1.81
  -6  -3   8   41.99    2.18
  -6  -3   9   16.63    1.19
  -6  -2   1   12.42    1.39
  -6  -2   2  249.66    5.87
  -6  -2   3   22.33    1.96
  -6  -2   4  421.34    8.14
  -6  -2   5    1.71    0.92
  -6  -2   6  260.42    6.46
  -6  -2   7  257.18    6.17
  -6  -2   8  318.70    6.27
  -6  -2   9  344.62    5.52
  -6  -1   1  323.05    6.27
  -6  -1   2  985.40   11.33
  -6  -1   3   51.58    2.77
  -6  -1   4  253.81    6.23
  -6  -1   5 2801.29   20.96
  -6  -1   6  261.25    6.46
  -6  -1   7  301.94    6.76
  -6  -1   8   32.41    2.17
  -6  -1   9  131.90    3.62
  -6   0   3   96.87    3.63
  -6   0   3   98.12    3.68
  -6   0   4  251.65    6.04
  -6   0   4  242.21    5.96
  -6   0   5    2.01    0.93
  -6   0   5    2.10    0.91
  -6   0   6  214.68    5.78
  -6   0   6  226.06    6.12
  -6   0   7   46.14    2.83
  -6   0   7   43.08    2.64
  -6   0   8  563.98    8.69
  -6   0   9   46.28    2.22
  -6   1   3   25.03    1.89
  -6   1   4 1294.48   13.41
  -6   1   4 1301.06   13.24
  -6   1   5  529.33    8.95
  -6   1   5  515.55    8.64
  -6   1   6  499.42    8.61
  -6   1   6  503.25    8.98
  -6   1   7  310.64    6.77
  -6   1   7  312.90    7.13
  -6   1   8  268.93    6.36
  -6   1   8  270.30    5.94
  -6   2   4  400.29    7.31
  -6   2   4  400.28    7.41
  -6   2   5   51.32    2.74
  -6   2   5   49.44    2.78
  -6   2   6  137.12    4.71
  -6   2   6  136.15    4.46
  -6   2   7    0.98    0.74
  -6   2   7    0.80    0.85
  -6   2   8   74.84    3.42
  -6   2   9  130.92    4.11
  -6   3   3  146.43    4.50
  -6   3   4  191.26    5.18
  -6   3   4  183.23    5.14
  -6   3   4  186.33    5.03
  -6   3   5    9.56    1.30
  -6   3   5   10.47    1.42
  -6   3   6 1398.62   13.94
  -6   3   6 1400.72   14.97
  -6   3   7  459.70    8.55
  -6   3   7  468.86    7.82
  -6   3   8  507.28    8.66
  -6   3   9  153.82    4.37
  -6   3  10  296.09    5.05
  -6   4   2  568.32    8.78
  -6   4   3 1286.76   13.54
  -6   4   3 1274.56   12.91
  -6   4   4 1175.04   13.04
  -6   4   4 1173.63   13.31
  -6   4   5  212.57    5.78
  -6   4   5  214.19    5.83
  -6   4   5  212.80    5.46
  -6   4   6  260.52    6.49
  -6   4   6  266.06    5.98
  -6   4   7    6.86    1.27
  -6   4   8   20.56    1.83
  -6   4   9  274.06    5.64
  -6   4  10  154.33    3.44
  -6   5  -1  243.85    5.64
  -6   5   0  285.78    6.22
  -6   5   1  147.00    4.61
  -6   5   2   25.44    1.91
  -6   5   2   24.14    2.01
  -6   5   3  100.90    4.01
  -6   5   3  103.13    3.86
  -6   5   4   21.76    1.98
  -6   5   4   22.27    1.91
  -6   5   5    2.32    0.87
  -6   5   5    2.17    0.78
  -6   5   6  565.84    9.54
  -6   5   7  429.59    8.16
  -6   5   8  387.95    7.21
  -6   5   9  538.58    7.40
  -6   5  10   59.95    1.89
  -6   6  -2    1.04    0.81
  -6   6  -1   54.68    2.90
  -6   6   0  966.19   12.10
  -6   6   1  322.97    7.14
  -6   6   2  566.49    8.80
  -6   6   2  558.47    9.56
  -6   6   3  533.08    9.41
  -6   6   3  540.82    8.99
  -6   6   4  562.15    9.47
  -6   6   4  570.38    9.76
  -6   6   5  177.71    5.41
  -6   6   5  189.18    5.56
  -6   6   6  155.70    5.00
  -6   6   7   81.18    3.46
  -6   6   8   76.45    3.02
  -6   6   9    3.21    0.67
  -6   7  -3   30.10    2.14
  -6   7  -2  299.45    6.74
  -6   7  -1  664.84   10.28
  -6   7   0  570.78    9.70
  -6   7   1  150.95    5.09
  -6   7   2  298.29    6.52
  -6   7   2  296.07    7.18
  -6   7   3    2.59    1.01
  -6   7   3    2.11    0.82
  -6   7   4  100.16    4.11
  -6   7   4   99.61    3.99
  -6   7   5   27.54    2.16
  -6   7   5   25.96    2.08
  -6   7   6  147.44    4.59
  -6   7   7   51.51    2.55
  -6   7   8  239.34    4.63
  -6   8  -4  229.89    5.22
  -6   8  -3  154.42    4.67
  -6   8  -2    1.24    0.81
  -6   8  -1   11.78    1.57
  -6   8   0   47.08    2.88
  -6   8   1  361.69    7.75
  -6   8   2   22.93    1.84
  -6   8   2   20.43    1.98
  -6   8   3   60.92    2.99
  -6   8   3   59.76    3.13
  -6   8   4   86.71    3.49
  -6   8   4   81.04    3.43
  -6   8   5  769.30    9.51
  -6   8   5  787.53   10.03
  -6   8   6  192.64    4.63
  -6   8   7   16.83    1.29
  -6   8   8   65.84    1.88
  -6   9  -4   80.29    2.83
  -6   9  -3   22.47    1.73
  -6   9  -2  263.23    5.90
  -6   9  -1   66.15    3.11
  -6   9   0   61.82    3.09
  -6   9   1  269.92    6.25
  -6   9   2  354.19    6.98
  -6   9   2  339.41    6.03
  -6   9   3   81.22    3.21
  -6   9   3   82.96    3.03
  -6   9   4   19.85    1.53
  -6   9   4   18.13    1.45
  -6   9   5    1.59    0.63
  -6   9   6    4.12    0.69
  -6  10  -4  130.19    2.86
  -6  10  -3   76.63    2.56
  -6  10  -2   92.63    3.04
  -6  10  -1   59.47    2.55
  -6  10   0    8.42    1.11
  -6  10   1   90.71    3.10
  -6  10   2    6.97    0.98
  -6  10   3   73.05    2.40
  -6  10   3   71.56    2.15
  -6  10   4  111.54    2.52
  -6  11  -1    2.09    0.52
  -6  11   0  276.90    4.02
  -6  11   1  183.25    3.10
  -5  -6   3   97.85    3.16
  -5  -6   4   37.35    2.04
  -5  -6   5    0.02    0.59
  -5  -6   6   14.59    1.28
  -5  -6   7    5.09    0.78
  -5  -6   7    4.12    0.65
  -5  -5   2  508.77    7.79
  -5  -5   3  129.41    4.14
  -5  -5   4  127.44    4.19
  -5  -5   5  410.22    7.46
  -5  -5   6  180.45    4.82
  -5  -5   7  217.09    4.90
  -5  -5   8  219.94    4.19
  -5  -5   8  245.92    4.56
  -5  -5   9  188.98    3.13
  -5  -4   2  567.59    8.68
  -5  -4   3  105.58    3.94
  -5  -4   4  233.83    6.02
  -5  -4   5  597.69    9.69
  -5  -4   6   26.86    2.18
  -5  -4   7   82.60    3.40
  -5  -4   8    2.47    0.74
  -5  -4   8    4.14    0.97
  -5  -4   9  282.96    4.69
  -5  -4   9  297.54    4.85
  -5  -3   2  110.78    3.86
  -5  -3   3   49.71    2.74
  -5  -3   4 1014.38   12.49
  -5  -3   5  375.69    7.81
  -5  -3   6   78.47    3.65
  -5  -3   7  515.74    8.84
  -5  -3   8  444.34    7.59
  -5  -3   8  442.20    7.44
  -5  -3   9  438.94    6.58
  -5  -3   9  442.93    6.60
  -5  -3  10  106.80    2.67
  -5  -3  10  100.53    2.38
  -5  -2   3  484.20    7.98
  -5  -2   4  507.31    8.54
  -5  -2   5  792.63   10.99
  -5  -2   6   10.05    1.46
  -5  -2   7    5.04    1.00
  -5  -2   7    2.38    0.97
  -5  -2   8    1.03    0.78
  -5  -2   8    0.97    0.64
  -5  -2   9   35.58    2.06
  -5  -2   9   33.25    2.01
  -5  -2  10   67.04    2.35
  -5  -1   4  123.22    4.09
  -5  -1   4  128.66    4.16
  -5  -1   5   35.67    2.35
  -5  -1   5   33.23    2.27
  -5  -1   6  260.56    6.25
  -5  -1   7  468.00    8.44
  -5  -1   7  469.59    7.86
  -5  -1   8  669.98    9.29
  -5  -1   8  653.84    9.61
  -5  -1   9  398.74    6.76
  -5  -1   9  384.97    6.62
  -5  -1  10  265.63    4.85
  -5  -1  11  273.83    3.76
  -5   0   5  419.21    7.44
  -5   0   5  407.36    7.47
  -5   0   6  800.75   10.63
  -5   0   6  779.31   10.79
  -5   0   7  799.11   10.72
  -5   0   7  779.09   11.06
  -5   0   8   82.73    3.61
  -5   0   8   82.32    3.22
  -5   0   8   87.27    3.51
  -5   0   9   81.93    3.07
  -5   0  10    6.33    0.90
  -5   1   5   68.31    3.07
  -5   1   6  269.61    6.30
  -5   1   6  260.06    5.91
  -5   1   7  214.67    5.78
  -5   1   7  205.43    5.36
  -5   1   8  292.05    6.70
  -5   1   9  608.00    9.07
  -5   1   9  600.63    7.99
  -5   1  10  319.79    5.22
  -5   2   5  970.45   11.38
  -5   2   6  871.58   11.32
  -5   2   6  881.44   10.55
  -5   2   7  536.49    9.13
  -5   2   8   54.26    2.93
  -5   2   9  222.49    5.53
  -5   2  10   71.09    2.74
  -5   3   5  261.51    6.04
  -5   3   5  261.27    5.97
  -5   3   6   16.42    1.64
  -5   3   7   43.88    2.69
  -5   3   8  149.19    4.80
  -5   3   9  648.40    9.26
  -5   3  10  351.34    5.88
  -5   4   4 1578.77   14.54
  -5   4   4 1597.56   14.65
  -5   4   4 1602.84   19.56
  -5   4   5   96.08    3.48
  -5   4   5   96.16    3.77
  -5   4   5   92.29    3.94
  -5   4   5   96.75    3.81
  -5   4   5   95.59    5.38
  -5   4   6  176.38    5.33
  -5   4   6  174.39    5.51
  -5   4   6  177.73    7.93
  -5   4   7  211.83    6.16
  -5   4   7  222.90    6.00
  -5   4   8  979.15   12.65
  -5   4   8  994.19   12.26
  -5   4   9  466.81    7.93
  -5   4   9  480.83    7.84
  -5   4  10   12.29    1.16
  -5   5   3  301.03    6.53
  -5   5   3  317.57    6.56
  -5   5   4  483.13    8.49
  -5   5   4  479.53    8.42
  -5   5   5  852.42   11.67
  -5   5   5  864.15   11.45
  -5   5   5  859.66   12.38
  -5   5   6   35.86    2.70
  -5   5   6   34.52    2.49
  -5   5   6   28.89    2.18
  -5   5   7   20.17    1.90
  -5   5   7   20.70    2.12
  -5   5   8    2.07    1.04
  -5   5   8    1.27    0.82
  -5   5   9  148.16    4.13
  -5   5  10  246.79    4.14
  -5   6  -3  998.06   11.51
  -5   6  -2   21.36    1.86
  -5   6  -1  211.85    5.46
  -5   6   0  189.63    5.23
  -5   6   1    7.68    1.21
  -5   6   2   12.40    1.44
  -5   6   2   17.99    1.79
  -5   6   3   53.25    2.89
  -5   6   3   51.21    2.93
  -5   6   4  195.13    5.66
  -5   6   4  207.26    5.80
  -5   6   5  171.84    5.42
  -5   6   5  161.07    5.05
  -5   6   6  121.64    4.22
  -5   6   6  119.76    4.51
  -5   6   7  318.06    7.00
  -5   6   8  521.35    8.20
  -5   6   9   91.02    2.92
  -5   7  -4  363.48    7.13
  -5   7  -3   41.02    2.56
  -5   7  -2  247.66    6.23
  -5   7  -1  280.65    6.72
  -5   7   0  365.70    7.68
  -5   7   1 1020.01   12.93
  -5   7   1 1024.10   11.90
  -5   7   2  771.00   10.88
  -5   7   2  785.24   11.40
  -5   7   3  472.44    8.73
  -5   7   3  479.89    8.92
  -5   7   4  173.18    5.41
  -5   7   4  169.19    5.24
  -5   7   5  293.79    6.99
  -5   7   5  293.30    6.57
  -5   7   6   62.02    2.79
  -5   7   6   62.50    3.18
  -5   7   7  174.72    4.85
  -5   7   8    1.44    0.62
  -5   7   9    5.16    0.67
  -5   8  -5  136.23    4.03
  -5   8  -4  360.91    7.08
  -5   8  -3  970.92   12.14
  -5   8  -2   95.05    3.95
  -5   8  -1   72.24    3.53
  -5   8   0  699.60   10.83
  -5   8   1   33.69    2.26
  -5   8   1   35.56    2.57
  -5   8   2    3.78    1.08
  -5   8   2    6.47    1.15
  -5   8   3    0.01    0.75
  -5   8   3    1.00    0.81
  -5   8   4   49.96    2.75
  -5   8   4   53.05    2.94
  -5   8   5    6.29    1.15
  -5   8   5    7.94    1.14
  -5   8   6  182.91    4.84
  -5   8   7  150.40    3.89
  -5   8   8   88.83    2.42
  -5   9  -5   16.04    1.34
  -5   9  -4   13.25    1.39
  -5   9  -3   39.45    2.37
  -5   9  -2    4.11    1.08
  -5   9  -1   14.29    1.64
  -5   9   0  375.53    7.60
  -5   9   1   95.76    3.85
  -5   9   1  101.30    3.56
  -5   9   2  365.52    6.88
  -5   9   2  372.91    7.32
  -5   9   3  205.59    5.15
  -5   9   3  206.39    5.16
  -5   9   4  158.94    4.40
  -5   9   4  148.04    3.96
  -5   9   5  129.05    3.74
  -5   9   6  271.05    4.80
  -5   9   7  105.62    2.44
  -5  10  -5   63.90    1.97
  -5  10  -4   98.24    2.91
  -5  10  -3  173.58    4.22
  -5  10  -2   95.81    3.32
  -5  10  -1  231.95    5.24
  -5  10   0   48.17    2.45
  -5  10   1   28.24    1.86
  -5  10   2   65.85    2.43
  -5  10   2   64.01    2.58
  -5  10   3   12.53    1.10
  -5  10   3   13.56    1.16
  -5  10   4   13.99    1.10
  -5  10   5    7.68    0.77
  -5  11  -3    0.14    0.41
  -5  11  -2    0.32    0.44
  -5  11  -1    0.71    0.49
  -5  11   0   19.89    1.24
  -5  11   1    2.69    0.55
  -4  -7   3   21.08    1.49
  -4  -7   4    0.79    0.63
  -4  -7   5   43.64    2.09
  -4  -7   7  317.42    4.61
  -4  -6   2  494.37    7.60
  -4  -6   3  519.46    8.19
  -4  -6   4  323.15    6.58
  -4  -6   5  191.41    5.07
  -4  -6   6  262.71    5.72
  -4  -6   7   84.64    3.06
  -4  -6   8   84.18    2.68
  -4  -6   8   82.59    2.63
  -4  -6   9   17.23    1.02
  -4  -5   2  472.15    7.86
  -4  -5   3   21.43    1.89
  -4  -5   4    6.22    1.26
  -4  -5   5   66.25    3.27
  -4  -5   6   62.52    3.16
  -4  -5   7  374.34    7.12
  -4  -5   8    6.27    1.02
  -4  -5   8    7.26    1.11
  -4  -5   9  307.71    5.22
  -4  -5   9  305.45    4.93
  -4  -5  10  164.07    2.93
  -4  -4   2  439.61    7.52
  -4  -4   3 1008.85   11.87
  -4  -4   4  436.72    8.11
  -4  -4   5  945.85   12.22
  -4  -4   6  425.39    8.26
  -4  -4   7    8.05    1.36
  -4  -4   8   47.05    2.62
  -4  -4   8   47.53    2.59
  -4  -4   9  213.99    4.97
  -4  -4   9  212.18    4.65
  -4  -4  10    5.79    0.80
  -4  -4  10    6.91    0.77
  -4  -3   4   88.19    3.55
  -4  -3   5   18.33    1.81
  -4  -3   6  210.96    5.75
  -4  -3   7   59.42    3.13
  -4  -3   8  301.49    6.72
  -4  -3   8  304.79    6.59
  -4  -3   9  218.23    5.36
  -4  -3   9  219.66    5.05
  -4  -3  10  195.82    4.45
  -4  -3  11  328.30    4.55
  -4  -2   5 1337.89   13.45
  -4  -2   6  507.48    8.61
  -4  -2   7  294.76    6.67
  -4  -2   8  530.15    8.73
  -4  -2   8  540.61    8.92
  -4  -2   9  224.27    5.53
  -4  -2   9  227.13    5.21
  -4  -2  10  233.75    5.12
  -4  -2  11   82.11    2.55
  -4  -1   6   68.40    3.10
  -4  -1   6   80.91    3.31
  -4  -1   7    9.32    1.37
  -4  -1   7    8.41    1.18
  -4  -1   7    7.47    1.24
  -4  -1   8   26.21    2.00
  -4  -1   8   23.16    1.89
  -4  -1   9  138.10    4.35
  -4  -1  10  192.65    4.74
  -4  -1  11  367.63    5.56
  -4   0   7  202.77    5.17
  -4   0   7  196.60    5.32
  -4   0   7  193.99    4.99
  -4   0   8  662.30    9.46
  -4   0   8  663.06    9.79
  -4   0   9  609.46    8.96
  -4   0   9  629.76    9.11
  -4   0  10  401.78    6.79
  -4   0  11  134.01    3.42
  -4   1   7   34.74    2.13
  -4   1   7   32.48    2.20
  -4   1   8  220.06    5.65
  -4   1   8  227.31    5.43
  -4   1   9   98.47    3.68
  -4   1   9   91.48    3.45
  -4   1  10  171.85    4.40
  -4   1  11  159.83    3.66
  -4   2   3  283.99    6.71
  -4   2   4   56.99    3.43
  -4   2   5  147.28    6.08
  -4   2   6  341.94    6.69
  -4   2   6  349.60   10.35
  -4   2   7  572.88    8.07
  -4   2   7  559.73    8.93
  -4   2   8  562.04    9.90
  -4   2   8  548.49    8.97
  -4   2   8  559.48    8.31
  -4   2   9  261.64    6.63
  -4   2   9  264.85    5.99
  -4   2   9  264.78    5.67
  -4   2  10  342.82    6.01
  -4   2  10  325.89    6.65
  -4   2  10  331.93    5.92
  -4   2  11  272.28    4.57
  -4   3   1  101.39    2.88
  -4   3   2  678.33    9.13
  -4   3   3  443.28    8.53
  -4   3   4 2144.58   21.14
  -4   3   5 1868.07   22.12
  -4   3   6  348.25   10.55
  -4   3   6  347.65    6.93
  -4   3   6  350.29    7.62
  -4   3   7  111.51    4.55
  -4   3   7  110.70    4.08
  -4   3   7  105.24    6.29
  -4   3   8  157.63    5.47
  -4   3   8  163.23    4.97
  -4   3   8  163.13    4.45
  -4   3   9    9.58    1.58
  -4   3   9    9.18    1.26
  -4   3   9    8.77    1.19
  -4   3  10    2.69    0.85
  -4   3  10    1.62    0.85
  -4   3  10    3.83    0.83
  -4   3  11    2.12    0.70
  -4   4   2  292.82    6.49
  -4   4   3  146.13    5.28
  -4   4   4  262.51    7.91
  -4   4   5  355.08    6.99
  -4   4   5  354.47   10.10
  -4   4   6   50.49    3.14
  -4   4   6   56.51    2.86
  -4   4   6   49.29    4.17
  -4   4   6   48.90    2.77
  -4   4   7  619.67    9.81
  -4   4   7  630.96   10.98
  -4   4   8    9.58    1.34
  -4   4   8   11.75    1.70
  -4   4   9  355.96    6.11
  -4   4   9  353.36    6.78
  -4   4   9  350.47    7.68
  -4   4  10  717.38    8.04
  -4   4  10  734.08    9.70
  -4   5   3  572.12   11.31
  -4   5   4  944.97   11.61
  -4   5   4  952.55   12.51
  -4   5   4  941.30   15.95
  -4   5   5 1751.09   16.45
  -4   5   5 1755.16   17.79
  -4   5   5 1724.80   23.54
  -4   5   5 1743.18   15.56
  -4   5   6  190.51    5.59
  -4   5   6  195.18    6.16
  -4   5   6  191.63    5.20
  -4   5   7  286.61    7.50
  -4   5   7  291.14    6.90
  -4   5   8    4.87    1.30
  -4   5   8    2.91    0.94
  -4   5   9  671.42    8.91
  -4   5   9  684.29   10.23
  -4   5  10   48.02    2.35
  -4   5  10   43.51    1.80
  -4   6  -4  128.44    4.16
  -4   6  -3 1106.56   12.09
  -4   6   2  235.18    5.77
  -4   6   3  326.33    6.91
  -4   6   3  317.53    6.87
  -4   6   4   97.16    3.85
  -4   6   4   99.62    4.03
  -4   6   5   30.79    2.55
  -4   6   5   30.74    2.38
  -4   6   5   35.52    2.34
  -4   6   6   99.09    4.49
  -4   6   6  104.14    4.25
  -4   6   7  127.97    4.93
  -4   6   7  130.12    4.55
  -4   6   8  236.05    5.65
  -4   6   8  242.75    6.29
  -4   6   9  139.68    3.66
  -4   7  -5   74.74    3.25
  -4   7  -4  179.50    5.19
  -4   7  -3  918.83   11.78
  -4   7  -2  823.11   11.21
  -4   7  -1  537.77    9.10
  -4   7   0   21.30    1.96
  -4   7   1   41.75    2.65
  -4   7   2   25.72    2.11
  -4   7   3  264.21    6.20
  -4   7   3  251.32    6.29
  -4   7   3  252.48    6.43
  -4   7   4  313.50    6.90
  -4   7   4  296.40    7.13
  -4   7   5  393.83    8.22
  -4   7   5  399.01    7.35
  -4   7   6  234.14    6.17
  -4   7   7  321.62    6.70
  -4   7   8   98.14    3.26
  -4   7   9  153.22    3.09
  -4   8  -6    1.41    0.66
  -4   8  -5    1.47    0.83
  -4   8  -4   81.65    3.57
  -4   8  -3  496.38    8.90
  -4   8  -2   76.10    3.58
  -4   8  -1  395.14    8.10
  -4   8   0    3.94    1.13
  -4   8   1  328.81    7.36
  -4   8   2  138.42    4.74
  -4   8   3 1198.42   13.42
  -4   8   3 1187.38   13.97
  -4   8   4   99.61    3.68
  -4   8   4   98.38    4.07
  -4   8   5    2.19    0.89
  -4   8   6   27.76    2.01
  -4   8   7    2.11    0.71
  -4   8   8    3.17    0.62
  -4   9  -6   87.82    2.77
  -4   9  -5  154.43    4.20
  -4   9  -4  182.01    4.92
  -4   9  -3  250.02    6.03
  -4   9  -2  104.94    4.03
  -4   9  -1  177.22    5.26
  -4   9   0   48.55    2.84
  -4   9   1   22.32    1.84
  -4   9   1   25.09    2.05
  -4   9   2   20.79    1.85
  -4   9   2   20.66    1.81
  -4   9   3    4.03    0.91
  -4   9   3    4.09    1.00
  -4   9   4   51.14    2.29
  -4   9   4   51.28    2.66
  -4   9   5   48.29    2.41
  -4   9   6  130.20    3.47
  -4   9   7  182.61    3.31
  -4  10  -5   29.46    1.56
  -4  10  -4   30.12    1.79
  -4  10  -3    9.54    1.19
  -4  10  -2    0.31    0.69
  -4  10  -1  155.35    4.38
  -4  10   0   41.78    2.30
  -4  10   0   42.24    2.02
  -4  10   1  131.14    3.65
  -4  10   1  126.97    3.81
  -4  10   2  234.49    4.80
  -4  10   2  247.79    5.03
  -4  10   3  187.92    4.26
  -4  10   3  177.86    3.67
  -4  10   4   52.00    2.14
  -4  10   5  204.19    3.67
  -4  11  -3   41.56    1.66
  -4  11  -2  183.03    3.63
  -4  11  -1  349.92    5.06
  -4  11   0    0.55    0.47
  -4  11   1   50.10    1.74
  -3  -8   7   69.64    1.97
  -3  -7   2  197.42    4.75
  -3  -7   3  157.94    4.44
  -3  -7   4  172.86    4.71
  -3  -7   5  125.88    4.00
  -3  -7   6    6.20    1.06
  -3  -7   8    1.51    0.56
  -3  -6   2   20.15    1.74
  -3  -6   3  117.24    4.11
  -3  -6   4  212.76    5.63
  -3  -6   5   68.20    3.28
  -3  -6   6  334.80    6.97
  -3  -6   7   52.49    2.70
  -3  -6   8  670.87    8.37
  -3  -6   9   73.26    2.52
  -3  -5   2   78.66    3.22
  -3  -5   3  607.62    9.17
  -3  -5   4  559.43    9.13
  -3  -5   5  216.47    5.83
  -3  -5   6  450.94    8.40
  -3  -5   7  148.94    4.75
  -3  -5   8    1.21    0.85
  -3  -5   9    9.63    1.11
  -3  -5   9   11.13    1.27
  -3  -5  10   26.59    1.54
  -3  -4   3   53.72    4.41
  -3  -4   4   48.68    2.66
  -3  -4   4   50.02    4.46
  -3  -4   5  399.75    7.70
  -3  -4   5  417.93   12.88
  -3  -4   6  192.82    5.46
  -3  -4   6  196.93    9.29
  -3  -4   7  314.75    6.93
  -3  -4   8  681.05    9.78
  -3  -4   9  170.48    4.87
  -3  -4   9  174.26    4.48
  -3  -4  10  266.03    5.35
  -3  -4  11  121.46    2.91
  -3  -3   3 1443.11   20.00
  -3  -3   4 1020.12   17.79
  -3  -3   5  819.63   16.74
  -3  -3   6 1311.22   22.14
  -3  -3   6 1347.80   13.91
  -3  -3   7  369.81   12.22
  -3  -3   7  372.41    7.42
  -3  -3   8   40.58    2.50
  -3  -3   8   58.78    3.07
  -3  -3   9    3.70    0.91
  -3  -3   9    3.50    1.00
  -3  -3  10    3.76    0.91
  -3  -3  11   21.24    1.45
  -3  -2   3    0.21    0.92
  -3  -2   4   47.93    3.61
  -3  -2   5  172.40    7.05
  -3  -2   6   63.81    4.59
  -3  -2   7   85.43    5.47
  -3  -2   7   44.92    2.57
  -3  -2   8  541.42    8.52
  -3  -2   8  541.47    9.01
  -3  -2   9  558.36    9.03
  -3  -2  10  620.36    8.91
  -3  -2  11  268.60    5.13
  -3  -2  12  267.10    3.98
  -3  -1   3   91.76    4.15
  -3  -1   4 1795.92   19.19
  -3  -1   5  786.43   13.49
  -3  -1   6 1530.34   19.88
  -3  -1   7  343.29    6.62
  -3  -1   7  344.78    6.66
  -3  -1   7  346.27    6.74
  -3  -1   8  197.81    5.36
  -3  -1   8  195.97    5.10
  -3  -1   9  164.75    4.92
  -3  -1  10    7.68    1.19
  -3  -1  11    2.81    0.78
  -3  -1  12    1.23    0.53
  -3   0   4 3065.27   21.90
  -3   0   5  494.41    9.33
  -3   0   7  681.98    9.20
  -3   0   8   62.23    3.00
  -3   0   8   63.40    2.94
  -3   0   9   86.56    3.57
  -3   0  10  469.74    7.82
  -3   0  11  202.38    4.60
  -3   0  12  303.66    4.53
  -3   1   2  234.44    4.95
  -3   1   3 1371.30   13.72
  -3   1   4 1044.81   13.54
  -3   1   5  643.45   11.99
  -3   1   6 1172.37   17.94
  -3   1   7 1149.58   11.72
  -3   1   7 1130.27   19.35
  -3   1   8  415.16    7.34
  -3   1   8  407.26    7.40
  -3   1   9  345.20    7.96
  -3   1   9  343.75    6.89
  -3   1  10  158.54    4.53
  -3   1  10  158.82    5.17
  -3   1  11   89.23    3.34
  -3   1  11   99.35    3.21
  -3   1  12   63.77    2.08
  -3   2   1 1661.42   10.64
  -3   2   2 2592.98   16.40
  -3   2   3 1306.49   13.56
  -3   2   4 1734.20   17.73
  -3   2   5  176.27    6.36
  -3   2   6    7.29    1.67
  -3   2   7   65.63    2.94
  -3   2   7   68.88    2.89
  -3   2   7   61.99    4.71
  -3   2   7   64.40    3.37
  -3   2   8    1.53    0.80
  -3   2   8    3.46    1.13
  -3   2   8    2.01    0.79
  -3   2   9   68.84    3.75
  -3   2   9   68.80    2.98
  -3   2   9   65.42    3.03
  -3   2  10  328.22    6.34
  -3   2  10  341.55    7.67
  -3   2  11  282.25    5.18
  -3   2  11  284.28    5.97
  -3   3   0  756.99    6.08
  -3   3   1  773.40    8.15
  -3   3   2 1725.47   14.39
  -3   3   3  224.54    5.96
  -3   3   4  187.32    6.15
  -3   3   5 1032.92   16.04
  -3   3   6  552.10   12.98
  -3   3   7  580.56    8.36
  -3   3   7  589.69    8.98
  -3   3   7  595.92   10.57
  -3   3   7  586.41   14.50
  -3   3   8  774.78   10.04
  -3   3   8  787.32   10.54
  -3   3   8  785.30   12.46
  -3   3   9  395.23    7.10
  -3   3   9  380.41    8.60
  -3   3   9  382.55    7.04
  -3   3  10  300.16    7.10
  -3   3  10  297.50    5.84
  -3   3  11  159.42    4.35
  -3   3  11  159.83    3.69
  -3   4   0 1952.17   12.99
  -3   4   1  618.38    8.60
  -3   4   2 1635.81   15.77
  -3   4   3   38.23    2.79
  -3   4   4  895.94   14.51
  -3   4   5  347.94    9.96
  -3   4   6 1808.61   16.03
  -3   4   6 1831.07   14.21
  -3   4   6 1787.91   24.66
  -3   4   6 1822.91   18.20
  -3   4   7  212.04    5.65
  -3   4   7  206.30    6.44
  -3   4   7  200.99    5.01
  -3   4   7  199.27    8.90
  -3   4   8  575.04   10.78
  -3   4   8  572.12    9.17
  -3   4   8  571.88    8.63
  -3   4   9    2.17    0.96
  -3   4   9    0.79    1.00
  -3   4   9    0.30    0.58
  -3   4  10   28.58    2.21
  -3   4  11   66.09    2.60
  -3   5   0  711.95    9.74
  -3   5   1  318.46    7.29
  -3   5   2    2.70    0.88
  -3   5   3    0.99    0.84
  -3   5   4   76.06    4.69
  -3   5   5  379.78   11.24
  -3   5   5  385.93    7.58
  -3   5   5  386.51    8.35
  -3   5   6    4.28    1.04
  -3   5   6    3.90    1.57
  -3   5   6    4.62    1.33
  -3   5   7  211.88    5.83
  -3   5   7  217.32    6.64
  -3   5   8  720.82   10.20
  -3   5   8  727.41   11.87
  -3   5   9   61.18    3.33
  -3   5   9   62.05    2.70
  -3   5  10  321.81    6.35
  -3   6  -5  111.07    3.85
  -3   6  -4   78.10    3.22
  -3   6   1  201.57    6.65
  -3   6   2  395.29   10.02
  -3   6   3  808.54   11.59
  -3   6   3  790.29   15.23
  -3   6   4  759.05   15.97
  -3   6   4  774.96   10.16
  -3   6   4  796.78   12.01
  -3   6   5  264.26    7.15
  -3   6   5  247.52    9.73
  -3   6   6  956.69   12.70
  -3   6   6  981.85   13.89
  -3   6   7   16.09    1.99
  -3   6   7   15.47    1.67
  -3   6   8   65.22    2.98
  -3   6   8   67.95    3.52
  -3   6   9   19.17    1.77
  -3   6   9   19.37    1.39
  -3   7  -6  394.29    7.20
  -3   7  -5   13.36    1.51
  -3   7  -4  335.17    7.01
  -3   7  -3    4.34    1.08
  -3   7  -2 1358.26   14.10
  -3   7  -1 1310.74   13.84
  -3   7   0  286.38    6.51
  -3   7   1  296.10    6.63
  -3   7   1  300.11    6.90
  -3   7   2  102.46    3.93
  -3   7   2  108.65    4.15
  -3   7   3   60.74    3.03
  -3   7   3   55.58    2.98
  -3   7   4   33.31    2.23
  -3   7   4   31.72    2.26
  -3   7   5   16.45    1.82
  -3   7   5   18.16    1.70
  -3   7   6   15.30    1.72
  -3   7   7  109.19    3.91
  -3   7   8   33.41    1.91
  -3   7   9  227.93    3.50
  -3   8  -6  144.44    4.28
  -3   8  -5  286.63    6.39
  -3   8  -4  109.44    4.13
  -3   8  -3  120.87    4.43
  -3   8  -2 1407.81   14.97
  -3   8  -1   54.28    3.01
  -3   8   0  152.40    4.97
  -3   8   1  211.68    5.79
  -3   8   2  219.62    5.75
  -3   8   2  210.48    5.94
  -3   8   3  125.28    4.20
  -3   8   3  126.36    4.51
  -3   8   4  399.97    8.11
  -3   8   4  394.55    7.58
  -3   8   5  223.62    5.90
  -3   8   5  206.65    5.09
  -3   8   6  346.88    6.80
  -3   8   7  196.02    4.49
  -3   8   8  362.63    4.72
  -3   9  -7    1.53    0.54
  -3   9  -6    1.15    0.65
  -3   9  -5   21.77    1.74
  -3   9  -4  136.76    4.37
  -3   9  -3  174.78    5.10
  -3   9  -2  789.69   10.94
  -3   9  -1  138.05    4.64
  -3   9   0  200.17    5.52
  -3   9   1  263.16    6.16
  -3   9   2   88.87    3.45
  -3   9   3   56.62    2.56
  -3   9   3   65.56    3.12
  -3   9   4  383.61    7.17
  -3   9   5    8.78    1.15
  -3   9   6   30.31    1.71
  -3   9   7    2.16    0.49
  -3  10  -6   42.94    1.64
  -3  10  -5  141.19    3.47
  -3  10  -4  131.34    3.68
  -3  10  -3   89.63    3.24
  -3  10  -2   87.97    3.30
  -3  10  -1   23.32    1.79
  -3  10   0   62.82    2.74
  -3  10   1    4.77    0.89
  -3  10   2    3.36    0.70
  -3  10   2    2.87    0.75
  -3  10   3  214.91    4.65
  -3  10   4   97.62    2.92
  -3  10   5  115.27    2.76
  -3  11  -4   10.02    0.81
  -3  11  -3    3.10    0.60
  -3  11  -2    3.79    0.64
  -3  11  -1   55.22    1.99
  -3  11   0  277.61    4.14
  -3  11   1   51.17    1.69
  -3  11   2   44.40    1.55
  -2  -8   8  132.48    2.65
  -2  -7   2  199.55    5.12
  -2  -7   3  301.08    6.47
  -2  -7   4  309.18    6.67
  -2  -7   5  688.37    9.91
  -2  -7   6   62.31    2.98
  -2  -7   8  132.57    3.63
  -2  -7   9  166.09    3.33
  -2  -6   2  227.14    5.47
  -2  -6   3  245.78    9.95
  -2  -6   3  233.51    5.74
  -2  -6   4   89.72    3.73
  -2  -6   5  121.92    4.41
  -2  -6   6   29.54    2.27
  -2  -6   7   78.49    3.43
  -2  -6   8  218.61    5.14
  -2  -6   9   45.51    2.26
  -2  -6  10   65.12    2.17
  -2  -5   2   75.25    4.97
  -2  -5   3  402.55   11.83
  -2  -5   3  392.75    7.06
  -2  -5   4  797.69   10.50
  -2  -5   4  774.43   17.06
  -2  -5   5  910.14   11.54
  -2  -5   5  915.39   19.34
  -2  -5   6  166.24    5.09
  -2  -5   7  766.65   10.75
  -2  -5   8  152.20    4.58
  -2  -5   9  268.61    6.02
  -2  -5   9  271.91    5.46
  -2  -5  10   69.39    2.69
  -2  -5  11   11.68    0.94
  -2  -4   1 3899.05   30.28
  -2  -4   2  168.62    6.63
  -2  -4   3  295.54    9.21
  -2  -4   4  201.23    8.07
  -2  -4   5   50.39    4.36
  -2  -4   5   50.84    2.69
  -2  -4   6   27.51    2.10
  -2  -4   6   30.46    3.74
  -2  -4   7  816.24   10.91
  -2  -4   8   48.96    2.70
  -2  -4   9   29.87    2.23
  -2  -4   9   28.41    1.94
  -2  -4  10  700.00    9.21
  -2  -4  11  142.04    3.51
  -2  -3   1  125.52    4.90
  -2  -3   2   81.94    4.18
  -2  -3   3  273.05    7.96
  -2  -3   4  335.47    9.39
  -2  -3   5  417.28   11.21
  -2  -3   6 1145.84   19.80
  -2  -3   7  510.24    8.33
  -2  -3   7  517.69   14.00
  -2  -3   8  108.07    4.08
  -2  -3   8  107.49    3.84
  -2  -3   9  405.91    7.82
  -2  -3  10  838.12   10.53
  -2  -3  11   14.92    1.35
  -2  -3  12  106.78    2.58
  -2  -2   1  401.37    7.70
  -2  -2   2  781.43   11.26
  -2  -2   3 1468.92   16.41
  -2  -2   4 1108.73   15.33
  -2  -2   5  908.27   14.93
  -2  -2   6  435.31   11.16
  -2  -2   7  569.52   13.53
  -2  -2   8    9.35    1.34
  -2  -2   9   37.50    2.46
  -2  -2  10   80.37    3.37
  -2  -2  11   80.46    3.02
  -2  -2  12  121.54    2.98
  -2  -1   1 9999.00   33.17
  -2  -1   2   79.35    3.19
  -2  -1   3  227.13    5.76
  -2  -1   4  136.05    4.84
  -2  -1   5  211.17    6.47
  -2  -1   6  652.45   12.21
  -2  -1   8  321.28    6.44
  -2  -1   8  336.66    6.92
  -2  -1   9  895.37   11.08
  -2  -1   9  904.56   11.51
  -2  -1  10  386.51    7.34
  -2  -1  11  431.12    6.99
  -2  -1  12  432.82    5.81
  -2   0   3  353.98    6.50
  -2   0   3  363.52    6.10
  -2   0   4 3619.51   21.21
  -2   0   4 3697.28   23.85
  -2   0   5  704.63   10.16
  -2   0   5  670.64   11.49
  -2   0   6  616.19   12.36
  -2   0   8  148.42    4.54
  -2   0   8  148.32    4.50
  -2   0   9   62.37    3.09
  -2   0  10    1.66    0.86
  -2   0  11   75.42    3.38
  -2   0  11   74.69    2.98
  -2   0  12  129.80    3.33
  -2   0  12  145.52    3.41
  -2   1   1 1820.47    9.85
  -2   1   2   25.02    1.53
  -2   1   3   20.24    1.63
  -2   1   4   10.52    0.96
  -2   1   4   11.04    1.44
  -2   1   5    6.75    1.38
  -2   1   6   97.33    5.02
  -2   1   7  555.78   13.10
  -2   1   8 1117.03   12.24
  -2   1   8 1091.58   19.94
  -2   1   9  406.85    7.66
  -2   1  10  158.40    4.68
  -2   1  10  162.76    5.59
  -2   1  11  794.24   10.94
  -2   1  11  809.26    9.46
  -2   1  12   92.61    2.68
  -2   1  12   87.22    2.87
  -2   2   0   16.43    0.81
  -2   2   1 2046.05   11.54
  -2   2   2  183.99    4.25
  -2   2   3  160.93    4.65
  -2   2   4 2895.26   22.09
  -2   2   5 1056.34   14.99
  -2   2   6  953.80   15.96
  -2   2   7  517.28   12.89
  -2   2   7  515.72    7.84
  -2   2   8  247.70    5.82
  -2   2   8  236.35    9.50
  -2   2   9  260.55    6.11
  -2   2   9  259.79    7.30
  -2   2  10   14.97    1.57
  -2   2  10    9.37    1.61
  -2   2  11   11.66    1.54
  -2   2  11   10.73    1.25
  -2   2  12   47.90    1.86
  -2   2  12   49.43    2.13
  -2   3  -1  276.20    3.97
  -2   3   0 1663.31   10.85
  -2   3   1 1978.53   13.77
  -2   3   2 1269.20   12.57
  -2   3   3 1132.42   13.37
  -2   3   4   64.48    3.64
  -2   3   5   56.00    3.82
  -2   3   6    2.75    1.22
  -2   3   7   12.44    1.46
  -2   3   7   13.19    1.44
  -2   3   7    9.47    2.11
  -2   3   7   12.81    1.76
  -2   3   8   20.52    1.81
  -2   3   8   22.03    2.34
  -2   3   9  109.55    3.98
  -2   3   9  115.68    4.93
  -2   3  10  210.77    5.17
  -2   3  10  205.04    6.10
  -2   3  11  391.96    7.20
  -2   3  11  385.34    6.02
  -2   3  12  248.36    4.18
  -2   4  -1  312.86    5.71
  -2   4   0   22.03    1.65
  -2   4   1  218.58    5.51
  -2   4   2  534.43    9.45
  -2   4   3 2306.95   21.49
  -2   4   4  798.60   13.88
  -2   4   5  661.29   13.85
  -2   4   6  562.08    8.77
  -2   4   6  576.33   14.06
  -2   4   6  579.69   10.28
  -2   4   6  566.97    8.18
  -2   4   7  547.44    8.86
  -2   4   7  535.43   14.55
  -2   4   7  535.25   10.36
  -2   4   7  540.88    8.46
  -2   4   8  491.45    8.19
  -2   4   8  483.54    8.22
  -2   4   8  481.73   10.02
  -2   4   9  328.10    6.62
  -2   4   9  326.52    8.04
  -2   4  10  185.32    5.50
  -2   4  11   51.21    2.43
  -2   5  -1  790.14   10.95
  -2   5   0 1727.85   16.89
  -2   5   1 1130.03   14.61
  -2   5   2  478.27   10.30
  -2   5   3 1152.08   17.28
  -2   5   4  142.19    6.59
  -2   5   5  443.83   12.39
  -2   5   5  442.36    8.88
  -2   5   6   11.46    1.79
  -2   5   6   14.43    1.64
  -2   5   6   13.33    2.55
  -2   5   7 1348.52   16.50
  -2   5   7 1333.02   14.24
  -2   5   8    0.81    1.00
  -2   5   8    2.77    0.85
  -2   5   9  404.66    8.38
  -2   5  10  233.26    5.47
  -2   5  11  145.82    3.32
  -2   6  -6  290.19    6.20
  -2   6  -5  544.80    8.47
  -2   6  -4  821.59   10.20
  -2   6  -1  823.67   12.91
  -2   6   0   82.71    4.31
  -2   6   1   83.65    4.61
  -2   6   2    1.74    1.03
  -2   6   3  102.34    4.14
  -2   6   3  102.20    5.80
  -2   6   4  151.57    4.62
  -2   6   4  162.01    7.65
  -2   6   4  153.73    5.28
  -2   6   5  231.10    9.70
  -2   6   5  225.55    5.64
  -2   6   5  229.26    6.60
  -2   6   6 1036.91   12.99
  -2   6   6 1025.90   14.22
  -2   6   6 1038.64   11.82
  -2   6   7   62.46    3.11
  -2   6   7   65.55    3.66
  -2   6   8  273.07    5.72
  -2   6   8  282.34    6.97
  -2   6   9  259.71    5.90
  -2   7  -7  187.46    4.80
  -2   7  -6  328.98    6.71
  -2   7  -5  213.96    5.58
  -2   7  -4   22.00    1.92
  -2   7  -3  761.70   10.40
  -2   7  -2  348.79    6.99
  -2   7  -1  108.70    3.93
  -2   7  -1  113.49    4.17
  -2   7   0   36.29    2.34
  -2   7   0   37.78    2.45
  -2   7   0   40.18    2.59
  -2   7   1  393.50   11.02
  -2   7   1  405.76    7.51
  -2   7   1  390.11    7.51
  -2   7   1  396.55    7.86
  -2   7   2  628.49   14.61
  -2   7   2  641.26    9.39
  -2   7   2  626.05    9.33
  -2   7   2  638.75    9.98
  -2   7   3  505.30    8.91
  -2   7   3  505.11    8.13
  -2   7   3  496.29   13.62
  -2   7   4  468.22    8.51
  -2   7   5  385.67    7.51
  -2   7   6   86.55    4.01
  -2   7   6   89.66    3.77
  -2   7   6   87.28    3.46
  -2   7   7  136.42    4.21
  -2   7   8    6.59    0.87
  -2   8  -7   50.70    2.39
  -2   8  -6   30.39    2.08
  -2   8  -5  247.56    5.98
  -2   8  -4  409.26    7.85
  -2   8  -3  327.01    7.08
  -2   8  -2   12.01    1.54
  -2   8  -1  984.10   12.29
  -2   8   0   85.16    3.66
  -2   8   0   90.38    4.03
  -2   8   1  379.51    7.48
  -2   8   1  387.34    8.17
  -2   8   2    5.15    1.19
  -2   8   2    3.46    0.91
  -2   8   3   35.15    2.50
  -2   8   4   17.93    1.82
  -2   8   5    3.10    0.94
  -2   8   5    3.44    0.96
  -2   8   6  110.51    3.75
  -2   8   6  104.34    3.43
  -2   8   7   13.48    1.20
  -2   9  -7  145.19    3.33
  -2   9  -6  137.86    3.81
  -2   9  -5   36.13    2.20
  -2   9  -4    2.60    0.93
  -2   9  -3   53.77    2.88
  -2   9  -2  102.41    3.96
  -2   9  -1   52.60    2.88
  -2   9   0   23.63    1.95
  -2   9   1   47.45    2.57
  -2   9   2  414.37    6.93
  -2   9   2  420.09    8.06
  -2   9   3   98.24    3.81
  -2   9   4  267.97    5.88
  -2   9   4  248.30    5.60
  -2   9   5  212.86    4.83
  -2   9   5  202.62    4.50
  -2   9   6   61.82    2.26
  -2  10  -6    1.03    0.49
  -2  10  -5   43.20    1.97
  -2  10  -4  111.47    3.37
  -2  10  -3   85.24    3.11
  -2  10  -2  231.71    5.14
  -2  10  -1  188.64    4.61
  -2  10   0  219.71    4.80
  -2  10   1   98.85    3.03
  -2  10   3   39.40    2.01
  -2  10   4   22.52    1.41
  -2  10   5    7.08    0.73
  -2  11  -3  229.53    3.62
  -2  11  -2   26.81    1.32
  -2  11  -1   16.48    1.03
  -2  11   0   29.33    1.29
  -2  11   1    1.49    0.44
  -1  -8   8    0.52    0.46
  -1  -7   3   12.58    1.53
  -1  -7   4   18.71    1.83
  -1  -7   5  644.80    9.89
  -1  -7   8  142.01    3.98
  -1  -7   9  157.96    3.57
  -1  -6   1  276.98    9.07
  -1  -6   2  453.83    7.53
  -1  -6   2  469.39   12.46
  -1  -6   3  351.54   11.32
  -1  -6   3  332.98    6.69
  -1  -6   4  496.18    8.44
  -1  -6   4  495.84   14.05
  -1  -6   5  151.25    4.82
  -1  -6   6  668.63   10.13
  -1  -6   7  137.58    4.53
  -1  -6   9   42.64    2.29
  -1  -6  10   19.61    1.33
  -1  -5   1  656.07   12.64
  -1  -5   2  699.06   13.75
  -1  -5   3   64.64    4.55
  -1  -5   4   38.28    3.87
  -1  -5   5    5.03    1.93
  -1  -5   5    7.18    1.26
  -1  -5   6   13.44    2.57
  -1  -5   6   11.24    1.51
  -1  -5   7  450.62    8.19
  -1  -5   8   52.97    2.77
  -1  -5   9  422.12    7.67
  -1  -5  10  119.31    3.64
  -1  -5  11   64.90    2.17
  -1  -4   0   54.92    3.12
  -1  -4   1   16.42    1.98
  -1  -4   2  265.38    7.60
  -1  -4   3  423.18   10.18
  -1  -4   4  574.32   12.71
  -1  -4   5 2211.72   26.70
  -1  -4   6 1218.06   21.04
  -1  -4   6 1188.19   12.47
  -1  -4   7  358.63   12.09
  -1  -4   7  342.95    6.87
  -1  -4   8  408.65    7.89
  -1  -4   8  408.88    7.38
  -1  -4   9   39.51    2.51
  -1  -4  10  184.82    4.87
  -1  -4  11    4.47    0.83
  -1  -4  12   21.21    1.09
  -1  -3   0  861.87   10.59
  -1  -3   1 3083.50   21.19
  -1  -3   2 3122.95   22.78
  -1  -3   3  348.45    8.27
  -1  -3   4  111.25    5.12
  -1  -3   5  172.42    6.84
  -1  -3   6  230.47    8.54
  -1  -3   7  198.83    8.49
  -1  -3   7  187.23    4.85
  -1  -3   8   67.17    5.33
  -1  -3   8   65.05    3.17
  -1  -3   9  186.52    5.34
  -1  -3  10  106.55    3.84
  -1  -3  11 1466.42   12.40
  -1  -3  12  240.99    4.04
  -1  -2   0  874.83    9.07
  -1  -2   1 1080.23   10.84
  -1  -2   2  589.67    8.69
  -1  -2   3  480.28    8.59
  -1  -2   4  934.32   12.98
  -1  -2   5 1287.26   16.71
  -1  -2   6  995.42   16.12
  -1  -2   7 1638.16   14.34
  -1  -2   7 1633.82   22.21
  -1  -2   8  706.96   10.12
  -1  -2   8  704.15    9.78
  -1  -2   9   41.53    2.53
  -1  -2   9   43.31    2.61
  -1  -2  10  108.55    3.84
  -1  -2  10  106.86    3.92
  -1  -2  11  346.53    6.31
  -1  -2  12   37.14    1.78
  -1  -1   0  759.62    6.91
  -1  -1   1    6.05    0.87
  -1  -1   2 1703.08   12.52
  -1  -1   3  704.90    8.95
  -1  -1   4  702.48    9.99
  -1  -1   5  474.62    9.13
  -1  -1   6  147.67    5.61
  -1  -1   7   11.21    1.89
  -1  -1   8    1.75    0.81
  -1  -1   8   10.15    1.33
  -1  -1   9  198.32    5.44
  -1  -1   9  192.29    5.41
  -1  -1  10  203.38    5.43
  -1  -1  10  199.49    5.32
  -1  -1  11  223.84    5.15
  -1  -1  12  170.84    3.76
  -1  -1  12  151.63    3.89
  -1   0   1   14.78    0.84
  -1   0   1   18.85    0.94
  -1   0   2 2627.64   12.32
  -1   0   2 2646.71   13.36
  -1   0   3   18.95    1.32
  -1   0   3   19.40    1.47
  -1   0   4  896.30    9.61
  -1   0   4  927.64   11.05
  -1   0   5 3321.43   20.90
  -1   0   5 3316.53   24.16
  -1   0   6  110.27    4.26
  -1   0   6  109.53    4.98
  -1   0   7  555.69   12.45
  -1   0   8  652.06    9.57
  -1   0   8  658.73    9.47
  -1   0   9  398.43    7.82
  -1   0   9  393.34    7.58
  -1   0  10  358.52    7.13
  -1   0  11  237.75    5.34
  -1   0  12   61.22    2.32
  -1   0  12   57.95    2.57
  -1   1   0  324.57    2.46
  -1   1   1   91.15    2.07
  -1   1   2  510.03    6.17
  -1   1   2  500.65    3.21
  -1   1   3 3332.93   18.88
  -1   1   3 3334.72   11.48
  -1   1   4 1884.67   10.73
  -1   1   4 1896.03   16.43
  -1   1   5 2582.45   21.90
  -1   1   6   97.25    4.86
  -1   1   7  224.55    8.06
  -1   1   8   61.28    2.96
  -1   1   8   64.38    4.85
  -1   1   8   63.70    3.10
  -1   1   9   10.29    1.42
  -1   1  10   13.83    1.58
  -1   1  11   80.64    3.70
  -1   1  11   74.41    3.03
  -1   1  12  331.67    5.92
  -1   1  12  324.51    5.08
  -1   2   1 1785.41   11.26
  -1   2   2  370.37    6.05
  -1   2   3   11.20    1.31
  -1   2   4  505.12    9.16
  -1   2   5   37.55    2.90
  -1   2   6  136.07    5.97
  -1   2   7  463.05    7.48
  -1   2   7  459.62   12.03
  -1   2   8  645.45    9.51
  -1   2   8  639.19   15.30
  -1   2   9  756.40   10.54
  -1   2  10  370.38    7.16
  -1   2  10  374.85    8.56
  -1   2  11  189.06    4.61
  -1   2  11  185.94    5.37
  -1   2  12  359.36    5.84
  -1   3   1 2549.08   16.71
  -1   3   2  207.58    5.29
  -1   3   3 1871.00   17.60
  -1   3   4  747.70   12.34
  -1   3   5 1338.31   18.19
  -1   3   6 1169.58   18.74
  -1   3   7  732.69   16.10
  -1   3   7  718.95    9.58
  -1   3   8  205.88    6.53
  -1   3   8  192.36    5.27
  -1   3   9    7.50    1.36
  -1   3   9    8.40    1.66
  -1   3  10    5.92    1.27
  -1   3  10    2.48    1.19
  -1   3  11   41.57    2.45
  -1   3  12   14.05    1.11
  -1   4   1   35.00    2.44
  -1   4   2 1392.18   15.90
  -1   4   3  186.29    6.44
  -1   4   4   63.66    4.13
  -1   4   5   23.03    2.82
  -1   4   6 1316.06   12.81
  -1   4   6 1332.85   15.51
  -1   4   6 1334.51   21.65
  -1   4   6 1306.11   13.08
  -1   4   7  101.83    4.60
  -1   4   7   95.05    3.72
  -1   4   7  101.74    3.76
  -1   4   7  100.08    6.43
  -1   4   8    7.72    1.45
  -1   4   8    8.94    1.65
  -1   4   9  281.33    7.42
  -1   4  10  310.42    7.02
  -1   4  11  289.69    5.51
  -1   5   0   48.96    3.23
  -1   5   1  473.46   10.07
  -1   5   2    8.61    1.67
  -1   5   3  440.64   11.13
  -1   5   4  262.45    9.29
  -1   5   5 1630.60   14.82
  -1   5   5 1632.57   16.96
  -1   5   5 1630.50   24.44
  -1   5   6  957.32   19.73
  -1   5   6  931.68   11.52
  -1   5   6  952.76   13.58
  -1   5   6  952.04   11.88
  -1   5   7   78.16    3.35
  -1   5   7   72.51    3.93
  -1   5   7   73.77    3.29
  -1   5   8  306.52    7.69
  -1   5   9    1.64    1.06
  -1   5  10  178.44    4.67
  -1   5  11    7.65    0.83
  -1   6  -7   19.67    1.74
  -1   6  -6   57.31    2.88
  -1   6  -5  130.23    4.22
  -1   6  -4  153.57    4.46
  -1   6   0  625.53   12.67
  -1   6   1  686.08   13.80
  -1   6   2  786.59   15.56
  -1   6   3   33.74    2.28
  -1   6   3   30.85    3.52
  -1   6   3   32.02    2.39
  -1   6   4  140.40    4.59
  -1   6   4  141.20    7.46
  -1   6   4  140.65    4.97
  -1   6   5   82.33    3.57
  -1   6   5   85.91    4.06
  -1   6   6    4.29    1.03
  -1   6   6    6.24    1.43
  -1   6   6    4.14    1.02
  -1   6   7    2.95    0.89
  -1   6   7    3.32    1.20
  -1   6   7    1.05    0.71
  -1   6   8   31.83    2.37
  -1   6   8   32.83    1.93
  -1   6   9  123.37    3.88
  -1   7  -8  472.49    6.92
  -1   7  -7  221.06    5.31
  -1   7  -6  427.42    7.72
  -1   7  -5   51.79    2.82
  -1   7  -4  286.90    6.44
  -1   7  -3 1102.16   12.52
  -1   7  -3 1114.65   13.10
  -1   7  -2    2.24    0.84
  -1   7  -2    1.46    0.83
  -1   7  -1  186.99    7.55
  -1   7  -1  190.66    5.11
  -1   7  -1  200.60    5.54
  -1   7  -1  197.76    5.61
  -1   7   0  216.20    8.31
  -1   7   0  234.18    5.60
  -1   7   0  229.52    5.84
  -1   7   0  229.20    6.04
  -1   7   1    1.00    0.76
  -1   7   1    0.25    0.72
  -1   7   1    0.41    0.75
  -1   7   2   51.49    4.47
  -1   7   2   52.54    2.81
  -1   7   2   56.54    3.09
  -1   7   3   63.92    3.00
  -1   7   3   56.85    3.10
  -1   7   4  159.02    5.08
  -1   7   5  582.96    9.46
  -1   7   6   22.33    1.86
  -1   7   6   23.93    1.94
  -1   7   7  653.65    8.51
  -1   7   7  653.01    8.65
  -1   8  -8   77.41    2.50
  -1   8  -7   21.16    1.62
  -1   8  -6  150.24    4.44
  -1   8  -5   49.21    2.73
  -1   8  -4  517.43    8.75
  -1   8  -3   30.64    2.22
  -1   8  -2  811.06   11.02
  -1   8  -2  819.04   11.57
  -1   8  -1  812.04   10.93
  -1   8  -1  806.46   11.53
  -1   8   0  237.24    6.23
  -1   8   0  235.98    5.84
  -1   8   0  231.01    6.36
  -1   8   1   17.61    1.65
  -1   8   1   19.18    1.89
  -1   8   1   16.86    1.88
  -1   8   2  354.98    7.21
  -1   8   2  367.48    7.91
  -1   8   3  303.01    6.33
  -1   8   3  309.41    7.15
  -1   8   4  283.03    6.64
  -1   8   5  240.34    5.75
  -1   8   6  115.47    3.64
  -1   8   6  113.28    3.53
  -1   8   7    0.93    0.55
  -1   8   7    1.05    0.49
  -1   9  -7   61.20    2.21
  -1   9  -6  250.19    5.03
  -1   9  -5  124.58    3.89
  -1   9  -4  180.68    4.88
  -1   9  -3  505.88    8.35
  -1   9  -2   37.05    2.38
  -1   9  -1  321.93    6.65
  -1   9   0  110.20    3.81
  -1   9   1    0.96    0.90
  -1   9   1    1.15    0.73
  -1   9   2   87.49    3.71
  -1   9   3   28.41    2.12
  -1   9   4  163.83    4.49
  -1   9   5   84.86    2.85
  -1   9   5   85.31    2.94
  -1   9   6   32.14    1.45
  -1   9   6   36.86    1.63
  -1  10  -6   34.79    1.47
  -1  10  -5   30.84    1.61
  -1  10  -4    0.62    0.54
  -1  10  -3  149.25    3.86
  -1  10  -2    7.30    1.03
  -1  10  -1   88.24    2.94
  -1  10   0   40.90    1.92
  -1  10   3  135.44    3.41
  -1  10   4   67.73    2.15
   0  -8   8   93.72    2.64
   0  -7   3  368.53   11.90
   0  -7   8  115.19    3.63
   0  -7   9   20.66    1.39
   0  -6   1  295.46    8.78
   0  -6   2    0.86    1.10
   0  -6   3    6.53    1.83
   0  -6   3    4.74    0.95
   0  -6   4  515.32   13.92
   0  -6   4  498.14    8.31
   0  -6   5  390.75   12.76
   0  -6   5  391.91    7.61
   0  -6   6  700.71   10.28
   0  -6   8  321.22    6.67
   0  -6   9  318.81    6.08
   0  -6  10  310.12    5.03
   0  -5   0  894.43   12.60
   0  -5   1  655.16   11.75
   0  -5   2 1863.53   21.16
   0  -5   3  992.07   16.56
   0  -5   4  268.25    9.28
   0  -5   5  373.82   11.68
   0  -5   5  362.56    6.90
   0  -5   6  307.17   11.21
   0  -5   6  293.37    6.43
   0  -5   7   50.99    2.79
   0  -5   8  110.21    4.10
   0  -5   9    0.33    0.73
   0  -5  10  103.97    3.37
   0  -5  11   30.07    1.51
   0  -4  -1 3987.96   21.07
   0  -4   0    4.98    1.09
   0  -4   1   58.42    3.16
   0  -4   2   21.08    2.18
   0  -4   3   83.80    4.39
   0  -4   4  440.89   10.64
   0  -4   5   65.89    4.54
   0  -4   6  665.63   15.22
   0  -4   7  420.80   12.95
   0  -4   7  399.47    7.22
   0  -4   8 1304.29   13.83
   0  -4   9  129.35    4.34
   0  -4   9  114.47    3.99
   0  -4  10   75.87    3.12
   0  -4  10   75.58    2.97
   0  -4  11  232.26    4.61
   0  -4  12   83.23    2.05
   0  -3  -1  102.75    2.87
   0  -3   0  402.02    6.29
   0  -3   1  947.99   10.61
   0  -3   2 2100.59   17.24
   0  -3   3  236.18    6.39
   0  -3   4  574.17   10.82
   0  -3   5  416.78   10.13
   0  -3   6 1450.89   20.56
   0  -3   7  248.37    5.65
   0  -3   7  252.29    9.34
   0  -3   8 1511.29   14.74
   0  -3   8 1498.23   24.07
   0  -3   9  182.85    5.20
   0  -3   9  162.61    4.95
   0  -3  10   13.34    1.49
   0  -3  10   14.41    1.55
   0  -3  11   36.23    2.01
   0  -3  11   36.53    2.03
   0  -3  12   34.42    1.56
   0  -2  -1   18.55    1.00
   0  -2   0 2780.67   13.34
   0  -2   1 2935.60   15.46
   0  -2   2 1265.48   11.39
   0  -2   3 1232.20   12.63
   0  -2   4   48.06    2.87
   0  -2   5   62.22    3.59
   0  -2   6   88.35    4.70
   0  -2   7  321.38    9.71
   0  -2   8  368.10    7.15
   0  -2   8  368.09    7.31
   0  -2   9  101.01    3.99
   0  -2   9  103.89    3.94
   0  -2  10  100.95    3.90
   0  -2  10  100.63    3.75
   0  -2  11  492.91    7.45
   0  -2  11  480.24    7.57
   0  -2  12  295.95    4.71
   0  -1   0  582.52    4.25
   0  -1   1   35.30    1.33
   0  -1   2  195.23    3.70
   0  -1   3 1407.00   11.51
   0  -1   3 1391.42   10.85
   0  -1   4 1756.54   14.80
   0  -1   4 1769.29   14.39
   0  -1   5 1089.29   13.31
   0  -1   5 1100.51   13.13
   0  -1   6 1368.84   16.61
   0  -1   6 1394.81   16.77
   0  -1   7  965.74   15.48
   0  -1   8  956.20   11.42
   0  -1   8  948.57   11.67
   0  -1   9  195.21    5.55
   0  -1   9  194.77    5.37
   0  -1  10  196.92    5.53
   0  -1  10  193.31    5.23
   0  -1  11    7.91    1.18
   0  -1  12    1.63    0.65
   0  -1  12    1.26    0.75
   0   0   1  113.13    1.78
   0   0   1  112.07    1.57
   0   0   2  426.39    4.90
   0   0   2  426.70    4.32
   0   0   3  343.71    4.89
   0   0   3  357.97    5.58
   0   0   4  385.29    6.06
   0   0   4  389.39    6.90
   0   0   5  313.89    6.33
   0   0   5  320.04    7.22
   0   0   6  122.68    4.52
   0   0   6  123.99    5.10
   0   0   7    4.19    1.28
   0   0   8  216.74    5.44
   0   0   8  209.17    5.53
   0   0   8  214.79    8.27
   0   0   9  262.71    6.24
   0   0   9  260.23    6.46
   0   0  10  468.82    8.53
   0   0  10  468.75    8.18
   0   0  11  251.46    5.45
   0   0  12  213.18    4.15
   0   0  12  207.54    4.89
   0   1   1  663.43    5.74
   0   1   1  658.10    2.79
   0   1   2   10.35    1.03
   0   1   3 3130.13   18.12
   0   1   3 3122.54   12.35
   0   1   4    9.52    0.90
   0   1   4   10.13    1.37
   0   1   5 2606.48   21.64
   0   1   5 2632.04   15.84
   0   1   6 3662.77   28.70
   0   1   7  374.07   10.23
   0   1   8  426.36    7.99
   0   1   8  417.26    7.59
   0   1   8  407.40   11.62
   0   1   9  606.79    9.51
   0   1   9  605.23    9.84
   0   1  10  163.21    4.85
   0   1  11    9.96    1.33
   0   1  11    9.35    1.51
   0   1  12   69.32    2.35
   0   1  12   71.48    2.79
   0   2   2 3809.64   20.06
   0   2   2 3694.06    8.10
   0   2   3  914.09   11.17
   0   2   4  534.66    9.55
   0   2   5  448.80    9.73
   0   2   6  201.83    7.27
   0   2   7    3.67    0.85
   0   2   7    3.75    1.50
   0   2   7    2.80    0.85
   0   2   8   17.26    1.76
   0   2   8   15.64    2.56
   0   2   9   38.35    2.52
   0   2  10  227.55    5.65
   0   2  10  233.79    6.73
   0   2  11    7.60    1.20
   0   2  11    3.95    1.16
   0   2  12  241.55    4.63
   0   3   2   63.79    3.19
   0   3   2   61.29    1.59
   0   3   3   38.16    2.76
   0   3   4   86.75    4.45
   0   3   5 1200.56   17.73
   0   3   6  157.97    7.07
   0   3   7  372.09    7.12
   0   3   7  383.31    7.18
   0   3   7  393.05   11.92
   0   3   8  616.44    9.53
   0   3   8  595.28    9.12
   0   3   9  327.67    8.18
   0   3   9  328.86    7.00
   0   3  10  339.44    7.70
   0   3  11   76.57    3.15
   0   4   1 4050.34   27.37
   0   4   2 2322.26   21.81
   0   4   3  189.10    6.75
   0   4   4  220.99    7.91
   0   4   5  522.92   13.08
   0   4   6  600.68   14.91
   0   4   6  584.54    8.88
   0   4   6  568.43    9.00
   0   4   6  581.70   10.24
   0   4   7  194.76    5.40
   0   4   7  201.16    6.31
   0   4   7  201.33    5.48
   0   4   8  311.20    6.65
   0   4   8  305.52    7.85
   0   4   9    8.72    1.17
   0   4   9    9.92    1.63
   0   4  10   50.96    2.80
   0   4  11   28.88    1.69
   0   5   1  979.07   15.50
   0   5   2   20.73    2.53
   0   5   3  248.77    8.67
   0   5   4  186.03    5.11
   0   5   4  184.88    8.06
   0   5   5   69.45    3.29
   0   5   5   72.21    3.63
   0   5   5   70.26    5.36
   0   5   6   50.80    2.88
   0   5   6   49.15    3.14
   0   5   7 1386.38   16.07
   0   5   7 1394.29   14.48
   0   5   8  317.55    6.49
   0   5   8  314.86    7.47
   0   5   9   35.92    1.92
   0   5   9   34.51    2.36
   0   5  10   79.61    2.86
   0   6  -8  310.69    6.13
   0   6  -7  163.46    4.75
   0   6  -4  477.33    8.02
   0   6  -3    6.04    1.16
   0   6   0  134.37    6.39
   0   6   1  166.99    7.23
   0   6   2  473.37    8.20
   0   6   2  483.36   12.74
   0   6   3  268.49   10.02
   0   6   3  282.10    5.96
   0   6   3  267.45    6.35
   0   6   4  915.15   12.01
   0   6   4  947.16   19.62
   0   6   4  919.48   12.06
   0   6   5  119.57    4.44
   0   6   5  119.57    4.56
   0   6   6  878.43   11.65
   0   6   6  853.42   11.93
   0   6   7  273.14    6.17
   0   6   7  263.73    6.45
   0   6   8  296.93    5.71
   0   6   8  295.59    6.22
   0   6   9    0.68    0.67
   0   7  -9   17.15    1.18
   0   7  -8  109.44    3.39
   0   7  -7   18.89    1.67
   0   7  -6  148.26    4.65
   0   7  -5  526.86    8.80
   0   7  -4  100.91    3.91
   0   7  -4  101.75    3.94
   0   7  -3  354.61    7.13
   0   7  -3  352.16    7.37
   0   7  -2  141.59    4.45
   0   7  -2  130.96    4.56
   0   7  -1  498.01   13.24
   0   7  -1  490.08    8.08
   0   7  -1  485.91    8.63
   0   7  -1  488.30    8.76
   0   7   0 1333.31   21.72
   0   7   0 1334.18   13.10
   0   7   0 1340.80   14.22
   0   7   0 1327.78   14.56
   0   7   1  371.40   11.70
   0   7   1  370.05    6.77
   0   7   1  370.32    7.41
   0   7   1  368.24    7.70
   0   7   2  128.94    4.65
   0   7   2  129.83    4.35
   0   7   3  103.27    4.18
   0   7   3   99.30    3.73
   0   7   4   11.44    1.59
   0   7   5   31.28    2.34
   0   7   6    7.10    1.21
   0   7   6    8.36    1.12
   0   7   7   72.50    2.91
   0   7   8   20.80    1.34
   0   8  -8   87.65    2.63
   0   8  -7  241.11    5.04
   0   8  -6  643.93    8.99
   0   8  -5  362.40    7.07
   0   8  -4   62.20    3.06
   0   8  -3  187.92    5.26
   0   8  -3  192.19    5.51
   0   8  -2   44.39    2.62
   0   8  -2   45.12    2.77
   0   8  -1    3.95    1.12
   0   8  -1    4.44    1.04
   0   8  -1    4.93    1.14
   0   8   0    1.81    0.99
   0   8   0    3.47    0.90
   0   8   0    1.11    0.95
   0   8   1    3.83    1.13
   0   8   1    3.39    1.01
   0   8   2  104.57    4.22
   0   8   2   97.62    3.82
   0   8   3  177.49    4.82
   0   8   3  185.14    5.49
   0   8   4  199.73    5.50
   0   8   5  141.72    4.34
   0   8   6  343.68    5.45
   0   8   6  371.28    6.26
   0   8   7   59.13    2.13
   0   9  -7   11.00    0.98
   0   9  -6    3.84    0.81
   0   9  -5    1.69    0.76
   0   9  -4   75.37    3.04
   0   9  -3    3.53    0.94
   0   9  -2   82.26    3.24
   0   9  -1  212.62    5.08
   0   9  -1  231.96    5.79
   0   9   0  955.66   10.21
   0   9   0  968.92   11.61
   0   9   1   50.30    2.63
   0   9   1   53.52    2.86
   0   9   2   27.50    1.88
   0   9   2   33.42    2.28
   0   9   3  119.36    3.95
   0   9   4   38.30    2.11
   0   9   5    1.65    0.61
   0   9   5    1.29    0.52
   0   9   6  185.94    3.22
   0  10  -5   40.79    1.64
   0  10  -4  161.78    3.48
   0  10  -3   43.72    1.93
   0  10  -2  167.00    3.64
   0  10  -1    4.99    0.72
   0  10   3    5.22    0.68
   1  -8   7   23.15    1.54
   1  -7   3 1209.70   20.98
   1  -7   4  299.24   11.06
   1  -7   6  469.05    8.09
   1  -7   8  493.84    7.21
   1  -7   9    3.97    0.74
   1  -6   1 1157.73   16.58
   1  -6   2  362.33   10.07
   1  -6   3   60.62    4.51
   1  -6   4  168.07    7.89
   1  -6   5  133.75    7.45
   1  -6   6   59.80    3.02
   1  -6   8   19.15    1.68
   1  -6   9  336.44    5.98
   1  -6   9  332.83    5.88
   1  -6  10   90.77    2.59
   1  -5   0   49.76    2.85
   1  -5   1    0.57    0.81
   1  -5   2   28.82    2.64
   1  -5   3  161.02    6.51
   1  -5   4   27.40    3.07
   1  -5   5 1066.73   19.22
   1  -5   6  591.03    9.01
   1  -5   6  602.11    9.00
   1  -5   7  628.80    9.39
   1  -5   8  266.60    6.10
   1  -5   9  138.02    4.19
   1  -5  10  230.09    4.76
   1  -5  10  241.56    5.07
   1  -5  11  146.22    2.98
   1  -5  11  151.65    3.10
   1  -4  -1   36.61    1.81
   1  -4   0 1434.80   13.01
   1  -4   1 1526.53   14.76
   1  -4   2 1262.20   14.67
   1  -4   3 4471.64   30.13
   1  -4   4  941.86   15.04
   1  -4   5    4.70    1.49
   1  -4   6   40.87    3.81
   1  -4   7  127.34    4.11
   1  -4   7  124.52    7.06
   1  -4   7  122.80    4.11
   1  -4   8    7.96    1.24
   1  -4   8   10.23    1.36
   1  -4   9   14.77    1.54
   1  -4  10   36.28    2.26
   1  -4  10   38.56    2.19
   1  -4  11  252.20    4.54
   1  -4  11  247.71    4.84
   1  -3  -1 2586.13   11.78
   1  -3   0 2458.08   14.04
   1  -3   1   44.39    2.19
   1  -3   2  184.28    4.85
   1  -3   3  122.94    4.46
   1  -3   4  650.80   11.22
   1  -3   5 1028.41   15.60
   1  -3   6  270.09    8.77
   1  -3   7  630.71    8.88
   1  -3   7  634.11   14.61
   1  -3   8  630.16    9.32
   1  -3   8  637.03    9.44
   1  -3   8  614.21   15.30
   1  -3   9 2323.71   19.06
   1  -3   9 2295.03   17.78
   1  -3   9 2297.21   17.87
   1  -3  10   51.83    2.60
   1  -3  10   49.20    2.74
   1  -3  11   18.50    1.55
   1  -3  11   20.91    1.52
   1  -3  12   60.47    1.87
   1  -2  -1 1777.65    6.71
   1  -2   0 4974.73   15.72
   1  -2   1 2325.49   12.95
   1  -2   2 2039.17   14.00
   1  -2   3 3233.55   20.03
   1  -2   4  803.05   11.22
   1  -2   5  688.14   11.55
   1  -2   6  547.59   11.45
   1  -2   7  147.69    6.61
   1  -2   8    4.00    1.64
   1  -2   8    4.61    1.01
   1  -2   8    6.17    1.10
   1  -2   9  753.13   10.46
   1  -2   9  757.13   10.34
   1  -2   9  771.61   11.04
   1  -2  10  503.20    8.73
   1  -2  10  510.34    8.16
   1  -2  11  169.43    4.22
   1  -2  11  160.78    4.45
   1  -2  12  189.13    3.53
   1  -1  -4 1670.44    7.17
   1  -1  -3 3055.62    8.63
   1  -1  -2  475.97    3.07
   1  -1  -1   90.61    1.44
   1  -1   0  299.92    3.12
   1  -1   1 2825.38   11.57
   1  -1   2  606.95    6.37
   1  -1   2  593.23    4.86
   1  -1   3   33.86    1.57
   1  -1   3    8.63    1.09
   1  -1   4   91.03    3.48
   1  -1   4   85.46    2.99
   1  -1   5  293.31    6.95
   1  -1   5  290.98    6.42
   1  -1   6  884.89   13.43
   1  -1   6  871.35   12.71
   1  -1   7  579.27   12.11
   1  -1   7  565.66   11.49
   1  -1   8  756.66   10.06
   1  -1   8  757.51   10.57
   1  -1   8  735.03   10.26
   1  -1   9  277.15    6.32
   1  -1   9  287.23    6.76
   1  -1   9  287.38    6.56
   1  -1  10  205.03    5.29
   1  -1  10  200.12    5.56
   1  -1  11  174.68    4.36
   1  -1  11  176.20    4.70
   1  -1  12  314.24    4.70
   1   0   0  101.58    1.79
   1   0   1 1601.74    7.02
   1   0   1 1579.67    7.66
   1   0   2   33.95    1.42
   1   0   2   31.32    1.27
   1   0   3 2585.32   13.15
   1   0   3 2639.05   14.80
   1   0   4  653.46    8.73
   1   0   4  644.84    8.54
   1   0   5  672.22    9.78
   1   0   5  660.51   10.13
   1   0   6 1012.62   13.35
   1   0   6  986.43   14.07
   1   0   7  547.87   11.68
   1   0   8  144.47    4.70
   1   0   8  153.92    4.82
   1   0   8  152.01    4.56
   1   0   9  167.79    5.23
   1   0   9  163.91    4.94
   1   0   9  163.21    4.68
   1   0  10    0.80    0.86
   1   0  10    0.78    0.77
   1   0  11   12.44    1.33
   1   0  12   35.29    1.66
   1   0  12   34.45    1.99
   1   1   2 1727.25   12.06
   1   1   2 1742.08    8.92
   1   1   3  168.39    2.96
   1   1   3  166.99    4.35
   1   1   4  421.78    7.86
   1   1   5   66.48    3.53
   1   1   5   68.37    2.97
   1   1   6   62.33    3.79
   1   1   7    3.55    0.93
   1   1   7    1.25    0.72
   1   1   7    1.41    1.06
   1   1   8   72.56    3.40
   1   1   8   72.94    3.22
   1   1   8   75.98    3.33
   1   1   8   67.05    4.76
   1   1   9  271.88    6.61
   1   1   9  268.74    6.34
   1   1   9  270.20    6.12
   1   1  10  854.83   10.77
   1   1  11  200.09    4.66
   1   1  12  156.80    3.83
   1   2   1   41.96    1.66
   1   2   2  892.09   10.74
   1   2   2  914.98    7.20
   1   2   3  183.72    5.31
   1   2   3  188.22    3.00
   1   2   4 1038.79   13.93
   1   2   5  437.83    9.94
   1   2   6 1565.49   20.52
   1   2   7 1045.01   11.97
   1   2   7 1025.43   11.60
   1   2   7 1014.53   11.80
   1   2   8  410.96    7.78
   1   2   8  411.06    7.79
   1   2   9  226.22    5.81
   1   2   9  219.83    5.60
   1   2  10  261.94    6.84
   1   2  10  260.33    5.88
   1   2  11   34.62    2.24
   1   2  12    6.84    0.84
   1   3   1 1689.91   12.29
   1   3   2 1009.41   13.40
   1   3   2  995.35    8.61
   1   3   3  978.68   14.13
   1   3   4 1158.76   16.70
   1   3   5   93.16    5.22
   1   3   6    1.13    0.87
   1   3   6    0.09    0.65
   1   3   6    2.18    1.09
   1   3   7   10.14    1.44
   1   3   7   14.54    1.70
   1   3   7    9.34    2.21
   1   3   8  136.16    4.59
   1   3   8  134.21    4.61
   1   3   9   65.87    3.05
   1   3   9   66.40    3.64
   1   3  10  110.13    3.30
   1   3  10  105.65    4.08
   1   3  11  237.68    4.91
   1   4   1  188.09    4.76
   1   4   2  536.20   11.16
   1   4   3    1.69    1.10
   1   4   4  998.85   17.46
   1   4   5  418.21    7.73
   1   4   5  420.29   12.13
   1   4   6  541.85    9.15
   1   4   6  537.34    9.70
   1   4   6  547.20   14.52
   1   4   7  503.68    8.97
   1   4   7  497.98    9.59
   1   4   8  549.49    9.12
   1   4   8  537.66    9.91
   1   4   9  347.87    6.51
   1   4   9  348.60    7.43
   1   4  10   40.48    1.79
   1   4  10   41.85    2.27
   1   5  -9  407.60    6.53
   1   5   1  744.11   14.35
   1   5   2  758.29   14.93
   1   5   3 1681.48   23.39
   1   5   4  556.11    9.17
   1   5   4  563.19   14.41
   1   5   5  332.16    7.34
   1   5   5  338.52   11.70
   1   5   6  279.09    6.83
   1   5   6  289.53    6.89
   1   5   7    5.83    1.21
   1   5   7    5.29    1.23
   1   5   8   22.88    1.88
   1   5   8   19.34    1.83
   1   5   9   39.93    2.01
   1   5   9   37.86    2.14
   1   5  10   72.79    2.18
   1   6  -9   40.93    2.00
   1   6  -8   24.64    1.84
   1   6  -4  459.94    7.92
   1   6  -3  306.74    6.51
   1   6  -2  446.93    7.84
   1   6  -2  457.05    7.92
   1   6  -1  248.44    5.84
   1   6  -1  248.06    5.43
   1   6  -1  244.71    5.79
   1   6   0  175.48    4.93
   1   6   0  173.29    4.87
   1   6   0  166.99    7.62
   1   6   1   93.50    3.69
   1   6   1   96.18    5.89
   1   6   1   94.26    3.62
   1   6   2    2.51    0.89
   1   6   2    0.93    1.30
   1   6   2    2.29    0.85
   1   6   3   53.15    2.98
   1   6   3   53.49    4.70
   1   6   3   50.95    2.67
   1   6   4  160.10    5.19
   1   6   5  241.38    6.32
   1   6   6   33.52    2.41
   1   6   7  228.15    5.56
   1   6   8  207.85    4.66
   1   6   9  434.45    5.18
   1   7  -9  142.90    3.09
   1   7  -8  125.36    3.57
   1   7  -7   81.06    3.21
   1   7  -6   12.23    1.53
   1   7  -5  622.44    9.52
   1   7  -4   18.43    1.83
   1   7  -4   16.32    1.68
   1   7  -3   13.72    1.58
   1   7  -3   12.46    1.55
   1   7  -2    3.88    0.99
   1   7  -2    4.36    1.12
   1   7  -1   66.03    3.02
   1   7  -1   68.38    3.33
   1   7  -1   69.03    3.33
   1   7   0  661.89   10.27
   1   7   0  691.05    9.22
   1   7   0  668.65   10.21
   1   7   1  257.99    6.30
   1   7   1  258.88    6.51
   1   7   2   56.93    3.15
   1   7   2   56.19    2.94
   1   7   3  450.05    8.60
   1   7   3  426.63    7.66
   1   7   4   80.12    3.68
   1   7   4   80.39    3.16
   1   7   5  342.85    7.13
   1   7   6  247.85    4.81
   1   7   6  258.74    5.79
   1   7   7   48.76    2.29
   1   7   8   28.13    1.41
   1   8  -8    0.01    0.48
   1   8  -7   74.76    2.72
   1   8  -6   23.35    1.77
   1   8  -5  176.98    4.80
   1   8  -4  964.86   11.33
   1   8  -4  943.63   11.17
   1   8  -3   78.97    3.32
   1   8  -3   83.52    3.57
   1   8  -2  357.91    6.90
   1   8  -2  355.24    7.43
   1   8  -1    1.79    0.88
   1   8  -1    4.52    1.15
   1   8   0  359.03    7.46
   1   8   0  354.86    7.48
   1   8   1  615.99    9.56
   1   8   1  616.27    9.87
   1   8   2  136.41    4.37
   1   8   2  135.30    4.65
   1   8   3    4.92    1.13
   1   8   3    4.70    0.92
   1   8   4    5.24    1.09
   1   8   5    1.98    0.79
   1   8   6  191.15    4.14
   1   8   7    0.99    0.43
   1   9  -7  211.61    3.42
   1   9  -6   46.23    1.93
   1   9  -5  578.90    7.25
   1   9  -4   38.22    2.04
   1   9  -3    1.23    0.64
   1   9  -2    0.62    0.58
   1   9  -2    0.64    0.69
   1   9  -1   35.07    1.89
   1   9  -1   36.73    2.26
   1   9   0    5.90    1.08
   1   9   1   67.07    2.85
   1   9   1   71.73    3.02
   1   9   2   69.69    2.69
   1   9   2   72.96    2.97
   1   9   3  146.54    3.94
   1   9   4  145.42    3.57
   1   9   5  271.07    4.18
   1  10  -4   11.65    0.84
   1  10  -3   24.76    1.18
   2 -10   4  100.83    2.93
   2  -9   5   34.56    2.05
   2  -9   6  132.73    3.43
   2  -8   6   33.98    2.20
   2  -8   7   54.75    2.47
   2  -7   3  828.34   17.12
   2  -7   4   18.07    3.04
   2  -7   6  352.62    7.44
   2  -7   7  187.86    5.16
   2  -7   8   39.84    2.19
   2  -7   9  124.20    3.23
   2  -6   1  860.75   13.95
   2  -6   2  930.25   15.72
   2  -6   3  462.40   11.90
   2  -6   4  884.89   17.61
   2  -6   5  606.65   15.55
   2  -6   6  302.82    6.89
   2  -6   7  332.02    7.16
   2  -6   8  235.89    5.77
   2  -6   9   61.41    2.65
   2  -6  10    5.82    0.85
   2  -5   0 1878.16   16.64
   2  -5   1  790.61   11.95
   2  -5   2  520.62   10.51
   2  -5   3   26.69    2.71
   2  -5   4   65.35    4.48
   2  -5   5   13.99    2.54
   2  -5   6   12.64    1.48
   2  -5   6    9.79    2.37
   2  -5   7  189.86    5.41
   2  -5   8  376.26    7.51
   2  -5   9  278.92    6.10
   2  -5  10  240.46    4.84
   2  -5  10  242.44    5.31
   2  -5  11  216.15    4.03
   2  -4  -1  217.49    4.10
   2  -4   0   24.27    1.72
   2  -4   1  334.13    6.76
   2  -4   2  806.42   11.55
   2  -4   3  151.40    5.54
   2  -4   4  997.10   15.39
   2  -4   5  494.25   11.83
   2  -4   6  836.67   16.77
   2  -4   7  811.42   10.82
   2  -4   7  809.82   17.72
   2  -4   8  114.98    3.84
   2  -4   8  116.33    4.22
   2  -4   9  242.52    5.93
   2  -4   9  243.26    5.40
   2  -4  10  115.08    3.72
   2  -4  10  104.91    3.23
   2  -4  10  111.68    3.90
   2  -4  11    4.05    0.84
   2  -3  -1 2057.07   10.68
   2  -3  -1 2052.10   12.14
   2  -3   0 1687.67   11.76
   2  -3   0 1695.98   12.40
   2  -3   1  292.01    5.62
   2  -3   1  287.86    5.63
   2  -3   2  574.33    8.79
   2  -3   3  182.94    5.56
   2  -3   4 3705.09   27.13
   2  -3   5    0.51    1.09
   2  -3   6   37.04    3.38
   2  -3   7  850.83   17.10
   2  -3   7  843.70   10.85
   2  -3   8   83.44    3.62
   2  -3   8   90.24    3.43
   2  -3   8   90.69    6.12
   2  -3   9    0.99    0.76
   2  -3   9    0.85    0.85
   2  -3  10   47.98    2.35
   2  -3  10   46.70    2.53
   2  -3  10   46.13    2.65
   2  -3  11   70.32    2.37
   2  -3  11   72.30    2.87
   2  -2  -3  178.98    2.36
   2  -2  -2  171.15    2.72
   2  -2  -1 1961.63   10.37
   2  -2   0   15.97    1.13
   2  -2   1   32.32    1.70
   2  -2   2    6.74    1.01
   2  -2   3  906.35   10.72
   2  -2   4   85.53    3.93
   2  -2   5  486.61   10.06
   2  -2   6  607.39   12.38
   2  -2   7 1408.73   20.61
   2  -2   7 1414.91   13.87
   2  -2   8   14.55    1.49
   2  -2   8   15.73    1.68
   2  -2   8   11.18    2.50
   2  -2   9  960.45   11.16
   2  -2   9  951.94   12.10
   2  -2  10  542.50    8.90
   2  -2  10  538.42    7.89
   2  -2  10  531.27    7.85
   2  -2  11   25.56    1.59
   2  -2  11   29.73    1.95
   2  -1  -4   10.46    0.86
   2  -1  -3   19.88    1.09
   2  -1  -2   23.02    1.16
   2  -1  -1 1762.54    9.90
   2  -1   0  790.89    6.99
   2  -1   1 6681.28   21.42
   2  -1   2 4254.24   19.02
   2  -1   2 4290.54   11.02
   2  -1   3  609.51    7.95
   2  -1   3  615.56    6.03
   2  -1   4  943.08   10.97
   2  -1   4  936.68    9.25
   2  -1   5  609.87    8.83
   2  -1   5  617.17   10.74
   2  -1   6  224.30    7.21
   2  -1   7   86.02    4.88
   2  -1   7   83.20    3.45
   2  -1   8   57.16    3.01
   2  -1   8   57.32    2.80
   2  -1   8   57.34    3.04
   2  -1   9   82.63    3.69
   2  -1   9   84.24    3.41
   2  -1   9   79.26    3.61
   2  -1  10    1.14    0.87
   2  -1  10    3.03    0.92
   2  -1  10    3.03    0.79
   2  -1  11   80.46    3.08
   2  -1  11   78.57    2.76
   2   0  -1    4.92    0.76
   2   0   0 1084.38    8.45
   2   0   1  330.08    4.80
   2   0   2 2046.68   11.45
   2   0   2 2046.79   12.50
   2   0   3  184.28    4.13
   2   0   3  185.34    4.09
   2   0   4  138.57    3.95
   2   0   4  138.71    4.06
   2   0   5  529.26    9.00
   2   0   6  899.00   13.72
   2   0   6  878.96   13.03
   2   0   7 1275.01   13.04
   2   0   7 1269.13   12.30
   2   0   7 1253.16   13.40
   2   0   8  514.37    8.85
   2   0   8  513.38    8.28
   2   0   8  514.51    9.05
   2   0   9  828.79   11.38
   2   0   9  825.26   10.62
   2   0   9  808.97   10.74
   2   0  10  111.92    3.78
   2   0  10  118.20    3.84
   2   0  10  110.16    4.00
   2   0  11  334.29    5.59
   2   0  12   41.15    1.95
   2   1  -1 9262.87   28.62
   2   1   0   41.94    1.89
   2   1   1 8652.68   26.19
   2   1   2   78.40    2.93
   2   1   2   80.06    2.61
   2   1   3  966.85   11.04
   2   1   3  963.04    9.14
   2   1   4 3607.61   18.93
   2   1   4 3537.54   23.65
   2   1   5  539.45   10.15
   2   1   6  227.93    7.31
   2   1   7  520.53    8.12
   2   1   7  535.14    8.56
   2   1   7  522.76    8.58
   2   1   8   71.40    3.36
   2   1   8   64.91    3.21
   2   1   8   68.18    3.18
   2   1   9   26.06    2.10
   2   1   9   26.79    2.08
   2   1   9   27.56    2.16
   2   1  10    7.90    1.28
   2   1  10    7.21    1.10
   2   1  11   51.98    2.64
   2   1  12   46.67    1.82
   2   2   0 1112.33   10.79
   2   2   1  861.45    9.20
   2   2   2  166.57    5.13
   2   2   2  170.17    4.08
   2   2   3  444.63    8.82
   2   2   3  455.56    6.52
   2   2   4  136.55    5.38
   2   2   5  409.07   10.00
   2   2   6  316.57    6.25
   2   2   6  318.63    6.60
   2   2   6  308.25    9.40
   2   2   7  437.95    7.81
   2   2   7  441.42    8.24
   2   2   7  442.75    7.78
   2   2   7  413.92   11.54
   2   2   8  312.81    6.83
   2   2   8  307.02    7.00
   2   2   9  122.66    4.28
   2   2  10  205.48    4.80
   2   2  10  207.99    5.67
   2   2  11  425.20    6.57
   2   3   0   48.57    2.61
   2   3   1 1051.41   11.48
   2   3   2  288.44    7.78
   2   3   2  278.86    5.76
   2   3   3 2018.62   21.52
   2   3   4  242.46    8.09
   2   3   5  244.84    5.82
   2   3   5  246.13    8.73
   2   3   6  466.31    8.44
   2   3   6  460.02   12.56
   2   3   7  473.72    8.78
   2   3   8  179.33    5.35
   2   3   8  191.22    5.89
   2   3   9   43.64    2.51
   2   3   9   44.69    2.77
   2   3  10   41.88    2.04
   2   3  10   42.58    2.34
   2   4   0 1120.39   13.87
   2   4   1  252.37    6.21
   2   4   2   68.79    4.40
   2   4   3  580.61   12.99
   2   4   4  220.84    5.65
   2   4   4  217.36    8.52
   2   4   5   74.23    3.48
   2   4   5   70.30    5.20
   2   4   6   25.80    2.20
   2   4   7   65.69    3.36
   2   4   7   67.02    3.37
   2   4   8  201.83    5.49
   2   4   8  202.90    5.54
   2   4   9  212.50    4.95
   2   4   9  213.74    5.03
   2   4  10   37.28    1.63
   2   4  10   34.46    1.66
   2   5  -1  293.10    8.22
   2   5   0  195.62    6.38
   2   5   1   38.20    3.67
   2   5   2  184.84    5.09
   2   5   2  181.31    7.79
   2   5   2  178.27    4.84
   2   5   3   58.52    3.06
   2   5   3   54.30    4.49
   2   5   3   59.74    2.86
   2   5   4   94.68    3.97
   2   5   4   92.06    6.04
   2   5   4   96.71    3.56
   2   5   5 1063.02   13.30
   2   5   6  356.85    7.68
   2   5   7  285.64    6.57
   2   5   8  101.17    3.57
   2   5   9  419.30    5.91
   2   6  -9   43.51    1.98
   2   6  -4   84.54    3.47
   2   6  -3  225.13    5.67
   2   6  -2  212.14    5.60
   2   6  -2  217.67    8.07
   2   6  -1  489.47    8.21
   2   6  -1  508.90    7.85
   2   6  -1  499.18    8.57
   2   6  -1  501.17   11.71
   2   6   0  490.45   13.64
   2   6   0  481.59    8.26
   2   6   0  491.55    8.53
   2   6   1  701.36   10.22
   2   6   1  687.09   16.09
   2   6   1  698.81   10.20
   2   6   2  743.29   10.76
   2   6   2  722.87   16.69
   2   6   2  733.88   10.35
   2   6   3   61.25    3.26
   2   6   3   57.35    2.92
   2   6   4  724.39   10.92
   2   6   4  725.88    9.70
   2   6   5  119.56    4.42
   2   6   6   64.74    3.13
   2   6   7    3.81    0.96
   2   6   8   89.95    2.84
   2   7  -9  151.91    2.92
   2   7  -8  127.06    3.37
   2   7  -7  429.88    6.98
   2   7  -6   61.40    2.93
   2   7  -5  649.36    9.49
   2   7  -4  290.82    6.39
   2   7  -4  289.21    6.33
   2   7  -3  275.47    6.18
   2   7  -3  286.36    6.55
   2   7  -2  196.49    5.12
   2   7  -2  195.24    5.52
   2   7  -1  129.15    4.03
   2   7  -1  127.54    4.54
   2   7  -1  121.79    4.28
   2   7   0   15.39    1.67
   2   7   0   14.45    1.69
   2   7   1    0.02    0.82
   2   7   1   -0.24    0.83
   2   7   2   21.95    1.98
   2   7   2   19.20    1.81
   2   7   3  138.53    4.66
   2   7   3  131.41    4.23
   2   7   4   68.31    3.24
   2   7   4   66.21    2.77
   2   7   5  184.22    4.95
   2   7   6  155.65    4.13
   2   7   7  297.95    4.89
   2   8  -8  129.83    2.61
   2   8  -7   79.05    2.52
   2   8  -6  185.28    4.25
   2   8  -5   19.85    1.59
   2   8  -4   18.02    1.57
   2   8  -4   20.20    1.62
   2   8  -3    0.73    0.69
   2   8  -3    0.55    0.73
   2   8  -2  101.88    3.42
   2   8  -2  101.87    3.84
   2   8  -1  127.62    3.68
   2   8  -1  132.20    4.42
   2   8   0  204.60    5.46
   2   8   0  207.70    5.30
   2   8   1  688.96    9.65
   2   8   1  685.64    9.68
   2   8   2  166.10    4.74
   2   8   2  162.43    4.50
   2   8   3   38.40    2.26
   2   8   3   36.26    2.01
   2   8   4  120.99    3.65
   2   8   5   47.69    2.12
   2   8   6    9.99    0.90
   2   9  -6  126.65    2.61
   2   9  -5    8.42    0.85
   2   9  -4  132.06    3.13
   2   9  -3  121.93    3.04
   2   9  -2  238.78    4.11
   2   9  -2  256.84    5.10
   2   9  -1   49.38    2.34
   2   9   0   17.22    1.44
   2   9   1   81.32    2.79
   2   9   2   70.14    2.35
   2   9   3   10.73    0.98
   3 -11   3    3.85    0.58
   3 -10   4  129.43    3.61
   3 -10   5  136.21    3.29
   3  -9   5   24.82    1.89
   3  -9   6    0.91    0.68
   3  -9   7    2.28    0.59
   3  -8   6  156.18    4.81
   3  -8   7  348.42    6.48
   3  -8   8  322.84    5.28
   3  -7   3    3.44    1.80
   3  -7   4  356.16   11.87
   3  -7   6  399.22    8.13
   3  -7   7   27.18    2.13
   3  -7   8   32.35    2.10
   3  -7   9    4.06    0.78
   3  -7  10   85.94    2.16
   3  -6   1    6.88    1.51
   3  -6   2    3.56    1.26
   3  -6   3  136.25    6.46
   3  -6   4  103.90    6.08
   3  -6   5  119.79    6.92
   3  -6   6  143.91    4.91
   3  -6   7  943.16   12.34
   3  -6   8  184.01    5.23
   3  -6   9   74.93    3.04
   3  -6  10   92.95    2.92
   3  -6  10   96.26    2.74
   3  -5   0  757.02   10.61
   3  -5   1  348.70    7.93
   3  -5   2  477.42   10.07
   3  -5   3 1407.98   18.80
   3  -5   4 1068.71   17.91
   3  -5   5  294.38   10.14
   3  -5   5  293.68    6.52
   3  -5   6  235.95    6.08
   3  -5   6  231.16    9.63
   3  -5   7   14.96    1.71
   3  -5   8  167.83    5.15
   3  -5   9   47.22    2.63
   3  -5  10   21.81    1.58
   3  -5  10   20.66    1.65
   3  -5  11    3.89    0.69
   3  -4  -1  633.07    7.54
   3  -4   0 1868.41   15.05
   3  -4   1 1922.46   16.85
   3  -4   2  529.26    9.84
   3  -4   3   91.10    4.50
   3  -4   4   12.48    2.01
   3  -4   5   90.66    5.27
   3  -4   6  154.04    7.36
   3  -4   6  148.59    4.66
   3  -4   7  235.73    6.04
   3  -4   7  244.43    9.85
   3  -4   8  190.18    5.53
   3  -4   9  641.00    9.74
   3  -4  10  468.84    7.74
   3  -4  10  457.74    7.39
   3  -4  11   92.14    2.92
   3  -3  -2 1695.31   11.68
   3  -3  -1  741.10    8.42
   3  -3   0  725.25    8.94
   3  -3   1   87.92    3.40
   3  -3   2 2866.03   20.95
   3  -3   3 2002.81   18.74
   3  -3   3 2030.00   19.66
   3  -3   4  702.70   12.54
   3  -3   5  663.73   13.20
   3  -3   6  381.41   10.87
   3  -3   7 1406.76   22.46
   3  -3   7 1410.50   14.56
   3  -3   8  241.16    6.25
   3  -3   9    4.46    1.12
   3  -3   9    2.21    0.92
   3  -3  10  126.77    4.15
   3  -3  10  114.72    3.90
   3  -3  11   41.00    2.07
   3  -2  -3 1292.95    9.92
   3  -2  -2 2564.72   14.50
   3  -2  -1 1609.42   11.86
   3  -2   0 1855.60   13.42
   3  -2   1 1452.49   12.68
   3  -2   2 1211.29   12.50
   3  -2   3  172.23    5.10
   3  -2   4  226.29    6.36
   3  -2   5  117.80    5.38
   3  -2   6   94.75    5.27
   3  -2   7    0.53    1.14
   3  -2   7    0.51    0.71
   3  -2   8 1647.86   16.30
   3  -2   9  424.60    8.06
   3  -2   9  429.26    8.25
   3  -2  10  238.18    5.67
   3  -2  10  241.62    5.39
   3  -2  11    1.64    0.72
   3  -2  11    1.22    0.57
   3  -1  -4  988.46    9.88
   3  -1  -3 1309.81   11.12
   3  -1  -2  221.59    4.55
   3  -1  -1  182.39    4.15
   3  -1   0   81.03    2.82
   3  -1   1 1297.85    5.88
   3  -1   1 1312.40   11.67
   3  -1   2 1748.08   14.16
   3  -1   2 1677.53    6.77
   3  -1   3  162.49    4.73
   3  -1   4 1425.18   15.11
   3  -1   5  868.38   12.79
   3  -1   6  760.69   14.28
   3  -1   7  314.91    9.92
   3  -1   7  316.43    6.95
   3  -1   8  824.75   11.16
   3  -1   8  809.03    9.87
   3  -1   8  828.59   11.65
   3  -1   9   21.53    2.01
   3  -1   9   22.31    1.75
   3  -1   9   22.06    1.95
   3  -1  10  393.95    6.28
   3  -1  10  396.90    6.95
   3  -1  10  402.39    7.29
   3  -1  11    2.76    0.66
   3  -1  12    0.50    0.53
   3   0  -5  454.89    7.96
   3   0  -4 2793.26   18.88
   3   0  -3   42.94    2.30
   3   0  -2  274.85    5.47
   3   0  -1 1979.14   14.33
   3   0   0  522.63    7.40
   3   0   1 1675.72   13.49
   3   0   2 3863.24   17.51
   3   0   2 3830.07   21.17
   3   0   3 1049.74   11.58
   3   0   3 1066.97   10.40
   3   0   4   54.10    2.87
   3   0   4   53.16    2.59
   3   0   5    2.74    0.87
   3   0   6   11.42    2.00
   3   0   7   67.79    3.10
   3   0   7   63.11    2.84
   3   0   7   67.45    3.30
   3   0   8    7.70    1.32
   3   0   8    6.30    1.21
   3   0   9   20.48    1.88
   3   0   9   26.65    1.96
   3   0   9   23.10    1.98
   3   0  10  132.14    4.03
   3   0  11  208.51    4.00
   3   1  -6 1426.33   16.89
   3   1  -5  738.72   11.61
   3   1  -4 1689.79   16.71
   3   1  -3   80.45    3.53
   3   1  -2  443.24    7.77
   3   1  -1 3362.61   20.62
   3   1   0  328.10    6.34
   3   1   1  698.95    9.27
   3   1   2  963.25   11.38
   3   1   2  974.03   11.08
   3   1   3  578.93    9.24
   3   1   3  567.99    8.68
   3   1   4   65.01    3.14
   3   1   4   67.00    3.47
   3   1   5  381.70    8.79
   3   1   6  348.17    6.46
   3   1   6  344.11    6.36
   3   1   6  339.09    6.89
   3   1   7  622.50    9.18
   3   1   7  607.76    8.89
   3   1   7  625.18    9.85
   3   1   8 1205.29   13.12
   3   1   8 1203.82   12.74
   3   1   8 1197.92   13.88
   3   1   9   96.44    3.82
   3   1  10  174.59    4.49
   3   1  11   26.77    1.39
   3   1  11   26.62    1.67
   3   2  -6   57.68    3.87
   3   2  -3    0.49    0.75
   3   2  -2  404.10    8.28
   3   2  -1  271.67    6.52
   3   2   0 1964.08   16.97
   3   2   1  787.43   10.66
   3   2   2 2404.49   21.06
   3   2   2 2402.54   18.54
   3   2   3  184.51    6.10
   3   2   3  189.94    5.23
   3   2   4  826.75   13.95
   3   2   5  552.02    8.62
   3   2   5  572.55   12.25
   3   2   6  274.94    6.46
   3   2   7   13.65    1.66
   3   2   8  186.73    5.52
   3   2   9   60.29    2.98
   3   2   9   57.91    3.05
   3   2  10   37.63    2.01
   3   2  10   41.04    2.25
   3   3  -7  317.27   10.05
   3   3  -6 1180.83   18.78
   3   3  -3 1335.10   17.31
   3   3  -2  849.27   13.24
   3   3  -1  147.43    5.33
   3   3   0  868.39   12.44
   3   3   1   39.47    2.67
   3   3   2  620.36   12.26
   3   3   2  626.72   10.23
   3   3   3   37.03    3.20
   3   3   4   61.50    2.98
   3   3   4   56.38    4.19
   3   3   5  122.88    4.35
   3   3   5  121.45    6.39
   3   3   6  302.90    7.05
   3   3   7  424.58    8.41
   3   3   8  310.64    6.92
   3   3   9  388.21    6.91
   3   3  10  271.17    4.62
   3   4  -6  178.87    7.92
   3   4  -5  392.00   11.19
   3   4  -4   45.40    3.77
   3   4  -3   42.17    3.48
   3   4  -2   24.13    2.60
   3   4  -1   53.91    3.62
   3   4   0 1023.11   14.84
   3   4   1  150.76    5.55
   3   4   2  895.31   16.42
   3   4   3  928.57   11.56
   3   4   3  911.02   17.07
   3   4   3  920.82   10.98
   3   4   4  850.09   11.54
   3   4   4  843.53   17.23
   3   4   4  849.07   10.52
   3   4   5  331.66    7.39
   3   4   6   84.22    3.82
   3   4   7   88.35    3.80
   3   4   8   73.01    3.18
   3   4   9    4.28    0.86
   3   5 -10   23.29    1.25
   3   5  -4  510.73    8.10
   3   5  -4  522.66   13.26
   3   5  -3  574.45    8.77
   3   5  -3  584.89   13.58
   3   5  -2   75.91    3.29
   3   5  -2   74.38    4.75
   3   5  -1  272.59    6.23
   3   5  -1  258.58    8.42
   3   5   0 1071.17   12.41
   3   5   0 1147.61   16.90
   3   5   1  287.33    6.28
   3   5   1  279.12   10.07
   3   5   1  288.37    6.50
   3   5   2  415.87    7.88
   3   5   2  396.36   11.93
   3   5   2  422.30    7.89
   3   5   3  707.20   10.59
   3   5   3  699.32   10.01
   3   5   4  193.25    5.66
   3   5   4  200.41    5.21
   3   5   5    8.31    1.40
   3   5   6   52.64    2.92
   3   5   7  139.43    4.33
   3   5   8  223.97    4.76
   3   5   9  280.98    4.13
   3   6  -9   70.62    2.28
   3   6  -4  197.71    5.16
   3   6  -3  112.73    4.09
   3   6  -2   26.50    2.11
   3   6  -1   21.66    1.97
   3   6   0   27.11    2.03
   3   6   0   25.56    2.16
   3   6   1   71.81    3.29
   3   6   1   70.52    3.38
   3   6   2  495.69    8.72
   3   6   2  505.73    8.79
   3   6   3  433.64    8.20
   3   6   3  420.78    7.73
   3   6   4    4.58    1.13
   3   6   4    2.34    0.79
   3   6   5  284.97    6.32
   3   6   6   58.78    2.74
   3   6   7  436.44    6.40
   3   6   8   41.89    1.64
   3   7  -8    1.66    0.60
   3   7  -7   37.22    1.95
   3   7  -6    6.30    1.07
   3   7  -5  122.71    3.88
   3   7  -4  160.77    4.49
   3   7  -4  159.48    4.43
   3   7  -3  156.35    4.38
   3   7  -3  155.01    4.64
   3   7  -2  197.86    4.79
   3   7  -2  198.87    5.45
   3   7  -1  252.59    6.20
   3   7   0   58.52    3.05
   3   7   0   61.65    2.91
   3   7   1  171.96    4.88
   3   7   1  178.75    5.13
   3   7   2  414.39    7.54
   3   7   2  416.13    7.53
   3   7   3  145.89    4.41
   3   7   3  145.23    4.18
   3   7   4   56.82    2.68
   3   7   4   54.95    2.32
   3   7   5    0.48    0.61
   3   7   6    0.45    0.50
   3   8  -7   67.96    1.93
   3   8  -6  767.68    7.34
   3   8  -5    4.33    0.78
   3   8  -4  316.57    5.26
   3   8  -4  319.38    5.28
   3   8  -3   57.89    2.29
   3   8  -3   61.06    2.61
   3   8  -2   94.44    3.37
   3   8  -1   42.75    2.37
   3   8   0   16.23    1.55
   3   8   1  136.58    3.93
   3   8   1  120.62    3.50
   3   8   2   71.06    2.69
   3   8   2   68.37    2.63
   3   8   3   22.83    1.40
   3   8   3   22.36    1.50
   3   8   4  154.17    3.39
   3   9  -1  228.73    4.10
   3   9   0   99.00    2.68
   3   9   1  181.71    3.35
   4 -11   3   41.75    1.68
   4 -10   4   32.40    1.91
   4 -10   5   30.45    1.67
   4 -10   6    9.86    0.85
   4  -9   5  160.14    4.64
   4  -9   6   95.41    3.26
   4  -9   7   47.99    2.00
   4  -8   5    2.16    0.99
   4  -8   6    2.40    0.91
   4  -8   7   63.90    2.86
   4  -8   8   85.43    2.82
   4  -8   9   35.43    1.40
   4  -7   3  941.14   18.16
   4  -7   5   79.25    3.81
   4  -7   6  186.87    5.63
   4  -7   7  277.51    6.50
   4  -7   8  216.35    5.21
   4  -7   9  280.72    5.01
   4  -7  10   57.90    1.76
   4  -6   2  955.76   16.04
   4  -6   3 1180.97   19.17
   4  -6   4  141.71    7.23
   4  -6   5    8.30    2.38
   4  -6   5    9.42    1.46
   4  -6   6   19.13    1.96
   4  -6   7   19.13    1.91
   4  -6   8   68.01    3.21
   4  -6   9   82.47    3.14
   4  -6  10   21.50    1.41
   4  -6  10   23.02    1.38
   4  -5   0   12.82    1.59
   4  -5   1   12.34    1.72
   4  -5   2  287.50    8.23
   4  -5   3  103.04    5.43
   4  -5   4  197.47    8.01
   4  -5   5  411.53   12.24
   4  -5   5  395.50    7.84
   4  -5   6  776.02   17.81
   4  -5   6  774.17   11.25
   4  -5   7  330.91    7.44
   4  -5   8  524.65    9.09
   4  -5   9  338.08    6.73
   4  -5  10   40.19    2.05
   4  -5  10   43.73    2.17
   4  -5  11  139.72    2.91
   4  -4  -2  304.36    6.19
   4  -4  -1  552.82    9.01
   4  -4  -1  566.80    8.22
   4  -4   0 1435.24   15.41
   4  -4   1  839.72   12.57
   4  -4   2  893.42   13.70
   4  -4   2  883.54   13.69
   4  -4   3  834.95   14.39
   4  -4   4  465.91   11.58
   4  -4   5 1000.48   18.16
   4  -4   5 1010.62   11.95
   4  -4   6   51.53    4.55
   4  -4   6   53.11    2.96
   4  -4   7   25.38    2.16
   4  -4   8   14.25    1.70
   4  -4   9   27.05    2.10
   4  -4  10   39.37    2.18
   4  -4  10   38.44    2.15
   4  -4  11   41.99    1.81
   4  -4  11   38.43    1.50
   4  -3  -3  448.93    6.89
   4  -3  -2  740.08    9.38
   4  -3  -1   95.75    3.59
   4  -3   0   60.38    3.06
   4  -3   1   99.27    4.08
   4  -3   2 1425.68   16.10
   4  -3   3  126.96    5.25
   4  -3   4  436.65   10.22
   4  -3   5  816.71   15.77
   4  -3   6  104.89    6.17
   4  -3   6   97.35    3.89
   4  -3   7    1.15    1.81
   4  -3   7    2.03    0.95
   4  -3   8  736.88   11.02
   4  -3   9  203.03    5.43
   4  -3   9  212.87    5.68
   4  -3  10  411.37    7.04
   4  -3  10  403.20    6.83
   4  -3  11  331.08    5.09
   4  -3  11  321.14    4.60
   4  -2  -3  269.68    5.75
   4  -2  -2  130.13    4.08
   4  -2  -1   10.24    1.30
   4  -2   0  629.93    9.24
   4  -2   1 1058.99   12.43
   4  -2   2  410.02    8.33
   4  -2   3 1605.61   17.27
   4  -2   4  584.88   11.34
   4  -2   5 1787.95   21.18
   4  -2   6   86.01    3.60
   4  -2   6   83.28    5.38
   4  -2   7  162.21    7.76
   4  -2   7  160.35    5.18
   4  -2   8  499.98    8.71
   4  -2   8  507.04    9.18
   4  -2   9    0.92    0.80
   4  -2   9    1.01    0.93
   4  -2  10    0.19    0.67
   4  -2  10    0.43    0.65
   4  -2  11   23.30    1.34
   4  -1  -4  332.41    6.93
   4  -1  -3 2526.26   18.83
   4  -1  -2 2036.38   16.67
   4  -1  -1  792.88   10.43
   4  -1   0 1751.23   15.70
   4  -1   1  134.85    4.46
   4  -1   2   29.17    2.23
   4  -1   3  774.81   11.81
   4  -1   4   74.71    3.96
   4  -1   5    0.99    0.80
   4  -1   6   84.49    3.57
   4  -1   6   79.33    5.14
   4  -1   7  141.36    7.23
   4  -1   7  128.06    4.30
   4  -1   7  128.20    4.63
   4  -1   8  439.42    8.04
   4  -1   8  447.81    8.70
   4  -1   9  212.01    5.39
   4  -1   9  212.06    5.58
   4  -1  10  601.02    8.03
   4  -1  10  604.27    8.26
   4  -1  11  300.07    4.54
   4   0  -5  346.47    7.97
   4   0  -4 1835.45   17.75
   4   0  -3  138.54    4.77
   4   0  -2   68.20    3.33
   4   0  -1  210.76    5.72
   4   0   0  195.41    5.52
   4   0   1  126.25    4.47
   4   0   2 1878.08   17.48
   4   0   3 1679.27   17.16
   4   0   4  346.56    8.34
   4   0   5  767.59   13.04
   4   0   6  599.12    8.57
   4   0   6  614.03    9.58
   4   0   7  698.79    9.72
   4   0   7  698.04   10.72
   4   0   8   62.87    2.99
   4   0   8   65.98    3.35
   4   0   9  289.98    6.04
   4   0   9  289.14    6.47
   4   0  10   10.45    1.22
   4   0  11   23.49    1.26
   4   0  11   20.60    1.30
   4   1  -6   64.59    3.97
   4   1  -5  114.44    5.08
   4   1  -4  129.33    5.23
   4   1  -3 7479.03   38.12
   4   1  -2   82.15    3.91
   4   1  -1  623.57   10.51
   4   1   0  546.01    9.74
   4   1   1  381.68    8.18
   4   1   2 1946.86   17.73
   4   1   2 1974.76   18.83
   4   1   3 1292.79   15.45
   4   1   4  116.42    4.85
   4   1   5    0.12    0.64
   4   1   6   93.19    3.85
   4   1   7  124.03    4.56
   4   1   8  207.64    5.81
   4   1   9   58.90    2.91
   4   1  10  273.74    5.18
   4   1  10  253.36    4.92
   4   2  -6  441.42   11.31
   4   2  -5 1172.20   17.85
   4   2  -4  603.37   12.39
   4   2  -3  380.51    9.45
   4   2  -2   47.41    3.32
   4   2  -1  205.85    6.59
   4   2   0  646.59   11.44
   4   2   1  153.90    5.60
   4   2   2 1023.20   15.03
   4   2   2 1043.14   14.43
   4   2   3 1039.07   15.53
   4   2   3 1056.41   14.41
   4   2   4  132.23    4.26
   4   2   5  419.33    7.94
   4   2   6  550.89    9.45
   4   2   7  124.40    4.59
   4   2   8  263.04    6.36
   4   2   9  569.60    8.35
   4   2  10   20.94    1.37
   4   3  -6  176.53    7.80
   4   3  -5   15.28    2.45
   4   3  -4   79.87    4.98
   4   3  -3   85.86    4.95
   4   3  -2   46.37    3.54
   4   3  -1  732.15   13.40
   4   3   0  756.28   13.41
   4   3   1 1018.65   15.29
   4   3   2  348.60    9.84
   4   3   2  371.79    9.09
   4   3   3  170.38    4.90
   4   3   3  169.52    7.08
   4   3   3  171.30    4.77
   4   3   4  214.12    5.71
   4   3   4  215.17    5.40
   4   3   5  194.98    5.65
   4   3   6   24.60    2.21
   4   3   7   23.23    2.06
   4   3   8   18.55    1.73
   4   3   9   13.94    1.30
   4   3  10   45.49    1.58
   4   4  -4  391.49   11.51
   4   4  -3  936.54   11.07
   4   4  -3  951.44   17.36
   4   4  -2  422.41    7.60
   4   4  -2  418.10   11.14
   4   4  -1   50.51    2.72
   4   4  -1   47.68    3.75
   4   4   0   11.95    1.94
   4   4   0   10.07    1.34
   4   4   1  270.21    9.58
   4   4   1  268.61    6.27
   4   4   1  287.53    8.65
   4   4   2   46.04    2.64
   4   4   2   46.52    4.13
   4   4   2   41.55    2.57
   4   4   3    7.99    1.31
   4   4   3    7.16    2.27
   4   4   3    7.51    1.28
   4   4   4  239.20    6.22
   4   4   4  239.50    5.80
   4   4   5  155.92    5.05
   4   4   5  157.44    4.46
   4   4   6  143.47    4.73
   4   4   7  199.22    5.23
   4   4   8  230.02    4.96
   4   4   9  100.18    2.62
   4   5  -4    6.32    1.10
   4   5  -3   20.19    1.79
   4   5  -2  445.62    8.16
   4   5  -1   86.96    3.73
   4   5   0  387.65    7.84
   4   5   1  110.58    3.89
   4   5   1  103.36    4.10
   4   5   2  355.80    7.18
   4   5   2  361.97    7.52
   4   5   3  787.32   10.88
   4   5   3  792.99   10.79
   4   5   4  365.69    7.44
   4   5   4  373.70    7.02
   4   5   5  248.15    5.98
   4   5   6   41.01    2.35
   4   5   7   13.62    1.32
   4   5   8    7.57    0.83
   4   6  -9   15.59    0.94
   4   6  -8   79.49    2.55
   4   6  -4  306.31    6.08
   4   6  -3  505.22    8.31
   4   6  -2  497.99    8.57
   4   6  -1  109.51    4.13
   4   6   0  214.28    5.77
   4   6   1    3.52    0.92
   4   6   1    4.55    1.06
   4   6   2  178.38    4.87
   4   6   2  180.83    5.10
   4   6   3   76.77    3.22
   4   6   3   77.67    3.21
   4   6   4  335.65    6.42
   4   6   4  340.42    6.01
   4   6   5   10.11    1.20
   4   6   6   70.02    2.49
   4   6   7   11.10    0.90
   4   7  -7  321.15    4.57
   4   7  -6   72.89    2.48
   4   7  -5   41.54    2.00
   4   7  -4    1.17    0.68
   4   7  -4    1.31    0.64
   4   7  -3   21.35    1.49
   4   7  -3   22.73    1.71
   4   7  -2    0.72    0.75
   4   7  -1   16.35    1.61
   4   7   0   91.75    3.51
   4   7   1  173.40    4.64
   4   7   2  308.06    5.53
   4   7   2  314.66    5.92
   4   7   3  315.93    5.44
   4   7   3  321.47    5.46
   4   7   4  125.85    3.21
   4   7   4  124.47    2.85
   4   7   5   75.43    2.21
   4   8  -4  224.42    3.32
   4   8  -3  265.17    4.39
   4   8  -2  138.51    3.45
   4   8  -1  108.73    3.14
   4   8   0   89.11    2.82
   4   8   1    4.74    0.76
   4   8   2   18.48    1.16
   5 -11   2    0.24    0.47
   5 -11   3    0.30    0.39
   5 -10   3  186.21    4.61
   5 -10   4  106.68    3.29
   5 -10   5   72.92    2.46
   5 -10   6  221.13    3.51
   5  -9   4   13.87    1.56
   5  -9   5   18.48    1.67
   5  -9   6   78.15    2.88
   5  -9   7   87.35    2.59
   5  -8   5  143.56    4.84
   5  -8   6  152.86    4.67
   5  -8   7   43.91    2.30
   5  -8   8    8.42    0.97
   5  -7   5    9.31    1.48
   5  -7   6  305.80    7.07
   5  -7   7  108.40    3.98
   5  -7   8  186.51    4.64
   5  -7   9  297.72    4.84
   5  -6   2   25.25    2.90
   5  -6   3 1077.23   18.99
   5  -6   4  221.57    9.22
   5  -6   4  223.24    6.13
   5  -6   5  892.53   12.40
   5  -6   6   29.87    2.39
   5  -6   7   58.85    3.14
   5  -6   8   73.79    3.21
   5  -6   9   24.40    1.68
   5  -6  10   14.02    1.03
   5  -6  10   12.02    0.95
   5  -5  -1  404.27    8.96
   5  -5   0  106.90    4.98
   5  -5   1 1227.31   16.86
   5  -5   1 1246.27   17.70
   5  -5   2  699.20   13.76
   5  -5   3   53.11    4.17
   5  -5   4  222.69    8.97
   5  -5   4  226.60    5.93
   5  -5   5   -1.09    1.55
   5  -5   5    0.39    0.75
   5  -5   6    4.27    1.16
   5  -5   6    4.53    1.07
   5  -5   7    2.54    0.96
   5  -5   8  131.42    4.48
   5  -5   9  127.47    3.95
   5  -5  10   70.81    2.42
   5  -5  10   72.30    2.49
   5  -4  -2  301.54    7.15
   5  -4  -1  261.66    6.98
   5  -4   0    5.35    1.29
   5  -4   1  568.84   11.38
   5  -4   2  127.04    5.78
   5  -4   3  180.62    7.19
   5  -4   3  183.75    7.42
   5  -4   4  310.96    6.68
   5  -4   4  313.71   10.24
   5  -4   5  660.45   15.61
   5  -4   5  645.53    9.99
   5  -4   6  183.82    5.53
   5  -4   6  185.57    4.98
   5  -4   7  630.71   10.27
   5  -4   8  252.67    6.30
   5  -4   9  150.67    4.29
   5  -4   9  163.08    4.65
   5  -4  10   93.43    2.89
   5  -4  10   97.23    2.95
   5  -3  -3  755.46   10.73
   5  -3  -2  571.26    9.68
   5  -3  -1  629.17   10.53
   5  -3   0 1549.52   17.25
   5  -3   1 2328.29   22.09
   5  -3   2  149.84    5.87
   5  -3   3  665.36   13.07
   5  -3   4  344.93    9.95
   5  -3   5  684.85   10.05
   5  -3   5  667.20    9.41
   5  -3   5  691.65   15.63
   5  -3   6  236.66    9.66
   5  -3   6  243.26    6.31
   5  -3   7   18.24    1.88
   5  -3   8   91.93    3.89
   5  -3   9   43.92    2.38
   5  -3   9   43.06    2.53
   5  -3  10  142.38    3.57
   5  -3  10  148.44    3.76
   5  -2  -3 1514.24   16.27
   5  -2  -2  586.07   10.15
   5  -2  -1  671.36   10.96
   5  -2   0  115.82    4.67
   5  -2   1   64.23    3.62
   5  -2   2   14.06    1.91
   5  -2   3   61.29    3.91
   5  -2   4  268.01    8.52
   5  -2   5  253.20    8.77
   5  -2   5  264.36    6.19
   5  -2   5  245.12    5.58
   5  -2   6 2062.52   18.13
   5  -2   6 2069.74   28.02
   5  -2   7  263.54    6.67
   5  -2   8   72.38    3.21
   5  -2   8   72.21    3.51
   5  -2   9  217.69    5.03
   5  -2   9  218.71    5.42
   5  -2  10  174.39    3.83
   5  -2  10  173.47    4.11
   5  -1  -4   23.33    2.21
   5  -1  -3 1128.92   14.73
   5  -1  -2   40.75    2.85
   5  -1  -1  320.45    7.83
   5  -1   0  799.28   12.49
   5  -1   1  697.31   11.79
   5  -1   2  878.82   13.63
   5  -1   3 1582.81   19.25
   5  -1   4  846.48   14.75
   5  -1   5  153.21    6.72
   5  -1   5  152.33    4.67
   5  -1   5  150.09    4.31
   5  -1   6  540.55    9.21
   5  -1   7   81.99    3.35
   5  -1   7   82.09    3.76
   5  -1   8    1.79    0.81
   5  -1   8    0.80    0.92
   5  -1   9   34.11    1.96
   5  -1   9   34.32    2.24
   5  -1  10    1.70    0.68
   5   0  -5  384.57    9.56
   5   0  -4   14.00    1.89
   5   0  -3 1968.77   20.77
   5   0  -2 1211.41   16.09
   5   0  -1 1249.74   16.27
   5   0   0  157.15    5.81
   5   0   1  219.81    6.93
   5   0   2  123.76    5.26
   5   0   3  308.22    8.53
   5   0   4  103.08    5.20
   5   0   5   95.94    3.70
   5   0   5   94.28    3.45
   5   0   6  106.27    4.18
   5   0   7  239.62    6.30
   5   0   8  254.27    6.28
   5   0   9  653.41    9.05
   5   0  10   54.39    2.19
   5   1  -6  224.42    8.08
   5   1  -5   34.56    3.17
   5   1  -4  116.64    5.63
   5   1  -3  757.89   13.90
   5   1  -2   12.70    2.04
   5   1  -1  100.92    4.99
   5   1   0  887.03   14.55
   5   1   1   37.09    3.04
   5   1   2  285.21    8.34
   5   1   3 1546.39   19.42
   5   1   4  566.86    8.83
   5   1   4  570.49    8.55
   5   1   5  172.29    5.16
   5   1   5  168.98    4.70
   5   1   6  315.87    7.16
   5   1   7  115.98    4.39
   5   1   8   29.66    2.22
   5   1   9   30.96    1.99
   5   1  10    8.79    0.89
   5   2  -5  670.44   14.65
   5   2  -4  435.74   11.60
   5   2  -3  423.81   11.21
   5   2  -2 1391.51   19.90
   5   2  -1  780.26   14.61
   5   2   0  369.85   10.05
   5   2   1   78.12    3.23
   5   2   1   78.76    4.60
   5   2   2  305.10    6.36
   5   2   2  293.68    8.79
   5   2   3  220.71    5.53
   5   2   3  217.26    5.45
   5   2   4  248.15    6.10
   5   2   4  247.03    5.84
   5   2   5    3.77    1.08
   5   2   5    4.21    0.98
   5   2   6    1.96    0.97
   5   2   7  381.74    7.61
   5   2   8  116.02    3.90
   5   2   9  330.71    5.53
   5   3  -4  916.11   17.80
   5   3  -3   43.83    2.46
   5   3  -3   44.80    3.95
   5   3  -2   98.05    3.70
   5   3  -2  104.47    5.85
   5   3  -1    2.25    1.26
   5   3  -1    4.94    1.11
   5   3   0    1.37    1.25
   5   3   0    2.42    0.91
   5   3   1  401.72   11.23
   5   3   1  411.20    7.73
   5   3   1  401.95   10.82
   5   3   2  162.38    4.92
   5   3   3  473.94    8.31
   5   3   3  469.95    8.36
   5   3   4  408.89    7.96
   5   3   4  402.73    7.62
   5   3   5  456.10    8.41
   5   3   5  453.92    7.68
   5   3   6  230.96    5.89
   5   3   7  355.11    6.82
   5   3   8   39.76    2.09
   5   3   9  138.75    3.00
   5   4  -3   95.15    3.69
   5   4  -2  541.62    8.96
   5   4  -1  340.23    7.26
   5   4   0  221.48    5.95
   5   4   1 1134.68   13.38
   5   4   2  312.96    6.99
   5   4   3  129.02    4.33
   5   4   3  132.25    4.48
   5   4   4    4.20    1.07
   5   4   4    3.01    0.86
   5   4   5   13.93    1.55
   5   4   5   16.00    1.44
   5   4   6   40.12    2.31
   5   4   7    6.55    0.99
   5   4   8   91.69    2.52
   5   5  -9  179.41    3.11
   5   5  -3  122.54    4.08
   5   5  -2  495.97    8.50
   5   5  -1   18.83    1.84
   5   5   0   10.10    1.49
   5   5   1  626.53    9.80
   5   5   2    3.12    1.01
   5   5   3   38.16    2.24
   5   5   3   39.90    2.40
   5   5   4  193.87    4.79
   5   5   4  206.88    4.82
   5   5   5  249.69    5.12
   5   5   5  245.99    4.44
   5   5   6  164.94    3.77
   5   5   7   89.79    2.32
   5   6  -8   22.07    1.08
   5   6  -7    5.51    0.77
   5   6  -4   37.15    1.92
   5   6  -3   97.83    3.05
   5   6  -3   94.19    3.32
   5   6  -2   78.88    3.22
   5   6  -1  115.34    3.97
   5   6   0  251.24    5.82
   5   6   1  619.05    8.90
   5   6   2  114.16    3.69
   5   6   3  475.90    6.46
   5   6   3  479.60    6.91
   5   6   4   63.90    2.28
   5   6   4   70.50    2.33
   5   6   5  194.57    3.48
   5   7  -5  135.10    2.66
   5   7  -4   52.71    1.72
   5   7  -3  192.14    3.88
   5   7  -2  126.63    3.42
   5   7  -1   82.91    2.87
   5   7   0   56.35    2.38
   5   7   1    8.06    0.97
   5   7   2   38.83    1.76
   5   7   3    6.35    0.69
   6 -11   0  266.76    3.83
   6 -11   1    2.45    0.54
   6 -11   2  113.97    2.50
   6 -10   2   98.60    3.25
   6 -10   3   87.07    2.95
   6 -10   4  143.17    3.50
   6 -10   5    4.87    0.70
   6 -10   5    5.40    0.64
   6  -9   3   27.20    2.06
   6  -9   4   89.13    3.41
   6  -9   5   61.31    2.64
   6  -9   6    0.32    0.53
   6  -9   6    0.57    0.42
   6  -9   7    0.81    0.43
   6  -8   4  252.56    6.28
   6  -8   5   39.49    2.46
   6  -8   6   58.36    2.73
   6  -8   6   53.20    2.33
   6  -8   7   45.48    2.15
   6  -8   8   98.21    2.53
   6  -7   4  574.37    9.81
   6  -7   5  436.72    8.39
   6  -7   6   15.21    1.63
   6  -7   6   16.37    1.52
   6  -7   7   36.46    2.22
   6  -7   8   11.82    1.17
   6  -7   9   15.18    0.97
   6  -7   9   15.93    1.01
   6  -6   3  148.82    4.93
   6  -6   4   19.10    1.93
   6  -6   5   34.22    2.48
   6  -6   6  106.70    4.15
   6  -6   6  110.91    3.86
   6  -6   7  304.71    6.57
   6  -6   8  197.64    4.80
   6  -6   9  249.17    4.31
   6  -6   9  265.49    4.64
   6  -5  -1  149.34    6.17
   6  -5   0  300.65    9.09
   6  -5   1  251.08    8.71
   6  -5   1  263.08    8.62
   6  -5   2  848.64   16.73
   6  -5   2  842.16   16.39
   6  -5   3  375.96   11.66
   6  -5   3  387.67    7.59
   6  -5   4 1109.81   13.21
   6  -5   5  293.42    6.96
   6  -5   5  293.64    6.72
   6  -5   6  386.28    7.92
   6  -5   6  379.46    7.17
   6  -5   7  135.69    4.56
   6  -5   8    3.04    0.95
   6  -5   9    9.92    1.03
   6  -5   9    9.65    1.12
   6  -5  10    3.54    0.57
   6  -4  -2  573.39   11.24
   6  -4  -1  546.62   11.45
   6  -4   0  456.77   10.82
   6  -4   1   55.69    4.07
   6  -4   2  392.81   11.04
   6  -4   3  181.06    7.82
   6  -4   3  182.34    5.04
   6  -4   4    3.99    1.78
   6  -4   4    5.99    1.86
   6  -4   4    3.02    0.99
   6  -4   4    2.53    0.80
   6  -4   5  335.79    7.32
   6  -4   5  333.30    7.08
   6  -4   6   86.73    3.81
   6  -4   6   90.68    3.53
   6  -4   7   74.80    3.49
   6  -4   8   87.11    3.50
   6  -4   9  194.20    4.17
   6  -4   9  207.65    4.68
   6  -4  10  233.05    3.46
   6  -4  10  267.04    4.14
   6  -3  -2   23.11    2.38
   6  -3  -1   17.13    2.12
   6  -3   0  174.79    6.67
   6  -3   1  549.66   12.21
   6  -3   2 1171.13   18.29
   6  -3   3  521.70   12.72
   6  -3   3  536.79    8.80
   6  -3   4  443.52   12.29
   6  -3   4  443.14    7.88
   6  -3   4  435.42    8.03
   6  -3   5   46.63    2.76
   6  -3   5   54.30    2.85
   6  -3   6  864.01   11.86
   6  -3   6  866.09   10.56
   6  -3   7  160.63    5.06
   6  -3   8   41.93    2.24
   6  -3   8   41.70    2.49
   6  -3   9   75.40    2.57
   6  -3   9   78.90    2.96
   6  -3  10    0.93    0.51
   6  -2  -3  300.94    8.34
   6  -2  -2  676.46   12.53
   6  -2  -1  917.96   14.73
   6  -2   0  253.71    7.91
   6  -2   1  994.83   16.04
   6  -2   2  514.22   12.04
   6  -2   3  336.97   10.14
   6  -2   3  337.41    6.84
   6  -2   4   81.71    5.28
   6  -2   4   79.17    3.35
   6  -2   4   80.93    3.44
   6  -2   5    5.93    1.17
   6  -2   5    4.97    1.04
   6  -2   6  555.10    9.34
   6  -2   6  535.61    8.20
   6  -2   7   57.77    3.07
   6  -2   8   26.60    1.74
   6  -2   8   32.00    2.23
   6  -2   9  398.34    6.57
   6  -2  10   59.94    2.08
   6  -1  -4 1220.41   17.60
   6  -1  -3   27.52    2.74
   6  -1  -2  567.05   11.99
   6  -1  -1  151.89    6.30
   6  -1   0   13.72    2.10
   6  -1   1    3.09    1.28
   6  -1   2   37.94    3.39
   6  -1   2   44.09    2.45
   6  -1   3  266.20    9.00
   6  -1   3  272.25    6.08
   6  -1   4  918.02   17.05
   6  -1   4  920.56   11.31
   6  -1   5   33.99    2.31
   6  -1   5   33.51    2.21
   6  -1   6  390.38    7.71
   6  -1   6  399.37    7.02
   6  -1   7  398.70    7.87
   6  -1   8  261.62    6.00
   6  -1   9  232.45    4.94
   6  -1  10    1.90    0.55
   6   0  -5    1.49    1.30
   6   0  -4  226.41    8.15
   6   0  -3   90.45    5.20
   6   0  -2 1050.93   17.18
   6   0  -1  579.16   12.71
   6   0   0  257.72    8.57
   6   0   1  792.59   10.08
   6   0   1  793.52   14.96
   6   0   2  414.37    7.41
   6   0   2  424.91   11.08
   6   0   3  246.98    8.70
   6   0   3  251.36    5.90
   6   0   4 1046.68   18.09
   6   0   4 1027.29   12.07
   6   0   4 1059.47   12.17
   6   0   5  567.93    9.29
   6   0   5  575.16    8.85
   6   0   6    3.07    1.04
   6   0   7    0.93    0.86
   6   0   8    0.53    0.75
   6   0   9  108.87    3.23
   6   1  -4  242.96    8.98
   6   1  -3   49.97    4.11
   6   1  -2  912.12   10.64
   6   1  -2  924.44   17.06
   6   1  -1  314.62    6.39
   6   1  -1  306.18    9.81
   6   1   0  648.76    9.31
   6   1   0  676.21   14.43
   6   1   1   -0.03    1.27
   6   1   1    0.72    0.70
   6   1   2   12.06    2.06
   6   1   2   12.06    1.47
   6   1   3  357.78   10.50
   6   1   3  370.57    7.34
   6   1   4  431.02    7.90
   6   1   4  427.94    7.86
   6   1   5   17.23    1.75
   6   1   5   16.35    1.60
   6   1   6  211.17    5.66
   6   1   7  177.06    4.95
   6   1   8  372.48    6.45
   6   1   9  103.47    2.82
   6   2  -3   14.77    2.63
   6   2  -3   17.72    1.67
   6   2  -2  235.63    5.72
   6   2  -2  221.78    8.85
   6   2  -1   10.78    2.11
   6   2  -1   11.84    1.52
   6   2   0  317.81    6.83
   6   2   0  300.22    9.98
   6   2   1 1362.76   14.23
   6   2   1 1321.23   20.74
   6   2   2  175.82    5.18
   6   2   3  319.56    6.95
   6   2   4  797.22   10.70
   6   2   4  785.85   10.66
   6   2   5   68.33    3.21
   6   2   5   66.62    3.00
   6   2   6   27.93    2.06
   6   2   7  158.57    4.34
   6   2   8    0.95    0.60
   6   3  -3  753.69   10.06
   6   3  -2  402.31    7.70
   6   3  -1  193.07    5.49
   6   3   0  259.04    6.42
   6   3   1    4.67    1.14
   6   3   2   33.10    2.36
   6   3   3    6.88    1.27
   6   3   4    9.54    1.30
   6   3   4    8.54    1.27
   6   3   5   68.86    3.00
   6   3   5   74.94    2.94
   6   3   6   49.39    2.41
   6   3   7   40.98    1.95
   6   3   8  124.04    2.63
   6   4  -3   76.83    3.20
   6   4  -2   11.36    1.46
   6   4  -1    1.13    0.85
   6   4   0   97.10    3.94
   6   4   1   68.50    3.32
   6   4   2  242.96    5.97
   6   4   3  227.38    5.52
   6   4   4  168.79    4.23
   6   4   4  173.05    4.45
   6   4   5  163.56    3.93
   6   4   5  162.96    3.67
   6   4   6  201.63    3.89
   6   5  -8   58.85    1.69
   6   5  -3  135.01    3.86
   6   5  -2  151.61    4.36
   6   5  -1  121.30    4.04
   6   5   0  226.41    5.52
   6   5   1  174.78    4.78
   6   5   2  252.24    5.46
   6   5   3   17.12    1.41
   6   5   4    5.94    0.80
   6   6  -5  130.17    2.58
   6   6  -3    1.18    0.58
   6   6  -2   37.11    1.89
   6   6  -1    0.06    0.58
   6   6   0   91.70    3.03
   6   6   1   20.32    1.46
   6   6   2  422.94    5.80
   6   6   3   68.11    2.06
   6   7  -1  152.29    2.85
   6   7   0   39.70    1.48
   7 -10  -1  104.42    2.60
   7 -10  -1  106.66    2.59
   7 -10   0   95.77    2.69
   7 -10   1   78.33    2.52
   7 -10   2   18.99    1.30
   7 -10   3   40.88    1.74
   7 -10   3   41.15    1.81
   7 -10   4   48.88    1.71
   7 -10   4   49.71    1.74
   7  -9   1    2.69    0.82
   7  -9   2  194.02    4.76
   7  -9   3   67.28    2.76
   7  -9   4  158.45    3.96
   7  -9   4  157.10    3.98
   7  -9   5  344.29    5.28
   7  -9   5  345.06    5.10
   7  -9   6   39.74    1.58
   7  -8   2   76.52    3.31
   7  -8   3   50.86    2.70
   7  -8   4    5.44    1.09
   7  -8   5   52.74    2.50
   7  -8   5   48.44    2.34
   7  -8   6   15.92    1.32
   7  -8   6   14.66    1.13
   7  -8   7   15.64    1.11
   7  -7   2   39.61    2.50
   7  -7   3   53.87    2.90
   7  -7   4  781.06   10.60
   7  -7   4  777.07   10.76
   7  -7   5  454.87    7.79
   7  -7   5  443.99    7.60
   7  -7   6   57.55    2.66
   7  -7   6   59.14    2.45
   7  -7   7  102.99    3.13
   7  -7   8   45.76    1.63
   7  -7   8   52.43    1.84
   7  -6   2  121.17    4.19
   7  -6   3  798.26   10.87
   7  -6   4    2.65    0.95
   7  -6   4    1.74    0.85
   7  -6   5   94.16    3.73
   7  -6   5   93.13    3.67
   7  -6   6   79.06    3.27
   7  -6   6   78.64    3.02
   7  -6   7   18.61    1.55
   7  -6   8   36.43    1.67
   7  -6   8   40.83    1.88
   7  -5  -1  379.32    7.47
   7  -5   0  151.27    7.10
   7  -5   1    3.58    1.75
   7  -5   2   63.10    3.29
   7  -5   3    7.03    1.21
   7  -5   3    1.20    0.81
   7  -5   4  488.67    8.47
   7  -5   4  477.18    8.80
   7  -5   5   14.70    1.62
   7  -5   5   16.68    1.69
   7  -5   6  105.34    3.88
   7  -5   6  109.05    3.65
   7  -5   7  140.91    4.16
   7  -5   8   95.13    2.71
   7  -5   8  107.95    3.21
   7  -5   9   27.67    1.38
   7  -4  -1  186.32    7.49
   7  -4  -1  175.41    5.01
   7  -4   0  446.12   11.88
   7  -4   0  443.82    8.18
   7  -4   1  239.31    9.02
   7  -4   1  237.07    6.10
   7  -4   2  406.22   12.11
   7  -4   2  398.77    8.01
   7  -4   3  642.93   10.24
   7  -4   4  126.92    4.29
   7  -4   4  123.76    4.49
   7  -4   5  515.94    8.69
   7  -4   5  495.87    8.56
   7  -4   6  153.46    4.67
   7  -4   6  152.79    4.35
   7  -4   7   57.03    2.73
   7  -4   8   36.55    1.71
   7  -4   8   38.27    2.02
   7  -4   9   14.35    1.10
   7  -3  -2 1043.29   17.19
   7  -3  -2 1040.18   11.36
   7  -3  -1  721.29   14.68
   7  -3  -1  692.61    9.72
   7  -3   0    4.51    1.68
   7  -3   0    6.38    1.12
   7  -3   1  274.99    9.55
   7  -3   1  276.95    6.48
   7  -3   2   11.13    2.09
   7  -3   2    3.97    1.09
   7  -3   3  175.89    5.29
   7  -3   4    4.28    1.03
   7  -3   5   44.19    2.56
   7  -3   5   44.56    2.61
   7  -3   6  479.05    8.14
   7  -3   6  482.52    7.67
   7  -3   7  124.96    3.98
   7  -3   8   86.55    3.07
   7  -3   9  123.21    3.04
   7  -2  -3   60.66    4.25
   7  -2  -2    3.98    1.23
   7  -2  -2    7.24    1.24
   7  -2  -1  262.94    5.91
   7  -2  -1  255.91    8.83
   7  -2   0  232.70    8.51
   7  -2   0  246.78    5.90
   7  -2   1   10.30    2.09
   7  -2   1   11.63    1.44
   7  -2   2  707.76   15.71
   7  -2   2  688.34   10.20
   7  -2   3  346.46    7.31
   7  -2   4 1820.80   16.58
   7  -2   5  248.33    5.75
   7  -2   5  265.01    6.15
   7  -2   6   30.71    2.11
   7  -2   6   31.42    2.02
   7  -2   7  279.30    6.04
   7  -2   8   92.56    3.16
   7  -2   9   10.05    0.96
   7  -1  -3  283.92    9.49
   7  -1  -2  765.89    9.81
   7  -1  -2  798.99   15.92
   7  -1  -1  910.07   11.06
   7  -1  -1  925.59   17.22
   7  -1   0  679.95    9.77
   7  -1   0  661.93   14.66
   7  -1   1  292.66    9.80
   7  -1   1  299.08    6.61
   7  -1   2  106.78    6.19
   7  -1   2  107.96    4.09
   7  -1   3   34.20    2.39
   7  -1   4   36.64    2.31
   7  -1   4   33.81    2.36
   7  -1   5  227.76    5.74
   7  -1   5  229.07    5.64
   7  -1   6   16.53    1.64
   7  -1   6   16.33    1.47
   7  -1   7   19.43    1.69
   7  -1   8   26.39    1.69
   7  -1   9  117.81    2.72
   7   0  -2   44.71    2.50
   7   0  -2   41.86    3.91
   7   0  -1    4.64    1.59
   7   0  -1    4.77    1.00
   7   0   0    5.11    1.64
   7   0   0    8.63    1.30
   7   0   1  165.05    5.00
   7   0   1  154.38    7.34
   7   0   2  132.97    4.52
   7   0   3  168.63    5.09
   7   0   4  517.92    8.31
   7   0   4  512.40    8.71
   7   0   5  643.89    9.35
   7   0   5  643.99    9.24
   7   0   6   91.03    3.48
   7   0   6   88.96    3.10
   7   0   7  205.80    4.82
   7   0   8   22.62    1.45
   7   1  -2  864.08   10.94
   7   1  -1  277.38    6.39
   7   1   0  382.90    7.63
   7   1   1  200.13    5.57
   7   1   2  214.75    5.79
   7   1   3   79.33    3.54
   7   1   4   12.07    1.50
   7   1   5  274.00    5.87
   7   1   5  279.20    5.89
   7   1   6   23.02    1.70
   7   1   6   24.34    1.57
   7   1   7   16.95    1.37
   7   1   8   78.55    2.22
   7   2  -3  389.47    7.09
   7   2  -2  132.94    4.39
   7   2  -1    0.78    0.82
   7   2   0  178.09    5.29
   7   2   1   14.09    1.63
   7   2   2   30.18    2.25
   7   2   3   67.74    3.20
   7   2   4  228.18    5.50
   7   2   5  464.38    6.91
   7   2   5  464.36    7.01
   7   2   6   37.51    1.88
   7   2   7   90.32    2.41
   7   3  -3  175.37    4.58
   7   3  -2   44.63    2.54
   7   3  -1  210.95    5.56
   7   3   0  206.79    5.58
   7   3   1  193.36    5.38
   7   3   2  455.62    8.00
   7   3   3  276.25    5.95
   7   3   4  106.81    3.44
   7   3   5  316.30    4.92
   7   4  -3  596.58    7.58
   7   4  -2  163.21    4.36
   7   4  -1  357.94    6.71
   7   4   0   63.99    2.92
   7   4   1    0.19    0.70
   7   4   2   35.63    2.11
   7   4   3    2.27    0.73
   7   4   4    8.33    0.89
   7   5  -3   20.47    1.23
   7   5  -2    9.33    1.00
   7   5  -1  240.16    4.68
   7   5   0   70.70    2.60
   7   5   1   19.91    1.40
   7   5   2  315.74    4.90
   7   5   3  120.90    2.66
   7   6   0   82.52    2.05
   8 -10   1  142.19    2.81
   8 -10   2   92.20    2.27
   8  -9  -1   48.45    1.98
   8  -9   0  172.97    4.02
   8  -9   1   33.54    1.88
   8  -9   2    0.60    0.55
   8  -9   2    0.91    0.62
   8  -9   3    2.82    0.65
   8  -9   3    2.90    0.72
   8  -9   4    2.52    0.57
   8  -9   4    4.17    0.67
   8  -8  -1   92.19    3.25
   8  -8   0   34.06    2.16
   8  -8   1  111.48    3.87
   8  -8   2   72.43    2.69
   8  -8   2   75.30    3.17
   8  -8   3  137.85    3.63
   8  -8   3  145.76    4.19
   8  -8   4   39.18    1.91
   8  -8   4   48.14    2.27
   8  -8   5   90.50    2.58
   8  -8   5   98.18    2.77
   8  -7  -1  582.83    8.82
   8  -7   0  251.85    6.07
   8  -7   1  102.66    3.98
   8  -7   2   36.77    2.44
   8  -7   3   83.87    3.06
   8  -7   3   80.24    3.43
   8  -7   4   14.55    1.36
   8  -7   4   13.39    1.43
   8  -7   5   31.06    1.78
   8  -7   5   36.49    1.96
   8  -7   6   33.20    1.63
   8  -7   6   29.55    1.46
   8  -6  -1   30.17    2.18
   8  -6   0   98.76    3.96
   8  -6   1   80.59    3.65
   8  -6   2   16.47    1.77
   8  -6   3   59.56    3.09
   8  -6   4  191.33    4.66
   8  -6   4  196.30    5.24
   8  -6   5  542.96    7.55
   8  -6   5  562.17    7.98
   8  -6   6  345.99    5.55
   8  -6   6  351.45    5.39
   8  -6   7   70.41    2.18
   8  -5  -2  622.54    8.94
   8  -5  -1  353.95    7.19
   8  -5   0  469.37    8.56
   8  -5   1  298.90    6.97
   8  -5   2  139.83    4.80
   8  -5   3  153.18    4.94
   8  -5   4  179.65    5.10
   8  -5   5    3.64    0.85
   8  -5   5    4.47    0.95
   8  -5   6    0.25    0.55
   8  -5   6    0.54    0.55
   8  -5   7    1.45    0.57
   8  -5   8   58.05    1.80
   8  -4  -2  360.42    6.84
   8  -4  -1   33.15    2.25
   8  -4   0   63.47    3.17
   8  -4   1    1.53    0.89
   8  -4   2   35.61    2.50
   8  -4   3  846.79   11.49
   8  -4   4   85.99    3.60
   8  -4   5  256.33    5.71
   8  -4   6  130.05    3.55
   8  -4   6  133.89    3.62
   8  -4   7  198.36    4.18
   8  -4   8  223.86    3.67
   8  -3  -2   91.56    3.48
   8  -3  -1  336.25    6.93
   8  -3   0  613.88    9.64
   8  -3   1  380.03    7.72
   8  -3   2  168.40    5.20
   8  -3   3  196.76    5.55
   8  -3   4  213.33    5.58
   8  -3   5   65.15    2.92
   8  -3   6    1.41    0.73
   8  -3   6    0.46    0.52
   8  -3   7   19.12    1.41
   8  -3   8    0.57    0.44
   8  -2  -2  142.51    4.32
   8  -2  -1  565.27    8.94
   8  -2   0  118.42    4.26
   8  -2   1   12.95    1.59
   8  -2   2  131.12    4.56
   8  -2   3   85.06    3.66
   8  -2   4  236.42    5.81
   8  -2   5  420.85    6.87
   8  -2   5  419.39    7.19
   8  -2   6   92.00    3.11
   8  -2   6   91.04    2.96
   8  -2   7  364.39    5.49
   8  -2   8   78.17    2.10
   8  -1  -2   56.18    2.78
   8  -1  -1  176.66    5.05
   8  -1   0  283.36    6.53
   8  -1   1  180.64    5.29
   8  -1   2  409.73    7.94
   8  -1   3   64.82    3.19
   8  -1   4   99.88    3.76
   8  -1   5  821.21    9.81
   8  -1   6   98.86    3.05
   8  -1   6   98.61    2.94
   8  -1   7  113.84    2.86
   8   0  -2   80.06    3.33
   8   0  -1  483.02    8.35
   8   0   0  501.27    8.69
   8   0   1  217.03    5.80
   8   0   2   76.30    3.46
   8   0   3   27.35    2.10
   8   0   4   76.44    3.21
   8   0   5  149.58    4.03
   8   0   6    0.35    0.54
   8   0   6    1.03    0.51
   8   1  -2   30.01    2.07
   8   1  -1  108.85    3.99
   8   1   0  112.82    4.14
   8   1   1   98.97    3.90
   8   1   2  236.86    5.86
   8   1   3  180.44    4.94
   8   1   4  214.09    5.01
   8   1   5  365.45    5.70
   8   2  -2  300.69    6.03
   8   2  -1 1017.24   11.58
   8   2   0   83.59    3.45
   8   2   1  170.07    4.82
   8   2   2   66.20    2.99
   8   2   3    5.99    1.03
   8   2   4    2.42    0.69
   8   2   5    7.52    0.79
   8   3  -2  190.98    4.35
   8   3  -1    0.76    0.67
   8   3   0   55.53    2.58
   8   3   1    1.95    0.80
   8   3   2   90.17    3.06
   8   3   3  219.64    4.34
   8   3   4   45.45    1.69
   8   4  -2  174.10    3.42
   8   4  -1   47.36    1.95
   8   4   0   75.81    2.50
   8   4   1  182.94    3.73
   8   4   2   30.89    1.47
   9  -9   1  130.40    2.81
   9  -9   2   84.63    2.24
   9  -8  -1   17.40    1.21
   9  -8   0   28.39    1.65
   9  -8   1   22.53    1.55
   9  -8   2   28.85    1.67
   9  -8   3   18.00    1.30
   9  -8   4   21.68    1.23
   9  -7  -1   46.32    2.19
   9  -7   0  387.86    6.58
   9  -7   1  134.67    4.01
   9  -7   2  262.50    5.48
   9  -7   3  179.82    4.31
   9  -7   4   80.49    2.66
   9  -7   5   22.31    1.23
   9  -6  -1  528.45    7.78
   9  -6   0  111.17    3.78
   9  -6   1  345.32    6.73
   9  -6   2    0.77    0.73
   9  -6   3   76.82    3.05
   9  -6   4    2.24    0.69
   9  -6   5  121.58    3.07
   9  -5  -1    1.59    0.78
   9  -5   0   96.76    3.66
   9  -5   1   27.07    2.05
   9  -5   2  469.06    7.93
   9  -5   3   17.58    1.63
   9  -5   4  163.02    4.25
   9  -5   5  114.35    3.17
   9  -5   6  142.05    2.78
   9  -4  -1  469.22    7.74
   9  -4   0  148.93    4.58
   9  -4   1  147.84    4.60
   9  -4   2   97.29    3.72
   9  -4   3   12.40    1.45
   9  -4   4   75.10    2.97
   9  -4   5    5.59    0.88
   9  -4   6    0.67    0.47
   9  -3  -2   29.36    1.91
   9  -3  -1  112.49    3.86
   9  -3   0    0.56    0.71
   9  -3   1    7.02    1.21
   9  -3   2   48.11    2.67
   9  -3   3  104.40    3.74
   9  -3   4  662.96    8.68
   9  -3   5  121.87    3.36
   9  -3   6   93.98    2.37
   9  -2  -2  477.88    7.39
   9  -2  -1   32.49    2.13
   9  -2   0  574.91    8.87
   9  -2   1  244.24    5.86
   9  -2   2  891.44   11.02
   9  -2   3   11.93    1.41
   9  -2   4   23.21    1.71
   9  -2   5   22.06    1.47
   9  -1  -2  137.03    3.96
   9  -1  -1    4.28    1.00
   9  -1   0    9.04    1.30
   9  -1   1    3.50    0.97
   9  -1   2   26.94    2.02
   9  -1   3  750.76    9.52
   9  -1   4   58.27    2.51
   9  -1   5   36.79    1.74
   9   0  -2   53.53    2.45
   9   0  -1  266.89    5.70
   9   0   0  427.66    7.38
   9   0   1  214.64    5.24
   9   0   2  127.74    3.98
   9   0   3  207.68    4.77
   9   0   4   29.64    1.70
   9   0   5    7.65    0.79
   9   1  -2  184.02    4.18
   9   1  -1   33.67    1.98
   9   1   0   75.26    2.97
   9   1   1   98.97    3.37
   9   1   2    1.02    0.71
   9   1   3    0.22    0.56
   9   1   4    1.79    0.55
   9   2  -2    0.92    0.57
   9   2  -1   20.74    1.42
   9   2   0   81.60    2.76
   9   2   1  113.65    3.19
   9   2   2   69.58    2.38
   9   2   3  221.43    3.72
   9   3  -1  243.38    3.61
   9   3   0  178.48    3.24
   9   3   1   70.03    2.00
  10  -7   0   20.60    1.25
  10  -7   1    3.10    0.64
  10  -7   2    3.66    0.67
  10  -7   3    4.41    0.64
  10  -6  -1  107.25    2.79
  10  -6   0   75.04    2.55
  10  -6   1   89.26    2.83
  10  -6   2  276.44    4.83
  10  -6   3   89.83    2.62
  10  -6   4  110.71    2.53
  10  -5  -1  170.70    3.82
  10  -5   0   51.28    2.26
  10  -5   1   51.95    2.32
  10  -5   2   67.82    2.56
  10  -5   3    7.20    0.91
  10  -5   4  119.18    2.82
  10  -4  -1  249.38    4.77
  10  -4   0   67.04    2.64
  10  -4   1  293.22    5.49
  10  -4   2  133.44    3.64
  10  -4   3  106.52    3.07
  10  -4   4  125.54    2.99
  10  -3  -1  407.41    6.16
  10  -3   0  146.68    3.90
  10  -3   1   70.91    2.76
  10  -3   2    0.04    0.58
  10  -3   3   11.51    1.13
  10  -3   4   62.77    2.12
  10  -2  -1   81.53    2.77
  10  -2   0   86.79    2.98
  10  -2   1   81.05    2.90
  10  -2   2   10.76    1.14
  10  -2   3  193.32    4.01
  10  -2   4  172.31    3.31
  10  -1  -1  140.83    3.47
  10  -1   0  157.49    3.82
  10  -1   1   54.46    2.29
  10  -1   2   52.87    2.18
  10  -1   3  480.61    5.86
  10   0  -1   16.96    1.18
  10   0   0   21.89    1.39
  10   0   1   27.72    1.54
  10   0   2    7.10    0.85
  10   0   3   16.50    1.00
  10   1   0  191.80    3.27
  10   1   1  250.40    3.70
  11  -4   1    1.05    0.47


TITL peifa13CuLT in P1
REM P1 (#1 in standard setting)
CELL 1.54184   8.986519   9.159854  10.299844  92.9733  93.6283 109.1629
ZERR    2.00   0.000446   0.000485   0.000525   0.0042   0.0041   0.0046
LATT -1
SFAC C H N O Br
UNIT 56.00 48.00 2.00 2.00 2.00
TREF
HKLF 4
END
_computing_structure_solution     'SHELXT 2014/4 (Sheldrick, 2014)'
;
_shelx_hkl_checksum              54865
_olex2_date_sample_data_collection 2017-08-03
_olex2_submission_special_instructions 'No special instructions were received'
_oxdiff_exptl_absorpt_empirical_details
;
Empirical correction (ABSPACK) includes:
- Absorption correction using spherical harmonics
- Frame scaling
;
_oxdiff_exptl_absorpt_empirical_full_max 1.335
_oxdiff_exptl_absorpt_empirical_full_min 0.839
loop_
_space_group_symop_operation_xyz
'x, y, z'
'-x, -y, -z'
loop_
_atom_site_label
_atom_site_type_symbol
_atom_site_fract_x
_atom_site_fract_y
_atom_site_fract_z
_atom_site_U_iso_or_equiv
_atom_site_adp_type
_atom_site_occupancy
_atom_site_site_symmetry_order
_atom_site_calc_flag
_atom_site_refinement_flags_posn
Br1 Br -0.17341(2) 0.72041(2) 0.53966(2) 0.02316(7) Uani 1 1 d .
O1 O 0.59341(13) 0.04377(13) 0.33915(11) 0.0254(2) Uani 1 1 d .
N1 N 0.07350(17) 0.85684(16) -0.15071(13) 0.0251(3) Uani 1 1 d .
C1 C 0.10811(18) 0.79019(17) -0.06921(15) 0.0184(3) Uani 1 1 d .
C2 C 0.15260(17) 0.70613(16) 0.03293(14) 0.0163(3) Uani 1 1 d .
C3 C 0.08037(16) 0.71208(17) 0.15764(14) 0.0161(3) Uani 1 1 d .
C4 C 0.03873(18) 0.84086(17) 0.19658(15) 0.0186(3) Uani 1 1 d .
H4 H 0.0629 0.9274 0.1450 0.022 Uiso 1 1 calc R
C5 C -0.03749(18) 0.84479(18) 0.30953(15) 0.0200(3) Uani 1 1 d .
H5 H -0.0641 0.9334 0.3360 0.024 Uiso 1 1 calc R
C6 C -0.07362(17) 0.71695(18) 0.38249(14) 0.0190(3) Uani 1 1 d .
C7 C -0.03649(17) 0.58639(17) 0.34525(15) 0.0185(3) Uani 1 1 d .
H7 H -0.0638 0.4992 0.3960 0.022 Uiso 1 1 calc R
C8 C 0.04079(17) 0.58416(17) 0.23338(14) 0.0168(3) Uani 1 1 d .
H8 H 0.0672 0.4952 0.2078 0.020 Uiso 1 1 calc R
C9 C 0.24769(17) 0.62529(17) -0.00078(14) 0.0174(3) Uani 1 1 d .
H9 H 0.2704 0.6245 -0.0896 0.021 Uiso 1 1 calc R
C10 C 0.32021(16) 0.53834(17) 0.08419(14) 0.0169(3) Uani 1 1 d .
C11 C 0.40144(17) 0.60478(17) 0.20742(15) 0.0186(3) Uani 1 1 d .
H11 H 0.4050 0.7056 0.2380 0.022 Uiso 1 1 calc R
C12 C 0.47460(17) 0.52475(18) 0.28236(15) 0.0191(3) Uani 1 1 d .
H12 H 0.5304 0.5718 0.3634 0.023 Uiso 1 1 calc R
C13 C 0.46810(17) 0.37233(18) 0.24042(14) 0.0172(3) Uani 1 1 d .
C14 C 0.54195(17) 0.28668(18) 0.31791(15) 0.0196(3) Uani 1 1 d .
H14 H 0.5983 0.3314 0.3994 0.023 Uiso 1 1 calc R
C15 C 0.53097(17) 0.13914(18) 0.27389(16) 0.0203(3) Uani 1 1 d .
C16 C 0.44920(18) 0.07231(18) 0.15134(16) 0.0219(3) Uani 1 1 d .
H16 H 0.4429 -0.0298 0.1220 0.026 Uiso 1 1 calc R
C17 C 0.37945(18) 0.15354(18) 0.07519(15) 0.0207(3) Uani 1 1 d .
H17 H 0.3259 0.1079 -0.0070 0.025 Uiso 1 1 calc R
C18 C 0.38642(16) 0.30550(17) 0.11792(15) 0.0174(3) Uani 1 1 d .
C19 C 0.31661(16) 0.39294(17) 0.04039(14) 0.0174(3) Uani 1 1 d .
H19 H 0.2664 0.3502 -0.0435 0.021 Uiso 1 1 calc R
C20 C 0.6953(2) 0.1096(2) 0.45440(18) 0.0303(4) Uani 1 1 d .
H20A H 0.7843 0.1980 0.4329 0.045 Uiso 1 1 calc GR
H20B H 0.7353 0.0314 0.4905 0.045 Uiso 1 1 calc GR
H20C H 0.6363 0.1446 0.5189 0.045 Uiso 1 1 calc GR
loop_
_atom_site_aniso_label
_atom_site_aniso_U_11
_atom_site_aniso_U_22
_atom_site_aniso_U_33
_atom_site_aniso_U_23
_atom_site_aniso_U_13
_atom_site_aniso_U_12
Br1 0.02336(10) 0.02959(11) 0.01662(10) 0.00151(6) 0.00572(6) 0.00822(7)
O1 0.0257(6) 0.0240(6) 0.0296(6) 0.0082(5) 0.0015(5) 0.0116(5)
N1 0.0334(8) 0.0230(7) 0.0214(7) 0.0049(5) 0.0006(6) 0.0127(6)
C1 0.0187(7) 0.0174(7) 0.0184(7) -0.0003(6) 0.0034(6) 0.0051(6)
C2 0.0149(7) 0.0147(7) 0.0177(7) 0.0027(5) 0.0002(5) 0.0027(5)
C3 0.0127(7) 0.0176(7) 0.0175(7) 0.0018(5) 0.0000(5) 0.0045(5)
C4 0.0193(7) 0.0167(7) 0.0197(7) 0.0036(6) 0.0015(6) 0.0057(6)
C5 0.0203(7) 0.0190(7) 0.0220(8) -0.0001(6) 0.0018(6) 0.0084(6)
C6 0.0165(7) 0.0242(8) 0.0153(7) 0.0005(6) 0.0009(6) 0.0057(6)
C7 0.0167(7) 0.0192(7) 0.0181(7) 0.0050(6) 0.0000(6) 0.0034(6)
C8 0.0150(7) 0.0165(7) 0.0189(7) 0.0015(5) -0.0002(6) 0.0055(5)
C9 0.0161(7) 0.0180(7) 0.0167(7) 0.0015(5) 0.0026(6) 0.0036(6)
C10 0.0123(7) 0.0206(7) 0.0184(7) 0.0044(6) 0.0046(5) 0.0053(6)
C11 0.0174(7) 0.0183(7) 0.0207(7) 0.0003(6) 0.0034(6) 0.0068(6)
C12 0.0162(7) 0.0234(8) 0.0171(7) -0.0004(6) 0.0004(6) 0.0060(6)
C13 0.0130(7) 0.0209(7) 0.0178(7) 0.0035(6) 0.0050(5) 0.0051(6)
C14 0.0160(7) 0.0245(8) 0.0190(7) 0.0038(6) 0.0037(6) 0.0070(6)
C15 0.0160(7) 0.0223(8) 0.0247(8) 0.0093(6) 0.0067(6) 0.0073(6)
C16 0.0192(7) 0.0173(7) 0.0292(8) 0.0031(6) 0.0044(6) 0.0053(6)
C17 0.0181(7) 0.0201(7) 0.0221(8) 0.0002(6) 0.0014(6) 0.0039(6)
C18 0.0116(7) 0.0188(7) 0.0208(7) 0.0029(6) 0.0048(6) 0.0030(6)
C19 0.0125(7) 0.0215(7) 0.0171(7) 0.0009(6) 0.0022(5) 0.0042(6)
C20 0.0301(9) 0.0328(9) 0.0307(9) 0.0102(7) -0.0019(7) 0.0139(7)
loop_
_atom_type_symbol
_atom_type_description
_atom_type_scat_dispersion_real
_atom_type_scat_dispersion_imag
_atom_type_scat_source
C C 0.0181 0.0091 'International Tables Vol C Tables 4.2.6.8 and 6.1.1.4'
H H 0.0000 0.0000 'International Tables Vol C Tables 4.2.6.8 and 6.1.1.4'
Br Br -0.6763 1.2805 'International Tables Vol C Tables 4.2.6.8 and 6.1.1.4'
N N 0.0311 0.0180 'International Tables Vol C Tables 4.2.6.8 and 6.1.1.4'
O O 0.0492 0.0322 'International Tables Vol C Tables 4.2.6.8 and 6.1.1.4'
loop_
_geom_angle_atom_site_label_1
_geom_angle_atom_site_label_2
_geom_angle_atom_site_label_3
_geom_angle
C15 O1 C20 117.11(13)
N1 C1 C2 179.60(17)
C1 C2 C3 115.94(13)
C9 C2 C1 115.40(13)
C9 C2 C3 128.54(14)
C4 C3 C2 120.40(13)
C4 C3 C8 118.63(14)
C8 C3 C2 120.77(13)
C3 C4 H4 119.4
C5 C4 C3 121.23(14)
C5 C4 H4 119.4
C4 C5 H5 120.7
C6 C5 C4 118.58(14)
C6 C5 H5 120.7
C5 C6 Br1 119.64(12)
C5 C6 C7 121.59(14)
C7 C6 Br1 118.75(11)
C6 C7 H7 120.3
C8 C7 C6 119.41(14)
C8 C7 H7 120.3
C3 C8 H8 119.7
C7 C8 C3 120.55(14)
C7 C8 H8 119.7
C2 C9 H9 116.2
C2 C9 C10 127.52(14)
C10 C9 H9 116.2
C11 C10 C9 121.51(13)
C19 C10 C9 119.12(13)
C19 C10 C11 119.28(13)
C10 C11 H11 119.7
C12 C11 C10 120.63(14)
C12 C11 H11 119.7
C11 C12 H12 119.6
C11 C12 C13 120.88(14)
C13 C12 H12 119.6
C12 C13 C14 121.62(14)
C18 C13 C12 118.58(14)
C18 C13 C14 119.80(14)
C13 C14 H14 120.3
C15 C14 C13 119.49(14)
C15 C14 H14 120.3
O1 C15 C14 125.47(15)
O1 C15 C16 113.84(14)
C14 C15 C16 120.68(14)
C15 C16 H16 119.7
C17 C16 C15 120.56(14)
C17 C16 H16 119.7
C16 C17 H17 119.8
C16 C17 C18 120.48(14)
C18 C17 H17 119.8
C17 C18 C13 118.98(14)
C19 C18 C13 119.34(14)
C19 C18 C17 121.67(14)
C10 C19 C18 121.21(14)
C10 C19 H19 119.4
C18 C19 H19 119.4
O1 C20 H20A 109.5
O1 C20 H20B 109.5
O1 C20 H20C 109.5
H20A C20 H20B 109.5
H20A C20 H20C 109.5
H20B C20 H20C 109.5
loop_
_geom_bond_atom_site_label_1
_geom_bond_atom_site_label_2
_geom_bond_distance
Br1 C6 1.9033(15)
O1 C15 1.3656(19)
O1 C20 1.427(2)
N1 C1 1.148(2)
C1 C2 1.447(2)
C2 C3 1.482(2)
C2 C9 1.351(2)
C3 C4 1.397(2)
C3 C8 1.402(2)
C4 H4 0.9500
C4 C5 1.392(2)
C5 H5 0.9500
C5 C6 1.383(2)
C6 C7 1.385(2)
C7 H7 0.9500
C7 C8 1.385(2)
C8 H8 0.9500
C9 H9 0.9500
C9 C10 1.472(2)
C10 C11 1.423(2)
C10 C19 1.373(2)
C11 H11 0.9500
C11 C12 1.370(2)
C12 H12 0.9500
C12 C13 1.421(2)
C13 C14 1.426(2)
C13 C18 1.419(2)
C14 H14 0.9500
C14 C15 1.373(2)
C15 C16 1.420(2)
C16 H16 0.9500
C16 C17 1.366(2)
C17 H17 0.9500
C17 C18 1.418(2)
C18 C19 1.416(2)
C19 H19 0.9500
C20 H20A 0.9800
C20 H20B 0.9800
C20 H20C 0.9800
loop_
_geom_torsion_atom_site_label_1
_geom_torsion_atom_site_label_2
_geom_torsion_atom_site_label_3
_geom_torsion_atom_site_label_4
_geom_torsion
Br1 C6 C7 C8 -177.91(11)
O1 C15 C16 C17 179.57(14)
C1 C2 C3 C4 -29.35(19)
C1 C2 C3 C8 145.43(14)
C1 C2 C9 C10 175.50(14)
C2 C3 C4 C5 176.25(13)
C2 C3 C8 C7 -175.57(13)
C2 C9 C10 C11 -48.3(2)
C2 C9 C10 C19 135.27(16)
C3 C2 C9 C10 -8.7(3)
C3 C4 C5 C6 -0.9(2)
C4 C3 C8 C7 -0.7(2)
C4 C5 C6 Br1 178.55(11)
C4 C5 C6 C7 -0.3(2)
C5 C6 C7 C8 1.0(2)
C6 C7 C8 C3 -0.5(2)
C8 C3 C4 C5 1.4(2)
C9 C2 C3 C4 154.82(15)
C9 C2 C3 C8 -30.4(2)
C9 C10 C11 C12 -176.88(14)
C9 C10 C19 C18 179.24(13)
C10 C11 C12 C13 -1.5(2)
C11 C10 C19 C18 2.7(2)
C11 C12 C13 C14 -179.23(14)
C11 C12 C13 C18 1.1(2)
C12 C13 C14 C15 179.30(14)
C12 C13 C18 C17 179.93(13)
C12 C13 C18 C19 1.1(2)
C13 C14 C15 O1 -178.75(13)
C13 C14 C15 C16 1.0(2)
C13 C18 C19 C10 -3.0(2)
C14 C13 C18 C17 0.3(2)
C14 C13 C18 C19 -178.55(13)
C14 C15 C16 C17 -0.2(2)
C15 C16 C17 C18 -0.6(2)
C16 C17 C18 C13 0.5(2)
C16 C17 C18 C19 179.33(14)
C17 C18 C19 C10 178.17(14)
C18 C13 C14 C15 -1.0(2)
C19 C10 C11 C12 -0.4(2)
C20 O1 C15 C14 -8.5(2)
C20 O1 C15 C16 171.70(14)
