#------------------------------------------------------------------------------
#$Date: 2019-11-02 07:18:17 +0200 (Sat, 02 Nov 2019) $
#$Revision: 220919 $
#$URL: file:///home/coder/svn-repositories/cod/cif/4/12/77/4127748.cif $
#------------------------------------------------------------------------------
#
# This file is available in the Crystallography Open Database (COD),
# http://www.crystallography.net/
#
# All data on this site have been placed in the public domain by the
# contributors.
#
data_4127748
loop_
_publ_author_name
'Gautier, Romain'
'Paris, Michael'
'Massuyeau, Florian'
_publ_section_title
;
 Exciton Self-Trapping in Hybrid Lead Halides: Role of Halogen.
;
_journal_issue                   32
_journal_name_full               'Journal of the American Chemical Society'
_journal_page_first              12619
_journal_page_last               12623
_journal_paper_doi               10.1021/jacs.9b04262
_journal_volume                  141
_journal_year                    2019
_chemical_formula_moiety         '1.54(Cl1.3 Pb0.33)'
_chemical_formula_sum            'Cl2 Pb0.5'
_chemical_formula_weight         174.49
_space_group_crystal_system      tetragonal
_space_group_IT_number           113
_space_group_name_Hall           'P -4 2ab'
_space_group_name_H-M_alt        'P -4 21 m'
_symmetry_space_group_name_Hall  'P -4 2ab'
_symmetry_space_group_name_H-M   'P -4 21 m'
_atom_sites_solution_primary     dual
_audit_creation_date             2018-03-15
_audit_creation_method
;
Olex2 1.2
(compiled 2017.08.10 svn.r3458 for OlexSys, GUI svn.r5381)
;
_cell_angle_alpha                90
_cell_angle_beta                 90
_cell_angle_gamma                90
_cell_formula_units_Z            8
_cell_length_a                   15.541(2)
_cell_length_b                   15.541(2)
_cell_length_c                   5.7821(12)
_cell_measurement_temperature    273(2)
_cell_volume                     1396.5(4)
_computing_molecular_graphics    'Olex2 (Dolomanov et al., 2009)'
_computing_publication_material  'Olex2 (Dolomanov et al., 2009)'
_computing_structure_refinement  'ShelXL (Sheldrick, 2015)'
_computing_structure_solution    'ShelXT (Sheldrick, 2015)'
_diffrn_ambient_temperature      273.15
_diffrn_measured_fraction_theta_full 0.972
_diffrn_measured_fraction_theta_max 0.973
_diffrn_measurement_device_type  'Bruker APEX-II CCD'
_diffrn_measurement_method       '\w scans'
_diffrn_radiation_monochromator  graphite
_diffrn_radiation_type           MoK\a
_diffrn_radiation_wavelength     0.71073
_diffrn_reflns_av_R_equivalents  0.1230
_diffrn_reflns_av_unetI/netI     0.0527
_diffrn_reflns_Laue_measured_fraction_full 0.972
_diffrn_reflns_Laue_measured_fraction_max 0.973
_diffrn_reflns_limit_h_max       19
_diffrn_reflns_limit_h_min       -19
_diffrn_reflns_limit_k_max       19
_diffrn_reflns_limit_k_min       -19
_diffrn_reflns_limit_l_max       7
_diffrn_reflns_limit_l_min       -7
_diffrn_reflns_number            15226
_diffrn_reflns_point_group_measured_fraction_full 0.974
_diffrn_reflns_point_group_measured_fraction_max 0.976
_diffrn_reflns_theta_full        25.242
_diffrn_reflns_theta_max         26.434
_diffrn_reflns_theta_min         6.462
_diffrn_standards_number         0
_exptl_absorpt_coefficient_mu    12.778
_exptl_absorpt_correction_T_max  0.7454
_exptl_absorpt_correction_T_min  0.3823
_exptl_absorpt_correction_type   multi-scan
_exptl_absorpt_process_details
;
SADABS-2008/1 (Bruker,2008) was used for absorption correction.
wR2(int) was 0.1557 before and 0.1152 after correction.
The Ratio of minimum to maximum transmission is 0.5129.
The \l/2 correction factor is 0.0015.
;
_exptl_crystal_colour            'clear light colourless'
_exptl_crystal_colour_lustre     clear
_exptl_crystal_colour_modifier   light
_exptl_crystal_colour_primary    colourless
_exptl_crystal_density_diffrn    1.660
_exptl_crystal_description       needle
_exptl_crystal_F_000             600
_refine_diff_density_max         4.506
_refine_diff_density_min         -2.900
_refine_diff_density_rms         0.472
_refine_ls_abs_structure_details
;
 Flack x determined using 379 quotients [(I+)-(I-)]/[(I+)+(I-)]
 (Parsons, Flack and Wagner, Acta Cryst. B69 (2013) 249-259).
;
_refine_ls_abs_structure_Flack   0.43(7)
_refine_ls_extinction_method     none
_refine_ls_goodness_of_fit_ref   1.199
_refine_ls_hydrogen_treatment    undef
_refine_ls_matrix_type           full
_refine_ls_number_parameters     56
_refine_ls_number_reflns         1485
_refine_ls_number_restraints     0
_refine_ls_restrained_S_all      1.199
_refine_ls_R_factor_all          0.1308
_refine_ls_R_factor_gt           0.1064
_refine_ls_shift/su_max          0.299
_refine_ls_shift/su_mean         0.050
_refine_ls_structure_factor_coef Fsqd
_refine_ls_weighting_details
'w=1/[\s^2^(Fo^2^)+(0.1385P)^2^+35.9475P] where P=(Fo^2^+2Fc^2^)/3'
_refine_ls_weighting_scheme      calc
_refine_ls_wR_factor_gt          0.2611
_refine_ls_wR_factor_ref         0.2916
_reflns_Friedel_coverage         0.711
_reflns_Friedel_fraction_full    0.978
_reflns_Friedel_fraction_max     0.979
_reflns_number_gt                1164
_reflns_number_total             1485
_reflns_threshold_expression     'I > 2\s(I)'
_iucr_refine_instructions_details
;
TITL aa_a.res in P-42(1)m
 aa.res created by SHELXL-2016/4 at 11:02:48 on 15-Mar-2018
REM Old TITL aa in P4(2)2(1)2
REM SHELXT solution in P-42(1)m
REM R1 0.386, Rweak 0.024, Alpha 0.067, Orientation as input
REM Flack x = 0.465 ( 0.018 ) from Parsons' quotients
REM Formula found by SHELXT: Br9 Pb
CELL 0.71073 15.541 15.541 5.7821 90 90 90
ZERR 8 0.002 0.002 0.0012 0 0 0
LATT -1
SYMM -X,-Y,+Z
SYMM +Y,-X,-Z
SYMM -Y,+X,-Z
SYMM 0.5-X,0.5+Y,-Z
SYMM 0.5+X,0.5-Y,-Z
SYMM 0.5-Y,0.5-X,+Z
SYMM 0.5+Y,0.5+X,+Z
SFAC Cl Pb
UNIT 16 4

L.S. 4 0 0
PLAN  20
TEMP 0
list 4
fmap 2 53
acta
REM <olex2.extras>
REM <HklSrc "%.\\aa.hkl">
REM </olex2.extras>

WGHT    0.138500   35.947521
FVAR       0.20872   0.65036
PART 1
PB01  2    0.099699    0.400301    0.568196    20.50000    0.03232    0.03232 =
         0.01994   -0.00091    0.00091    0.00208

PART 0
PART 2
PB02  2    0.099930    0.400070    0.293845   -20.50000    0.03814    0.03814 =
         0.05563   -0.00149    0.00149    0.00401

PART 0
PART 1
CL03  1    0.095399    0.595399    0.565533    20.50000    0.04018    0.04018 =
         0.02014   -0.00071   -0.00071   -0.00521
CL04  1    0.276135    0.403335    0.566941    21.00000    0.03261    0.04975 =
         0.03682    0.00142    0.00361    0.00235
CL05  1    0.094572    0.405428    0.068787    20.50000    0.03703    0.03703 =
         0.02386   -0.01198    0.01198   -0.00608

PART 0
PART 2
CL06  1    0.097418    0.402582    0.805434   -20.50000    0.04948    0.04948 =
         0.02974   -0.01347    0.01347    0.03042
CL07  1    0.097156    0.597156    0.283679   -20.50000    0.04784    0.04784 =
         0.09474   -0.00544   -0.00544    0.01419
CL08  1    0.275980    0.401773    0.290744   -21.00000    0.04683    0.06568 =
         0.07153    0.00392    0.00435   -0.00312
HKLF 4




REM  aa_a.res in P-42(1)m
REM R1 =  0.1064 for    1164 Fo > 4sig(Fo)  and  0.1308 for all    1485 data
REM     56 parameters refined using      0 restraints

END  
     
WGHT      0.1730     38.7043 

REM Highest difference peak  4.506,  deepest hole -2.900,  1-sigma level  0.472
Q1    1   0.1010  0.3990  0.9311  10.50000  0.05    4.51
Q2    1   0.2564  0.2436  0.0714  10.50000  0.05    3.60
Q3    1   0.2582  0.5786  0.0659  11.00000  0.05    3.43
Q4    1   0.3011  0.3228  0.0755  11.00000  0.05    2.57
Q5    1   0.0871  0.4129  0.4222  10.50000  0.05    2.48
Q6    1   0.1655  0.6173  0.0680  11.00000  0.05    2.37
Q7    1   0.4026  0.3165  0.0776  11.00000  0.05    2.15
Q8    1   0.4444  0.4016  0.0650  11.00000  0.05    2.01
Q9    1   0.1872  0.7083  0.0746  11.00000  0.05    1.88
Q10   1   0.2569  0.2431  0.7658  10.50000  0.05    1.81
Q11   1   0.2583  0.5811  0.7907  11.00000  0.05    1.68
Q12   1   0.2765  0.4031  0.0362  11.00000  0.05    1.53
Q13   1   0.4011  0.2943  0.4247  11.00000  0.05    1.22
Q14   1   0.3020  0.3268  0.7865  11.00000  0.05    1.21
Q15   1   0.0908  0.5908  0.0456  10.50000  0.05    1.14
Q16   1   0.1860  0.7143  0.7822  11.00000  0.05    1.08
Q17   1   0.1186  0.6659  0.8007  11.00000  0.05    1.05
Q18   1   0.0999  0.4951  0.5456  11.00000  0.05    1.03
Q19   1   0.4023  0.3165  0.7442  11.00000  0.05    1.02
Q20   1   0.2766  0.3950  0.8443  11.00000  0.05    1.01

  REM The information below was added by Olex2.
  REM
  REM R1 = 0.1064 for 1164 Fo > 4sig(Fo) and 0.1308 for all 15284 data
  REM n/a parameters refined using n/a restraints
  REM Highest difference peak 4.51, deepest hole -2.90
  REM Mean Shift 0.05, Max Shift 0.299.

  REM +++ Tabular Listing of Refinement Information +++
  REM R1_all = 0.1308
  REM R1_gt = 0.1064
  REM wR_ref = 0.2916
  REM GOOF = 1.199
  REM Shift_max = 0.299
  REM Shift_mean = 0.05
  REM Reflections_all = 15284
  REM Reflections_gt = 1164
  REM Parameters = n/a
  REM Hole = -2.90
  REM Peak = 4.51
  REM Flack = 0.43(7)

  
;
_cod_data_source_file            ja9b04262_si_001.cif
_cod_data_source_block           aa
_cod_original_cell_volume        1396.5(5)
_cod_original_formula_sum        'Cl2 Pb0.50'
_cod_database_code               4127748
_shelx_shelxl_version_number     2016/4
_shelx_space_group_comment
;
The symmetry employed for this shelxl refinement is uniquely defined
by the following loop, which should always be used as a source of
symmetry information in preference to the above space-group names.
They are only intended as comments.
;
_olex2_refinement_description
;
1. Others
 Sof(Cl08)=1-FVAR(1)
 Sof(Pb02)=Sof(Cl06)=Sof(Cl07)=0.5*(1-FVAR(2))
 Sof(Pb01)=Sof(Cl03)=Sof(Cl05)=0.5*FVAR(2)
 Sof(Cl04)=FVAR(1)
;
_olex2_submission_special_instructions 'No special instructions were received'
loop_
_space_group_symop_operation_xyz
'x, y, z'
'-x, -y, z'
'y, -x, -z'
'-y, x, -z'
'-x+1/2, y+1/2, -z'
'x+1/2, -y+1/2, -z'
'-y+1/2, -x+1/2, z'
'y+1/2, x+1/2, z'
loop_
_atom_site_label
_atom_site_type_symbol
_atom_site_fract_x
_atom_site_fract_y
_atom_site_fract_z
_atom_site_U_iso_or_equiv
_atom_site_adp_type
_atom_site_occupancy
_atom_site_site_symmetry_order
_atom_site_calc_flag
_atom_site_refinement_flags_posn
_atom_site_refinement_flags_adp
_atom_site_refinement_flags_occupancy
_atom_site_disorder_assembly
_atom_site_disorder_group
Pb01 Pb 0.09970(10) 0.40030(10) 0.5682(6) 0.0282(7) Uani 0.650(5) 2 d S T P A 1
Pb02 Pb 0.0999(3) 0.4001(3) 0.2938(14) 0.044(2) Uani 0.350(5) 2 d S T P A 2
Cl03 Cl 0.0954(6) 0.5954(6) 0.566(3) 0.033(3) Uani 0.650(5) 2 d S T P A 1
Cl04 Cl 0.2761(6) 0.4033(8) 0.567(3) 0.040(2) Uani 0.650(5) 1 d . . . A 1
Cl05 Cl 0.0946(6) 0.4054(6) 0.069(3) 0.033(3) Uani 0.650(5) 2 d S T P A 1
Cl06 Cl 0.0974(16) 0.4026(16) 0.805(6) 0.043(9) Uani 0.350(5) 2 d S T P A 2
Cl07 Cl 0.097(2) 0.597(2) 0.284(9) 0.063(11) Uani 0.350(5) 2 d S T P A 2
Cl08 Cl 0.2760(19) 0.402(2) 0.291(6) 0.061(8) Uani 0.350(5) 1 d . . . A 2
loop_
_atom_site_aniso_label
_atom_site_aniso_U_11
_atom_site_aniso_U_22
_atom_site_aniso_U_33
_atom_site_aniso_U_23
_atom_site_aniso_U_13
_atom_site_aniso_U_12
Pb01 0.0323(8) 0.0323(8) 0.0199(10) -0.0009(11) 0.0009(11) 0.0021(10)
Pb02 0.038(2) 0.038(2) 0.056(4) -0.001(2) 0.001(2) 0.004(4)
Cl03 0.040(4) 0.040(4) 0.020(5) -0.001(7) -0.001(7) -0.005(7)
Cl04 0.033(4) 0.050(5) 0.037(5) 0.001(9) 0.004(6) 0.002(4)
Cl05 0.037(4) 0.037(4) 0.024(5) -0.012(6) 0.012(6) -0.006(5)
Cl06 0.049(14) 0.049(14) 0.030(15) -0.013(9) 0.013(9) 0.03(2)
Cl07 0.048(14) 0.048(14) 0.09(3) -0.005(17) -0.005(17) 0.01(2)
Cl08 0.047(15) 0.066(18) 0.072(19) 0.004(18) 0.004(14) -0.003(14)
loop_
_atom_type_symbol
_atom_type_description
_atom_type_scat_dispersion_real
_atom_type_scat_dispersion_imag
_atom_type_scat_source
Cl Cl 0.1484 0.1585 'International Tables Vol C Tables 4.2.6.8 and 6.1.1.4'
Pb Pb -3.3944 10.1111 'International Tables Vol C Tables 4.2.6.8 and 6.1.1.4'
loop_
_geom_angle_atom_site_label_1
_geom_angle_atom_site_label_2
_geom_angle_atom_site_label_3
_geom_angle
_geom_angle_site_symmetry_1
_geom_angle_site_symmetry_3
PB01a CL05a Pb01 175.5(6) . 1_554
PB01a CL03a Pb01 92.5(4) . 2_565
PB02b CL07b Pb02 91.6(12) 2_565 .
PB02b CL06b Pb02 177.8(16) 1_556 .
CL05a PB01a Cl03 88.1(4) . .
CL05a PB01a Cl03 88.1(4) . 2_565
CL04a PB01a Cl03 177.7(3) . 2_565
CL05a PB01a Cl03 88.7(4) 1_556 .
CL05a PB01a Cl03 88.7(4) 1_556 2_565
CL04a PB01a Cl03 90.3(3) . .
CL04a PB01a Cl03 177.7(3) 7 .
CL03a PB01a Cl03 87.5(4) 2_565 .
CL04a PB01a Cl03 90.3(3) 7 2_565
CL04a PB01a Cl04 92.0(5) . 7
CL04a PB01a Cl05 91.4(4) . .
CL04a PB01a Cl05 91.7(4) . 1_556
CL04a PB01a Cl05 91.4(4) 7 .
CL05a PB01a Cl05 175.5(6) . 1_556
CL04a PB01a Cl05 91.7(4) 7 1_556
CL08b PB02b Cl06 91.1(9) . .
CL06b PB02b Cl06 177.8(16) 1_554 .
CL08b PB02b Cl06 91.2(9) 7 .
CL08b PB02b Cl06 90.4(10) . 1_554
CL08b PB02b Cl06 90.5(10) 7 1_554
CL08b PB02b Cl07 178.0(11) . 2_565
CL08b PB02b Cl07 90.2(11) . .
CL07b PB02b Cl07 88.4(12) 2_565 .
CL06b PB02b Cl07 90.3(12) . .
CL08b PB02b Cl07 178.0(11) 7 .
CL06b PB02b Cl07 88.1(12) 1_554 .
CL06b PB02b Cl07 90.3(12) . 2_565
CL06b PB02b Cl07 88.1(12) 1_554 2_565
CL08b PB02b Cl07 90.3(11) 7 2_565
CL08b PB02b Cl08 91.1(16) 7 .
loop_
_geom_bond_atom_site_label_1
_geom_bond_atom_site_label_2
_geom_bond_distance
_geom_bond_site_symmetry_2
CL05a Pb01 2.90(2) 1_554
CL03a Pb01 3.033(9) 2_565
CL06b Pb02 2.82(4) 1_556
CL07b Pb02 3.06(3) 2_565
PB01a Cl03 3.033(9) .
PB01a Cl03 3.033(9) 2_565
PB01a Cl04 2.742(9) .
PB01a Cl04 2.743(9) 7
PB01a Cl05 2.90(2) 1_556
PB01a Cl05 2.89(2) .
PB02b Cl06 2.96(4) .
PB02b Cl06 2.82(4) 1_554
PB02b Cl07 3.06(3) .
PB02b Cl07 3.06(3) 2_565
PB02b Cl08 2.74(3) 7
PB02b Cl08 2.74(3) .
loop_
_refln_index_h
_refln_index_k
_refln_index_l
_refln_F_squared_meas
_refln_F_squared_sigma
-4 -4 0 1543.45 131.39
4 4 0 1559.24 130.99
4 4 0 1563.44 132.89
-4 -4 0 1523.85 130.89
-4 -4 0 1482.15 124.79
4 4 0 1442.16 126.89
-4 -4 0 1332.17 129.09
-5 -5 0 7033.5 606.14
5 5 0 7427.66 602.54
-5 -5 0 5889.41 606.44
-5 -5 0 7564.04 646.94
-5 -5 0 6865.21 636.84
5 5 0 6951.1 626.04
-6 -6 0 2761.92 244.98
6 6 0 2689.73 240.78
6 6 0 2738.93 236.08
-6 -6 0 2781.92 249.48
-6 -6 0 2802.02 229.78
-6 -6 0 2457.65 234.48
6 6 0 2685.63 230.08
-7 -7 0 -16.9 11.7
7 7 0 1.3 3.6
-7 -7 0 -0.6 1.3
-7 -7 0 -3.8 5.6
7 7 0 -7.3 7
7 7 0 -0.8 2.3
-7 -7 0 2.8 1.6
8 8 0 4.5 4.2
8 8 0 13.8 8.1
-8 -8 0 -3 5
-8 -8 0 2.9 1.8
8 8 0 3.4 2.1
9 9 0 188.38 17.3
9 9 0 197.38 19.1
-9 -9 0 221.18 18.8
-9 -9 0 177.98 17.5
10 10 0 833.12 68.89
-10 -10 0 681.33 66.09
11 11 0 371.66 33.2
-11 -11 0 349.57 33.6
11 11 0 391.56 35.8
-11 -11 0 406.96 35.4
-12 -12 0 4.2 3.5
12 12 0 -1.2 6.4
-12 -12 0 -5.6 4.2
12 12 0 -3.8 3.2
13 13 0 -5.4 3.6
-13 -13 0 -7.2 3.9
13 13 0 5 6.7
3 4 0 1661.73 128.49
-4 -3 0 1527.15 127.99
3 4 0 1379.26 129.89
-4 -3 0 1398.56 122.09
3 4 0 1466.85 124.09
-3 -4 0 1527.85 128.29
-3 -4 0 1381.56 126.29
-3 -4 0 1340.37 127.79
4 3 0 1617.34 124.09
-3 -4 0 1307.17 121.79
-5 -4 0 1.8 1.7
4 5 0 5.3 6.5
-5 -4 0 5.2 1.7
4 5 0 4 2.9
-5 -4 0 4.6 4.9
4 5 0 1 5.1
5 4 0 5.8 5.6
5 4 0 -1.1 5.8
5 4 0 2.6 2.8
-4 -5 0 2.1 4.1
-4 -5 0 4.2 2.2
-4 -5 0 -4.7 7
5 6 0 40.4 4.3
5 6 0 35.9 8.8
-6 -5 0 36.6 8.9
-6 -5 0 15.5 9.7
5 6 0 40.1 4.7
-6 -5 0 32.9 7.9
-5 -6 0 31.5 4.1
6 5 0 29.8 4
-5 -6 0 17.5 10
-5 -6 0 34.3 5.8
-5 -6 0 35.1 5.3
6 5 0 30.4 4.7
6 5 0 25.5 7.2
6 7 0 789.02 72.59
-7 -6 0 806.62 73.09
-7 -6 0 772.42 65.19
6 7 0 790.22 66.39
-7 -6 0 806.02 67.59
6 7 0 663.73 69.59
7 6 0 693.33 69.59
-6 -7 0 789.12 65.19
-6 -7 0 792.82 68.19
7 6 0 813.02 72.09
-6 -7 0 793.22 73.39
-6 -7 0 816.02 67.59
-8 -7 0 901.51 88.99
7 8 0 952.9 89.19
-8 -7 0 983 80.29
7 8 0 872.51 85.89
-7 -8 0 937.31 84.09
-7 -8 0 939.21 90.29
8 7 0 996 81.89
-7 -8 0 1069.99 83.39
8 7 0 926.41 88.29
8 7 0 989.4 86.09
-7 -8 0 932.11 80.29
8 9 0 183.28 17.3
8 9 0 195.48 17.1
-9 -8 0 184.88 17
-9 -8 0 163.58 15.9
9 8 0 177.38 17.3
-8 -9 0 178.98 16.9
9 8 0 170.48 15.8
-8 -9 0 156.98 15.9
-8 -9 0 180.48 18
-10 -9 0 0.9 3.3
-10 -9 0 6.3 3
9 10 0 -0.6 4.7
9 10 0 6.2 2.9
10 9 0 11.2 5.1
-9 -10 0 9.1 3.2
10 9 0 4.6 4.4
-9 -10 0 2.6 2.9
-11 -10 0 3.8 3.8
10 11 0 5.7 3.2
-11 -10 0 7.5 3.5
10 11 0 -4.1 5
11 10 0 4.7 5.8
-10 -11 0 7.4 3.2
11 10 0 -0.9 7.1
-10 -11 0 -0.9 5.8
11 12 0 91.09 11.9
-12 -11 0 98.49 10
12 11 0 95.19 10.8
12 11 0 106.79 12.3
-11 -12 0 90.59 9.6
-11 -12 0 99.99 10
-13 -12 0 171.58 16.1
12 13 0 176.98 18.3
12 13 0 184.98 18.7
13 12 0 161.18 18.2
-12 -13 0 168.18 16.1
13 12 0 146.79 19.3
-12 -13 0 161.08 15.5
-14 -13 0 11.5 4.6
13 14 0 23.7 5.6
-13 -14 0 21.8 3.8
14 13 0 19 6.4
-5 -3 0 503.35 44.1
3 5 0 439.16 40.3
3 5 0 457.35 42.4
3 5 0 494.35 44.5
-5 -3 0 490.45 39.6
-3 -5 0 398.06 39.5
-3 -5 0 494.55 45.1
5 3 0 505.25 40.3
-3 -5 0 410.76 40.9
-3 -5 0 466.95 41.4
5 3 0 534.55 44
-6 -4 0 1460.45 131.99
4 6 0 1510.75 129.29
-6 -4 0 1538.05 129.29
4 6 0 1692.93 135.59
-6 -4 0 1646.04 126.49
4 6 0 1397.86 133.09
-4 -6 0 1347.37 125.29
6 4 0 1417.46 132.99
-4 -6 0 1458.95 130.69
-4 -6 0 1396.46 130.69
-4 -6 0 1663.13 147.89
6 4 0 1445.06 126.99
6 4 0 1510.05 131.69
5 7 0 189.08 19.1
-7 -5 0 178.18 18
5 7 0 211.68 30.8
5 7 0 204.18 20.5
-7 -5 0 191.68 23.6
-7 -5 0 235.18 19
7 5 0 214.58 17.8
-5 -7 0 188.18 17.5
7 5 0 195.08 22.2
-5 -7 0 210.98 18.2
-5 -7 0 211.48 61.69
-5 -7 0 204.88 18.3
7 5 0 220.28 19.2
6 8 0 161.38 15.1
-8 -6 0 145.29 13.8
-8 -6 0 121.79 25.3
6 8 0 174.58 20.4
6 8 0 163.38 13.8
-8 -6 0 154.88 14.6
-6 -8 0 153.98 14.3
-6 -8 0 155.58 13.9
-6 -8 0 160.68 22.7
8 6 0 154.28 15.6
8 6 0 143.39 13.7
-6 -8 0 172.88 14.2
8 6 0 122.19 18.8
7 9 0 50.99 5.8
-9 -7 0 39.4 5.3
7 9 0 48.7 5.3
7 9 0 30.3 13.7
-9 -7 0 51.59 6
-7 -9 0 52.29 5.2
9 7 0 39.6 5.8
9 7 0 35.9 5.3
-7 -9 0 42.6 4.7
9 7 0 18.9 11.8
-7 -9 0 49.8 4.9
-10 -8 0 65.19 6.6
8 10 0 60.89 7.5
-10 -8 0 63.19 6.3
8 10 0 49.99 10.6
-8 -10 0 62.09 6.5
10 8 0 55.79 6.5
10 8 0 56.49 8.1
-8 -10 0 69.39 6.7
-8 -10 0 56.69 10.3
9 11 0 388.96 36.5
9 11 0 341.17 33.7
-11 -9 0 407.66 36
11 9 0 372.86 36.2
11 9 0 361.66 33.8
-9 -11 0 430.26 36
-9 -11 0 407.16 33.4
10 12 0 79.09 11.1
-12 -10 0 64.79 7.1
10 12 0 75.29 10.1
-10 -12 0 52.79 9.2
-10 -12 0 50.79 6.4
12 10 0 50.89 8.8
12 10 0 68.49 9.1
11 13 0 29.8 6.3
11 13 0 31.2 7.5
-13 -11 0 26.4 4.7
-11 -13 0 24.8 6.8
-11 -13 0 34.9 4.9
13 11 0 28.9 10.7
13 11 0 22.9 7.4
-14 -12 0 14.7 3.7
12 14 0 8.4 5.3
12 14 0 24.9 7.6
-12 -14 0 12.6 4.3
-12 -14 0 6 10.6
14 12 0 9.3 7.3
14 12 0 12.9 8.6
2 5 0 128.89 16
-5 -2 0 150.48 54.19
2 5 0 136.89 12.8
-5 -2 0 144.09 12.8
2 5 0 109.89 11.9
-2 -5 0 133.79 15.8
5 2 0 167.68 32.2
-2 -5 0 127.09 11.9
5 2 0 178.78 57.99
-2 -5 0 121.19 12
5 2 0 176.08 42.2
5 2 0 111.29 12.8
3 6 0 1065.59 85.19
-6 -3 0 959 86.49
3 6 0 1090.79 90.89
3 6 0 914.41 89.09
-6 -3 0 938.61 89.09
-3 -6 0 1059.49 90.89
6 3 0 1017.6 89.09
6 3 0 990.9 84.99
6 3 0 1042 89.29
-3 -6 0 916.51 83.49
4 7 0 922.41 79.79
4 7 0 882.11 73.59
-7 -4 0 845.72 78.59
4 7 0 854.31 77.19
-7 -4 0 735.33 74.79
-4 -7 0 790.42 72.19
7 4 0 846.82 77.19
7 4 0 903.11 73.59
-4 -7 0 834.62 74.79
-4 -7 0 930.81 80.49
-4 -7 0 905.21 75.69
7 4 0 915.71 78.59
-8 -5 0 15.6 2.4
5 8 0 16.6 8.8
5 8 0 15 2.7
-8 -5 0 25.5 11.1
5 8 0 15.9 3.8
-5 -8 0 17.9 2.9
8 5 0 18.1 3.2
-5 -8 0 16.8 2.8
-5 -8 0 15.4 2.4
8 5 0 9.7 8.5
8 5 0 14.7 4.7
-9 -6 0 252.37 20.3
-9 -6 0 208.88 28.7
6 9 0 215.88 20
6 9 0 190.38 28.6
6 9 0 204.18 21.1
-6 -9 0 191.18 18.8
9 6 0 211.88 25.9
9 6 0 236.08 19.3
-6 -9 0 231.88 20.2
9 6 0 250.27 20.9
-6 -9 0 188.88 19.6
-6 -9 0 181.98 38.5
7 10 0 -0.6 5.7
-10 -7 0 9.4 5.3
7 10 0 -0.2 3.1
10 7 0 3.3 4.3
-7 -10 0 2.7 3.8
-7 -10 0 3.3 3.9
8 11 0 182.18 18.3
8 11 0 180.68 16.8
-11 -8 0 194.98 17.7
-8 -11 0 201.78 17.1
-8 -11 0 197.48 17.4
11 8 0 170.48 19.2
11 8 0 155.58 16.6
-8 -11 0 201.08 18.3
9 12 0 162.88 15.8
9 12 0 155.18 14.4
-9 -12 0 152.38 14.2
-9 -12 0 148.19 14.1
12 9 0 134.59 16.6
-9 -12 0 159.68 13.7
12 9 0 126.69 15.7
-13 -10 0 -3.1 3.3
10 13 0 2.2 4.8
13 10 0 3.5 4.5
13 10 0 2.3 6
-10 -13 0 1.5 5.4
-10 -13 0 2.6 3.4
11 14 0 23.4 6.9
-14 -11 0 19.2 4.5
14 11 0 19.9 6
-11 -14 0 20.2 3.7
-11 -14 0 13.3 10.4
14 11 0 30.1 7.5
12 15 0 -2 6.2
12 15 0 2 7.1
-12 -15 0 -2.6 3.9
-12 -15 0 3.7 4.4
15 12 0 -8.8 8.4
1 5 0 6203.78 487.25
-5 -1 0 5747.52 489.35
1 5 0 5564.94 481.45
-5 -1 0 5773.22 498.65
1 5 0 5563.44 508.05
-1 -5 0 4968 495.75
-1 -5 0 4974.2 473.45
5 1 0 5915.01 487.45
5 1 0 6036.1 503.35
5 1 0 5776.92 507.25
5 1 0 5518.55 483.75
2 6 0 166.28 20.3
2 6 0 165.78 16
-6 -2 0 176.58 18.4
-6 -2 0 159.98 14.6
2 6 0 183.18 14.6
6 2 0 140.09 14.5
6 2 0 171.48 14.3
-2 -6 0 162.68 14.2
6 2 0 171.38 15.2
6 2 0 166.08 18
-2 -6 0 174.98 20.2
-2 -6 0 142.99 14.7
3 7 0 3 11.3
-7 -3 0 -3.5 41.8
3 7 0 -1.9 2.5
3 7 0 0.6 2.1
7 3 0 2.3 14.1
-3 -7 0 2.4 1.5
7 3 0 5.1 17.5
-3 -7 0 1.8 3.3
-3 -7 0 -5.6 23.4
7 3 0 7.2 31.9
7 3 0 -9.8 55.49
4 8 0 104.29 9.1
4 8 0 101.59 10
-8 -4 0 74.99 36.2
4 8 0 109.79 15.6
-8 -4 0 83.09 9
-4 -8 0 90.99 8.7
-4 -8 0 101.09 9.2
8 4 0 104.89 9.9
8 4 0 110.19 9.9
-4 -8 0 96.99 8.8
8 4 0 80.59 11.6
-4 -8 0 95.29 15.9
-4 -8 0 103.29 9.6
8 4 0 98.59 21.9
5 9 0 1032 97.19
-9 -5 0 1107.09 91.19
-9 -5 0 955.8 96.59
5 9 0 1134.99 89.79
5 9 0 1115.99 94.19
-5 -9 0 1041.7 98.49
-5 -9 0 963.8 91.09
-5 -9 0 1062.99 87.99
-5 -9 0 1070.39 92.19
9 5 0 1054.39 95.79
9 5 0 1012.4 94.09
9 5 0 1084.69 89.59
9 5 0 974.1 91.99
-10 -6 0 943.51 92.79
6 10 0 1130.79 91.39
6 10 0 1105.49 95.99
-6 -10 0 1014.1 92.79
-6 -10 0 1047.7 89.59
10 6 0 1004.3 93.59
-6 -10 0 1163.18 93.89
10 6 0 1075.09 91.59
10 6 0 1118.29 96.09
-11 -7 0 69.59 7.1
7 11 0 67.19 7.1
7 11 0 58.89 7.6
-7 -11 0 67.49 6.9
11 7 0 55.79 6.4
-7 -11 0 69.39 6.6
11 7 0 79.29 8.7
11 7 0 53.19 9
-7 -11 0 70.29 7
8 12 0 12.5 16.7
8 12 0 26.6 5.7
-12 -8 0 19.4 3.2
-8 -12 0 11.2 15.4
12 8 0 12.5 2.9
12 8 0 20 3.8
-8 -12 0 18.3 4.8
-8 -12 0 27.1 5
-13 -9 0 24.9 4.2
9 13 0 24.9 6.5
9 13 0 11.5 9
-9 -13 0 15.7 6.4
-9 -13 0 19.1 3.9
13 9 0 12.5 6
-9 -13 0 21.6 3.8
-14 -10 0 156.88 15.3
10 14 0 149.09 16.1
10 14 0 183.08 17.5
-10 -14 0 167.28 14.9
14 10 0 139.89 14.8
14 10 0 169.88 17.7
-10 -14 0 162.18 15.3
-15 -11 0 121.79 13.6
11 15 0 147.49 15
11 15 0 170.98 16.1
15 11 0 122.69 16.7
15 11 0 142.69 16.5
-11 -15 0 147.69 13.9
-11 -15 0 140.39 14.8
0 5 0 -20 11.3
-5 0 0 -4.2 6.9
-5 0 0 -3.6 9.4
0 5 0 -1.9 6.1
0 5 0 -5.7 4.3
5 0 0 -5.2 8
0 -5 0 -11.8 14.6
5 0 0 -6.2 4.2
0 -5 0 -3.3 1.6
0 -5 0 -4.2 3.3
5 0 0 -6.9 7.2
5 0 0 -6.9 8.2
-6 -1 0 1116.19 101.19
1 6 0 1179.48 98.29
-6 -1 0 1048.8 128.79
1 6 0 1179.78 104.09
6 1 0 1088.49 114.69
-1 -6 0 1093.09 96.39
-1 -6 0 1248.18 105.39
-1 -6 0 1172.48 101.19
6 1 0 1170.08 171.18
6 1 0 1184.18 131.79
6 1 0 1204.28 187.48
2 7 0 2125.09 201.48
2 7 0 2540.45 200.68
-7 -2 0 2076.49 201.18
7 2 0 2327.87 200.48
7 2 0 2569.64 203.08
-2 -7 0 2276.07 200.38
7 2 0 2200.28 192.98
-2 -7 0 2318.37 198.28
-2 -7 0 1941.91 189.08
7 2 0 2275.67 197.68
3 8 0 1188.58 112.09
3 8 0 1321.07 114.59
-8 -3 0 1061.79 111.59
-3 -8 0 1184.98 105.09
8 3 0 1419.76 112.79
-3 -8 0 1285.07 115.49
8 3 0 1196.68 110.09
-3 -8 0 1270.07 110.19
8 3 0 1379.46 106.99
4 9 0 230.08 29
-9 -4 0 220.78 27.1
-9 -4 0 264.97 21.2
4 9 0 252.67 22.3
4 9 0 248.28 22.5
-4 -9 0 216.98 20.4
-4 -9 0 226.68 22
-4 -9 0 255.97 31.2
9 4 0 223.98 21.3
9 4 0 252.07 22.1
9 4 0 241.68 26.7
-4 -9 0 215.08 20.7
5 10 0 -9.1 6.7
-10 -5 0 0.6 5.4
5 10 0 -16.2 15.7
5 10 0 1.6 5.7
10 5 0 -6.9 21.2
10 5 0 -3 3.7
-5 -10 0 -6 5.8
-5 -10 0 -1.2 7.8
-5 -10 0 -5.3 5.7
10 5 0 3.1 4.8
6 11 0 94.79 9.8
6 11 0 101.19 10.3
-11 -6 0 96.29 10.5
-6 -11 0 93.09 9.3
-6 -11 0 95.69 9.6
-6 -11 0 102.69 10.3
11 6 0 76.79 12.1
11 6 0 92.49 19.8
11 6 0 112.89 11.6
-12 -7 0 572.14 58.69
7 12 0 672.73 61.09
7 12 0 677.03 58.09
-7 -12 0 722.03 59.09
12 7 0 664.73 61.19
-7 -12 0 733.23 60.39
-7 -12 0 692.73 57.39
12 7 0 633.34 57.79
-13 -8 0 169.48 14.9
8 13 0 173.28 16.4
8 13 0 147.99 15.2
-8 -13 0 129.89 14.4
-8 -13 0 171.68 14.9
13 8 0 146.39 20.6
13 8 0 139.29 14.4
-8 -13 0 175.88 14.9
13 8 0 151.38 15.9
9 14 0 16 4.9
9 14 0 26.2 6.2
-14 -9 0 25 3.8
-9 -14 0 16.6 4.3
14 9 0 23.3 3.7
-9 -14 0 25.2 4.2
-9 -14 0 17 3.8
14 9 0 22.8 6.8
10 15 0 -0.8 3.4
-15 -10 0 1.1 4
10 15 0 6.6 4.7
-10 -15 0 -0.6 2.3
-10 -15 0 -11 4.8
15 10 0 -3.8 4.2
15 10 0 3.9 6.8
-10 -15 0 -4.9 4
11 16 0 1.1 6.8
-16 -11 0 1.4 4.4
11 16 0 1.7 4.7
-11 -16 0 4.3 3.3
-11 -16 0 2.7 4.6
16 11 0 -11 7.7
16 11 0 -0.1 3.9
-5 1 0 7020.8 623.74
-5 1 0 7282.17 616.14
-1 5 0 6517.75 607.64
-1 5 0 6626.54 645.74
-1 5 0 6946.91 613.84
5 -1 0 7400.06 611.14
1 -5 0 7284.47 604.34
5 -1 0 6801.22 641.84
5 -1 0 7321.17 638.74
5 -1 0 7785.92 617.64
1 -5 0 7216.68 623.14
0 6 0 8322.97 826.62
-6 0 0 9488.65 802.12
-6 0 0 9631.84 824.22
0 6 0 7594.14 774.22
0 6 0 8910.11 781.62
6 0 0 8878.91 809.62
0 -6 0 9065.29 773.92
6 0 0 9613.94 796.32
6 0 0 9995.4 828.32
1 7 0 89.49 8.8
1 7 0 100.09 13.6
-7 -1 0 78.89 8.1
1 7 0 78.99 25.7
-7 -1 0 93.69 12.8
-1 -7 0 82.09 8.4
7 1 0 95.89 7.9
-1 -7 0 104.99 30.4
-1 -7 0 85.69 10.3
7 1 0 87.89 11.3
2 8 0 36.5 4.3
2 8 0 35.8 4.7
-8 -2 0 29.6 11.3
2 8 0 30.8 13.3
-8 -2 0 36.2 4.1
-2 -8 0 33.7 5.4
8 2 0 30.9 6.3
-2 -8 0 9 22.3
8 2 0 34.7 4.7
8 2 0 34.4 3.7
8 2 0 24.2 8.8
-2 -8 0 37 4.3
3 9 0 95.99 9.3
3 9 0 85.89 13.1
-9 -3 0 95.89 10
3 9 0 95.69 17.6
-9 -3 0 69.29 14.6
-3 -9 0 92.09 9.1
-3 -9 0 74.59 8
9 3 0 91.09 10
-3 -9 0 92.39 19.5
9 3 0 78.49 14.4
9 3 0 99.49 9.9
9 3 0 79.29 8.6
4 10 0 1127.79 97.79
-10 -4 0 960.3 101.39
-10 -4 0 948.91 94.69
4 10 0 1041.3 101.39
10 4 0 1042.1 99.39
10 4 0 1189.38 93.19
-4 -10 0 1162.38 91.59
-4 -10 0 1121.59 95.89
-4 -10 0 1093.39 94.79
-4 -10 0 1137.59 104.59
10 4 0 1072.99 95.59
10 4 0 1143.89 97.79
-11 -5 0 1517.25 141.49
5 11 0 1850.91 146.09
11 5 0 1540.55 147.49
-5 -11 0 1657.43 143.09
11 5 0 1636.44 139.69
11 5 0 1784.02 146.09
-5 -11 0 1638.74 136.59
-5 -11 0 1409.26 141.39
6 12 0 156.08 14.7
-12 -6 0 142.29 13.3
6 12 0 139.19 13.4
12 6 0 128.19 13.5
-6 -12 0 151.08 13.7
-6 -12 0 142.29 13.5
12 6 0 151.68 14.9
12 6 0 139.29 13.1
-6 -12 0 140.39 13.1
7 13 0 13.3 3.6
-13 -7 0 17.4 3.8
13 7 0 9.3 2.8
-7 -13 0 13.8 3.2
13 7 0 9 3.7
-7 -13 0 14.1 3.8
-7 -13 0 12.2 2.9
-14 -8 0 15.6 4.1
8 14 0 19.7 4.8
8 14 0 6.3 4.5
-8 -14 0 12.5 3.5
14 8 0 5.2 3.7
-8 -14 0 11 3.4
-8 -14 0 14.6 3.5
14 8 0 20.1 5
9 15 0 124.19 14.3
9 15 0 140.79 15
-15 -9 0 134.39 13.8
-9 -15 0 152.48 13.5
15 9 0 117.09 20.7
15 9 0 147.69 15.7
-9 -15 0 116.49 12.9
-9 -15 0 140.79 14.8
-16 -10 0 183.68 17.3
10 16 0 199.18 21.2
10 16 0 167.28 17.5
16 10 0 159.88 17
16 10 0 138.49 21.6
-10 -16 0 174.78 16.7
-10 -16 0 173.98 22
-3 4 0 1666.13 158.08
-3 4 0 1784.52 154.08
-3 4 0 1627.64 156.68
-3 4 0 1985.5 158.68
-4 3 0 1778.42 158.18
3 -4 0 1729.33 151.28
4 -3 0 2014 154.08
4 -3 0 1724.83 162.88
4 -3 0 2051.79 158.58
3 -4 0 1742.23 158.58
-5 2 0 179.28 18
-2 5 0 141.99 27.8
-5 2 0 184.88 15.6
-2 5 0 149.09 20.5
5 -2 0 156.88 14.9
2 -5 0 163.88 21.3
5 -2 0 155.58 14.7
2 -5 0 158.28 81.19
5 -2 0 192.08 18.6
2 -5 0 127.79 17.8
-1 6 0 1146.99 116.19
-1 6 0 1242.78 132.39
-6 1 0 1092.79 104.09
-1 6 0 1261.17 122.19
-6 1 0 1160.78 102.09
6 -1 0 1216.28 104.89
1 -6 0 1230.78 109.59
6 -1 0 1193.38 100.29
1 -6 0 1130.59 114.79
1 -6 0 1292.67 180.38
6 -1 0 1184.68 104.09
6 -1 0 1113.99 103.19
-7 0 0 4.1 6.9
0 7 0 -4.7 2.5
0 7 0 2 9.8
0 7 0 -4 2.4
-7 0 0 -4.1 1.4
0 -7 0 -4.7 3
0 -7 0 -0.5 12.2
7 0 0 -12.4 6.1
7 0 0 -3.2 3.4
0 -7 0 -2.3 3.4
7 0 0 1.5 2.7
7 0 0 -4 3.3
1 8 0 632.44 55.19
-8 -1 0 627.04 59.69
1 8 0 637.64 61.79
1 8 0 639.44 57.69
-8 -1 0 564.44 55.89
-1 -8 0 611.24 54.09
-1 -8 0 687.23 64.39
-1 -8 0 639.44 56.79
8 1 0 657.23 56.49
8 1 0 659.23 59.39
8 1 0 719.73 54.99
-9 -2 0 589.24 68.99
-9 -2 0 757.62 60.39
2 9 0 677.63 59.49
2 9 0 611.14 67.09
2 9 0 699.13 62.29
9 2 0 746.13 62.29
9 2 0 694.33 61.29
-2 -9 0 665.23 68.19
9 2 0 677.93 64.39
-2 -9 0 670.53 58.29
9 2 0 754.02 59.29
-2 -9 0 684.33 61.49
3 10 0 34.7 7.1
-10 -3 0 17.9 11.1
3 10 0 29.1 6.6
3 10 0 10.5 12.9
10 3 0 31.9 3.2
10 3 0 23.7 8.5
10 3 0 35.3 9.6
-3 -10 0 24.7 4.8
-3 -10 0 23.6 18.2
-3 -10 0 20 4.6
4 11 0 175.68 15.4
-11 -4 0 155.38 14.9
4 11 0 181.98 16.6
11 4 0 133.09 14.5
11 4 0 153.38 16.6
-4 -11 0 155.68 15.1
-4 -11 0 174.98 14.8
-4 -11 0 166.98 16
5 12 0 15.6 3.5
-12 -5 0 10.7 3.8
5 12 0 19.3 3.9
-5 -12 0 12.4 3
12 5 0 10.8 5.4
12 5 0 6 4.5
-5 -12 0 14.4 2.9
12 5 0 19.5 5.5
-5 -12 0 13.4 4.1
-13 -6 0 216.98 18
6 13 0 184.98 17.9
13 6 0 190.38 18.7
13 6 0 183.88 18.1
-6 -13 0 181.78 16.5
-6 -13 0 166.38 16.8
13 6 0 175.08 17.6
-6 -13 0 173.68 17
7 14 0 68.99 9.6
7 14 0 82.99 8.7
14 7 0 50.09 20.4
-7 -14 0 67.49 9.3
-7 -14 0 65.19 7.4
-7 -14 0 65.89 7.5
14 7 0 91.69 10.8
8 15 0 -4.4 6.9
8 15 0 6.9 5.5
-15 -8 0 2.1 2.9
-8 -15 0 5.3 2.7
15 8 0 8 4.9
-8 -15 0 -2.3 4.4
-8 -15 0 3.6 3.7
15 8 0 -11.4 14.3
9 16 0 19.4 6.7
-16 -9 0 11.6 4.8
9 16 0 18.5 4.2
-9 -16 0 11.5 4
-9 -16 0 19.5 5.1
16 9 0 18.5 7.4
-4 4 0 1592.34 157.48
-4 4 0 1862.51 159.88
-4 4 0 1801.22 161.88
-4 4 0 2107.69 162.18
4 -4 0 1755.22 157.78
4 -4 0 1588.24 167.38
4 -4 0 2149.58 162.08
4 -4 0 1922.61 162.58
-3 5 0 649.04 57.49
-3 5 0 511.85 56.19
-5 3 0 623.74 56.59
-5 3 0 671.33 53.59
-3 5 0 524.05 53.59
5 -3 0 609.04 52.59
3 -5 0 630.64 51.79
5 -3 0 603.74 54.79
5 -3 0 675.73 54.19
3 -5 0 578.64 56.89
5 -3 0 663.73 56.99
-2 6 0 184.78 18.8
-2 6 0 196.08 23.5
-6 2 0 219.98 18.1
-2 6 0 212.38 17.8
-6 2 0 229.68 22.3
6 -2 0 173.68 18.2
6 -2 0 211.08 17.6
6 -2 0 181.08 18
2 -6 0 192.58 22.5
2 -6 0 214.78 18.5
6 -2 0 212.18 21.9
-1 7 0 87.99 11.8
-7 1 0 117.19 28.3
-1 7 0 95.79 9.7
-7 1 0 119.19 9.5
-1 7 0 90.69 15
7 -1 0 96.79 32.4
1 -7 0 111.49 18.6
7 -1 0 116.99 19
1 -7 0 93.69 9.5
1 -7 0 97.79 10.7
7 -1 0 121.19 22.1
7 -1 0 107.59 9.6
-8 0 0 307.57 35.2
0 8 0 366.36 33.5
0 8 0 368.06 35
0 8 0 342.17 39.1
-8 0 0 389.96 32.1
8 0 0 318.27 31.2
8 0 0 396.26 32.2
8 0 0 302.47 34.8
0 -8 0 385.86 34
0 -8 0 381.96 40
0 -8 0 383.76 32.6
8 0 0 382.96 32.9
1 9 0 893.91 90.99
1 9 0 966.8 87.39
9 1 0 959.6 83.39
-1 -9 0 1076.29 94.49
-1 -9 0 1058.09 86.19
9 1 0 856.11 87.79
9 1 0 1014.2 85.69
-1 -9 0 948.21 82.09
9 1 0 1006.7 87.39
2 10 0 106.19 21.1
2 10 0 107.09 11.1
-10 -2 0 121.49 10.7
2 10 0 119.39 10.9
-10 -2 0 93.09 16.8
-2 -10 0 99.39 20.8
10 2 0 116.89 10.5
10 2 0 94.49 19
-2 -10 0 120.99 11.1
10 2 0 105.99 11.9
-2 -10 0 116.39 10.5
10 2 0 107.79 11.5
-11 -3 0 68.39 7.8
3 11 0 62.09 7.3
3 11 0 75.49 7.9
-3 -11 0 67.59 7.5
-3 -11 0 73.99 9.9
11 3 0 84.09 14.7
11 3 0 73.89 7.9
11 3 0 68.69 14.9
11 3 0 80.19 13.1
4 12 0 57.99 6.8
4 12 0 39 7.3
-12 -4 0 63.09 10.4
-4 -12 0 49.1 13.6
-4 -12 0 45.5 6.1
-4 -12 0 51.29 7.4
12 4 0 71.19 12.1
12 4 0 56.99 6.4
12 4 0 49.3 7.8
5 13 0 79.49 13.1
-13 -5 0 103.19 10.9
5 13 0 101.99 10.5
13 5 0 76.69 12
13 5 0 93.09 11.4
-5 -13 0 93.19 14.9
-5 -13 0 83.99 10
13 5 0 78.89 9.9
-5 -13 0 97.09 10.3
-14 -6 0 274.57 22.7
6 14 0 252.97 23
6 14 0 270.97 22
14 6 0 203.28 21.2
-6 -14 0 242.38 21.3
-6 -14 0 216.78 21.6
-6 -14 0 226.78 22
14 6 0 236.18 23.2
-15 -7 0 26.4 5
7 15 0 20.2 5.3
7 15 0 20.3 6.1
-7 -15 0 20 3.7
-7 -15 0 20.7 3.7
15 7 0 13.1 7
-7 -15 0 19.6 4.6
8 16 0 0 8.5
8 16 0 14.3 6.6
-16 -8 0 11.1 4.3
16 8 0 15.9 5.4
16 8 0 13.4 5.5
-8 -16 0 14.2 4.3
-8 -16 0 22.3 5
-8 -16 0 16.5 3.8
9 17 0 9.8 7
-9 -17 0 2.3 19.1
17 9 0 -0.9 19.6
-9 -17 0 13.3 4.1
-4 5 0 2 4
-5 4 0 11.3 5.7
-4 5 0 1.3 3.8
-4 5 0 0.3 6.8
-5 4 0 5 2.1
5 -4 0 9 7.9
5 -4 0 6.6 6.6
5 -4 0 3.1 11.6
5 -4 0 7.8 2.7
4 -5 0 2.2 2.8
4 -5 0 5.6 3.4
5 -4 0 5.3 6.6
-3 6 0 1394.36 112.49
-6 3 0 1299.57 111.19
-6 3 0 1217.58 108.09
-3 6 0 1254.47 106.29
6 -3 0 1275.57 106.19
6 -3 0 1356.26 111.29
3 -6 0 1157.68 104.29
3 -6 0 1180.58 111.49
3 -6 0 1227.18 109.59
6 -3 0 1222.48 110.89
6 -3 0 1148.19 109.19
-2 7 0 2644.24 246.78
-2 7 0 2568.84 260.47
-7 2 0 2879.71 252.97
-2 7 0 2775.02 253.67
7 -2 0 2902.51 259.27
7 -2 0 3126.99 246.98
7 -2 0 3129.29 252.27
2 -7 0 2987.2 242.48
7 -2 0 2889.21 255.77
2 -7 0 3021.9 253.97
-1 8 0 644.84 71.09
-1 8 0 713.73 68.09
-8 1 0 811.42 66.09
-8 1 0 782.02 70.09
8 -1 0 786.72 66.79
8 -1 0 788.62 64.89
1 -8 0 765.82 64.79
8 -1 0 758.02 67.89
8 -1 0 727.33 69.29
1 -8 0 726.33 73.29
1 -8 0 805.72 67.49
0 9 0 8.5 6.5
-9 0 0 15.1 24.5
0 9 0 -1.2 9.1
9 0 0 11.8 6.1
0 -9 0 21.2 4.5
9 0 0 2.1 12.4
9 0 0 20.6 8.3
0 -9 0 15.5 20.2
0 -9 0 17.5 3.3
9 0 0 14.7 3.4
1 10 0 44.8 10.2
-10 -1 0 102.59 159.68
1 10 0 42.4 5.4
1 10 0 69.39 31.1
-1 -10 0 33.8 45.3
10 1 0 104.79 132.09
-1 -10 0 35.9 5.5
-1 -10 0 45.6 6.3
2 11 0 413.36 50.69
2 11 0 461.15 44.7
-11 -2 0 481.65 41.3
2 11 0 463.85 42.9
11 2 0 438.66 47.8
11 2 0 500.25 42.8
11 2 0 482.15 40.9
11 2 0 395.16 54.39
-2 -11 0 478.05 42
-2 -11 0 492.65 43.7
3 12 0 866.91 76.69
3 12 0 923.11 79.39
-3 -12 0 886.41 78.89
12 3 0 849.32 77.49
12 3 0 848.12 79.29
12 3 0 919.61 75.49
-3 -12 0 865.71 76.29
4 13 0 199.58 18.4
4 13 0 211.68 19.4
-13 -4 0 213.68 19.4
13 4 0 186.88 20.6
13 4 0 172.58 17.9
-4 -13 0 197.88 18.5
-4 -13 0 194.18 17.7
13 4 0 215.68 19.7
-4 -13 0 191.08 18
-14 -5 0 -5.8 5.5
5 14 0 -0.1 3.3
5 14 0 -12 6.4
-5 -14 0 -1.4 3.3
-5 -14 0 -7.4 7.3
14 5 0 -5.3 5.6
14 5 0 -1.1 10.9
-5 -14 0 -2.5 3.5
14 5 0 -8.5 7.5
-15 -6 0 3.9 9
6 15 0 0.3 4.9
6 15 0 2.6 5.2
-6 -15 0 2.5 5.5
15 6 0 9.2 9.4
15 6 0 11.4 10.9
-6 -15 0 9.9 11.1
-6 -15 0 4.5 3.8
7 16 0 43 6.8
-16 -7 0 35.6 5.6
7 16 0 41.2 8.8
-7 -16 0 39.8 7.2
16 7 0 25.8 20.1
-7 -16 0 47.8 6.1
-7 -16 0 39.8 5.4
-17 -8 0 143.39 15.3
8 17 0 125.89 13.6
8 17 0 149.19 15.6
17 8 0 115.79 17.9
-8 -17 0 127.29 13.2
-8 -17 0 124.49 13
-8 -17 0 146.29 15.1
17 8 0 134.89 14.8
-5 5 0 9253.47 769.72
-5 5 0 7231.98 741.03
-5 5 0 8801.82 765.82
-5 5 0 8774.62 754.22
5 -5 0 9999 788.22
5 -5 0 7230.18 873.51
-6 4 0 2222.38 180.08
-4 6 0 1818.72 173.18
-4 6 0 1984.2 179.18
6 -4 0 1848.92 183.98
6 -4 0 2066.99 190.68
6 -4 0 2194.88 178.78
4 -6 0 1815.22 169.88
4 -6 0 2200.58 178.38
6 -4 0 2252.87 205.78
-7 3 0 -16.8 20.2
-7 3 0 2.7 2.7
-3 7 0 -1.6 14.7
-3 7 0 14.2 18.6
3 -7 0 -1.8 24.5
7 -3 0 0.8 15.9
7 -3 0 2.8 2.4
3 -7 0 2.7 5
3 -7 0 7.1 16.1
7 -3 0 -1.3 20.3
7 -3 0 -0.7 5.6
-2 8 0 36 10.9
-2 8 0 38.3 5.4
-8 2 0 44.1 4.9
-8 2 0 21.6 14.6
-2 8 0 39.2 4.5
8 -2 0 38.5 4.9
2 -8 0 34.2 5.2
2 -8 0 43.8 5.2
8 -2 0 37.5 4.4
8 -2 0 36.3 22.1
8 -2 0 36.4 8.7
2 -8 0 49.99 12
-1 9 0 874.31 86.29
-9 1 0 917.71 84.59
-1 9 0 953.3 82.29
1 -9 0 924.51 87.79
1 -9 0 1066.89 81.49
9 -1 0 953.4 82.19
9 -1 0 822.82 83.09
9 -1 0 826.62 78.49
9 -1 0 915.91 80.79
-10 0 0 3587.24 370.16
0 10 0 4038.3 348.47
10 0 0 3972.8 349.87
10 0 0 3909.91 357.86
10 0 0 3777.82 351.76
10 0 0 3813.02 337.07
1 11 0 1255.27 110.49
1 11 0 1111.99 114.29
-1 -11 0 1169.78 103.69
11 1 0 1110.09 111.29
11 1 0 1250.77 110.49
11 1 0 1254.87 108.99
-1 -11 0 1356.06 108.99
11 1 0 1326.27 105.49
-12 -2 0 7.9 6.1
2 12 0 0.7 15.9
12 2 0 15 3.2
-2 -12 0 1.7 7.1
12 2 0 18.1 7.3
3 13 0 4.9 7.8
13 3 0 8.8 7.6
13 3 0 33.1 13.9
-3 -13 0 -0.9 9.9
13 3 0 -0.6 6.4
-3 -13 0 11.9 4.3
-14 -4 0 171.38 17.1
4 14 0 168.68 16.9
4 14 0 186.28 17.6
14 4 0 163.48 20.1
-4 -14 0 183.98 16.6
14 4 0 161.98 17.9
14 4 0 190.08 18.9
-4 -14 0 199.18 17.3
-4 -14 0 192.08 16.8
5 15 0 578.44 49.2
5 15 0 613.24 51.89
15 5 0 558.14 51.99
-5 -15 0 545.65 50.39
-5 -15 0 604.84 49.8
15 5 0 482.55 48.7
6 16 0 242.28 22.6
-16 -6 0 213.88 21.3
6 16 0 234.88 21.5
-6 -16 0 244.08 21.5
16 6 0 231.48 24.3
-6 -16 0 250.67 21
-6 -16 0 215.38 21.4
16 6 0 215.08 22.7
7 17 0 -1.3 6.9
-17 -7 0 -0.1 3.6
7 17 0 0.8 5.4
17 7 0 0.2 5.1
-7 -17 0 1.2 4.4
-7 -17 0 7.5 5
17 7 0 1.3 7.2
-5 6 0 40.1 4.3
-6 5 0 31.1 9.1
-6 5 0 32 9.1
-6 5 0 35.8 6.2
-5 6 0 56.29 10.2
-6 5 0 34.1 10.6
-5 6 0 41 7.2
6 -5 0 28.5 9.1
6 -5 0 43.3 9
6 -5 0 39.4 8.9
6 -5 0 37.3 5.9
6 -5 0 38 5.5
-4 7 0 1097.39 98.69
-4 7 0 1111.09 98.69
-7 4 0 1144.19 93.59
-7 4 0 1021.5 97.19
-4 7 0 1020.1 91.99
7 -4 0 1044.5 97.49
4 -7 0 1163.58 98.99
7 -4 0 1190.28 94.69
7 -4 0 966 95.89
4 -7 0 1173.58 90.49
7 -4 0 929.81 91.89
-3 8 0 1453.45 132.09
-3 8 0 1400.36 130.89
-8 3 0 1259.27 126.59
-8 3 0 1413.26 130.19
8 -3 0 1357.86 124.39
8 -3 0 1677.33 128.09
8 -3 0 1306.47 129.49
3 -8 0 1521.75 122.39
8 -3 0 1676.83 130.69
3 -8 0 1517.95 132.59
-2 9 0 758.12 76.09
-9 2 0 807.02 73.69
-9 2 0 863.21 68.99
2 -9 0 686.83 75.39
9 -2 0 740.43 72.99
9 -2 0 840.12 69.69
9 -2 0 792.22 67.69
9 -2 0 860.21 70.79
2 -9 0 794.82 66.79
2 -9 0 717.33 70.09
-10 1 0 47.3 54.49
-1 10 0 150.48 49.4
1 -10 0 297.87 115.59
-11 0 0 -2.9 47.1
0 11 0 30.9 26.9
-11 0 0 29.6 4.7
11 0 0 -2 32
11 0 0 17 16.1
11 0 0 8.6 22.5
1 12 0 575.14 52.79
1 12 0 588.64 52.89
12 1 0 624.54 50.39
12 1 0 558.94 51.69
-1 -12 0 597.34 53.19
12 1 0 563.74 52.79
-1 -12 0 577.14 52.09
2 13 0 454.15 41
-13 -2 0 479.75 40
2 13 0 411.36 39.1
-2 -13 0 444.86 39.6
13 2 0 383.56 38.6
-2 -13 0 468.85 41.7
13 2 0 476.15 42
13 2 0 460.85 39.9
3 14 0 116.89 11.6
3 14 0 109.89 11.4
-14 -3 0 114.99 13.8
14 3 0 108.49 14.5
-3 -14 0 106.59 10.6
14 3 0 92.69 12.6
-3 -14 0 112.49 11.4
14 3 0 124.69 12.5
4 15 0 -5.7 10.6
4 15 0 4.4 12.2
-15 -4 0 1.7 3.3
-4 -15 0 4.6 3.7
-4 -15 0 12.2 15.6
15 4 0 -6.9 4
15 4 0 -0.2 5.9
5 16 0 -4 5.9
-16 -5 0 -2.2 6
5 16 0 -2.5 3.8
-5 -16 0 4 7.3
-5 -16 0 -3.7 4.7
16 5 0 0.9 14
16 5 0 11.9 13.6
6 17 0 94.59 11.1
6 17 0 73.99 9
-6 -17 0 84.09 9.3
-6 -17 0 81.69 9.1
17 6 0 68.99 10.1
-6 -17 0 87.19 9.2
7 18 0 115.39 12.7
-18 -7 0 122.29 13.8
18 7 0 133.99 14.9
-7 -18 0 113.59 12.5
-7 -18 0 124.59 13
-6 6 0 3582.74 291.17
-6 6 0 3318.87 287.37
-6 6 0 2979.2 281.67
-7 5 0 291.97 44
-5 7 0 209.38 21.8
-5 7 0 278.87 28.7
-5 7 0 249.38 22.6
-7 5 0 205.48 21.7
-5 7 0 217.68 27.1
7 -5 0 315.57 34.1
7 -5 0 274.17 21.8
5 -7 0 237.58 22
7 -5 0 275.27 41.5
5 -7 0 221.88 20.8
-8 4 0 107.79 11
-4 8 0 124.59 19.5
-8 4 0 104.59 16.1
-4 8 0 111.59 11.1
-4 8 0 146.09 21.6
-4 8 0 134.79 11.3
4 -8 0 140.49 24.9
8 -4 0 109.09 11.2
8 -4 0 115.59 11.3
8 -4 0 131.39 11.4
8 -4 0 117.99 17
4 -8 0 134.09 11.2
-3 9 0 95.89 10.8
-9 3 0 99.09 16.6
-3 9 0 112.59 13.7
-9 3 0 118.49 10.6
-3 9 0 73.89 18.8
3 -9 0 103.99 10.6
3 -9 0 108.89 18
9 -3 0 106.49 12.4
9 -3 0 87.39 15.7
9 -3 0 108.89 12.3
9 -3 0 97.99 9.9
3 -9 0 108.89 9.8
-2 10 0 92.29 20.4
-10 2 0 104.59 17.7
-2 10 0 116.29 10.9
-2 10 0 107.09 10.8
-10 2 0 98.99 10.4
10 -2 0 114.59 11.3
10 -2 0 105.79 16.8
10 -2 0 123.19 11.4
2 -10 0 95.89 19.1
2 -10 0 117.89 10.6
2 -10 0 121.39 11.7
10 -2 0 115.79 10.8
-1 11 0 1383.96 120.59
11 -1 0 1262.27 121.29
1 -11 0 1418.46 119.09
1 -11 0 1345.27 113.39
11 -1 0 1504.75 115.29
11 -1 0 1296.27 120.49
11 -1 0 1220.98 118.59
0 12 0 431.16 39.8
0 -12 0 401.26 38.6
12 0 0 476.55 36.6
0 -12 0 388.26 36.1
12 0 0 401.96 37.5
1 13 0 91.39 10.8
-13 -1 0 84.99 9.1
1 13 0 82.79 9.5
13 1 0 73.69 10.4
13 1 0 74.89 9
13 1 0 77.39 8.7
-1 -13 0 105.09 10.6
-1 -13 0 92.89 8.7
-14 -2 0 16.5 6.4
2 14 0 23.1 4.2
14 2 0 19.9 3.7
-2 -14 0 18.8 4
-2 -14 0 17.9 4.6
14 2 0 19.7 5.6
3 15 0 36.8 5.2
-15 -3 0 36.2 5.3
3 15 0 29.7 6.5
15 3 0 33.5 10.8
-3 -15 0 38.8 5.7
-3 -15 0 42.3 5.7
15 3 0 37.5 7
4 16 0 219.38 21.4
4 16 0 248.18 23
-16 -4 0 213.38 22
-4 -16 0 224.08 21.6
16 4 0 209.78 24.3
-4 -16 0 264.67 21.5
-4 -16 0 254.77 22.3
16 4 0 240.58 24.7
-17 -5 0 79.79 8.8
5 17 0 70.59 8.8
-5 -17 0 80.99 9.1
-5 -17 0 85.39 9.5
-5 -17 0 84.29 8.7
17 5 0 84.19 14.5
17 5 0 90.39 11.6
-18 -6 0 4.2 3.4
-6 -18 0 11.8 3.9
-6 -18 0 11.4 4.9
18 6 0 6.6 17.9
-7 6 0 1008 82.89
-6 7 0 999.2 82.99
-7 6 0 1125.59 91.39
-6 7 0 1073.89 90.89
-6 7 0 891.11 88.89
-7 6 0 943.81 89.09
7 -6 0 906.61 85.39
7 -6 0 847.72 87.39
6 -7 0 951.4 81.49
7 -6 0 983.8 81.39
-5 8 0 16.9 2.4
-5 8 0 11.9 11
-5 8 0 16.8 2.9
-5 8 0 14.7 2
-8 5 0 -3.9 10.1
-5 8 0 27.5 9.9
-8 5 0 17.6 2.6
8 -5 0 5.2 10.5
8 -5 0 20 3.2
5 -8 0 18.6 4.2
8 -5 0 18 3.3
8 -5 0 16.1 6.9
5 -8 0 15.9 3.4
-4 9 0 293.77 33.7
-9 4 0 250.77 31.2
-9 4 0 308.07 26.3
-4 9 0 279.67 34.3
-4 9 0 280.17 26.1
9 -4 0 315.37 25.9
9 -4 0 320.17 32.7
4 -9 0 312.67 27.4
9 -4 0 294.07 26.6
9 -4 0 304.17 27.5
4 -9 0 262.57 33.3
4 -9 0 297.77 26
-3 10 0 12.2 11.4
-10 3 0 25.7 10.2
-3 10 0 32.8 4.3
-3 10 0 29 4.4
-10 3 0 47.7 6.1
3 -10 0 26.7 5.9
3 -10 0 31.1 5.6
3 -10 0 17.5 17.6
10 -3 0 43.1 4.7
10 -3 0 40 4.3
10 -3 0 38.6 5.1
10 -3 0 40.2 14.4
-11 2 0 452.95 41
-2 11 0 457.85 51.69
-2 11 0 486.85 42.2
-2 11 0 466.85 40.9
11 -2 0 430.56 46.8
11 -2 0 456.85 40.2
2 -11 0 466.75 40.6
11 -2 0 459.05 41.3
11 -2 0 485.55 42.2
-1 12 0 541.75 55.09
-12 1 0 647.44 53.69
1 -12 0 692.13 56.49
12 -1 0 620.54 54.29
1 -12 0 628.84 54.79
12 -1 0 528.55 52.99
12 -1 0 636.74 55.29
0 13 0 4.1 3.9
0 13 0 -6.7 5.7
-13 0 0 4.1 3.1
13 0 0 -7.1 9.2
0 -13 0 9 9.3
13 0 0 -2.6 10.3
0 -13 0 -4 4.8
-14 -1 0 115.99 11.4
1 14 0 92.19 10.4
1 14 0 90.69 10.4
14 1 0 113.89 9.7
-1 -14 0 94.39 13.4
-1 -14 0 79.09 10.3
-15 -2 0 41.6 9.7
15 2 0 61.29 8.8
-16 -3 0 63.49 7.9
3 16 0 58.79 15.3
-3 -16 0 68.99 9.5
-3 -16 0 70.79 8.5
16 3 0 66.89 9.6
16 3 0 46.3 18.1
4 17 0 103.49 11.4
-17 -4 0 100.79 10.6
-4 -17 0 97.69 10.5
17 4 0 83.49 20.7
17 4 0 106.79 13.4
-4 -17 0 110.39 10.5
-18 -5 0 -2 3.3
5 18 0 -0.2 4.9
18 5 0 -9.6 7.3
-5 -18 0 4.4 4.4
-5 -18 0 -2.5 4.5
-7 7 0 -1.8 2.1
-7 7 0 -1.2 8.3
-7 7 0 -0.5 3.3
7 -7 0 4.7 3.4
7 -7 0 -1.9 4.5
-8 6 0 164.98 16.2
-8 6 0 187.28 23.6
-6 8 0 207.88 24.8
-6 8 0 183.38 16.4
-8 6 0 189.48 23.8
-6 8 0 196.88 18.8
-6 8 0 187.58 23.8
-8 6 0 194.18 17.4
8 -6 0 164.08 23.3
8 -6 0 173.28 16.4
8 -6 0 202.88 16.6
8 -6 0 159.88 17.4
8 -6 0 182.68 16.8
-5 9 0 1353.36 120.89
-5 9 0 1290.97 121.09
-9 5 0 1282.27 119.59
9 -5 0 1242.08 118.89
9 -5 0 1349.27 112.49
5 -9 0 1413.66 110.69
9 -5 0 1210.58 115.69
9 -5 0 1403.06 120.39
-10 4 0 1148.59 107.39
-4 10 0 1346.07 116.19
-10 4 0 1245.88 112.99
-4 10 0 1218.38 110.79
10 -4 0 1150.18 105.49
10 -4 0 1377.46 110.79
10 -4 0 1281.97 108.99
10 -4 0 1131.49 111.79
-11 3 0 95.29 10.1
-3 11 0 85.59 10.3
-3 11 0 76.39 19.5
11 -3 0 71.59 11.2
3 -11 0 94.59 19.8
3 -11 0 93.39 17.1
11 -3 0 80.49 15.9
11 -3 0 93.99 9.8
11 -3 0 87.89 12.4
-2 12 0 19.6 19.9
-2 12 0 11.4 12.2
2 -12 0 35.1 16.7
2 -12 0 37.5 23.6
12 -2 0 -0.4 6.1
12 -2 0 12.3 4.3
-1 13 0 105.29 10.6
13 -1 0 98.59 13
13 -1 0 133.89 18
1 -13 0 99.29 18.2
1 -13 0 93.69 10.7
0 14 0 667.13 58.19
-14 0 0 573.64 57.69
0 -14 0 703.53 57.99
14 0 0 646.74 58.39
0 -14 0 752.12 61.79
14 0 0 701.33 59.79
14 0 0 578.84 56.59
1 15 0 373.76 34.1
-15 -1 0 361.96 34.6
15 1 0 337.87 34.2
-1 -15 0 433.66 33.8
15 1 0 420.56 36.7
15 1 0 393.46 37
2 16 0 16 7.5
16 2 0 20.2 4.3
-2 -16 0 21.4 7.2
17 3 0 27.1 20.3
4 18 0 12.7 5.4
-18 -4 0 15 4.1
-4 -18 0 12 4.5
-4 -18 0 17.3 5.7
-7 8 0 1275.07 122.49
-8 7 0 1427.26 123.29
-7 8 0 1301.57 113.89
-8 7 0 1316.27 121.99
-8 7 0 1344.57 113.89
-7 8 0 1173.28 115.69
-8 7 0 1226.38 115.69
7 -8 0 1459.05 111.89
7 -8 0 1319.87 117.39
8 -7 0 1387.56 117.29
8 -7 0 1430.26 111.89
-6 9 0 207.28 31.1
-6 9 0 249.48 24.1
-9 6 0 268.67 33.2
-9 6 0 258.47 25.7
-9 6 0 307.17 24.4
-9 6 0 284.27 34.5
9 -6 0 270.97 23.6
9 -6 0 322.17 30.4
6 -9 0 266.37 25.7
9 -6 0 278.67 31.9
6 -9 0 292.67 27.6
9 -6 0 263.27 24
9 -6 0 275.77 26.5
-5 10 0 -9.8 15.1
-5 10 0 -0.6 3.6
-5 10 0 -4.5 5.4
-10 5 0 -2.3 3.3
10 -5 0 -4.2 6.5
10 -5 0 11.7 12.6
5 -10 0 -2.5 5.2
5 -10 0 -5.3 5.2
10 -5 0 -6.2 7.3
-11 4 0 166.18 16.2
-4 11 0 184.28 16.7
11 -4 0 173.58 16.6
4 -11 0 194.18 17.3
11 -4 0 153.98 20.3
11 -4 0 178.18 21.6
-12 3 0 1034.1 84.09
3 -12 0 886.31 81.29
12 -3 0 895.21 82.49
12 -3 0 938.61 84.99
12 -3 0 1058.69 86.39
-2 13 0 459.45 41.1
-13 2 0 396.86 40.4
13 -2 0 423.66 39.7
13 -2 0 481.95 41
13 -2 0 513.15 42.2
2 -13 0 473.65 41.3
2 -13 0 461.65 43.2
14 -1 0 92.09 9.3
14 -1 0 93.09 10.3
14 -1 0 78.49 8.8
0 -15 0 48.7 11.8
15 0 0 24.6 10
1 16 0 37.5 6.9
-1 -16 0 41 13
-1 -16 0 37.1 10.5
2 17 0 252.57 24.2
-17 -2 0 277.07 28.3
-2 -17 0 262.17 24.1
17 2 0 269.07 32.8
-2 -17 0 283.27 25.5
-18 -3 0 109.99 11.9
3 18 0 110.19 11.8
18 3 0 110.69 17.8
-3 -18 0 131.09 12.2
-3 -18 0 129.59 12.7
18 3 0 113.29 14
-19 -4 0 2 3.6
4 19 0 -5 4.4
-4 -19 0 -3.5 5.2
19 4 0 -3.3 4.6
-4 -19 0 2.9 5
-8 8 0 0.6 2
-8 8 0 2.5 2.5
8 -8 0 8.7 4.1
8 -8 0 4.7 3.5
-7 9 0 56.19 6.8
-9 7 0 55.29 6.2
-7 9 0 54.09 9.3
-9 7 0 56.19 6.4
9 -7 0 45.3 5.5
9 -7 0 55.29 6.4
9 -7 0 65.69 7
7 -9 0 62.89 6.9
7 -9 0 57.19 7.1
-10 6 0 1097.39 112.29
-6 10 0 1289.17 110.59
6 -10 0 1332.37 114.09
10 -6 0 1216.48 113.69
10 -6 0 1412.96 108.59
10 -6 0 1201.18 119.09
6 -10 0 1408.66 108.79
10 -6 0 1371.76 110.69
-11 5 0 2136.39 194.58
-5 11 0 2230.78 190.98
11 -5 0 2314.77 212.88
11 -5 0 2198.78 200.68
5 -11 0 2377.26 187.58
11 -5 0 2163.08 192.78
-12 4 0 71.69 7.3
-4 12 0 60.59 17.1
4 -12 0 65.69 14.2
4 -12 0 58.49 13.3
12 -4 0 61.99 7.2
12 -4 0 65.49 9.5
12 -4 0 65.49 9.8
-13 3 0 8.7 4.9
-3 13 0 15.6 13.4
13 -3 0 3.5 6.4
13 -3 0 -6.8 12.4
3 -13 0 9 14.4
13 -3 0 7 5.2
3 -13 0 15.6 12.6
-14 2 0 23.8 5.8
-2 14 0 18.6 13.1
14 -2 0 20.2 11.2
2 -14 0 32.2 7.7
14 -2 0 24.1 10.7
14 -2 0 18.7 4.2
2 -14 0 25.9 6.6
-1 15 0 406.46 39.3
-15 1 0 402.76 39.6
15 -1 0 400.96 39
1 -15 0 489.85 42.6
1 -15 0 452.45 38.5
15 -1 0 455.05 40.6
-16 0 0 649.64 54.09
0 16 0 576.34 52.59
0 -16 0 560.64 51.69
0 -16 0 680.93 56.99
16 0 0 565.94 52.39
16 0 0 605.34 55.19
-17 -1 0 62.79 8.3
1 17 0 66.49 9.3
-1 -17 0 55.69 7.6
17 1 0 40.2 20.4
17 1 0 50.89 9.8
-1 -17 0 74.99 8.4
-18 -2 0 3.2 6.2
2 18 0 -1.2 5.2
-2 -18 0 5.6 3.9
18 2 0 -3.4 8.1
-2 -18 0 -3.8 4.6
-19 -3 0 8.2 3.7
3 19 0 12.8 5.4
19 3 0 5.3 6.2
-3 -19 0 4.1 3.7
-8 9 0 205.48 22
-8 9 0 225.38 23.3
-9 8 0 249.48 23.3
-9 8 0 226.68 21.3
8 -9 0 208.48 21.7
9 -8 0 266.07 25
8 -9 0 249.28 25.8
9 -8 0 270.17 24.4
-7 10 0 4.5 15.9
-10 7 0 23.4 9.1
10 -7 0 6 7.8
7 -10 0 15.5 7.2
10 -7 0 12.5 3.5
10 -7 0 17 12.5
7 -10 0 -3 9.4
-11 6 0 126.29 12.3
-6 11 0 136.29 12.7
6 -11 0 115.19 11.9
6 -11 0 139.69 13.7
11 -6 0 117.89 14.9
11 -6 0 119.69 12.2
-12 5 0 12.3 3.2
-5 12 0 16.3 3.8
12 -5 0 19.6 8.4
5 -12 0 18.6 4.8
12 -5 0 8.6 4.9
5 -12 0 17.7 5.6
12 -5 0 15.8 4.7
-4 13 0 198.68 19.3
-13 4 0 196.68 19.3
13 -4 0 210.38 22.2
4 -13 0 203.78 21.3
4 -13 0 231.48 19.7
13 -4 0 232.88 21.5
13 -4 0 215.88 21.6
-14 3 0 128.39 13.9
-3 14 0 110.79 12.3
14 -3 0 144.49 14.9
3 -14 0 123.39 13.1
14 -3 0 135.59 15.8
3 -14 0 143.99 14
14 -3 0 126.09 17.9
2 -15 0 44.9 8
2 -15 0 66.59 14.6
-16 1 0 37.3 6.4
16 -1 0 30.6 6.8
16 -1 0 46.4 7.2
16 -1 0 24.3 11.7
0 17 0 5.3 7.7
-17 0 0 3.2 3.5
17 0 0 17.4 6.1
0 -17 0 4.7 8.9
17 0 0 -3.4 21
1 18 0 73.69 8.5
18 1 0 73.19 14
18 1 0 103.59 15.6
-1 -18 0 64.29 8.3
-1 -18 0 95.49 10
-19 -2 0 39.8 5.7
2 19 0 38.4 5.9
-2 -19 0 30.6 6.3
-2 -19 0 40.4 7.1
-9 9 0 259.47 24.5
-9 9 0 262.57 26.6
9 -9 0 271.77 26.9
9 -9 0 298.37 27
-8 10 0 68.39 7.9
-10 8 0 82.19 9.6
-10 8 0 86.69 11
8 -10 0 87.09 9.5
8 -10 0 81.79 8.6
10 -8 0 86.89 14.2
10 -8 0 76.59 8.6
-11 7 0 78.89 8.2
-7 11 0 83.49 8.8
-11 7 0 68.39 7.8
7 -11 0 83.49 8.6
11 -7 0 81.29 8.9
11 -7 0 75.59 8.1
7 -11 0 92.89 9.8
11 -7 0 66.39 7.9
-12 6 0 185.98 18.7
-6 12 0 187.38 17.8
12 -6 0 211.78 22.5
12 -6 0 201.58 21.3
6 -12 0 180.58 18
6 -12 0 171.88 18.7
-5 13 0 100.39 10.6
-13 5 0 98.89 9.8
13 -5 0 75.39 10.7
5 -13 0 102.39 10.6
13 -5 0 91.59 12.7
-4 14 0 192.88 18.8
-14 4 0 171.78 19
4 -14 0 222.58 18.9
14 -4 0 209.98 21.9
4 -14 0 199.58 20
14 -4 0 225.08 23.9
-3 15 0 33.4 5.5
-15 3 0 44 5.7
15 -3 0 39.8 4.8
3 -15 0 37.6 11.2
15 -3 0 32.4 5.1
15 -3 0 45.5 6.3
-16 2 0 32.2 5.9
-2 16 0 27.2 13.6
2 -16 0 49.8 7.6
2 -16 0 34.3 6
16 -2 0 39.2 6.7
16 -2 0 15.2 11.4
-1 17 0 43.1 6.2
1 -17 0 41.4 7
1 -17 0 47.3 6.7
0 18 0 45.8 7.1
0 -18 0 29.6 6.8
0 -18 0 50.39 7.6
18 0 0 36.5 8
1 19 0 71.29 9.2
-19 -1 0 71.39 9.3
19 1 0 76.89 11
-1 -19 0 86.69 9.2
-9 10 0 9.2 6.2
-10 9 0 8.2 2.6
-10 9 0 10.7 3.4
-9 10 0 17.9 8.2
9 -10 0 4.1 6.9
10 -9 0 3.4 4.2
-11 8 0 201.38 22.7
-8 11 0 241.98 22.5
-11 8 0 184.88 19.9
8 -11 0 256.07 27.5
11 -8 0 199.78 19.3
8 -11 0 247.78 23.6
11 -8 0 226.38 22.8
-12 7 0 867.01 73.89
-7 12 0 843.62 73.89
-12 7 0 828.72 74.89
7 -12 0 850.71 72.89
7 -12 0 891.11 76.49
12 -7 0 832.02 75.99
12 -7 0 874.51 73.79
-13 6 0 210.68 21.1
-6 13 0 246.78 20.9
6 -13 0 218.88 21.5
6 -13 0 221.78 20.4
13 -6 0 200.18 20
13 -6 0 259.77 23.8
-14 5 0 -0.6 6.1
-5 14 0 -8.1 10.2
5 -14 0 -8.3 6.2
5 -14 0 -7 8.8
14 -5 0 -1 13.3
14 -5 0 -6 11.8
-4 15 0 -3.4 8.6
-15 4 0 9.2 12.5
4 -15 0 7.5 11.8
15 -4 0 -0.3 5.4
15 -4 0 10.7 9.5
4 -15 0 3.3 9.6
-16 3 0 58.99 7.4
-3 16 0 57.09 7.3
16 -3 0 58.79 15.3
16 -3 0 60.19 22
3 -16 0 74.39 10.8
-17 2 0 242.28 25.8
-2 17 0 254.07 24.3
2 -17 0 271.07 25.4
2 -17 0 296.07 25
-1 18 0 82.19 9.8
-18 1 0 77.29 9.3
1 -18 0 101.59 10.3
18 -1 0 77.49 13.3
1 -18 0 102.49 10.3
-19 0 0 5.4 5.3
19 0 0 -6.9 6.1
0 -19 0 -2.3 4.8
0 -19 0 1.9 4.2
-10 10 0 1188.08 99.89
10 -10 0 1097.99 101.39
-9 11 0 492.75 50.09
-9 11 0 562.64 48.6
-11 9 0 600.14 49
11 -9 0 528.85 49.4
9 -11 0 431.66 44
9 -11 0 493.75 47.9
-8 12 0 22.9 10.3
-12 8 0 35.8 12.3
-12 8 0 25.3 20.3
12 -8 0 29.1 15.8
8 -12 0 19.4 4.4
12 -8 0 23.4 6.7
8 -12 0 32.9 6.3
-13 7 0 11.8 7.7
-13 7 0 15.1 3.2
-7 13 0 26.9 5.6
7 -13 0 23.8 5.7
13 -7 0 12.7 5.1
13 -7 0 13.9 3.8
7 -13 0 15.6 4.8
13 -7 0 11.7 5
-14 6 0 251.87 26.9
-6 14 0 311.47 27.4
14 -6 0 283.87 27.7
6 -14 0 282.67 28.4
6 -14 0 334.27 28.2
-5 15 0 604.34 51.99
-15 5 0 538.45 52.49
5 -15 0 682.53 57.99
15 -5 0 523.55 51.49
15 -5 0 661.33 53.69
5 -15 0 593.24 57.79
-4 16 0 262.37 24
-16 4 0 299.77 28.2
16 -4 0 246.38 25.7
4 -16 0 271.37 25.3
16 -4 0 237.38 28
4 -16 0 244.98 23.3
-3 17 0 13.7 6.6
-17 3 0 -4.4 8.6
3 -17 0 30.4 9.2
17 -3 0 1.7 15.2
18 -2 0 -5 10.5
2 -18 0 4.1 8
-1 19 0 72.79 9.6
-19 1 0 100.59 10.1
1 -19 0 89.89 9.9
19 -1 0 70.09 9.4
1 -19 0 79.59 10.5
-11 10 0 12 4.7
-11 10 0 4.4 5.3
-10 11 0 0.4 6.4
-10 11 0 5.9 8.3
11 -10 0 10.9 5.5
11 -10 0 23 5
-12 9 0 195.48 23.8
-9 12 0 231.28 19.7
-12 9 0 205.78 20.6
9 -12 0 200.78 18.2
12 -9 0 171.78 20.1
12 -9 0 188.08 19
9 -12 0 182.88 19.1
-8 13 0 220.78 19.2
-13 8 0 188.28 22.7
-13 8 0 177.48 17.6
13 -8 0 174.78 17.4
8 -13 0 180.58 19.1
13 -8 0 186.78 18.4
8 -13 0 220.38 19.6
-14 7 0 80.89 10.2
-14 7 0 92.79 8.9
-7 14 0 78.59 10.9
14 -7 0 102.39 10.1
14 -7 0 70.79 9.7
7 -14 0 88.99 14.3
14 -7 0 77.19 8.7
7 -14 0 69.69 10.8
-6 15 0 -7.8 14.5
-15 6 0 3 3.2
6 -15 0 17.1 20.5
15 -6 0 5 4.6
6 -15 0 4 10.7
15 -6 0 14.5 5.6
-5 16 0 -6.5 5.9
-16 5 0 2.7 15.2
16 -5 0 -8.7 6.9
5 -16 0 -5.3 10.5
5 -16 0 -1 9.3
16 -5 0 0.9 15.2
-17 4 0 99.89 10.7
-4 17 0 114.59 11.7
17 -4 0 91.29 12
4 -17 0 103.59 11.5
4 -17 0 124.49 12.7
17 -4 0 91.19 16.7
-3 18 0 123.89 12.8
-18 3 0 129.79 13
3 -18 0 138.09 13.6
3 -18 0 137.99 14.5
18 -3 0 116.59 14.2
-19 2 0 35.6 5.7
2 -19 0 50.99 7.9
19 -2 0 32.2 5.4
2 -19 0 41.2 6.1
-11 11 0 531.65 49.3
11 -11 0 497.05 48.5
11 -11 0 498.65 49.6
-10 12 0 81.89 13.1
10 -12 0 55.09 9.7
12 -10 0 83.69 12.3
10 -12 0 71.09 8
-13 9 0 21.7 5.1
-13 9 0 18.8 3.9
-9 13 0 27.6 5.5
9 -13 0 31.6 6.9
9 -13 0 25.8 6.1
13 -9 0 24.4 5.6
-8 14 0 12 6
-14 8 0 11.2 3.6
-14 8 0 17.2 4.5
14 -8 0 23.9 4.7
8 -14 0 15.4 4.3
8 -14 0 15.6 6.4
14 -8 0 6.8 4.3
14 -8 0 16.8 5.2
-15 7 0 23.3 4.7
-7 15 0 17.7 6.2
15 -7 0 22.5 6.2
15 -7 0 15.5 4.7
7 -15 0 21.6 6.3
-6 16 0 286.27 23.1
-16 6 0 236.88 22.8
6 -16 0 255.57 22.8
6 -16 0 238.98 24.4
16 -6 0 245.28 24.3
16 -6 0 211.18 22.7
-17 5 0 107.59 10.5
-5 17 0 80.29 10.5
5 -17 0 89.39 10.7
5 -17 0 77.99 11.4
17 -5 0 92.99 11.7
17 -5 0 89.59 9.9
-18 4 0 28.7 5.8
-4 18 0 25.9 6.4
4 -18 0 32.8 7
4 -18 0 25 7.5
-19 3 0 5.8 4.8
-3 19 0 10.2 4.2
3 -19 0 17.3 6.2
19 -3 0 8.1 4.8
3 -19 0 6.7 6.2
-11 12 0 117.79 13.6
-11 12 0 137.59 14.3
-12 11 0 151.78 14.8
-12 11 0 147.99 13.7
12 -11 0 120.19 14
12 -11 0 146.79 13.9
-10 13 0 4.3 5.7
-13 10 0 7.5 4.7
-13 10 0 4.5 3.1
13 -10 0 17.1 5.5
10 -13 0 14.5 5.4
-14 9 0 42.5 6.4
-9 14 0 41.7 7.2
-14 9 0 40.5 5.9
14 -9 0 41.7 6.6
9 -14 0 28.3 5.7
-15 8 0 -0.9 12
-15 8 0 4 4.3
-8 15 0 -1.3 6.4
15 -8 0 2.5 4.6
8 -15 0 -2 6.2
15 -8 0 -9 8.3
15 -8 0 8.8 4.3
8 -15 0 -4.7 6
-7 16 0 49.8 8.1
-16 7 0 46.8 6.3
16 -7 0 37.2 10.4
16 -7 0 32.2 5.8
16 -7 0 40.2 7.8
7 -16 0 43.7 6.7
7 -16 0 49.5 8.7
-17 6 0 84.19 9.1
-6 17 0 78.99 9
6 -17 0 93.69 10.7
6 -17 0 85.89 10.2
17 -6 0 69.99 10.3
17 -6 0 64.59 8.2
-5 18 0 -11.2 5.6
-18 5 0 -1.4 3.3
5 -18 0 -1.6 4.1
18 -5 0 -2 4.6
5 -18 0 2.2 6.2
-19 4 0 5.5 4.7
-4 19 0 5 5.6
19 -4 0 -5.5 6.7
4 -19 0 3.4 5.9
-12 12 0 -2.5 4
-12 12 0 -3.3 4.2
12 -12 0 5.2 5.3
12 -12 0 19.5 6.6
-11 13 0 29.9 7.5
-13 11 0 48.1 7.3
-13 11 0 31.9 5
11 -13 0 46.1 8.3
13 -11 0 39.9 7.5
13 -11 0 32.5 7.6
-14 10 0 217.18 23
-14 10 0 219.58 21.4
14 -10 0 199.98 21.6
10 -14 0 184.98 18.3
10 -14 0 189.78 19.9
14 -10 0 178.98 19.1
-15 9 0 181.08 17.7
-9 15 0 183.88 17.1
-15 9 0 172.58 21.4
15 -9 0 175.78 20.6
15 -9 0 168.78 19.4
9 -15 0 138.49 17
9 -15 0 174.68 17.3
-16 8 0 22.8 5.3
-16 8 0 22.4 7.3
16 -8 0 23.3 5.6
16 -8 0 23.9 5.5
16 -8 0 26 6.4
-17 7 0 1.3 3.4
-7 17 0 -0.5 4.3
-17 7 0 2.7 3.7
7 -17 0 -10 6.4
17 -7 0 -3.9 4.4
17 -7 0 3.4 7.3
17 -7 0 -0.5 4
7 -17 0 4.7 6.3
-6 18 0 15.2 6
18 -6 0 -5.9 10.2
6 -18 0 22.6 7
-12 13 0 250.87 24
-13 12 0 212.78 20.3
12 -13 0 192.28 19.9
13 -12 0 198.88 21.3
13 -12 0 245.38 22
-14 11 0 49.8 11.2
-14 11 0 56.99 14.8
-11 14 0 26.2 7.5
11 -14 0 9.5 9.6
-15 10 0 1.4 5.3
-15 10 0 0.9 4.3
10 -15 0 3.2 6.8
10 -15 0 2.3 5.9
15 -10 0 0.4 3.9
-16 9 0 15.9 5
-9 16 0 24 6.9
-16 9 0 17.8 5.9
9 -16 0 20.4 6.4
16 -9 0 9.4 7
16 -9 0 30.5 6
9 -16 0 21.4 7.4
-17 8 0 132.09 20
-8 17 0 175.88 16.1
-17 8 0 173.28 16
17 -8 0 158.38 17.3
8 -17 0 154.68 15.8
8 -17 0 130.09 15.9
17 -8 0 144.69 18.9
17 -8 0 160.18 20.1
-18 7 0 121.89 11.5
-18 7 0 102.19 11.6
7 -18 0 120.29 13
18 -7 0 112.09 11.5
7 -18 0 108.79 12.6
-13 13 0 -0.8 3.9
-13 13 0 -1.9 4.4
13 -13 0 7.3 6.4
13 -13 0 -6.4 5.6
-14 12 0 8.6 7.4
-14 12 0 2.8 5.6
14 -12 0 3 9.5
14 -12 0 5.4 4.7
-15 11 0 163.38 16.9
-15 11 0 183.38 17.3
15 -11 0 200.98 20.8
15 -11 0 182.78 18.8
11 -15 0 174.78 19.1
11 -15 0 146.49 17.6
-16 10 0 179.78 17.6
-16 10 0 178.28 17.7
10 -16 0 190.78 18.1
10 -16 0 198.28 21.5
16 -10 0 182.58 18.8
-9 17 0 26.7 7.2
-17 9 0 27.2 13.7
-13 14 0 14.1 6.8
14 -13 0 23.5 5.1
13 -14 0 13.9 4.8
-15 12 0 17.1 6.4
-12 15 0 0.6 6.8
-15 12 0 3 3.3
15 -12 0 5.7 6.4
-11 16 0 2.3 5.8
-16 11 0 10.7 4.3
13 13 1 5.5 6.5
13 13 1 7.6 3.4
-12 -12 -1 0.6 2.3
-12 -12 -1 -4.4 3.3
12 12 1 3.3 6.1
12 12 1 -1.9 4
-11 -11 -1 91.39 10.2
11 11 1 118.89 12.1
-11 -11 -1 111.19 10.3
10 10 1 277.27 22.4
-10 -10 -1 208.88 21.1
10 10 1 258.67 34.1
-10 -10 -1 226.98 22.3
-9 -9 -1 66.09 7.1
9 9 1 69.79 8.6
-9 -9 -1 70.89 7.2
9 9 1 80.89 9.4
8 8 1 3.1 5.1
8 8 1 -0.6 3.7
8 8 1 -21.3 11.4
-8 -8 -1 -14.9 16.9
-8 -8 -1 1.9 2.1
-8 -8 -1 -1.5 2
7 7 1 5.5 9.7
-7 -7 -1 3.1 2.5
-7 -7 -1 0 2.4
7 7 1 9.9 8.2
-7 -7 -1 -3.1 9.3
-6 -6 -1 299.77 26.3
6 6 1 346.57 29.7
-6 -6 -1 257.47 25.3
5 5 1 953.3 100.89
5 5 1 906.41 95.99
-5 -5 -1 1100.69 108.39
-5 -5 -1 935.81 90.19
-5 -5 -1 867.11 122.59
-4 -4 -1 129.09 12.5
-4 -4 -1 127.59 12.6
-4 -4 -1 155.68 12.6
3 3 1 3.1 2.8
3 3 1 -0.3 2.8
-3 -3 -1 1.8 0.7
-3 -3 -1 -2.2 4.1
-3 -3 -1 1 1
-3 -3 -1 0.7 0.7
-3 -3 -1 2.6 1
3 3 1 1.3 0.9
-3 -3 1 0.8 0.7
3 3 -1 1.8 1.2
3 3 -1 2 0.8
-3 -3 1 0.7 0.9
-3 -3 1 6 5.1
3 3 -1 6.9 4.7
3 3 -1 0 1.3
3 3 -1 1.8 1.5
4 4 -1 151.38 16.2
-4 -4 1 205.18 17.6
-4 -4 1 161.58 16.1
4 4 -1 190.58 18.7
-4 -4 1 191.58 20.5
-5 -5 1 1055.99 98.59
5 5 -1 961.1 118.79
-5 -5 1 930.91 112.69
5 5 -1 1025.7 100.09
5 5 -1 941.41 94.69
-6 -6 1 299.17 33.4
-6 -6 1 326.87 27.1
7 7 -1 11.4 7.6
7 7 -1 4.6 1.2
-7 -7 1 2.3 2.8
7 7 -1 6.8 10.1
-7 -7 1 -3.4 12.1
-7 -7 1 5.2 4.6
-7 -7 1 1.7 5.6
8 8 -1 -1.8 2.1
8 8 -1 -1 2.7
-8 -8 1 1.7 1.6
-8 -8 1 -3.4 3.1
-8 -8 1 -1.5 5.5
9 9 -1 61.19 6.8
-9 -9 1 81.19 7.4
9 9 -1 58.29 8.7
10 10 -1 182.18 24.1
-10 -10 1 242.28 22.1
10 10 -1 238.18 22.1
-10 -10 1 235.88 21.7
-11 -11 1 122.09 12.2
11 11 -1 122.19 14.4
12 12 -1 5 5.8
12 12 -1 1.1 4.6
-13 -13 1 -0.2 4.1
13 13 -1 3 6.6
13 13 -1 -4.9 4.9
-14 -13 -1 -1.7 3.5
13 14 1 -4.1 4.7
13 14 1 2.5 5.1
-13 -14 -1 0.5 4.8
14 13 1 -7.4 7.3
14 13 1 -8.6 4.8
-13 -14 -1 0.1 4.1
-13 -12 -1 61.79 7
12 13 1 55.69 7.1
12 13 1 55.69 9.4
-12 -13 -1 49.4 6.9
-12 -13 -1 51.49 7.4
13 12 1 54.99 7.3
13 12 1 69.89 10
11 12 1 38.1 5.2
-12 -11 -1 31.5 6
-12 -11 -1 33 5.2
11 12 1 49.99 7.7
-11 -12 -1 37.9 5.2
12 11 1 43.4 8.1
-11 -12 -1 50.19 6.5
12 11 1 36.5 5.9
10 11 1 4.7 6.4
-11 -10 -1 -3.5 3.4
-11 -10 -1 1.9 2.8
10 11 1 3.1 6.1
11 10 1 2.3 4.2
11 10 1 5.3 9.3
-10 -9 -1 -0.1 2.6
9 10 1 0.9 4.9
-10 -9 -1 2.5 2.8
-9 -10 -1 -1.7 2.6
10 9 1 -5.4 4
-9 -10 -1 -1.5 2.5
10 9 1 -0.5 5.4
-9 -8 -1 19.1 3.3
8 9 1 26.8 6.4
8 9 1 26.2 3.7
-9 -8 -1 20.4 3.2
9 8 1 23.8 3.3
-8 -9 -1 16.7 2.8
-8 -9 -1 28.5 4
9 8 1 27.8 5.1
7 8 1 158.08 17.1
-8 -7 -1 139.99 15.4
7 8 1 133.19 13.6
-8 -7 -1 163.38 22.9
-8 -7 -1 147.29 18.1
7 8 1 137.59 19.3
-7 -8 -1 169.88 24.2
-7 -8 -1 138.39 13.8
-7 -8 -1 159.88 16.8
8 7 1 119.09 18.1
8 7 1 160.78 19.4
6 7 1 185.08 20.4
6 7 1 249.48 20.9
6 7 1 229.28 25.6
-7 -6 -1 238.08 26.8
-7 -6 -1 226.28 23.4
-7 -6 -1 191.08 21
-6 -7 -1 226.38 21
-6 -7 -1 230.38 21.6
7 6 1 224.38 22.1
-6 -7 -1 199.78 26.3
7 6 1 200.68 21.6
7 6 1 223.68 24.9
-6 -5 -1 3.7 3
5 6 1 6.6 5
5 6 1 -5.7 8.8
-5 -6 -1 17.2 11.7
6 5 1 9.4 7.9
-5 -6 -1 11.8 3.8
6 5 1 9.3 3.7
-5 -6 -1 8.9 3.1
-5 -4 -1 10.1 1.7
4 5 1 10.7 3.5
-5 -4 -1 9.8 7.2
4 5 1 12.6 6.8
-5 -4 -1 11.5 4.6
5 4 1 18.1 7.6
-4 -5 -1 9.2 2.3
5 4 1 8.6 2.7
5 4 1 5.4 4.6
-4 -5 -1 13 8.7
-4 -5 -1 10.1 2
-4 -5 -1 11.7 3.8
-4 -5 -1 15 7.1
-4 -3 -1 97.89 12.6
3 4 1 116.09 13
3 4 1 96.89 11.5
3 4 1 110.99 12.1
-4 -3 -1 108.19 13.2
-4 -3 -1 94.69 12.2
-3 -4 -1 79.19 12.2
-3 -4 -1 122.29 13.2
4 3 1 120.29 12.4
4 3 1 118.79 10.7
-3 -4 -1 106.89 13.6
3 4 -1 58.29 7.3
3 4 -1 64.69 8.8
-4 -3 1 45.2 7
-4 -3 1 48.4 7.3
3 4 -1 71.89 9.2
3 4 -1 64.09 7.6
-3 -4 1 68.89 9.4
-3 -4 1 65.19 11.2
-3 -4 1 74.69 10.2
4 3 -1 75.69 9.9
4 3 -1 56.19 6.8
-3 -4 1 42.8 7.5
4 5 -1 9.4 6.2
-5 -4 1 6.9 2.5
-5 -4 1 4.6 8.2
4 5 -1 8.6 1.4
4 5 -1 9.5 1.7
-4 -5 1 8.4 5
-4 -5 1 5.4 2.6
5 4 -1 10 1.4
5 4 -1 6.4 2.1
-4 -5 1 8.7 8.7
5 4 -1 7.8 3
-6 -5 1 5.5 8.8
-6 -5 1 -5.4 9.3
5 6 -1 5.9 2.7
-6 -5 1 14.1 10.5
-6 -5 1 4.3 4.9
5 6 -1 5.3 2.6
5 6 -1 -6.3 6.9
6 5 -1 8.4 6
-5 -6 1 -6.1 7.9
6 5 -1 3.3 9.1
-5 -6 1 15.5 7.2
-5 -6 1 11.4 5.9
6 7 -1 131.49 12.6
6 7 -1 151.28 15.1
6 7 -1 159.38 13.4
-7 -6 1 143.99 13.9
6 7 -1 169.68 19.9
7 6 -1 127.79 12.5
7 6 -1 178.38 23.6
7 6 -1 156.38 18.7
-6 -7 1 120.79 12.9
-8 -7 1 121.59 10.5
-8 -7 1 105.19 11.4
7 8 -1 96.39 16.8
7 8 -1 116.39 11.6
7 8 -1 109.49 14.4
8 7 -1 117.59 14.3
-7 -8 1 115.69 11.6
8 7 -1 102.59 10.8
-7 -8 1 114.69 11.2
8 7 -1 145.39 19.3
8 9 -1 17.3 3
8 9 -1 25.3 5
-9 -8 1 27.1 4.1
9 8 -1 19.8 5
-8 -9 1 23.1 3.3
-8 -9 1 16.9 2.8
9 8 -1 18 4.9
9 8 -1 20 2.8
9 10 -1 0.2 2.5
-10 -9 1 3.1 3.6
9 10 -1 3.7 3.2
10 9 -1 4.8 5.5
10 9 -1 -0.4 3.1
-9 -10 1 -3.9 2.3
-9 -10 1 -0.7 1.5
10 11 -1 0.2 3.1
10 11 -1 7.3 5.2
-11 -10 1 5 3.9
-10 -11 1 0.6 3.8
11 10 -1 5.6 6.8
-10 -11 1 -2 4
11 10 -1 4.1 5.1
-12 -11 1 48.6 6.1
-11 -12 1 44.6 6.2
12 11 -1 37.6 6.3
-11 -12 1 47.2 6.3
12 13 -1 54.29 6.4
-13 -12 1 43.1 5.9
12 13 -1 43.4 8.5
13 12 -1 35.1 8.3
13 12 -1 46.5 6.7
-12 -13 1 51.89 6
13 14 -1 7.5 7.7
13 14 -1 9.6 3.7
-14 -13 1 13.1 4.3
14 13 -1 6.8 3.5
-13 -14 1 7.9 4.5
14 13 -1 -2.8 6.7
-14 -12 -1 4.6 4
12 14 1 -2 4.4
12 14 1 12.9 6.6
14 12 1 6.7 7.2
-12 -14 -1 -4.1 3.2
14 12 1 -4.8 4.3
-12 -14 -1 1.2 3.4
14 12 1 2.1 4.6
-13 -11 -1 17.6 3.9
11 13 1 20.2 4.7
13 11 1 17.3 4.7
-11 -13 -1 10.8 3.1
-11 -13 -1 13.9 4.9
10 12 1 5.1 5.1
-12 -10 -1 15 3.5
10 12 1 24.1 5.4
12 10 1 7.7 9
-10 -12 -1 13.5 2.9
12 10 1 14.1 6.3
-10 -12 -1 12.4 9
9 11 1 82.09 10.3
-11 -9 -1 79.79 8.2
-11 -9 -1 60.69 9.4
11 9 1 91.79 13.5
-9 -11 -1 85.09 13.3
11 9 1 76.69 9.3
-10 -8 -1 44.6 7.2
-10 -8 -1 46.8 5.1
10 8 1 42 7.3
-8 -10 -1 38.5 4.7
-8 -10 -1 50.19 6.8
10 8 1 40.9 5.8
-9 -7 -1 14.7 6.7
-9 -7 -1 12.9 11.9
7 9 1 17.9 12.2
-9 -7 -1 10.6 2.5
-7 -9 -1 6.7 6.3
9 7 1 -3.2 7.5
9 7 1 1.3 10.8
-7 -9 -1 3 4.7
9 7 1 4.3 5.4
-7 -9 -1 6.6 2.3
-8 -6 -1 35.8 4.9
6 8 1 41.7 4.7
6 8 1 48.7 10.9
-8 -6 -1 45.5 6.1
-8 -6 -1 59.89 14.5
8 6 1 55.19 7.2
8 6 1 38.3 4.9
-6 -8 -1 41.9 4.8
-6 -8 -1 54.89 13.2
8 6 1 46.4 9.8
-6 -8 -1 52.99 5.4
-6 -8 -1 44.6 5.1
5 7 1 47.5 11.5
-7 -5 -1 45.9 9.8
-7 -5 -1 50.99 6.5
5 7 1 56.19 10
5 7 1 54.69 9.7
-7 -5 -1 67.39 12.5
7 5 1 45.6 6
-5 -7 -1 51.79 14.2
7 5 1 54.69 8.2
7 5 1 51.69 10.9
-5 -7 -1 43 6.3
-5 -7 -1 53.19 9.9
-5 -7 -1 37.3 6.2
-6 -4 -1 482.15 42.9
-6 -4 -1 465.95 38
4 6 1 357.56 41.3
-6 -4 -1 452.95 36.7
4 6 1 424.46 39.4
-4 -6 -1 372.06 38.3
6 4 1 451.25 39.5
-4 -6 -1 449.06 36.8
-5 -3 -1 47.8 7.9
3 5 1 34.5 5
-5 -3 -1 52.29 6.9
3 5 1 42.6 7.9
-3 -5 -1 56.19 8.3
5 3 1 34.6 5
-3 -5 -1 31.9 5.2
-3 -5 -1 43.8 5.1
-3 -5 -1 51.99 9.3
-3 -5 -1 43.9 5.9
5 3 1 48.3 5.1
-4 -2 -1 8 2.8
2 4 1 10.5 2.3
-4 -2 -1 9.4 4.4
2 4 1 7.8 1.5
2 4 1 11.1 4.7
-2 -4 -1 5.3 1.2
-2 -4 -1 19.9 7.6
-2 -4 -1 10.8 3.4
-2 -4 -1 6.3 1.1
-2 -4 -1 4.6 1.3
-2 -4 -1 6.5 1.1
-2 -4 -1 11 3.5
-4 -2 1 8.9 4.8
-4 -2 1 17.5 6.3
2 4 -1 12.9 6.4
2 4 -1 9.1 3.3
2 4 -1 10.9 3.5
4 2 -1 11 6.5
4 2 -1 11.7 2.4
-2 -4 1 7 2.3
4 2 -1 13 2.4
-2 -4 1 2.4 4.4
4 2 -1 14.3 2.5
4 2 -1 12.3 5.8
3 5 -1 24.4 4
3 5 -1 25.9 4.1
-3 -5 1 25.9 3.2
-3 -5 1 44.5 9.5
5 3 -1 22.3 4
5 3 -1 29.5 5.5
4 6 -1 321.77 27.4
4 6 -1 310.07 28.3
4 6 -1 311.97 32.2
6 4 -1 291.97 28.6
5 7 -1 23.8 3.6
-7 -5 1 57.29 12.9
-7 -5 1 41.7 6.8
5 7 -1 53.99 10.5
5 7 -1 29.5 3.4
5 7 -1 27.5 4.6
5 7 -1 51.69 12.5
-5 -7 1 43.9 6.6
7 5 -1 32.9 4.5
-5 -7 1 37 10.5
7 5 -1 32 8.8
7 5 -1 35.7 4.7
-5 -7 1 47 13.9
-5 -7 1 34.8 10.3
7 5 -1 43.5 7.3
6 8 -1 25.3 3.2
6 8 -1 34 5.1
6 8 -1 27 3.5
6 8 -1 50.99 14.1
-8 -6 1 35.3 14.6
-6 -8 1 56.59 13.8
8 6 -1 36.3 3.6
8 6 -1 38.2 11.9
8 6 -1 40.7 5.4
8 6 -1 48.5 12.4
-9 -7 1 15.4 5.8
-7 -9 1 3.4 2.9
9 7 -1 3.1 2.3
9 7 -1 4.9 9.9
-7 -9 1 6.2 5.1
9 7 -1 4.9 1.9
-7 -9 1 7.9 2.3
9 7 -1 6.6 5.5
8 10 -1 40.6 5.1
8 10 -1 32.1 6.1
-8 -10 1 39.3 5
10 8 -1 47.9 6.7
-8 -10 1 48.9 5.9
10 8 -1 39.8 5.3
9 11 -1 61.09 8.7
9 11 -1 66.59 8.9
11 9 -1 70.09 14.8
11 9 -1 60.39 8.6
-9 -11 1 63.99 7.1
-12 -10 1 17.5 4.4
10 12 -1 8.8 7.7
10 12 -1 7.7 5.7
-10 -12 1 21.7 7.1
12 10 -1 10.1 4.3
12 10 -1 1.2 7.4
-10 -12 1 14.3 3.6
-11 -13 1 12.8 4.5
13 11 -1 6.7 3.2
-14 -12 1 4 4.4
12 14 -1 7.8 6.5
14 12 -1 4.5 4.8
-12 -14 1 -3.9 3.5
14 12 -1 5.5 6.7
12 15 1 -1.6 5.3
-15 -12 -1 1.2 4.4
12 15 1 -4.7 4.3
15 12 1 1.8 3.4
-12 -15 -1 12.9 5.2
-14 -11 -1 8.2 3
11 14 1 1.7 4.5
14 11 1 2.2 4
-11 -14 -1 14.3 4
14 11 1 3.5 3.7
-13 -10 -1 -2.4 3.3
10 13 1 -9 6
10 13 1 -1.2 4.3
13 10 1 -7 3.7
-10 -13 -1 -1.6 3.3
13 10 1 3.6 3
-10 -13 -1 -1.7 3.4
13 10 1 -9.4 6.2
9 12 1 47.7 5.6
-12 -9 -1 38.4 5.1
-9 -12 -1 50.79 5.6
12 9 1 48.8 6.1
12 9 1 44.9 8
-9 -12 -1 45.9 6.2
-11 -8 -1 45.7 5.5
8 11 1 46.1 6.8
8 11 1 57.49 8.1
-8 -11 -1 42.1 5.1
11 8 1 40.3 6.6
-8 -11 -1 43.6 5.8
-8 -11 -1 40.8 7.6
11 8 1 41.4 7.9
-10 -7 -1 8 5.5
-7 -10 -1 6.3 8.7
10 7 1 6.4 12.3
-7 -10 -1 7.2 7.3
-7 -10 -1 4.3 2.6
-9 -6 -1 46.6 16.6
6 9 1 25.9 11.5
6 9 1 66.99 8.3
-9 -6 -1 58.79 6.2
-9 -6 -1 53.59 8.1
6 9 1 51.39 6.5
9 6 1 62.39 7.8
9 6 1 59.79 8.2
-6 -9 -1 46.5 5.5
-6 -9 -1 33.8 14.8
-6 -9 -1 45.5 5.7
9 6 1 44.4 13.1
5 8 1 0.6 3
5 8 1 -16.3 8.6
-8 -5 -1 -0.5 1.8
-8 -5 -1 -0.1 1.5
-8 -5 -1 -0.1 9.4
5 8 1 -2 4.7
-5 -8 -1 -1.7 7
8 5 1 -0.5 2.9
8 5 1 -3.8 8.3
-5 -8 -1 2.8 8.7
-5 -8 -1 -0.3 1.3
-5 -8 -1 1.1 1
-5 -8 -1 -15.7 13.8
8 5 1 -0.9 4.8
4 7 1 270.37 28
4 7 1 284.97 29.4
4 7 1 277.77 24.2
-7 -4 -1 218.98 22.5
-4 -7 -1 278.17 23.3
7 4 1 278.07 29
-4 -7 -1 242.78 29.2
-4 -7 -1 253.67 24.6
3 6 1 279.87 25.3
-6 -3 -1 266.27 27.9
3 6 1 300.17 30.5
3 6 1 263.97 29.1
-6 -3 -1 288.67 24.5
6 3 1 261.17 28.1
-3 -6 -1 273.37 26.3
-3 -6 -1 263.37 31
-3 -6 -1 237.98 24.5
6 3 1 288.97 23.9
6 3 1 315.47 28
2 5 1 2.2 2.3
2 5 1 5.6 7.1
-5 -2 -1 2.6 6.4
-5 -2 -1 -1.8 5.1
2 5 1 -1.7 2.5
-2 -5 -1 3 1.2
-2 -5 -1 1 2.5
5 2 1 2 4.4
5 2 1 3.4 7.7
-2 -5 -1 0.6 1
5 2 1 1.8 6.6
-2 -5 -1 0.7 0.8
-2 -5 -1 2.3 8.4
-2 -5 -1 0.6 2.6
5 2 1 -0.9 5.8
-2 -5 -1 0.4 0.9
-4 -1 -1 253.27 26.5
1 4 1 281.77 25.3
-4 -1 -1 325.87 25.4
4 1 1 328.97 30.7
4 1 1 269.17 24.6
-1 -4 -1 254.37 25
-1 -4 -1 331.97 30.4
4 1 1 286.47 26.7
-1 -4 -1 284.07 25.6
1 4 -1 157.38 13.7
1 4 -1 152.38 15.1
1 4 -1 152.88 16.9
-4 -1 1 135.19 13.6
-1 -4 1 142.29 16.8
4 1 -1 159.48 15
4 1 -1 155.08 13.3
4 1 -1 168.18 16.3
-5 -2 1 -1.1 2.3
2 5 -1 0.5 0.7
-5 -2 1 -4.4 6.8
2 5 -1 -2.5 6
2 5 -1 -0.3 0.6
2 5 -1 -1.4 4.7
-2 -5 1 3.2 5.3
5 2 -1 -0.7 1.6
5 2 -1 -0.4 3.3
5 2 -1 -4.4 9.8
-2 -5 1 0.7 1.3
5 2 -1 0.2 0.7
-2 -5 1 0.4 2.9
5 2 -1 -1.3 4.4
-6 -3 1 179.08 22.3
3 6 -1 176.98 21.9
-6 -3 1 251.57 19.8
-3 -6 1 192.18 20.6
-3 -6 1 203.88 20.2
6 3 -1 248.88 23.8
4 7 -1 153.48 14.5
-7 -4 1 167.58 14
-4 -7 1 138.89 14
5 8 -1 -0.3 0.6
5 8 -1 -1.1 7.1
5 8 -1 -11.7 8.8
-8 -5 1 -16 11.4
5 8 -1 -0.3 2
-8 -5 1 1.9 2.6
5 8 -1 -0.1 0.7
8 5 -1 2.4 6.4
8 5 -1 -2.9 3.4
-5 -8 1 2.7 9.1
8 5 -1 -0.9 1.8
-5 -8 1 -0.9 5.5
-5 -8 1 -1.8 5.3
-5 -8 1 0 3.2
8 5 -1 -10.7 9.4
-9 -6 1 66.09 7.6
6 9 -1 62.99 7.6
6 9 -1 33 15.3
-6 -9 1 46.9 5.9
-6 -9 1 54.79 7.1
-6 -9 1 53.49 6.3
9 6 -1 54.89 6.9
9 6 -1 65.79 11.8
7 10 -1 8.8 6.4
7 10 -1 3.8 4
10 7 -1 -3.7 13.4
-7 -10 1 0.1 2.8
-7 -10 1 11 7.5
10 7 -1 4.4 3.9
-7 -10 1 4 2.8
8 11 -1 34.1 5.3
8 11 -1 43.3 5.7
-11 -8 1 30.4 4.5
-8 -11 1 44.6 5.1
-8 -11 1 31.7 4
11 8 -1 39.8 10.4
11 8 -1 33 5.5
-12 -9 1 40.7 5.3
-9 -12 1 40.1 5
12 9 -1 42.2 5.8
-9 -12 1 55.69 6.2
10 13 -1 5 5.8
-13 -10 1 -1.1 2.9
10 13 -1 -11.4 4.9
13 10 -1 -5.9 4.9
-10 -13 1 -4.5 4.2
-10 -13 1 -5.9 4.1
11 14 -1 -2.2 5.5
-14 -11 1 12.3 3.5
-11 -14 1 12.1 3.4
14 11 -1 8 6.6
-11 -14 1 5.7 4.5
14 11 -1 -0.8 4.8
-15 -12 1 -0.4 3.1
12 15 -1 -2.5 3.7
12 15 -1 -7 5.5
15 12 -1 -4.5 6
-12 -15 1 6.6 4.8
-15 -11 -1 53.79 7.2
11 15 1 58.29 8.5
11 15 1 60.69 7.5
15 11 1 56.69 7.2
-11 -15 -1 48.7 6.6
15 11 1 51.59 6.9
15 11 1 62.29 10.7
10 14 1 59.59 9.2
-14 -10 -1 47.1 6.7
10 14 1 55.59 6.4
14 10 1 50.99 6.4
-10 -14 -1 54.89 6.6
14 10 1 58.09 9.3
-10 -14 -1 58.99 7.2
14 10 1 49.6 6.5
-13 -9 -1 10.4 3.5
9 13 1 16.9 4.9
9 13 1 4.3 4.1
13 9 1 5.4 3
13 9 1 18.1 6.1
-9 -13 -1 9.5 2.7
-9 -13 -1 4.9 3.2
8 12 1 1.5 5.7
8 12 1 -1.4 9.6
12 8 1 7.6 5.8
-8 -12 -1 3.9 2.7
-8 -12 -1 -11.2 9.9
12 8 1 -0.9 7.4
12 8 1 -12.7 6
-8 -12 -1 4.1 2.5
7 11 1 9.9 3.6
-11 -7 -1 7.6 3.1
11 7 1 8.1 2.5
-7 -11 -1 2.6 3.2
-7 -11 -1 11.3 2.7
-7 -11 -1 9.2 2.8
6 10 1 450.55 38.2
6 10 1 404.06 45.8
6 10 1 466.45 50.39
-10 -6 -1 390.96 37.5
-6 -10 -1 410.26 37.4
10 6 1 451.65 37.1
10 6 1 425.46 37.9
10 6 1 393.46 44.2
-9 -5 -1 314.47 28.9
5 9 1 349.96 30.1
5 9 1 380.46 39.3
-9 -5 -1 327.67 35.9
-5 -9 -1 277.07 28.5
-5 -9 -1 337.67 30.7
9 5 1 341.87 29
9 5 1 357.86 35
9 5 1 336.87 28.2
9 5 1 267.97 29.9
-5 -9 -1 313.77 28.4
4 8 1 57.19 6.5
4 8 1 47.3 5.7
-8 -4 -1 62.09 11.9
8 4 1 43.8 5.4
-4 -8 -1 34.8 4.6
8 4 1 33 8.5
-4 -8 -1 47.7 12.8
8 4 1 55.29 6.6
-4 -8 -1 53.19 5.1
-4 -8 -1 42.2 4.8
8 4 1 44.1 6.9
-4 -8 -1 47.3 5
-7 -3 -1 6.9 5.9
-7 -3 -1 7.4 5.8
3 7 1 9.7 4.6
3 7 1 5.6 9.8
3 7 1 0.3 12.4
-3 -7 -1 5.5 4.6
-3 -7 -1 15.2 12.5
-3 -7 -1 4.5 1
-3 -7 -1 3.9 3
7 3 1 0.6 6.1
-3 -7 -1 7.4 11.5
2 6 1 29.5 8.5
-6 -2 -1 34.8 6.9
2 6 1 31.1 8.4
-6 -2 -1 36.2 7.9
-2 -6 -1 20.1 7.4
-2 -6 -1 24.5 7.9
6 2 1 48.8 11.3
6 2 1 36.6 7.3
6 2 1 47.4 9.4
6 2 1 38.6 7
-2 -6 -1 28.2 11.9
1 5 1 1159.38 104.89
-5 -1 -1 1203.28 118.69
1 5 1 1156.18 107.99
5 1 1 1100.39 107.29
-1 -5 -1 1031.5 96.29
-1 -5 -1 1059.49 101.99
-5 -1 1 868.91 75.69
-5 -1 1 718.83 70.29
1 5 -1 678.33 81.09
5 1 -1 755.72 84.19
-1 -5 1 731.13 80.99
5 1 -1 598.24 113.29
-6 -2 1 18.4 5.1
2 6 -1 14.1 2.9
-6 -2 1 11.4 6.1
2 6 -1 16.4 9.3
2 6 -1 15.7 3.1
2 6 -1 10.8 2.1
2 6 -1 7.7 9
6 2 -1 12.2 2.5
6 2 -1 20.3 6.2
-2 -6 1 17.7 7.8
-2 -6 1 11.5 9.6
-2 -6 1 14.9 8
6 2 -1 13.5 3.4
6 2 -1 13.8 2
6 2 -1 26.4 11.9
3 7 -1 4.6 8.3
3 7 -1 2.1 2.8
-7 -3 1 6.5 3.2
-7 -3 1 1.1 11
3 7 -1 -3.3 7.6
-3 -7 1 3.9 7.7
-3 -7 1 14.5 11.9
-3 -7 1 5.6 8.7
7 3 -1 5 10
-8 -4 1 43.3 5.2
4 8 -1 35.9 5.4
4 8 -1 41.4 12.2
-8 -4 1 69.79 13.3
-4 -8 1 48 4.9
8 4 -1 49.3 5.8
8 4 -1 37.9 4.6
8 4 -1 68.39 12.2
-4 -8 1 44.5 5.2
5 9 -1 280.87 30.4
-9 -5 1 245.08 29
5 9 -1 268.47 22.3
9 5 -1 266.97 28.9
-5 -9 1 223.08 30.2
-5 -9 1 215.38 21.5
9 5 -1 227.38 22.2
-5 -9 1 296.57 24.1
-5 -9 1 268.17 23.2
9 5 -1 228.88 23.3
-10 -6 1 373.66 32.9
10 6 -1 320.97 43.5
10 6 -1 333.27 31.2
-6 -10 1 386.16 32.4
-6 -10 1 360.76 32.2
-6 -10 1 349.17 30.8
7 11 -1 0.5 4
-11 -7 1 10.8 2.8
7 11 -1 7.8 2.9
-7 -11 1 10.3 3.8
-7 -11 1 6.5 2.4
-7 -11 1 2 2.3
11 7 -1 3.8 1.7
11 7 -1 6.4 4.7
8 12 -1 -12.7 9.8
8 12 -1 -0.1 3.2
12 8 -1 -7.8 10.7
-8 -12 1 5.8 5.5
-8 -12 1 -2 10.6
-13 -9 1 17.7 4.3
9 13 -1 0.1 4.6
13 9 -1 8.9 3.1
13 9 -1 12.3 4.9
-9 -13 1 11 3.3
10 14 -1 42.2 6
-14 -10 1 56.09 6.8
14 10 -1 48.5 6.6
-10 -14 1 39.4 5.5
-10 -14 1 57.39 6.9
-15 -11 1 55.29 7.1
11 15 -1 53.59 7.1
11 15 -1 34.6 9.3
15 11 -1 39.3 8.5
15 11 -1 44.6 6
-11 -15 1 43.4 6.7
10 15 1 0.1 4.6
10 15 1 -4.4 4.6
15 10 1 3 3.9
15 10 1 -13.5 7.3
-10 -15 -1 -6.1 4.1
9 14 1 -4.8 3.1
-14 -9 -1 1.7 3.5
-9 -14 -1 -7.6 4.5
-9 -14 -1 -2.5 3.4
14 9 1 1 6.5
14 9 1 4.6 3.7
-9 -14 -1 -4.4 2.6
8 13 1 67.09 7.1
-13 -8 -1 43.6 6
13 8 1 57.69 7.4
-8 -13 -1 56.39 6.3
-8 -13 -1 49.6 6.2
13 8 1 54.89 8.7
13 8 1 49.6 6
-8 -13 -1 65.19 6.7
-12 -7 -1 129.39 14.3
7 12 1 186.08 15.6
12 7 1 187.88 18.7
-7 -12 -1 141.49 14.5
-7 -12 -1 180.98 16.9
-7 -12 -1 129.09 14.2
12 7 1 161.38 15.3
12 7 1 152.18 20.3
6 11 1 35.6 6.6
-11 -6 -1 29 4.9
6 11 1 43.6 6.2
11 6 1 42 12
-6 -11 -1 47.1 8.4
11 6 1 39.5 7.5
11 6 1 35.7 7.7
-6 -11 -1 35 4.6
-6 -11 -1 47 7.6
5 10 1 4 12.3
-10 -5 -1 -18.7 13.6
-10 -5 -1 3.7 9.9
5 10 1 6.3 14.4
-5 -10 -1 2.3 5.4
-5 -10 -1 5.5 5.8
-5 -10 -1 -2.7 8.8
10 5 1 -3.3 5.9
10 5 1 -7 5.2
10 5 1 -2.3 11.4
-9 -4 -1 31.6 11.2
4 9 1 39.6 6.9
-9 -4 -1 25.5 3.6
4 9 1 25 10.3
-4 -9 -1 31.3 3.9
9 4 1 26.8 8.4
-4 -9 -1 70.79 19
-4 -9 -1 24 3.3
-4 -9 -1 42.1 10.7
9 4 1 33.7 3.9
9 4 1 30.1 3.5
9 4 1 36.3 5.6
-8 -3 -1 58.59 7.7
3 8 1 64.09 7.8
3 8 1 62.89 14.2
3 8 1 58.49 7.2
-8 -3 -1 37.1 9.1
8 3 1 55.39 7.2
-3 -8 -1 61.49 7.5
-3 -8 -1 57.79 9.5
8 3 1 59.09 10.5
8 3 1 57.39 7
-3 -8 -1 59.09 16.8
-2 -7 -1 367.66 29.2
7 2 1 323.07 32.3
7 2 1 330.87 29
-2 -7 -1 318.77 29.2
7 2 1 327.57 30.6
-6 -1 -1 99.49 10.6
1 6 1 121.59 15.9
-1 -6 -1 113.99 10.1
6 1 1 113.39 10.2
-1 -6 -1 119.19 10.2
6 1 1 110.69 13
-5 0 -1 13.2 12.6
0 5 1 16.3 7.7
0 5 1 17.5 3.9
0 -5 -1 31.7 8.8
0 -5 -1 20.4 3.3
0 -5 -1 16 7.6
-1 4 1 208.48 22.3
-4 1 -1 227.58 19.6
-4 1 -1 224.18 21.2
1 -4 -1 216.88 19.1
1 -4 -1 222.88 19.7
1 -4 -1 235.18 22.3
1 -4 -1 210.38 19.6
-1 4 -1 230.58 23.1
-4 1 1 192.58 17.8
-1 4 -1 242.18 23.6
4 -1 -1 202.18 18
1 -4 1 201.08 18.7
1 -4 1 181.38 18.5
1 -4 1 188.68 22.7
-5 0 1 14.4 12
-5 0 1 6.5 10.8
0 -5 1 14 10.4
0 -5 1 5.7 11.7
5 0 -1 26.3 24
5 0 -1 9.1 34.8
5 0 -1 33.1 17.1
5 0 -1 10.4 2.5
5 0 -1 6.7 13.8
-6 -1 1 96.59 9.6
1 6 -1 101.49 9.8
-6 -1 1 176.78 36.7
6 1 -1 131.39 22.3
6 1 -1 127.39 26.8
6 1 -1 100.99 9.4
-1 -6 1 96.89 10.2
6 1 -1 105.19 14.3
2 7 -1 458.45 36.8
2 7 -1 451.75 42.4
-7 -2 1 388.46 35.4
7 2 -1 424.56 36.5
-2 -7 1 370.76 36.1
-2 -7 1 378.46 34.2
7 2 -1 337.77 40
-2 -7 1 434.36 42.7
3 8 -1 27.5 4.7
3 8 -1 62.29 14.2
3 8 -1 58.19 10.2
-8 -3 1 37.6 4.7
8 3 -1 54.69 11.1
-3 -8 1 59.19 15.2
8 3 -1 43 5.6
-3 -8 1 47.6 5.5
-3 -8 1 43.2 5.6
4 9 -1 41.1 7.9
4 9 -1 40.8 15.1
4 9 -1 28.1 4.7
-9 -4 1 30.3 4.6
-4 -9 1 56.79 15.2
-4 -9 1 38 7.8
-4 -9 1 33.1 5.9
9 4 -1 37.7 4.7
9 4 -1 44.7 11.9
9 4 -1 46.6 6.9
5 10 -1 8.8 12.8
5 10 -1 -1 3.1
-10 -5 1 6.7 7.8
10 5 -1 2.6 3.4
10 5 -1 13.1 15.6
-5 -10 1 3 10.2
-5 -10 1 4 5.9
-5 -10 1 4.8 8.1
6 11 -1 27.9 5.6
6 11 -1 29.1 5.4
-11 -6 1 27.7 4.3
11 6 -1 36.1 7.1
-6 -11 1 44 7.6
-6 -11 1 32.4 5.6
-6 -11 1 29.3 7.7
11 6 -1 42.7 13.5
11 6 -1 27.5 3.5
-12 -7 1 198.08 21.2
7 12 -1 179.38 19.1
12 7 -1 161.88 18.9
-7 -12 1 156.68 17.2
-7 -12 1 170.68 16.7
12 7 -1 131.69 19.8
-7 -12 1 184.08 17
8 13 -1 37.1 6.1
8 13 -1 42.7 5.6
-13 -8 1 51.99 6.1
13 8 -1 36.5 7.2
-8 -13 1 51.49 5.8
-8 -13 1 42.2 5.4
-8 -13 1 33.7 4.8
13 8 -1 43.9 5.2
9 14 -1 2.3 5.5
-14 -9 1 -1.9 2.7
9 14 -1 -5.8 4.4
-9 -14 1 -4 3.6
-9 -14 1 0.1 2.5
14 9 -1 1.3 4
-15 -10 1 4.5 3.1
10 15 -1 -0.2 4.7
-10 -15 1 4.4 4.4
15 10 -1 8.1 6.9
-10 -15 1 -6.6 4.1
15 10 -1 -1.4 3.1
-16 -10 -1 55.89 7.2
10 16 1 71.69 8.3
10 16 1 65.59 10.3
16 10 1 60.29 9.3
16 10 1 59.69 7.9
-10 -16 -1 65.59 7.5
9 15 1 31.2 6.2
-15 -9 -1 39.6 5.8
9 15 1 43.3 6.8
-9 -15 -1 41.2 5.8
15 9 1 30.9 6.8
-9 -15 -1 42.6 6.4
15 9 1 25.5 5.2
15 9 1 33.7 5.4
8 14 1 6.6 3.6
8 14 1 17.9 6.3
14 8 1 7.7 2.3
-8 -14 -1 7.1 2.5
-8 -14 -1 9.8 4.3
14 8 1 4.4 4.6
14 8 1 -1.4 3.8
-8 -14 -1 4.1 2.6
7 13 1 14.7 4.5
7 13 1 7.1 6
13 7 1 0.8 2.9
-7 -13 -1 0.7 3.1
6 12 1 2.9 5.6
-12 -6 -1 4.9 3
6 12 1 -5.6 6.5
12 6 1 -3.1 3.5
-6 -12 -1 8.2 2.5
-6 -12 -1 7.8 5.9
12 6 1 -4.9 5.4
-11 -5 -1 430.76 39.3
5 11 1 474.65 41.7
5 11 1 447.26 47.9
11 5 1 381.86 45.8
11 5 1 477.85 38.3
11 5 1 415.96 39.1
-5 -11 -1 420.06 39.4
-5 -11 -1 445.26 38.6
-10 -4 -1 180.08 19.2
-10 -4 -1 155.28 23.2
10 4 1 196.78 18.9
10 4 1 229.58 21.5
-4 -10 -1 171.48 17.7
10 4 1 212.78 24
-4 -10 -1 228.98 18.2
10 4 1 223.78 18.4
-9 -3 -1 23 9.6
3 9 1 -0.1 8.2
3 9 1 5.3 2.6
-9 -3 -1 8.3 2
9 3 1 9.2 6.5
-3 -9 -1 11.7 2.8
-3 -9 -1 8.6 1.7
-3 -9 -1 8.4 1.7
-3 -9 -1 -2.8 10.8
9 3 1 6.6 3.9
9 3 1 6.6 3.7
-3 -9 -1 11.1 4.5
-8 -2 -1 -6.3 6.7
2 8 1 -4 10.9
2 8 1 6.5 3.9
2 8 1 -2.3 7.7
-8 -2 -1 5.2 6.7
8 2 1 6.3 7.3
-2 -8 -1 0.6 13.3
8 2 1 9.3 5.5
8 2 1 6.2 5.1
-2 -8 -1 3.3 3.1
8 2 1 4.6 7.3
-2 -8 -1 10.6 4.9
-2 -8 -1 8 1.5
1 7 1 25.6 9.9
1 7 1 13.2 11.4
-7 -1 -1 26 6.1
1 7 1 30.3 7.5
-7 -1 -1 21.4 3.1
-1 -7 -1 34.4 15.1
-1 -7 -1 17 2.7
-1 -7 -1 36.6 9.5
-1 -7 -1 17.1 2.8
-1 -7 -1 29.8 5.7
-1 -7 -1 18.6 7.9
0 6 1 1259.87 111.49
-6 0 -1 1165.88 115.09
6 0 1 1328.47 119.79
0 -6 -1 989.8 104.79
6 0 1 1120.99 110.59
6 0 1 1034.1 105.79
-5 1 -1 775.02 81.19
-5 1 -1 873.71 95.99
5 -1 1 1028.9 102.69
1 -5 -1 870.11 98.49
1 -5 -1 854.81 82.19
5 -1 1 960.4 107.99
-4 2 -1 3.3 3
-2 4 1 5.3 1.1
-2 4 1 8.4 3.5
-2 4 1 10.1 6
2 -4 -1 9.2 3.4
2 -4 -1 7.4 2.1
4 -2 1 3.6 1.3
4 -2 1 11.7 4.8
4 -2 1 6.9 1.9
2 -4 -1 10.2 2.6
4 -2 1 4.3 4.6
2 -4 -1 10.8 9.4
-3 3 1 -0.9 3.9
-3 3 -1 -0.8 4.4
-3 3 -1 1.5 4.8
-3 3 -1 1 2.1
-3 3 -1 -2 1.3
-3 3 1 0.4 0.9
3 -3 -1 2.3 1.2
3 -3 1 0.8 1.2
3 -3 -1 0.9 1.2
3 -3 -1 3.5 2.2
-4 2 1 6.7 2.4
-2 4 -1 11.7 7.4
-4 2 1 5.2 4.8
-2 4 -1 11.9 3.8
4 -2 -1 5.7 2.4
2 -4 1 6.2 3.7
4 -2 -1 12.9 3.1
2 -4 1 5.4 4.7
4 -2 -1 7.2 3.3
4 -2 -1 9 6.3
4 -2 -1 8.8 9.3
-1 5 -1 962.2 87.29
-5 1 1 1042.1 121.19
-1 5 -1 1016 94.19
5 -1 -1 748.43 154.48
1 -5 1 930.51 100.09
5 -1 -1 737.53 103.49
1 -5 1 1011.3 98.79
-6 0 1 1011.2 99.89
0 6 -1 986.8 82.59
6 0 -1 639.54 136.09
0 -6 1 911.81 83.29
-7 -1 1 14.7 3.4
1 7 -1 22.1 9.3
1 7 -1 17.1 5.6
7 1 -1 14.4 2.8
7 1 -1 27.6 13.4
-1 -7 1 24.3 9.4
7 1 -1 10.4 1.9
-1 -7 1 22 13.5
-1 -7 1 22.1 12.3
2 8 -1 5.4 9.5
2 8 -1 5.1 6.3
-8 -2 1 13 9.7
-8 -2 1 11.1 5.2
-2 -8 1 2.4 2.3
8 2 -1 3.9 3.5
-2 -8 1 14.2 13.4
-2 -8 1 0.6 4.9
8 2 -1 8.5 8
8 2 -1 5.8 2
3 9 -1 12.7 5.4
3 9 -1 9.1 2.7
-9 -3 1 -5.4 9.9
-9 -3 1 6 2
3 9 -1 11.1 12.6
-3 -9 1 38.6 15.4
9 3 -1 2.9 8.2
9 3 -1 9.7 3.4
9 3 -1 11.5 6.3
9 3 -1 8.4 2.3
-3 -9 1 8 2.5
4 10 -1 223.18 30.6
4 10 -1 224.18 20.2
-10 -4 1 210.28 19.9
10 4 -1 197.38 25.8
-4 -10 1 245.48 20.5
-4 -10 1 190.98 19.2
10 4 -1 240.08 19.5
5 11 -1 383.06 32.6
-11 -5 1 392.76 34.8
-5 -11 1 398.46 31.5
11 5 -1 330.47 32.2
11 5 -1 319.47 33.5
-5 -11 1 358.06 32.9
6 12 -1 -3.6 4.5
6 12 -1 2.1 4.2
-12 -6 1 5.9 3.2
12 6 -1 3.8 3.3
12 6 -1 2 6.8
-6 -12 1 4.8 3.8
-6 -12 1 -0.1 2.5
7 13 -1 0.4 4.6
-7 -13 1 -0.8 3.1
13 7 -1 11.2 4
-7 -13 1 2.5 3.5
-7 -13 1 5.9 3.1
-14 -8 1 9.4 3.5
8 14 -1 -2 4.7
8 14 -1 -0.6 4.2
-8 -14 1 3.7 3
14 8 -1 5.2 4.3
14 8 -1 6.9 5.9
-8 -14 1 10.7 3.7
9 15 -1 29.2 5.3
-15 -9 1 34.8 5.8
9 15 -1 43 6.8
15 9 -1 33.9 5.1
-9 -15 1 45.7 6
-9 -15 1 31.8 5.6
-16 -10 1 71.69 8.1
10 16 -1 64.19 8.5
10 16 -1 57.19 9.2
16 10 -1 50.89 7.9
-10 -16 1 72.89 8.4
16 10 -1 48.3 9.8
9 16 1 -8.5 5.1
9 16 1 2.8 6.1
-16 -9 -1 1.1 4
-9 -16 -1 -3.6 5.1
-9 -16 -1 8.1 4.1
16 9 1 2.3 6
8 15 1 13.2 6.1
-15 -8 -1 5.2 3.9
8 15 1 -1.3 3.2
15 8 1 -5.4 3.5
-8 -15 -1 4.1 3.5
15 8 1 8.4 6
15 8 1 -7.5 3.5
7 14 1 23.8 5.5
-14 -7 -1 23 4.4
7 14 1 27 4.4
-7 -14 -1 33.1 4.9
14 7 1 25.5 4.4
14 7 1 27.2 4.6
-7 -14 -1 28 4.7
-7 -14 -1 22.5 4.2
6 13 1 55.99 7.5
-13 -6 -1 48.6 6.3
13 6 1 62.59 8.7
-6 -13 -1 68.79 7.3
-6 -13 -1 61.29 6.3
-6 -13 -1 51.29 6.6
13 6 1 47.2 6.2
13 6 1 46.9 6
5 12 1 6.1 5
5 12 1 -1.6 2.8
12 5 1 -1.1 5.2
-5 -12 -1 -1.4 2.9
-5 -12 -1 -4.6 2.5
12 5 1 -5 2.8
-5 -12 -1 -4.7 2.8
4 11 1 49.6 15.8
-11 -4 -1 32.7 5
-4 -11 -1 46.3 5.7
-4 -11 -1 43 5.8
11 4 1 41.2 5.4
-4 -11 -1 42.2 5.5
11 4 1 42.8 13.8
3 10 1 4.5 13.5
3 10 1 -0.4 6.9
-10 -3 -1 -9.9 7.8
-10 -3 -1 0.9 3.4
3 10 1 1 10
10 3 1 2 9.5
10 3 1 3.8 2.9
10 3 1 2.3 8.7
-3 -10 -1 -1 13.4
-3 -10 -1 -15.6 18.5
-3 -10 -1 2.5 2.2
-3 -10 -1 4.2 3.4
10 3 1 -5.7 9.1
-3 -10 -1 0.9 1.6
2 9 1 62.99 9.7
-9 -2 -1 70.49 11.9
2 9 1 52.69 6.5
-9 -2 -1 58.29 7.1
2 9 1 66.69 15.9
-2 -9 -1 48.1 4.9
-2 -9 -1 40 4.7
-2 -9 -1 39.5 4.9
-2 -9 -1 40.8 5.2
-2 -9 -1 67.39 17.1
9 2 1 64.89 12.3
1 8 1 211.78 20.7
1 8 1 228.68 26.7
-8 -1 -1 226.68 20.9
-1 -8 -1 199.38 20.8
8 1 1 225.08 26.1
-1 -8 -1 224.68 20.5
8 1 1 250.67 24.4
-1 -8 -1 250.17 22.1
-1 -8 -1 263.27 29.5
0 7 1 4.9 4
-7 0 -1 0.2 5.8
-7 0 -1 4.1 2.4
0 7 1 4 9.8
0 7 1 3.8 2.7
0 -7 -1 6.1 11.3
0 -7 -1 0.7 2.3
7 0 1 8.7 4.7
0 -7 -1 1.1 2.5
-1 6 1 190.38 17
-1 6 1 192.78 23
1 -6 -1 188.88 19.3
6 -1 1 216.48 20.3
1 -6 -1 198.48 23.4
1 -6 -1 152.78 16.2
6 -1 1 197.08 18.2
1 -6 -1 186.28 19
-2 5 1 1.8 4.3
-5 2 -1 6.6 3
-2 5 1 0.8 2.4
-2 5 1 4.6 7.2
-5 2 -1 4 4.6
-2 5 1 -2 6.3
5 -2 1 1.6 8.3
2 -5 -1 -2.1 5.2
2 -5 -1 2 2.3
5 -2 1 -8.9 5.4
2 -5 -1 -0.5 7.3
5 -2 1 4.3 4
2 -5 -1 -5.6 8.2
-3 4 1 118.59 14.8
-4 3 -1 124.79 13.4
-3 4 1 120.29 14
-4 3 -1 119.69 14.4
-3 4 1 128.19 14.8
3 -4 -1 110.39 14.5
-3 4 -1 113.49 16.1
-3 4 -1 113.99 15.3
-4 3 1 158.68 16.3
4 -3 -1 130.79 13.7
4 -3 -1 132.39 15.7
4 -3 -1 126.99 15.2
3 -4 1 135.89 18.1
3 -4 1 121.29 16.1
4 -3 -1 128.99 14.9
-2 5 -1 -1.2 10.1
-5 2 1 1.1 5.3
-2 5 -1 10 9
-5 2 1 -2.3 6.7
2 -5 1 4.8 5.9
5 -2 -1 2.4 1.8
5 -2 -1 0 3.4
2 -5 1 0.8 11
2 -5 1 -1.2 2.3
5 -2 -1 -2.5 4.6
5 -2 -1 2.2 7.3
-6 1 1 125.89 17.6
-6 1 1 179.28 14.7
-1 6 -1 138.59 20.4
1 -6 1 166.68 14.7
6 -1 -1 161.78 15.1
1 -6 1 168.78 22.9
6 -1 -1 157.38 14.4
-7 0 1 4.7 5.8
0 7 -1 5.2 4.7
-7 0 1 1.3 3.4
0 7 -1 0.2 9.7
0 7 -1 -0.8 1.4
7 0 -1 3.2 4.8
7 0 -1 2 5
0 -7 1 -8.8 9.2
0 -7 1 0.6 3.2
7 0 -1 2 3.8
7 0 -1 4.5 3.9
1 8 -1 174.18 24.4
-8 -1 1 185.08 22.6
1 8 -1 179.98 18
-1 -8 1 209.68 21
8 1 -1 220.38 18
-1 -8 1 249.88 28.7
2 9 -1 48.2 5.6
2 9 -1 43.7 14.6
-9 -2 1 34.2 5.4
-9 -2 1 45.2 12.4
9 2 -1 48.2 7
9 2 -1 49.1 12.1
9 2 -1 33.7 5.2
9 2 -1 46 5.8
9 2 -1 66.89 15.7
-2 -9 1 42.4 6.2
-2 -9 1 47.1 5.6
-2 -9 1 38 12.9
3 10 -1 -3 1.9
-10 -3 1 2.9 4.3
3 10 -1 14.2 14.7
3 10 -1 -8.8 9.9
-3 -10 1 -6.3 4.2
10 3 -1 -5.6 10.1
-3 -10 1 -2.5 6.8
10 3 -1 3.1 3.5
10 3 -1 -1.5 5
-3 -10 1 -5.3 13.9
10 3 -1 -0.8 2.8
10 3 -1 1.8 1.2
4 11 -1 33 5.4
-4 -11 1 52.89 11
11 4 -1 41.7 5.6
11 4 -1 26.1 4.3
-4 -11 1 57.19 11.8
11 4 -1 51.89 8.6
5 12 -1 3.6 2.8
-12 -5 1 0.7 2.3
5 12 -1 -3.9 4.3
-5 -12 1 -2.8 3.2
12 5 -1 0.5 2.6
12 5 -1 0.9 4.2
-5 -12 1 -0.2 3.1
6 13 -1 40.9 6.8
6 13 -1 45.3 10.2
-13 -6 1 48.3 6
-6 -13 1 38.1 5.4
-6 -13 1 49.9 5.8
7 14 -1 20.8 4.4
-14 -7 1 29.3 5
14 7 -1 30.3 6.3
14 7 -1 15.2 10.8
-7 -14 1 22.4 4.6
-7 -14 1 24 5.1
-7 -14 1 29.2 4.5
-15 -8 1 1.8 4.2
15 8 -1 -4.4 4.6
-8 -15 1 -3.1 3.1
9 16 -1 3.9 3.8
9 16 -1 12.5 7.2
-9 -16 1 -0.3 3.2
16 9 -1 -4.1 4.9
16 9 -1 2.8 6.6
-17 -9 -1 -3.9 4.2
9 17 1 2 5.2
9 17 1 4.5 4.7
17 9 1 10.7 7.7
8 16 1 15.5 6.5
-16 -8 -1 15.5 4.3
16 8 1 10.8 4.8
-8 -16 -1 4.9 4.2
16 8 1 14.8 4.3
-15 -7 -1 15.5 4
7 15 1 8 3.5
15 7 1 6.7 6.9
-7 -15 -1 8.8 3.1
-7 -15 -1 2.7 4.5
6 14 1 56.29 7.3
-14 -6 -1 64.59 7.7
6 14 1 76.99 9.3
-6 -14 -1 70.29 7.9
14 6 1 71.19 8.2
-6 -14 -1 71.79 7.4
-6 -14 -1 72.49 8.1
14 6 1 66.99 10
5 13 1 39.2 5.5
-13 -5 -1 54.79 5.8
5 13 1 53.59 7
13 5 1 35.6 5.3
13 5 1 47.2 5.9
-5 -13 -1 40.8 5.6
-5 -13 -1 43.4 5.3
13 5 1 45.8 6.5
-5 -13 -1 38.1 5.9
4 12 1 32.7 10.6
-4 -12 -1 22.9 5
-4 -12 -1 12.7 4.8
12 4 1 22.1 13.3
-4 -12 -1 11.6 10.4
12 4 1 38.5 20.3
3 11 1 17.6 12
3 11 1 33.4 5.9
-11 -3 -1 4.9 13.2
-11 -3 -1 42.4 5.3
11 3 1 28.3 9.3
-3 -11 -1 33.9 3.9
11 3 1 14.1 10.4
-3 -11 -1 33.3 9
11 3 1 36.4 6.2
-3 -11 -1 31.7 5.3
11 3 1 28 12.6
-3 -11 -1 34.4 4.4
-10 -2 -1 47.8 11.4
2 10 1 29 3.8
2 10 1 34.3 5.1
-2 -10 -1 35 17.3
-2 -10 -1 27.9 3.6
10 2 1 26.9 4.3
-2 -10 -1 26.1 4.1
10 2 1 27.3 10.1
-2 -10 -1 21 3.6
1 9 1 191.28 20.4
1 9 1 242.78 20.2
-9 -1 -1 198.58 24.2
1 9 1 220.28 28.1
-1 -9 -1 188.18 20.1
9 1 1 222.98 23.4
9 1 1 239.18 19.9
-1 -9 -1 214.38 22
9 1 1 252.57 24.4
0 8 1 128.09 20.7
0 8 1 153.58 17
0 8 1 153.38 16.3
-8 0 -1 171.18 17.8
0 -8 -1 125.49 17.6
8 0 1 166.58 17.1
0 -8 -1 147.29 15.5
8 0 1 151.98 18
8 0 1 123.79 14.1
0 -8 -1 142.49 17.6
8 0 1 124.69 18.6
0 -8 -1 139.39 23.6
-7 1 -1 22.5 3.5
-1 7 1 37.3 9.8
-1 7 1 44.9 12
1 -7 -1 19.6 9
7 -1 1 25 4.3
7 -1 1 23.7 4
1 -7 -1 40.5 8
1 -7 -1 19.6 3
-2 6 1 24.5 9.2
-2 6 1 15.8 4.3
-6 2 -1 15.3 4.2
-2 6 1 27.3 7.6
-6 2 -1 19.7 5.5
2 -6 -1 20.1 15.6
6 -2 1 12.7 2.2
6 -2 1 30.7 9
6 -2 1 27.5 6.7
2 -6 -1 31.3 8.3
6 -2 1 22.3 7.1
-3 5 1 63.29 11.2
-5 3 -1 78.69 10.7
-5 3 -1 70.19 7.7
-3 5 1 78.29 11.7
-3 5 1 53.29 11
5 -3 1 80.29 11.4
3 -5 -1 65.69 8.7
3 -5 -1 63.59 11.1
5 -3 1 69.39 7.6
-4 4 1 199.88 20.9
-4 4 1 244.08 24.4
-4 4 -1 219.88 23.4
-4 4 -1 234.38 19.7
-4 4 -1 217.78 23.8
4 -4 -1 227.18 21.6
4 -4 -1 236.68 20.6
-5 3 1 58.79 7.7
-3 5 -1 69.39 10.2
-5 3 1 60.89 10.9
-3 5 -1 59.29 11.9
5 -3 -1 73.69 10.1
5 -3 -1 66.79 8.8
3 -5 1 67.19 12.1
3 -5 1 68.79 12
5 -3 -1 73.49 11.7
5 -3 -1 68.89 11.3
-2 6 -1 22.3 11.1
-6 2 1 20.3 7.3
6 -2 -1 47.3 10.9
6 -2 -1 25 5.3
2 -6 1 8 10
2 -6 1 30.4 8.9
6 -2 -1 26.6 5.3
6 -2 -1 25 6.7
2 -6 1 19.1 12
-1 7 -1 31 7.5
-1 7 -1 32.7 12.8
1 -7 1 18.9 3.4
7 -1 -1 28.6 4.5
7 -1 -1 21 10.6
7 -1 -1 25 4.3
1 -7 1 37.4 9.6
7 -1 -1 23.6 6.6
1 -7 1 18.7 10.2
-8 0 1 156.68 18.2
0 8 -1 130.69 21.5
-8 0 1 147.19 19.7
0 8 -1 148.09 14.9
0 -8 1 133.79 17.9
8 0 -1 153.38 19.4
0 -8 1 122.89 15.9
8 0 -1 148.49 18.4
1 9 -1 161.08 23.3
1 9 -1 149.88 15.9
-9 -1 1 198.68 19.4
-9 -1 1 153.48 21
9 1 -1 202.68 21.9
9 1 -1 181.58 16
-1 -9 1 185.48 18.9
-1 -9 1 166.98 24.5
-1 -9 1 185.78 17.5
-10 -2 1 7.2 14.1
2 10 -1 60.39 17.4
2 10 -1 35.7 4.7
-10 -2 1 32.3 4.1
-2 -10 1 28.4 4.2
-2 -10 1 54.99 20.2
10 2 -1 32 5.1
-2 -10 1 23.7 4.7
10 2 -1 26.2 4.8
10 2 -1 24.8 3.4
10 2 -1 21.2 11.4
3 11 -1 22.6 5.6
-11 -3 1 37.9 7.5
-3 -11 1 22.1 9.5
11 3 -1 41.7 5
-3 -11 1 31.4 5
-12 -4 1 21.1 7.4
4 12 -1 16.1 13.4
-4 -12 1 16.4 13.1
12 4 -1 23 15.5
-4 -12 1 21.6 5.8
5 13 -1 31.3 5.7
-5 -13 1 33.3 4.7
13 5 -1 42.2 6.8
-5 -13 1 41.6 5.5
-5 -13 1 31.8 4.6
13 5 -1 35 5.3
-14 -6 1 67.09 7.7
6 14 -1 71.09 7.4
-6 -14 1 67.49 7.3
-6 -14 1 68.39 7.7
-6 -14 1 62.29 7.5
14 6 -1 58.29 7.3
14 6 -1 54.99 9.3
-15 -7 1 2.5 3
7 15 -1 3.5 4.7
15 7 -1 8 4.3
-7 -15 1 -4 4.3
-7 -15 1 11.2 4.1
-7 -15 1 1 3.3
15 7 -1 10 6.2
8 16 -1 7.4 5
-8 -16 1 1.5 4.2
-8 -16 1 15.1 4.8
-17 -9 1 5.2 4.6
9 17 -1 -7.7 5.5
17 9 -1 -11.3 7.4
17 9 -1 -8.2 5.1
8 17 1 46.1 7.2
-17 -8 -1 41.3 6.4
8 17 1 48.7 6.6
17 8 1 38.1 5.6
-8 -17 -1 44.6 6.5
17 8 1 30.7 8.9
-8 -17 -1 48.7 7.1
-16 -7 -1 25 4.8
7 16 1 32.5 7.5
7 16 1 18.1 4.4
16 7 1 21.7 4.7
-7 -16 -1 25.3 4.4
-7 -16 -1 27.9 5.7
6 15 1 2.3 3.7
-15 -6 -1 3.2 3.7
6 15 1 3.8 6
-6 -15 -1 -3.2 6.5
-6 -15 -1 1.6 4.3
15 6 1 -2.1 7.4
15 6 1 1.3 7.2
-14 -5 -1 3 3.6
5 14 1 2 5.7
5 14 1 -0.1 3.1
14 5 1 -5.1 3.9
-5 -14 -1 -5.7 5.4
14 5 1 3 5.2
-5 -14 -1 1 3.8
-5 -14 -1 0.3 2.8
-13 -4 -1 65.49 7.4
4 13 1 64.09 8.8
4 13 1 73.29 7.8
-4 -13 -1 59.09 7.5
-4 -13 -1 62.59 7.5
13 4 1 67.19 10.5
13 4 1 72.99 9
-12 -3 -1 223.78 23.8
3 12 1 182.88 17.4
3 12 1 209.08 18.8
-3 -12 -1 163.88 17.2
-3 -12 -1 216.88 18.2
12 3 1 211.88 21.9
-3 -12 -1 195.98 18.8
12 3 1 150.68 19.7
-11 -2 -1 108.69 13.6
2 11 1 110.69 16.8
2 11 1 75.79 20.7
-11 -2 -1 98.39 17.8
2 11 1 98.19 13.1
-2 -11 -1 96.09 11.6
11 2 1 124.49 18.5
11 2 1 122.49 13.3
11 2 1 100.39 17.6
-2 -11 -1 89.69 13.2
11 2 1 113.29 12.1
-10 -1 -1 0 45.7
1 10 1 2.9 5.8
1 10 1 -22 15
-1 -10 -1 -31.4 38.3
-1 -10 -1 4.2 8.1
10 1 1 25.1 38.6
10 1 1 49.9 20.5
-1 -10 -1 -1.2 6.1
10 1 1 4.9 15.9
-9 0 -1 12.9 5.6
0 9 1 0.4 9.3
-9 0 -1 -2.6 9.3
0 9 1 3 6.9
0 9 1 -21.9 14.7
9 0 1 -1.7 4.9
0 -9 -1 5.8 16.4
9 0 1 -4.3 8.3
9 0 1 15.8 8.2
-1 8 1 192.58 19
-1 8 1 247.38 20.9
-1 8 1 190.98 25.3
8 -1 1 213.38 21.3
1 -8 -1 209.98 19
1 -8 -1 239.18 22.1
1 -8 -1 235.78 28
1 -8 -1 198.58 18.1
-7 2 -1 365.56 32.7
-7 2 -1 445.56 36.5
-2 7 1 345.87 32.1
-2 7 1 342.87 33.4
-2 7 1 416.76 38.6
7 -2 1 340.67 33.4
2 -7 -1 351.16 31.7
2 -7 -1 391.96 32.3
-3 6 1 184.58 16.5
-6 3 -1 207.68 16.9
6 -3 1 167.28 16.4
6 -3 1 172.88 16.9
6 -3 1 164.58 20.2
3 -6 -1 215.48 16.8
-4 5 1 7.1 8.8
-4 5 1 19.7 3.3
5 -4 1 12.3 1.9
4 -5 -1 13.1 15.4
-5 4 1 24.2 3.4
5 -4 -1 29.3 4.5
4 -5 1 17.2 12.6
5 -4 -1 27.1 38.7
-3 6 -1 205.88 25.6
-3 6 -1 207.28 19.4
3 -6 1 254.47 25.9
6 -3 -1 225.98 20
6 -3 -1 210.88 20
-2 7 -1 290.17 28.4
-2 7 -1 312.87 35
2 -7 1 339.37 29.5
2 -7 1 323.77 35.1
7 -2 -1 363.76 32.2
-8 1 1 191.98 23.4
-1 8 -1 168.28 25.9
-1 8 -1 231.48 19.7
1 -8 1 199.18 28.5
8 -1 -1 178.78 22.2
8 -1 -1 196.18 18.4
1 -8 1 217.18 20.7
1 -8 1 242.88 19.5
8 -1 -1 194.68 18
-9 0 1 -7.3 8.6
-9 0 1 10.6 7.7
0 9 -1 -16.4 10.8
0 9 -1 -1.3 4.5
0 -9 1 9.3 7
0 -9 1 4.3 9.1
0 -9 1 -3.6 12.1
1 10 -1 -0.1 14.4
1 10 -1 2 3
-10 -1 1 7.3 41.2
-1 -10 1 9 8.6
10 1 -1 4.7 52.29
10 1 -1 68.49 47.9
-1 -10 1 -6.1 16.9
2 11 -1 89.59 13.3
-11 -2 1 76.39 9.9
-2 -11 1 93.29 12.2
11 2 -1 94.39 8.8
-2 -11 1 62.49 9.8
11 2 -1 107.99 12.7
3 12 -1 167.38 15.8
-3 -12 1 145.79 16.1
-3 -12 1 198.38 16.9
12 3 -1 161.68 18
12 3 -1 185.78 18.3
4 13 -1 48.6 6.1
-13 -4 1 54.69 6.3
13 4 -1 42.8 5.5
-4 -13 1 53.69 6.1
13 4 -1 53.29 7.6
-4 -13 1 50.19 6.1
5 14 -1 0 3.2
5 14 -1 -9.6 4.8
-14 -5 1 -0.1 5.3
14 5 -1 2.2 7.4
-5 -14 1 -2.9 3
14 5 -1 -7.8 5.5
-5 -14 1 -0.5 3.5
6 15 -1 -1.3 4.2
6 15 -1 4 5.5
-15 -6 1 4.6 3.3
-6 -15 1 3.7 2.8
-6 -15 1 -6.5 8.6
15 6 -1 13.2 15
15 6 -1 7.9 9.7
-6 -15 1 2.1 12.5
7 16 -1 30.3 6
-16 -7 1 23.7 5.6
7 16 -1 27.4 6.9
16 7 -1 19.9 5.5
-7 -16 1 12.5 5.4
8 17 -1 27.2 6
-17 -8 1 36.2 5.5
17 8 -1 40 6.2
-8 -17 1 45.9 6.5
-17 -7 -1 2.1 3.9
7 17 1 -3 4.6
7 17 1 9.9 3.8
-7 -17 -1 0 3.1
-7 -17 -1 5.4 5.4
17 7 1 1.3 4.9
-16 -6 -1 85.29 10.1
6 16 1 92.69 9.9
6 16 1 118.59 12.5
-6 -16 -1 107.19 10.5
16 6 1 79.69 10.1
16 6 1 101.09 11.5
16 6 1 97.89 12.3
-6 -16 -1 104.99 10.6
-15 -5 -1 161.18 19.6
5 15 1 174.28 16.3
5 15 1 194.98 21.2
15 5 1 165.68 21.2
-5 -15 -1 190.38 16.9
-5 -15 -1 189.58 18.8
15 5 1 186.88 22.8
15 5 1 142.49 17.2
-14 -4 -1 77.69 8.3
4 14 1 88.29 8.7
4 14 1 78.29 9.7
14 4 1 59.59 8.8
14 4 1 67.59 8
-4 -14 -1 81.29 8.6
-4 -14 -1 79.89 8.6
3 13 1 2.5 3.6
3 13 1 -6.9 7.7
-3 -13 -1 1 4.2
-3 -13 -1 -2.1 6.5
13 3 1 8.9 12.1
13 3 1 2.8 12.4
-3 -13 -1 -0.6 4.3
2 12 1 -3.9 10.9
-12 -2 -1 3.4 4.8
-2 -12 -1 2.8 6.3
12 2 1 5.1 4.9
12 2 1 -1 10.3
12 2 1 1.9 9.9
12 2 1 -11.5 8.6
-2 -12 -1 -2.3 6.9
1 11 1 378.46 33.9
1 11 1 353.46 42.6
1 11 1 352.26 35.2
-11 -1 -1 408.66 35.7
11 1 1 402.06 39.9
-1 -11 -1 382.46 35.7
-1 -11 -1 369.46 33.5
-10 0 -1 792.02 81.79
0 10 1 789.02 72.79
0 10 1 768.72 77.89
0 -10 -1 689.23 74.19
10 0 1 781.62 73.19
10 0 1 939.61 80.19
0 -10 -1 857.61 71.89
0 -10 -1 882.51 81.09
-1 9 1 231.78 20.3
-9 1 -1 216.68 22
-1 9 1 222.48 28
-1 9 1 217.28 20.1
1 -9 -1 177.48 19.6
9 -1 1 205.18 23.6
9 -1 1 242.68 21.1
9 -1 1 195.88 23.1
-2 8 1 12.4 11.3
-8 2 -1 5.3 5.6
-8 2 -1 3.6 3.2
-2 8 1 -0.5 6.7
-2 8 1 1.5 8.6
8 -2 1 0.1 7.7
8 -2 1 6.7 2.5
8 -2 1 -2.6 5.7
2 -8 -1 1.6 4.2
2 -8 -1 5.2 9.2
8 -2 1 0.9 3.7
2 -8 -1 12.2 9.1
2 -8 -1 3.6 3.4
-7 3 -1 -12.9 8.7
-3 7 1 2.3 6
-3 7 1 3 4.6
-3 7 1 0.1 10
-7 3 -1 7.5 9
-3 7 1 1.7 8.8
3 -7 -1 -7.7 8.5
7 -3 1 2 3.1
7 -3 1 5.8 8.6
3 -7 -1 3.4 12.4
-6 4 -1 404.16 40.7
-6 4 -1 366.66 37
-4 6 1 419.96 39.2
-4 6 1 377.66 36.6
-6 4 -1 437.06 35.8
-6 4 -1 343.17 37.7
6 -4 1 437.26 36.1
6 -4 1 361.26 39.3
4 -6 -1 405.36 33.3
6 -4 1 357.06 37.6
4 -6 -1 351.26 35
-5 5 1 1255.27 147.39
-5 5 -1 1183.38 152.78
-5 5 1 1116.99 130.39
-5 5 -1 1435.66 152.28
-5 5 -1 1493.45 164.98
-5 5 1 1310.97 157.78
-5 5 1 1200.78 126.39
5 -5 1 1085.99 126.09
5 -5 -1 1422.96 150.88
5 -5 -1 1230.38 144.09
5 -5 -1 1123.69 130.49
-4 6 -1 282.37 33.3
-4 6 -1 293.77 28.7
-6 4 1 299.57 29.3
4 -6 1 285.17 33.2
4 -6 1 339.47 27.7
6 -4 -1 363.16 30.9
6 -4 -1 338.47 29.2
6 -4 -1 322.27 30.7
6 -4 -1 384.06 34.3
-7 3 1 6.9 7.3
-3 7 -1 2.1 7.4
-7 3 1 -15.4 11.3
-3 7 -1 11.3 12.8
3 -7 1 2.5 14.4
7 -3 -1 5.9 9.1
7 -3 -1 -4 9.1
7 -3 -1 1.3 5.5
7 -3 -1 5.7 8.8
3 -7 1 5.6 6.7
3 -7 1 -4.4 8.8
-2 8 -1 -1.1 4.8
-8 2 1 7.4 6.8
-2 8 -1 -0.3 8.4
-8 2 1 15.8 8.1
2 -8 1 -18.1 10.2
2 -8 1 1.7 6.5
8 -2 -1 5.6 4.6
8 -2 -1 2.5 8.1
2 -8 1 3.2 4.3
8 -2 -1 -6 8.4
8 -2 -1 5.6 5
-9 1 1 166.98 21.2
-1 9 -1 153.78 15
-1 9 -1 154.98 22.5
1 -9 1 149.39 23.6
1 -9 1 191.78 21.5
9 -1 -1 168.08 15
-10 0 1 603.04 64.09
10 0 -1 721.43 62.79
10 0 -1 724.03 81.59
0 -10 1 808.82 61.29
0 -10 1 805.42 74.49
10 0 -1 643.34 66.69
1 11 -1 330.97 30.5
11 1 -1 343.87 29.6
-1 -11 1 313.87 31.9
11 1 -1 338.57 32.2
-1 -11 1 314.17 31
2 12 -1 -7.6 9.9
-12 -2 1 12.9 10
2 12 -1 1.5 2.9
-2 -12 1 -0.9 11.2
12 2 -1 -1.2 7.3
12 2 -1 15.4 13.3
12 2 -1 1.9 10.2
-13 -3 1 0 3.6
13 3 -1 29.9 15.3
-3 -13 1 -4.3 6.2
13 3 -1 -6.4 7.2
4 14 -1 48.3 7.2
-14 -4 1 49.99 6.7
4 14 -1 49.8 7.2
-4 -14 1 65.89 7.6
14 4 -1 71.59 7.9
14 4 -1 72.79 8
-4 -14 1 70.99 7.2
5 15 -1 141.99 13.5
-15 -5 1 137.59 14.6
5 15 -1 112.49 15
-5 -15 1 131.89 13.1
15 5 -1 135.19 15.8
-5 -15 1 150.78 16.2
-5 -15 1 166.88 15.7
-16 -6 1 105.99 10.8
6 16 -1 86.99 9.8
16 6 -1 100.59 10.4
-6 -16 1 94.09 9.8
-6 -16 1 98.99 10.4
-6 -16 1 80.49 10
-17 -7 1 10 5
7 17 -1 8.7 5.4
-7 -17 1 15.3 5.1
17 7 -1 5.3 4.5
17 7 -1 -8.1 6.5
-7 -17 1 4.8 4.2
-17 -6 -1 26.4 4.8
6 17 1 44.4 6.8
6 17 1 30.1 6.2
17 6 1 28.6 8.2
-6 -17 -1 38.2 6.1
-6 -17 -1 36.8 5.3
5 16 1 4.5 5.8
-5 -16 -1 3.5 3.8
16 5 1 -0.2 7.5
16 5 1 -1.2 3.6
16 5 1 3 6.3
-15 -4 -1 -2 5.2
4 15 1 -5.7 3.9
4 15 1 4.3 5.7
15 4 1 10.1 5.9
-4 -15 -1 -2.2 4.2
-4 -15 -1 -4.1 4.2
15 4 1 -1.5 13.8
15 4 1 -4.9 8.1
3 14 1 6.3 4.6
-14 -3 -1 5.4 2.7
14 3 1 3.4 3.4
-3 -14 -1 8.6 4.9
14 3 1 4.1 4.8
14 3 1 -0.3 2.6
2 13 1 123.59 13.1
-13 -2 -1 155.18 17.3
2 13 1 156.18 14.9
-2 -13 -1 131.29 13.5
13 2 1 114.49 13.5
-2 -13 -1 151.58 13.5
13 2 1 159.98 22.2
-2 -13 -1 133.79 14
13 2 1 156.28 15.8
1 12 1 179.38 17.6
-12 -1 -1 175.68 18.3
1 12 1 176.28 16.1
12 1 1 173.88 20
-1 -12 -1 184.48 16.7
-1 -12 -1 168.38 17.5
-1 -12 -1 154.48 16.3
12 1 1 171.18 19.5
12 1 1 163.18 23.9
12 1 1 154.08 23
-11 0 -1 -7 10.1
0 11 1 -26 14
0 11 1 5.9 4.6
-11 0 -1 21.8 9.7
11 0 1 3.5 12.1
11 0 1 -0.2 4.8
11 0 1 19.7 14.5
-1 10 1 34.6 6.3
-1 10 1 14 23.9
-1 10 1 41 8.6
1 -10 -1 57.59 30.2
1 -10 -1 41.7 7.8
1 -10 -1 39.4 6.4
-2 9 1 41.2 7.1
-9 2 -1 35.3 10.9
-2 9 1 73.79 12.2
9 -2 1 50.09 12.3
2 -9 -1 58.29 6.6
2 -9 -1 46.2 17.4
2 -9 -1 59.49 8.4
2 -9 -1 51.29 5.8
9 -2 1 76.59 13.9
9 -2 1 59.59 9.5
2 -9 -1 41.3 6.9
9 -2 1 51.29 6.6
-8 3 -1 50.99 10.9
-3 8 1 47.7 7.2
-3 8 1 53.29 14.8
-3 8 1 51.89 11.7
-3 8 1 40.8 5.9
8 -3 1 65.89 12.2
8 -3 1 48.6 7.5
3 -8 -1 45.1 5.9
8 -3 1 53.79 6.3
3 -8 -1 52.19 8.9
3 -8 -1 68.39 15.2
-4 7 1 230.38 18
-4 7 1 182.58 17.4
-7 4 -1 164.98 21.1
7 -4 1 176.28 17.2
7 -4 1 172.68 17.9
4 -7 -1 210.58 18.4
7 -4 1 189.68 22.5
4 -7 -1 220.98 17.3
-6 5 -1 1.4 17
-5 6 1 8.3 7.3
-6 5 -1 6.9 5.8
-5 6 1 -10.4 8.2
-5 6 1 2.7 3.6
-5 6 1 -13.3 11.6
-6 5 -1 7.5 10.2
5 -6 -1 8 15
-5 6 -1 4.7 4.8
-6 5 1 4.7 11.7
-5 6 -1 6.7 5.9
-5 6 -1 2.9 9.7
-5 6 -1 -16.3 11.8
6 -5 -1 10.4 2.7
-7 4 1 254.17 22.3
-4 7 -1 282.87 30.6
-4 7 -1 268.67 23.8
7 -4 -1 211.98 22.8
4 -7 1 220.78 28.8
7 -4 -1 255.97 22.9
4 -7 1 271.37 22.8
-3 8 -1 40.2 4.9
-3 8 -1 45 11.7
-8 3 1 46.8 10.4
3 -8 1 33.7 4.5
3 -8 1 44.3 13.6
3 -8 1 44.3 5.3
8 -3 -1 65.59 12
8 -3 -1 46.3 8.4
-2 9 -1 43.5 6.9
-2 9 -1 29.4 12.2
-9 2 1 69.69 14.2
-9 2 1 61.09 10
2 -9 1 77.39 17.6
2 -9 1 42.5 5.9
2 -9 1 41.2 6.7
-1 10 -1 43.7 12.4
-1 10 -1 -1.5 21.1
10 -1 -1 -1.7 21.3
1 -10 1 79.69 18.6
1 -10 1 87.69 29.6
-11 0 1 4.7 4.8
0 11 -1 2.9 10.6
11 0 -1 24.5 6.5
-12 -1 1 134.99 14.6
-1 -12 1 154.98 17.6
12 1 -1 123.99 15.7
12 1 -1 190.98 24.4
12 1 -1 163.48 14.5
2 13 -1 116.59 11.7
-2 -13 1 117.79 13
13 2 -1 112.19 12.9
13 2 -1 149.49 20.8
-2 -13 1 119.79 13.2
3 14 -1 5 4
-14 -3 1 6.8 4
3 14 -1 9.9 4.5
-3 -14 1 7.2 3.2
14 3 -1 6 3.9
-3 -14 1 5 3
14 3 -1 8.6 3.7
4 15 -1 -3.7 5.4
-15 -4 1 1.3 5.4
-4 -15 1 4.1 4.5
-4 -15 1 0.4 7.7
15 4 -1 -9.6 14.8
15 4 -1 7.3 5.5
-16 -5 1 3.1 7.9
5 16 -1 3.2 4.5
16 5 -1 -6.2 5.8
-5 -16 1 5.5 4.1
16 5 -1 8.7 7.1
-5 -16 1 1.5 3.3
-17 -6 1 43.7 6.7
6 17 -1 31.3 5.5
17 6 -1 25.8 4.8
-6 -17 1 40.8 5.8
17 6 -1 33.6 8.3
-6 -17 1 41.5 5.7
6 18 1 8.4 7.2
18 6 1 12.3 4
18 6 1 4.8 7.5
-6 -18 -1 13.4 4.1
5 17 1 17.6 5.6
-17 -5 -1 18.5 3.9
5 17 1 22.3 5.5
-5 -17 -1 19.1 4.9
17 5 1 15.9 4.7
-16 -4 -1 66.99 8.9
4 16 1 90.09 9.4
4 16 1 86.89 9.8
16 4 1 73.19 10.8
16 4 1 84.89 9.7
-4 -16 -1 81.99 8.6
-4 -16 -1 81.99 8.8
16 4 1 66.49 8.7
3 15 1 13.9 3.6
3 15 1 5.4 3.9
-15 -3 -1 4.3 3.8
15 3 1 9.3 4.3
15 3 1 4.6 6.5
-3 -15 -1 6.2 3.2
-3 -15 -1 7.8 3.2
2 14 1 12.3 5.1
-2 -14 -1 2.6 4.1
14 2 1 10.8 8.5
14 2 1 18.4 4.9
-2 -14 -1 10.4 3.3
14 2 1 6.2 4.6
-13 -1 -1 42.4 7.9
1 13 1 43.5 6.3
1 13 1 52.39 7
13 1 1 46 13
13 1 1 42 11.5
-1 -13 -1 49.2 6.1
-1 -13 -1 55.09 6.5
13 1 1 50.09 7.2
-1 -13 -1 47.8 6.1
0 12 1 24.3 9.3
0 -12 -1 37.2 5.6
0 -12 -1 34.2 5.2
12 0 1 30.2 6.4
12 0 1 17.9 8
12 0 1 28.4 11.5
0 -12 -1 48.2 10.9
-1 11 1 370.76 42.6
-1 11 1 359.06 33.9
-11 1 -1 358.56 33.4
-1 11 1 398.86 35
11 -1 1 342.67 37.4
1 -11 -1 369.66 35.4
11 -1 1 304.77 37.5
11 -1 1 392.16 33
1 -11 -1 389.46 32.2
-10 2 -1 22.8 3.9
-10 2 -1 17.9 8.1
-2 10 1 23.3 3.6
-2 10 1 32.8 14.4
-2 10 1 31.5 5.4
2 -10 -1 32.7 5.4
2 -10 -1 21.6 3
2 -10 -1 20.2 3.2
2 -10 -1 24.6 4.1
10 -2 1 28.5 4.2
10 -2 1 25.2 3.7
2 -10 -1 45.7 17.3
10 -2 1 17.9 9.4
10 -2 1 22.4 3.5
-3 9 1 12.6 12.4
-9 3 -1 12.7 2.6
-3 9 1 14.7 4.4
-9 3 -1 5.9 8.6
9 -3 1 16.1 10
3 -9 -1 13.5 14.3
9 -3 1 12.1 5.7
9 -3 1 17.8 4.3
3 -9 -1 2 5.3
9 -3 1 10.4 2.3
-4 8 1 61.59 6.3
-8 4 -1 82.99 13
-4 8 1 53.59 13.6
-4 8 1 75.39 15.1
-8 4 -1 72.69 9.2
8 -4 1 65.49 8.1
4 -8 -1 43.4 6.5
8 -4 1 58.69 13
8 -4 1 41 7.6
4 -8 -1 66.39 6.8
8 -4 1 57.19 6.8
-7 5 -1 60.69 10.2
-5 7 1 38.5 6.7
-5 7 1 55.09 13
-7 5 -1 39.2 7.5
-5 7 1 48 11.2
-5 7 1 37.2 6.2
7 -5 1 35 4.9
5 -7 -1 50.19 8.7
5 -7 -1 43.3 6.6
-6 6 -1 335.37 38
-6 6 -1 331.87 32.5
-6 6 1 401.76 31.9
-6 6 -1 359.66 32.9
-6 6 1 357.46 32.8
6 -6 -1 386.86 31.4
6 -6 1 372.16 32.3
-5 7 -1 39.4 6.8
-7 5 1 43.8 10.9
-5 7 -1 39.7 12.1
-5 7 -1 18.4 9.6
-7 5 1 38.3 5.6
-5 7 -1 25.7 5.3
7 -5 -1 28 4.9
5 -7 1 47.2 10.1
7 -5 -1 39 10.7
7 -5 -1 33.8 5.1
7 -5 -1 39.2 5.4
5 -7 1 50.59 10.2
-8 4 1 66.99 6.8
-4 8 -1 61.09 7.1
-8 4 1 88.49 15.5
-4 8 -1 67.99 15.6
4 -8 1 65.99 8.1
8 -4 -1 53.59 10.9
8 -4 -1 53.69 8.3
4 -8 1 41.3 11.6
8 -4 -1 57.39 7
4 -8 1 53.19 6.8
8 -4 -1 51.39 6
-9 3 1 9.4 11.6
-3 9 -1 10.6 5.8
-9 3 1 13.3 2.8
-3 9 -1 -14.8 13.9
9 -3 -1 -7.8 10.1
9 -3 -1 9.9 2.7
3 -9 1 13.7 3.3
9 -3 -1 15.9 5.2
3 -9 1 8.6 2.8
3 -9 1 34.3 14.5
9 -3 -1 14.5 3.2
-10 2 1 26.5 3.4
-2 10 -1 11.1 11.4
10 -2 -1 30.6 5.1
2 -10 1 8.3 17.2
2 -10 1 20.2 8.7
-1 11 -1 323.67 27.3
11 -1 -1 301.67 27.2
1 -11 1 311.27 27.6
1 -11 1 243.28 27.2
0 12 -1 42.3 11.7
0 -12 1 46.3 7.1
0 -12 1 48.4 13.6
12 0 -1 58.49 19.4
-13 -1 1 49.7 6.2
1 13 -1 42.3 6.4
-1 -13 1 59.09 8.6
13 1 -1 45.2 6.3
-1 -13 1 62.99 7.5
13 1 -1 32.9 8.4
-14 -2 1 15.3 4.4
14 2 -1 1.2 5.9
-2 -14 1 11.3 4.1
14 2 -1 18.7 5.5
-15 -3 1 12.6 4.4
3 15 -1 6.1 4.7
15 3 -1 9.1 7.4
-3 -15 1 9.8 4
15 3 -1 4.7 5.7
-3 -15 1 5.5 4.3
-16 -4 1 90.59 11.3
4 16 -1 75.39 9.8
-4 -16 1 76.09 9.3
16 4 -1 81.59 9.7
16 4 -1 86.89 11.3
-17 -5 1 22.1 5.4
-5 -17 1 19 5
-5 -17 1 11.1 4.7
-5 -17 1 18.6 4.9
17 5 -1 7.9 7.3
6 18 -1 18.6 4.4
18 6 -1 2.5 7.5
-18 -5 -1 9.3 3.6
18 5 1 3 6.4
-5 -18 -1 16.1 5.3
18 5 1 3.5 4.5
-5 -18 -1 11 4
4 17 1 39.9 6.9
4 17 1 38.6 6.3
-17 -4 -1 28.9 4.9
17 4 1 34.4 7.1
-4 -17 -1 38.2 5.3
17 4 1 43.8 8
17 4 1 27.9 5
3 16 1 16 5.5
3 16 1 27.5 5.6
-16 -3 -1 21.7 5
16 3 1 23.1 4.9
16 3 1 13.5 5.4
-3 -16 -1 29 5.5
2 15 1 -5.1 3.9
2 15 1 6.5 5.4
-2 -15 -1 -2.8 4.6
15 2 1 0.6 8.1
-2 -15 -1 -6.7 4.5
15 2 1 5.8 8.5
1 14 1 30.7 5.5
1 14 1 19 8.2
-1 -14 -1 24.5 5.7
-1 -14 -1 25.3 10.9
-1 -14 -1 20.2 3.7
14 1 1 28.8 14.5
14 1 1 18.7 14.6
14 1 1 16.5 4.6
0 13 1 -2.4 4.5
0 13 1 10.4 4.6
0 -13 -1 1.1 3.4
0 -13 -1 1.4 4.5
0 -13 -1 1.9 3.4
13 0 1 -6.2 6.7
13 0 1 -1.4 3.5
-1 12 1 148.49 15
-1 12 1 169.38 15.4
12 -1 1 163.18 18.7
1 -12 -1 151.18 16.4
1 -12 -1 138.59 14.3
12 -1 1 186.68 22.7
-2 11 1 92.49 9.8
-11 2 -1 110.29 14.7
-2 11 1 90.89 10.2
-11 2 -1 86.29 17.7
11 -2 1 101.89 17.3
11 -2 1 98.69 13.4
2 -11 -1 88.39 9.6
2 -11 -1 73.99 8.4
2 -11 -1 107.39 10.2
-10 3 -1 5.5 8.9
-10 3 -1 -5.9 9.2
-3 10 1 -9.8 11.3
-3 10 1 -19.9 14.6
-3 10 1 1.4 2.5
10 -3 1 -1 12.4
10 -3 1 -12.2 9.9
10 -3 1 3.5 11.4
3 -10 -1 -4.3 8.4
3 -10 -1 -0.7 2.3
3 -10 -1 10.2 15.8
3 -10 -1 -1.9 14.6
10 -3 1 1.7 3.2
-4 9 1 43 14.6
-4 9 1 30 4.4
-4 9 1 55.09 15.9
-9 4 -1 46.8 12.3
-4 9 1 50.49 10.3
9 -4 1 36.5 12.4
9 -4 1 33.1 4.2
9 -4 1 49.4 7.2
9 -4 1 41.8 8.2
4 -9 -1 38.2 6.2
4 -9 -1 39 5.8
-5 8 1 1.6 2
-8 5 -1 8.6 10.7
-8 5 -1 3.7 6.7
-5 8 1 -2.4 6.2
-8 5 -1 3.9 7.6
-5 8 1 -6.7 8.3
-8 5 -1 -3.8 8.8
-5 8 1 6.3 11.2
8 -5 1 2.5 1.3
8 -5 1 2.7 10.6
5 -8 -1 0.1 6.8
5 -8 -1 -1.1 3.2
8 -5 1 0.6 4.8
8 -5 1 3.8 3.8
-7 6 -1 256.07 28
-6 7 1 186.48 18.9
-6 7 1 220.18 25.8
-6 7 1 229.48 26.2
-6 7 1 191.38 20.2
7 -6 1 198.28 20.8
6 -7 -1 240.78 20.7
6 -7 -1 218.78 20.9
-7 6 1 186.48 25.2
-6 7 -1 206.38 27.7
-6 7 -1 242.58 21.7
-6 7 -1 216.78 26.4
-7 6 1 195.88 19.7
-7 6 1 188.38 26.5
-6 7 -1 236.38 23.6
-7 6 1 183.78 20.9
7 -6 -1 271.67 29.2
7 -6 -1 261.27 22.6
6 -7 1 265.47 26.7
7 -6 -1 196.38 20.4
6 -7 1 251.97 25.8
-8 5 1 0.6 4.2
-5 8 -1 -0.3 8.8
-8 5 1 -3.6 8.3
-5 8 -1 -15.1 11
-5 8 -1 -3.5 3.4
5 -8 1 -8.5 8.6
5 -8 1 1.1 2.7
5 -8 1 -1.9 3.2
8 -5 -1 -3 9.8
8 -5 -1 -0.6 2.5
8 -5 -1 2.1 3.2
8 -5 -1 -2.4 5.5
8 -5 -1 -2.3 8
-9 4 1 29.8 10.7
-9 4 1 51.39 7.5
4 -9 1 35.4 6.1
9 -4 -1 57.49 10.8
9 -4 -1 59.49 13.7
9 -4 -1 56.99 8.1
4 -9 1 70.69 16.7
9 -4 -1 42.1 10.3
4 -9 1 46.7 6.9
-3 10 -1 1.1 0.9
-3 10 -1 -0.7 6.5
-3 10 -1 0.6 14.5
-10 3 1 4.2 6.5
3 -10 1 -11.5 17.7
10 -3 -1 8 11.6
10 -3 -1 9.8 13.1
10 -3 -1 3.4 4.7
10 -3 -1 2.9 7.1
3 -10 1 2.3 3.3
3 -10 1 -1.1 7.4
-2 11 -1 84.69 10.2
-11 2 1 111.39 15.7
2 -11 1 98.89 15.9
11 -2 -1 95.99 11.5
2 -11 1 105.89 18.5
-1 12 -1 136.39 12.8
-12 1 1 115.89 14.1
12 -1 -1 144.19 14.2
12 -1 -1 128.29 14.5
1 -12 1 130.49 16.9
1 -12 1 155.58 14.9
-13 0 1 1.5 2.5
0 13 -1 -3.2 6.1
0 -13 1 5 5
0 -13 1 7.5 6.6
1 14 -1 11.8 7.8
-1 -14 1 15.8 11.8
14 1 -1 29.7 12.4
-15 -2 1 6.9 6.2
2 15 -1 -10 9.8
-2 -15 1 -0.1 4.7
15 2 -1 6.4 5.7
-2 -15 1 -6 8.1
15 2 -1 -3.6 7
3 16 -1 24.1 6.7
-17 -4 1 38.1 6.4
4 17 -1 45.7 6.9
-4 -17 1 40.8 6.2
-4 -17 1 31.5 6.3
5 18 -1 -4.8 5.2
-5 -18 1 -2.9 4.6
-5 -18 1 -5.4 3.2
18 5 -1 -2.9 6.9
18 5 -1 -2.3 4.6
-5 -18 1 0.4 4.3
-18 -4 -1 -1.8 3.8
4 18 1 0.8 3.4
18 4 1 11.8 5.5
-4 -18 -1 4.2 5
-4 -18 -1 -1.1 5.3
-17 -3 -1 2 3.6
3 17 1 2.7 3.5
-3 -17 -1 6.3 7.5
17 3 1 2.4 5.4
2 16 1 -9.5 4.8
-2 -16 -1 -0.3 6.9
16 2 1 -4.2 11.5
16 2 1 -1.8 11.2
-2 -16 -1 6.2 4.7
-15 -1 -1 144.39 15.5
1 15 1 102.39 11.8
1 15 1 127.29 13.6
-1 -15 -1 136.19 12
15 1 1 106.79 13
15 1 1 114.39 14.8
15 1 1 149.88 18.1
-1 -15 -1 119.69 12.9
0 14 1 155.28 15.1
0 14 1 145.69 15.7
-14 0 -1 167.58 19
14 0 1 157.98 22.3
14 0 1 147.99 19.4
0 -14 -1 138.69 16.6
14 0 1 153.88 18.9
0 -14 -1 166.68 17.4
0 -14 -1 160.48 16
-1 13 1 44.8 6.3
-1 13 1 45.7 8.8
13 -1 1 43 8.6
1 -13 -1 47.4 7.2
1 -13 -1 32.9 5.9
13 -1 1 32.4 5.4
-12 2 -1 13.6 10.3
-2 12 1 2.8 3.9
-2 12 1 4.1 8.6
2 -12 -1 12.7 9.7
12 -2 1 -2.7 24
12 -2 1 -28.6 14.2
12 -2 1 2.4 3
12 -2 1 -3.6 15.5
2 -12 -1 2 7.4
-3 11 1 29.8 4.7
-11 3 -1 39.1 14.3
-3 11 1 25.2 6
11 -3 1 35.8 6
3 -11 -1 36 4.3
3 -11 -1 37.9 6.3
11 -3 1 41.3 10.7
3 -11 -1 34.4 11.1
11 -3 1 41.8 5.9
-4 10 1 276.87 37.4
-4 10 1 292.97 28.6
-10 4 -1 308.57 34.3
10 -4 1 327.57 28.2
4 -10 -1 341.67 30.5
10 -4 1 274.37 28.1
4 -10 -1 317.17 37.5
10 -4 1 355.86 27.4
10 -4 1 266.57 33.7
-5 9 1 342.47 38.1
-9 5 -1 338.17 35.3
-5 9 1 354.86 28.6
-5 9 1 259.57 34.7
5 -9 -1 283.37 27.8
9 -5 1 361.76 37.3
5 -9 -1 309.27 29.9
-6 8 1 50.59 13.2
-6 8 1 30.3 3.8
-8 6 -1 37.3 4.6
-6 8 1 41.3 6
-8 6 -1 60.69 13.4
-6 8 1 51.99 15.2
-6 8 1 42.2 15
-8 6 -1 64.09 15.5
6 -8 -1 51.29 9.6
8 -6 1 24.2 4.1
6 -8 -1 50.29 14.3
-7 7 -1 -0.6 9.9
-7 7 1 4.6 6.3
-7 7 1 11 11.8
-7 7 -1 -9.6 12.6
-7 7 1 1.7 5.3
-7 7 -1 3.5 8.2
-7 7 -1 5.1 5.7
7 -7 1 8.3 4.9
7 -7 1 7.4 9.1
-6 8 -1 30.8 12.7
-8 6 1 61.59 7.7
-8 6 1 55.89 12.9
-6 8 -1 57.49 9.3
-6 8 -1 73.49 17.1
-6 8 -1 46 10.6
8 -6 -1 50.99 7.1
6 -8 1 57.59 11.9
8 -6 -1 73.79 16.1
8 -6 -1 58.79 6.4
8 -6 -1 64.49 10.9
6 -8 1 61.49 14.5
-5 9 -1 300.47 39.4
-5 9 -1 364.26 31.3
-9 5 1 373.76 31.2
-9 5 1 290.97 37.3
-5 9 -1 348.07 41.4
5 -9 1 327.07 30.7
9 -5 -1 326.47 30.7
9 -5 -1 378.66 30.4
5 -9 1 338.37 40.2
9 -5 -1 377.36 38.6
9 -5 -1 332.07 31.8
9 -5 -1 395.16 32
-10 4 1 305.67 27.8
-4 10 -1 281.47 37.2
-4 10 -1 317.37 26
4 -10 1 285.47 26.2
4 -10 1 282.97 35.3
10 -4 -1 257.07 27.1
10 -4 -1 253.47 25.1
-11 3 1 26.3 3.7
11 -3 -1 18.6 4.2
3 -11 1 44.3 10.4
-2 12 -1 8.8 6.8
-12 2 1 3.4 10.7
12 -2 -1 21 13.1
2 -12 1 16.3 12.7
12 -2 -1 1.9 6
-13 1 1 33.6 5.9
-1 13 -1 44 8.8
1 -13 1 39.2 12.9
13 -1 -1 38.5 9
1 -13 1 39.7 7.1
-14 0 1 92.19 13.1
0 -14 1 98.59 10.7
14 0 -1 133.79 13.1
0 -14 1 124.29 12.9
-15 -1 1 137.09 14.8
15 1 -1 120.89 16.1
15 1 -1 114.29 14.6
-1 -15 1 101.99 11.9
2 16 -1 10 3.9
-16 -2 1 10 4.1
16 2 -1 20 9.6
16 2 -1 -3.8 26.1
-2 -16 1 10.7 5
-2 -16 1 3.7 4.5
-17 -3 1 7.2 6.8
3 17 -1 -1.5 3.6
17 3 -1 5.8 7.1
-3 -17 1 3 6.1
-3 -17 1 2.4 4
4 18 -1 2.4 3.6
-4 -18 1 3.8 4.5
-4 -18 1 -0.3 4.3
18 4 -1 -0.3 4.5
-4 -18 1 4 3.4
-18 -3 -1 35.6 5.8
3 18 1 49.9 7
-3 -18 -1 57.29 6.5
18 3 1 43.9 6.9
-3 -18 -1 46.6 6.2
-17 -2 -1 80.39 9.9
2 17 1 99.79 9.3
17 2 1 70.29 8.7
-2 -17 -1 88.29 9.5
-2 -17 -1 105.99 9.6
17 2 1 72.89 9.8
1 16 1 28.7 10.4
-16 -1 -1 17.6 5.7
16 1 1 23.3 8.3
16 1 1 28.4 19.3
-1 -16 -1 18.5 7.6
-1 -16 -1 10.6 11.5
0 15 1 14.6 9.2
-15 0 -1 7.7 7.4
0 15 1 5.2 4.8
15 0 1 11.2 9.2
0 -15 -1 6.5 10.1
15 0 1 1.6 7.8
-14 1 -1 14.9 4.4
14 -1 1 20.9 13.6
1 -14 -1 29.8 9.2
14 -1 1 16.5 6.1
1 -14 -1 13.6 4.2
-13 2 -1 171.38 16.9
-2 13 1 152.68 15.1
13 -2 1 171.08 16.4
2 -13 -1 145.99 14.9
13 -2 1 131.09 18
2 -13 -1 125.99 13.9
-12 3 -1 226.18 20.5
-3 12 1 205.48 18.2
-3 12 1 167.58 18.2
12 -3 1 166.58 17.9
12 -3 1 200.28 26.6
12 -3 1 217.68 20.8
3 -12 -1 180.58 17.5
3 -12 -1 195.38 18.7
-4 11 1 46.9 6.4
-4 11 1 45.2 6.7
-11 4 -1 61.79 9.1
11 -4 1 34.4 14.8
4 -11 -1 55.99 8.4
11 -4 1 44.3 6.1
4 -11 -1 53.29 8.2
11 -4 1 66.59 15.3
-5 10 1 1.4 8.2
-5 10 1 -6.8 4.3
-10 5 -1 -25.5 15.5
-10 5 -1 4.7 4
10 -5 1 0.1 5.1
10 -5 1 -6.6 11.3
10 -5 1 9.6 10.6
5 -10 -1 0.5 10.8
-9 6 -1 55.69 7.2
-6 9 1 45.8 5.9
-9 6 -1 45.9 12.1
-9 6 -1 67.59 18.4
-6 9 1 67.29 17.6
-6 9 1 46.8 6
-6 9 1 64.09 9
6 -9 -1 47.7 6.5
9 -6 1 56.29 7.4
-8 7 -1 140.69 22.1
-7 8 1 129.99 20.6
-7 8 1 148.09 13.8
-8 7 -1 142.39 13.3
-7 8 1 121.99 13.8
-8 7 -1 167.98 16.7
8 -7 1 136.99 14.6
7 -8 -1 130.19 13.7
8 -7 1 135.39 13
-7 8 -1 104.39 11
-7 8 -1 98.79 18.8
-7 8 -1 102.69 16.9
-7 8 -1 110.69 11.5
-8 7 1 118.59 10.7
7 -8 1 152.18 18
-6 9 -1 67.19 13.4
-9 6 1 60.09 6.3
-6 9 -1 51.79 18.6
9 -6 -1 55.49 11
6 -9 1 53.79 10.2
9 -6 -1 44 17
9 -6 -1 45.1 6.2
9 -6 -1 39.3 5.5
9 -6 -1 52.49 7.2
-5 10 -1 14.8 18.6
-5 10 -1 8.2 17.2
-10 5 1 2.2 4.7
10 -5 -1 6.6 6
10 -5 -1 7.1 5.4
5 -10 1 -2.7 11.1
10 -5 -1 4.3 4.1
-4 11 -1 55.09 10.9
11 -4 -1 47.9 6.2
11 -4 -1 37 5.8
4 -11 1 42.1 6.8
4 -11 1 36.8 8.3
-3 12 -1 184.78 16.5
3 -12 1 149.49 17.1
12 -3 -1 192.28 18.2
3 -12 1 176.68 17.8
-13 2 1 99.99 12.7
2 -13 1 110.19 12.3
13 -2 -1 99.79 12
2 -13 1 134.99 15.4
-14 1 1 18.7 4.6
1 -14 1 31.5 8.8
14 -1 -1 20.3 10.3
0 15 -1 23.2 5.1
-15 0 1 15.5 10.7
15 0 -1 24.3 12.3
0 -15 1 14.6 11.6
16 1 -1 49.99 25.7
-17 -2 1 90.29 10.4
2 17 -1 92.19 10.7
17 2 -1 100.99 10.5
-2 -17 1 93.69 10.2
17 2 -1 111.89 13.7
3 18 -1 47.3 7.3
-18 -3 1 60.19 7.6
-3 -18 1 43.9 6.8
18 3 -1 43.5 6.5
-3 -18 1 50.29 7.5
18 3 -1 54.49 8.7
3 19 1 1.4 3.6
19 3 1 1.3 4.3
-18 -2 -1 11.5 3.7
2 18 1 8 5
-2 -18 -1 10.6 5.4
18 2 1 16.5 6.1
18 2 1 8.5 5.5
-17 -1 -1 21.2 7.5
1 17 1 30.9 7.1
-1 -17 -1 18.4 6.7
-16 0 -1 247.38 27.3
0 16 1 220.08 22
0 -16 -1 273.27 22.4
16 0 1 243.68 28.8
16 0 1 206.78 26.2
0 -16 -1 263.27 24.5
-15 1 -1 122.69 13.4
-1 15 1 138.49 12.9
1 -15 -1 121.99 19.6
15 -1 1 113.29 19.1
15 -1 1 130.09 16.1
1 -15 -1 120.39 13.5
15 -1 1 109.59 13.8
1 -15 -1 149.88 13.3
-2 14 1 12.9 4.9
-2 14 1 13 4.8
2 -14 -1 16.5 6
2 -14 -1 17.4 5.4
-3 13 1 10.6 8.7
-13 3 -1 1.9 5
-3 13 1 4.2 3.8
13 -3 1 -0.2 3.3
13 -3 1 6.3 11.8
13 -3 1 4.1 7.8
3 -13 -1 5.4 3.8
-4 12 1 8.4 2.9
-12 4 -1 16.2 6.1
12 -4 1 29.7 17.7
-5 11 1 383.56 33.7
-5 11 1 359.46 34.9
5 -11 -1 378.06 33.3
5 -11 -1 399.46 35.5
-6 10 1 474.75 39.8
-10 6 -1 451.95 39.4
-10 6 -1 425.06 49.99
10 -6 1 430.76 41.6
6 -10 -1 476.95 39
10 -6 1 372.66 48.1
10 -6 1 437.56 39.5
-7 9 1 4.4 7.7
-9 7 -1 2.4 4.8
-7 9 1 5 7.6
-9 7 -1 4.1 5.3
-9 7 -1 0.7 12
-7 9 1 8.8 6.8
9 -7 1 7.6 2.9
7 -9 -1 13.2 12.8
9 -7 1 2.4 5.5
-8 8 1 0 1.7
-8 8 -1 2.2 7.1
-8 8 -1 -7.4 4.9
-8 8 1 3.2 3.4
-8 8 -1 5.4 14.1
8 -8 -1 4.7 3.1
8 -8 1 7.9 3.2
8 -8 -1 1.3 3.3
8 -8 1 3.9 6.7
-7 9 -1 3.5 8.8
-7 9 -1 11.2 3
-7 9 -1 -5.1 11.2
7 -9 1 5.5 6
9 -7 -1 -3.6 4.7
7 -9 1 4.5 10.1
9 -7 -1 10 3.4
9 -7 -1 14.3 4.4
-6 10 -1 446.66 38
-10 6 1 451.25 37.6
6 -10 1 407.46 42.9
10 -6 -1 383.96 37
6 -10 1 394.36 37.3
10 -6 -1 416.96 36.4
10 -6 -1 450.45 38.4
-11 5 1 448.96 38.4
-5 11 -1 471.05 38.7
5 -11 1 377.06 41.2
11 -5 -1 469.85 38.3
11 -5 -1 435.56 38
5 -11 1 372.56 37.8
-12 4 1 18.7 6.6
4 -12 1 34.6 11.1
12 -4 -1 15.6 12.2
12 -4 -1 23.5 4.7
-13 3 1 10 4.4
-3 13 -1 8.6 6.2
3 -13 1 -3.5 5.5
3 -13 1 5 5.7
13 -3 -1 15.8 4.3
13 -3 -1 10.5 13.1
-2 14 -1 12.7 5.1
14 -2 -1 14.4 4.6
14 -2 -1 11.6 3.3
-15 1 1 163.48 16.8
15 -1 -1 154.18 16
1 -15 1 106.89 15.6
15 -1 -1 151.18 14.8
1 -15 1 125.79 15.4
0 16 -1 240.98 22.2
16 0 -1 228.38 31.4
16 0 -1 218.08 23.3
0 -16 1 227.38 21.6
1 17 -1 23.4 6
-1 -17 1 23.4 6.2
-1 -17 1 33.5 6.5
17 1 -1 24.6 7.4
2 18 -1 14.6 5.1
-2 -18 1 9.6 4.1
18 2 -1 -0.6 5.8
-2 -18 1 7.6 3.8
3 19 -1 2.3 4.9
-19 -3 1 -0.3 5
19 3 -1 7.3 7.9
19 3 -1 -0.9 3.8
-3 -19 1 -2.8 4.7
2 19 1 9.4 5.3
19 2 1 6 4.4
-2 -19 -1 4.6 3.7
1 18 1 31.4 4.9
18 1 1 21 5.3
-1 -18 -1 34.9 5.9
18 1 1 23.7 5.8
18 1 1 32.9 6.1
0 17 1 -6.1 5.1
17 0 1 -1 8.1
0 -17 -1 4.9 5.2
17 0 1 -1.6 7.5
1 -16 -1 25.1 6
16 -1 1 23.6 20.3
16 -1 1 13.6 20.1
-2 15 1 9.6 6.2
-15 2 -1 -4.9 4.5
2 -15 -1 -7.7 8.2
2 -15 -1 7.8 5.7
15 -2 1 1 15.9
15 -2 1 -18.2 11.2
-14 3 -1 13.8 4.2
-3 14 1 4.2 5.2
3 -14 -1 6.6 5.5
3 -14 -1 5.2 3.8
14 -3 1 15 6.1
14 -3 1 8.6 4.5
-4 13 1 67.59 7.7
4 -13 -1 57.49 8.5
4 -13 -1 54.29 7.1
13 -4 1 64.19 6.8
13 -4 1 64.59 8
-5 12 1 -2.3 4.6
-5 12 1 0.3 2
-12 5 -1 1.3 2.7
5 -12 -1 -1.9 4.5
5 -12 -1 12.5 5.3
12 -5 1 -4.4 3.6
12 -5 1 1.7 4.4
-6 11 1 44.8 10.9
-6 11 1 30.4 4.5
6 -11 -1 49.3 10.8
11 -6 1 43.4 13.1
6 -11 -1 38.8 6
-7 10 1 6.6 6.4
-10 7 -1 6.6 6
-7 10 1 -0.2 5.6
-7 10 1 4.5 9
-10 7 -1 3.2 9.2
10 -7 1 6.6 4.6
7 -10 -1 2.4 10.4
-8 9 1 19.3 2.9
-9 8 -1 20.6 3.7
-8 9 1 32.9 6.5
-9 8 -1 26.7 4.5
8 -9 -1 23 4
8 -9 -1 28.7 5.8
-8 9 -1 24.2 6.2
-8 9 -1 32.2 4.8
-9 8 1 33.9 5.6
-9 8 1 31.7 4.9
8 -9 1 28.8 6.9
9 -8 -1 24.1 4.7
9 -8 -1 26 4.1
8 -9 1 20.8 4.4
-7 10 -1 2.2 24.4
-10 7 1 15.9 4.6
-10 7 1 4.2 4.1
10 -7 -1 1.9 12.3
7 -10 1 15.5 14.4
7 -10 1 4.4 9.3
10 -7 -1 6.2 2.2
-11 6 1 49.3 7.1
-6 11 -1 36.1 6.9
11 -6 -1 45.6 8.4
11 -6 -1 55.19 12.3
11 -6 -1 49.4 5.8
-5 12 -1 -1.2 3.4
-12 5 1 2.4 3.2
12 -5 -1 -3 3.4
5 -12 1 -0.7 3.3
12 -5 -1 1.1 2.5
12 -5 -1 -0.8 3.4
12 -5 -1 -4 2.8
-4 13 -1 49 6.3
-13 4 1 60.89 7.5
13 -4 -1 52.39 5.9
13 -4 -1 54.49 7
4 -13 1 49.99 7.3
4 -13 1 45.4 7.1
-3 14 -1 3.9 4.2
14 -3 -1 15.8 4.2
3 -14 1 8.7 5.8
-2 15 -1 21.1 5.6
-15 2 1 0.8 4
2 -15 1 22.6 9.2
15 -2 -1 0.5 4.7
15 -2 -1 -10.6 11.5
2 -15 1 8.7 5
-1 16 -1 51.19 9.9
1 -16 1 54.39 13.8
1 -16 1 62.89 9.3
0 17 -1 -3.6 4
17 0 -1 12.9 6.5
17 0 -1 -7.4 3.8
0 -17 1 0.8 4.8
-18 -1 1 35.9 5.2
-1 -18 1 31.5 6.7
18 1 -1 28.8 5
-1 -18 1 27.8 4.8
2 19 -1 -6.8 5.4
-19 -2 1 6 4.4
-2 -19 1 8.2 4.6
-2 -19 1 0.3 5.4
-19 -1 -1 28.6 5.8
19 1 1 23.6 5.5
-1 -19 -1 32.4 6.2
18 0 1 4.7 5.6
-1 17 1 12.6 4.7
-17 1 -1 19.6 4.6
1 -17 -1 15.6 4.5
17 -1 1 18.7 7.3
-2 16 1 -2.4 5.6
-16 2 -1 8.9 3.9
2 -16 -1 8.4 6
16 -2 1 -1.7 4.9
2 -16 -1 10.2 3.8
2 -16 -1 5.6 4.1
-3 15 1 -2.8 3.5
3 -15 -1 5.4 3.7
3 -15 -1 15.5 4.9
-14 4 -1 75.79 8.3
-4 14 1 69.69 8.4
4 -14 -1 73.59 9.5
4 -14 -1 72.29 9.3
14 -4 1 91.59 8.5
14 -4 1 89.69 9.4
-13 5 -1 47 5.9
-5 13 1 39.4 5.8
13 -5 1 45.4 6.8
13 -5 1 33.1 6.8
5 -13 -1 51.99 7.3
5 -13 -1 45.7 6.5
-6 12 1 2.2 6.1
-12 6 -1 -1.8 7.6
-12 6 -1 3.7 2.8
12 -6 1 3.7 3.7
12 -6 1 4.5 9.6
6 -12 -1 0.6 13.2
6 -12 -1 6.2 4.3
-11 7 -1 1 4.2
-7 11 1 12.4 3.4
11 -7 1 8.3 3.4
-8 10 1 59.69 8.2
-10 8 -1 43 6.8
-8 10 1 43.7 5.5
-8 10 1 51.19 5.6
10 -8 1 49.6 6.7
8 -10 -1 55.49 7.9
8 -10 -1 57.39 6.5
-9 9 1 89.09 10.2
-9 9 1 82.09 8.9
-9 9 -1 90.49 12.7
-9 9 -1 78.59 10.8
9 -9 1 94.59 14.5
9 -9 -1 68.89 8.4
9 -9 -1 89.39 10.2
9 -9 1 101.59 11.6
-8 10 -1 49.7 9.8
-10 8 1 52.59 5.7
-10 8 1 60.59 9.1
8 -10 1 53.09 8.8
10 -8 -1 39.6 6.1
10 -8 -1 43 5.6
8 -10 1 40.7 6.4
-11 7 1 6.3 4.7
11 -7 -1 11 2.9
-6 12 -1 -0.4 7.8
-12 6 1 12.5 11.4
12 -6 -1 6 11.5
12 -6 -1 4.1 8.1
6 -12 1 -3 5.4
12 -6 -1 9.2 7.8
12 -6 -1 5.6 4.2
6 -12 1 0.9 5.6
-5 13 -1 51.59 6.9
-13 5 1 48 5.8
13 -5 -1 38.3 5.3
13 -5 -1 37 5.4
13 -5 -1 40.6 6.2
-14 4 1 81.99 8
-4 14 -1 67.99 8.2
14 -4 -1 82.59 9.2
4 -14 1 53.39 9.6
4 -14 1 75.69 9.2
14 -4 -1 60.29 7.3
-15 3 1 6.2 3
3 -15 1 6.1 5.8
15 -3 -1 -3.7 5.6
3 -15 1 15.1 5
-2 16 -1 4.2 5.3
-16 2 1 3.3 3.3
2 -16 1 -2.6 6.2
16 -2 -1 10.3 4.8
16 -2 -1 -6.2 5.6
-1 17 -1 24.1 6.4
17 -1 -1 40.9 8.4
1 -17 1 22.7 6.8
0 18 -1 16 5.6
0 -18 1 23.3 5.3
18 0 -1 9.8 5.2
1 19 -1 31.9 5.8
-19 -1 1 29.5 5.1
-1 -19 1 23.9 6.3
-1 -19 1 36.4 5.9
19 1 -1 22.3 4.6
-19 0 -1 2.6 3.5
19 0 1 4.8 3.3
0 -19 -1 0.5 4.8
-1 18 1 22.9 4.5
18 -1 1 30.8 6.5
18 -1 1 19.2 4
-17 2 -1 115.49 10.9
-2 17 1 100.19 10.8
2 -17 -1 92.89 10.8
17 -2 1 78.79 11.2
2 -17 -1 110.39 11.7
2 -17 -1 87.89 12.3
17 -2 1 93.29 11.3
-3 16 1 16.4 4.3
3 -16 -1 18.4 4.8
16 -3 1 23.7 13.5
3 -16 -1 29.6 5.8
-15 4 -1 4.3 4.9
-4 15 1 -13.7 10.2
4 -15 -1 -14.5 9.7
15 -4 1 -3.9 7.6
15 -4 1 -2.3 18.3
4 -15 -1 -5.4 4.4
-5 14 1 -2.1 5.9
-14 5 -1 5.3 4.3
5 -14 -1 0.8 4.1
5 -14 -1 1.1 5.8
14 -5 1 9.3 6.8
-6 13 1 65.09 9.5
6 -13 -1 53.59 7.1
6 -13 -1 54.39 7.6
13 -6 1 78.29 12
-12 7 -1 197.98 19.3
-7 12 1 216.08 20.7
-12 7 -1 160.98 18.8
12 -7 1 211.88 25.9
7 -12 -1 181.38 18.5
-11 8 -1 45.5 11.1
-11 8 -1 49 7
-8 11 1 49.9 14.1
11 -8 1 52.19 6.4
8 -11 -1 58.99 8.4
11 -8 1 49.6 7.6
8 -11 -1 49.3 9.2
-10 9 -1 0.4 4.1
-10 9 -1 -4.4 3.5
-9 10 1 -4.6 6.5
10 -9 1 -0.1 3.5
9 -10 -1 1.7 6
10 -9 1 -4.4 8.1
-9 10 -1 -2.2 4.6
-9 10 -1 -5.4 3.7
-10 9 1 3.4 4.7
-10 9 1 -0.8 5.1
9 -10 1 -3.5 5.5
-8 11 -1 40 5.9
-11 8 1 33.8 4.8
-11 8 1 42.1 11
11 -8 -1 46 12.2
8 -11 1 57.59 11.3
8 -11 1 56.39 8.5
11 -8 -1 47 6.9
11 -8 -1 51.29 10.9
-12 7 1 152.58 17
-7 12 -1 142.69 14.7
7 -12 1 183.98 17
12 -7 -1 157.88 16.8
12 -7 -1 145.29 14.4
7 -12 1 120.99 15.1
-6 13 -1 66.79 9
-13 6 1 67.99 7
6 -13 1 64.39 9.4
13 -6 -1 54.49 7.3
6 -13 1 56.99 8
13 -6 -1 59.99 7.6
13 -6 -1 48.4 7.4
13 -6 -1 45.7 6.6
-14 5 1 -0.5 3.8
-5 14 -1 1.3 5.3
14 -5 -1 3.8 3.3
5 -14 1 0.1 5.2
14 -5 -1 -3.4 4
14 -5 -1 1.6 4.7
5 -14 1 2.2 4.1
-4 15 -1 -11.9 9.5
15 -4 -1 3.9 11.5
4 -15 1 0 4.1
15 -4 -1 28.3 14.3
4 -15 1 -1.8 7.3
-16 3 1 38.1 6
16 -3 -1 22.3 8.8
16 -3 -1 34 5.7
-2 17 -1 76.19 9.3
2 -17 1 81.49 11.8
2 -17 1 88.39 11.2
17 -2 -1 101.69 10.5
-18 1 1 44.4 6.3
-1 18 -1 39 6.6
1 -18 1 41.2 6.7
1 -18 1 29.6 7.5
-19 0 1 -0.9 5.2
0 -19 1 -3.6 3.7
-19 1 -1 30.7 5.5
-1 19 1 32.5 6.1
1 -19 -1 42.5 7.2
19 -1 1 25.2 5.4
-18 2 -1 4.5 3.5
-2 18 1 -0.8 4.9
18 -2 1 0.7 4.2
18 -2 1 0.7 4.3
2 -18 -1 5.4 4.2
-3 17 1 3.6 3.9
-17 3 -1 3.2 3.4
3 -17 -1 3.9 6
17 -3 1 -1.4 4.3
3 -17 -1 -1.2 6.1
17 -3 1 1.4 3.9
-16 4 -1 100.79 10
-4 16 1 72.29 10.1
4 -16 -1 86.39 10.5
4 -16 -1 82.89 11.1
16 -4 1 99.09 9.7
-5 15 1 194.28 19.4
-15 5 -1 226.38 20.5
15 -5 1 201.38 19.2
5 -15 -1 164.58 19
15 -5 1 204.78 23.6
5 -15 -1 159.38 18.2
-6 14 1 66.19 7.8
14 -6 1 69.29 7.7
6 -14 -1 59.19 8.6
6 -14 -1 61.39 8.3
14 -6 1 72.99 8.1
-7 13 1 1.4 8.6
-13 7 -1 -1.6 3.2
7 -13 -1 7.9 5.5
7 -13 -1 -4.2 4.2
13 -7 1 -7.7 5.9
13 -7 1 4.4 6.7
-12 8 -1 9.9 13.1
-12 8 -1 -1.5 15.1
-8 12 1 -6 10.9
8 -12 -1 6.1 4.1
8 -12 -1 0.2 4.1
12 -8 1 5.4 8.8
12 -8 1 7.9 12
-9 11 1 74.39 8.8
-9 11 1 94.59 11.5
9 -11 -1 63.29 13.5
9 -11 -1 68.19 9.1
-10 10 -1 204.78 19.7
-10 10 -1 192.48 19.6
-10 10 1 188.78 18.9
10 -10 -1 207.48 20.1
10 -10 1 268.57 29.9
-11 9 1 91.89 14.2
-9 11 -1 86.19 13.2
11 -9 -1 85.69 12.3
11 -9 -1 73.69 9.3
9 -11 1 70.79 9.6
9 -11 1 97.49 16.5
-12 8 1 -5.6 10.9
-8 12 -1 -5.6 10.3
-12 8 1 0.7 5.3
8 -12 1 -3.6 7.5
12 -8 -1 2.7 9.8
8 -12 1 10.5 8.3
12 -8 -1 -3.7 7.9
-7 13 -1 -3.2 5.3
-13 7 1 2.1 2.8
13 -7 -1 -0.6 4.7
13 -7 -1 4.6 7
13 -7 -1 4.2 3.5
7 -13 1 8.7 6.4
7 -13 1 3.5 5.6
-6 14 -1 63.19 7.4
6 -14 1 75.39 9
14 -6 -1 68.39 8.1
6 -14 1 48.3 8
14 -6 -1 59.79 8.2
14 -6 -1 56.99 6.8
-5 15 -1 186.88 16.2
-15 5 1 161.98 17.3
15 -5 -1 152.18 17.4
5 -15 1 135.19 17.9
5 -15 1 151.88 17.2
-4 16 -1 77.59 8.8
4 -16 1 58.59 10.1
4 -16 1 56.69 10.1
16 -4 -1 74.79 8.3
-3 17 -1 13.5 6.4
3 -17 1 11.5 5.8
-18 2 1 3.4 4.9
-2 18 -1 0 4.7
18 -2 -1 16.9 4.8
18 -2 -1 8.3 3.7
2 -18 1 8.8 6.3
-1 19 -1 29.7 5.4
1 -19 1 42.7 6.6
19 -1 -1 27.1 5
-2 19 1 5.1 5.3
-19 2 -1 14.9 5.2
19 -2 1 0.4 4.1
2 -19 -1 -0.7 5.1
-18 3 -1 57.29 7.5
-3 18 1 47 6.4
18 -3 1 55.19 6.7
3 -18 -1 55.29 8.4
18 -3 1 40.5 8.1
3 -18 -1 46.3 7.7
-4 17 1 39.4 6.8
-17 4 -1 43.2 6.7
4 -17 -1 40.5 7.4
4 -17 -1 36.7 7.7
-5 16 1 4.7 4.5
-16 5 -1 4.7 5
5 -16 -1 2.1 4.5
16 -5 1 3.3 4.7
16 -5 1 -1.2 5.6
-15 6 -1 -4.9 6.7
6 -15 -1 1.2 5.2
15 -6 1 -5.4 16.2
15 -6 1 -13.2 13.5
-14 7 -1 20.9 5.1
7 -14 -1 26.6 5.1
7 -14 -1 18.1 5.2
14 -7 1 18.2 5.1
-8 13 1 54.29 6.9
-13 8 -1 40.3 6.2
-13 8 -1 60.79 7.3
8 -13 -1 50.29 7.7
13 -8 1 71.69 8.7
8 -13 -1 51.69 7.4
13 -8 1 58.49 7.6
-9 12 1 56.99 9.8
-12 9 -1 58.59 7.4
-12 9 -1 46.7 7.3
12 -9 1 51.99 7.6
9 -12 -1 43.4 7.7
12 -9 1 56.39 8.2
9 -12 -1 63.49 7.8
-10 11 1 7.8 5.4
-11 10 -1 8.3 4.2
-11 10 -1 8.8 7.6
10 -11 -1 2.4 4.8
10 -11 -1 8.2 6.1
-10 11 -1 -2 3.6
10 -11 1 23.8 8.3
-12 9 1 37.6 5.3
-9 12 -1 50.89 7.7
-12 9 1 45 12.9
9 -12 1 58.89 7.6
12 -9 -1 53.09 7
12 -9 -1 43.9 7.2
9 -12 1 50.09 8.6
-8 13 -1 48.1 6.8
-13 8 1 57.49 7.4
-13 8 1 67.39 12.9
13 -8 -1 52.49 7.7
8 -13 1 36.7 7
8 -13 1 40.9 7.4
13 -8 -1 59.79 10.1
13 -8 -1 52.89 7.8
-14 7 1 24.7 4.5
-7 14 -1 21.7 6.8
7 -14 1 30.3 7.2
7 -14 1 27.2 5.3
14 -7 -1 24.1 4.4
14 -7 -1 29.3 5.6
-15 6 1 5.8 4.9
15 -6 -1 -7 5.6
15 -6 -1 0.7 6.8
-5 16 -1 6.2 5.4
5 -16 1 7.9 6.2
-17 4 1 36 5.3
-4 17 -1 33.8 6.3
17 -4 -1 40.9 5.7
4 -17 1 23.1 6.7
-3 18 -1 44.6 7.4
-18 3 1 48.7 6.7
3 -18 1 41.2 7.7
18 -3 -1 51.19 6.9
3 -18 1 46.9 7.4
-2 19 -1 5.6 5.4
-19 2 1 2.5 3.5
19 -2 -1 -3.9 4.8
-3 19 1 -0.6 3.6
-19 3 -1 1.1 5
3 -19 -1 -7.1 5
19 -3 1 1.6 3
-4 18 1 3.2 5
4 -18 -1 8.1 6.1
18 -4 1 -0.5 4
18 -4 1 1.5 5.9
-17 5 -1 24.9 4.4
-5 17 1 21.5 6.2
17 -5 1 23.2 4.9
-6 16 1 131.79 12.4
-16 6 -1 101.39 11.7
16 -6 1 100.39 11.2
6 -16 -1 115.19 12.4
6 -16 -1 102.19 12.8
-7 15 1 3.1 5.7
-15 7 -1 0 4.3
15 -7 1 12 4.4
7 -15 -1 9.1 4.5
15 -7 1 -5.4 4.7
7 -15 -1 -2 4.8
-14 8 -1 14.3 4.7
-8 14 1 10.3 5.5
8 -14 -1 16 4.8
14 -8 1 27.8 6.3
-9 13 1 14.2 4.1
-13 9 -1 10.6 3.7
9 -13 -1 17.4 6.1
9 -13 -1 13.1 5.3
-12 10 -1 26.7 9.9
-10 12 1 13 13.4
10 -12 -1 22.2 6.6
10 -12 -1 17.7 7.4
-11 11 1 131.69 13.7
-11 11 1 146.99 14.9
-11 11 -1 152.78 14.3
11 -11 1 107.99 13.8
11 -11 1 105.69 12.9
11 -11 -1 150.68 15.2
11 -11 -1 147.69 15
-12 10 1 27.9 7.6
-12 10 1 35.9 17.3
12 -10 -1 36.6 6.7
-13 9 1 12 3.7
-13 9 1 17.1 4
9 -13 1 16 4.8
9 -13 1 5.8 6.8
13 -9 -1 15.6 4.1
-8 14 -1 0 5.3
-14 8 1 2.7 3.3
14 -8 -1 5.2 3.1
14 -8 -1 10 5.6
8 -14 1 5.6 6.2
-15 7 1 4 3.3
-7 15 -1 -1.2 3.9
7 -15 1 7.9 6.5
15 -7 -1 6.5 3.5
7 -15 1 3 6
-16 6 1 80.59 10.4
-6 16 -1 114.59 11.2
16 -6 -1 93.69 17
6 -16 1 87.09 12.3
6 -16 1 99.39 11.5
16 -6 -1 97.29 10.5
-5 17 -1 14.6 4.9
-17 5 1 18.9 5
5 -17 1 11.7 5.3
5 -17 1 20.1 5.1
17 -5 -1 19.3 5.1
-18 4 1 5.7 4.5
-4 18 -1 6.3 5.1
4 -18 1 -3.3 5.6
18 -4 -1 -2.3 4.6
-19 3 1 5.9 4.8
19 -3 -1 3.8 3.5
3 -19 1 -5 5.4
3 -19 1 5.1 6.2
-5 18 1 -11.3 5.6
-18 5 -1 1.2 3.3
5 -18 -1 -4.4 4.2
18 -5 1 -2.9 2.9
5 -18 -1 4.4 6
-17 6 -1 52.59 7.1
6 -17 -1 46.8 8.4
17 -6 1 49.7 6.6
6 -17 -1 51.89 7.8
-16 7 -1 13.4 5.4
-16 7 -1 21.3 4.5
7 -16 -1 32 6.7
16 -7 1 15 5.5
-15 8 -1 -7.4 4.7
-15 8 -1 6.8 5.9
-8 15 1 -5.1 4.5
8 -15 -1 0.9 4.1
15 -8 1 -10.2 6.4
8 -15 -1 0.1 4.6
-14 9 -1 -8.3 4.7
-9 14 1 -3.7 5.3
-14 9 -1 4.4 4.7
14 -9 1 8.1 6
14 -9 1 2.6 3.8
9 -14 -1 -0.5 5.9
-13 10 -1 4.4 4.6
-13 10 -1 5.1 5.4
-10 13 1 -4.9 4.1
10 -13 -1 -2.8 5.8
13 -10 1 -2.9 4.1
10 -13 -1 -12.2 5.4
13 -10 1 0.2 4.1
-11 12 1 35.4 7.3
-12 11 -1 33 5.8
11 -12 -1 35.8 5.4
-12 11 1 65.59 7.9
-11 12 -1 52.09 8.6
12 -11 -1 42.8 7.5
-13 10 1 -3.6 3.7
-13 10 1 -1.5 3.4
-10 13 -1 -5.4 4.3
13 -10 -1 -1.7 4.9
13 -10 -1 -2.5 5.2
10 -13 1 -6.5 5.2
-14 9 1 -2.5 3
-14 9 1 -4.6 4.5
-9 14 -1 5.2 5.9
14 -9 -1 -0.1 5.5
9 -14 1 -1.8 5.2
14 -9 -1 -3.5 5.1
9 -14 1 -9.1 6.7
-8 15 -1 -1.5 4.6
-15 8 1 -11.8 5.7
-15 8 1 2.8 2.7
8 -15 1 -5 5.9
15 -8 -1 4.1 5.7
15 -8 -1 -7.3 5
8 -15 1 0.6 5.5
15 -8 -1 4.5 5.3
16 -7 -1 24.7 5.1
7 -16 1 30.3 5.9
7 -16 1 25.7 6
-17 6 1 48.8 6.3
-6 17 -1 42.3 7.3
17 -6 -1 34.7 6.2
6 -17 1 33.8 7.7
17 -6 -1 36.4 6.9
-18 5 1 -2.8 3.2
-5 18 -1 -2.1 4
5 -18 1 -6.6 5
5 -18 1 3.4 5.8
18 -5 -1 -1 3.1
18 -5 -1 -2.5 3.9
-6 18 1 6 6
-18 6 -1 19.8 5.2
6 -18 -1 18.6 6.6
18 -6 1 12.5 4.7
-17 7 -1 0.1 4.6
-7 17 1 -5 4.3
-17 7 -1 0 3.5
17 -7 1 -9.7 6.6
7 -17 -1 -12.1 5.5
17 -7 1 -8.6 4.8
7 -17 -1 4.6 6.1
-16 8 -1 5.4 4.5
-8 16 1 12.7 6.3
8 -16 -1 6.3 5.8
8 -16 -1 -0.2 4.8
-9 15 1 41.3 6.7
-15 9 -1 35.1 5.9
9 -15 -1 40 6.4
9 -15 -1 52.79 8.4
15 -9 1 51.59 7.1
-14 10 -1 79.59 8.8
-14 10 -1 56.69 8.5
-10 14 1 68.89 9.4
14 -10 1 59.39 8.9
10 -14 -1 58.29 9
10 -14 -1 59.29 9.4
14 -10 1 61.59 8.5
-11 13 1 24.4 6.7
-13 11 -1 24.5 6.2
13 -11 1 23.4 5.9
-12 12 -1 -6.3 6
-12 12 -1 -5.3 3.8
-12 12 1 4.4 4
12 -12 -1 -6.5 6
12 -12 1 -1.2 4.1
12 -12 1 13.2 6.8
12 -12 -1 9.4 5
-13 11 1 13.9 5.7
-11 13 -1 16.7 5
13 -11 -1 15.1 5
11 -13 1 21.3 6.3
-14 10 1 60.69 9.8
-14 10 1 55.49 7.6
10 -14 1 55.09 8.1
14 -10 -1 55.19 8.6
14 -10 -1 49.7 7.6
-15 9 1 36.6 4.8
-15 9 1 41.2 6.7
9 -15 1 30.7 7.5
9 -15 1 25.2 8.1
-16 8 1 11.1 5.4
-16 8 1 3.2 2.7
16 -8 -1 1.7 5.1
8 -16 1 -4.8 6.6
-17 7 1 -3.6 3.8
17 -7 -1 2.1 3.5
17 -7 -1 3.1 4.1
7 -17 1 0.1 6.4
7 -17 1 0 6.5
-6 18 -1 3.4 5.7
18 -6 -1 3.2 5.1
6 -18 1 -0.3 6.6
-17 8 -1 44.8 7
-17 8 -1 30.3 5.6
17 -8 1 44.2 8.6
17 -8 1 43 7.3
8 -17 -1 50.49 7.9
-16 9 -1 8.2 4.4
-16 9 -1 7.2 3.7
-9 16 1 -0.6 6.4
16 -9 1 5.2 5.7
9 -16 -1 -3.6 6.1
-15 10 -1 -2.7 4.9
-10 15 1 5.8 5.8
10 -15 -1 3.6 6.1
15 -10 1 1.9 4.6
10 -15 -1 11.7 4.5
-14 11 -1 -1.1 3.8
-11 14 1 2.3 4.7
11 -14 -1 0.6 4
11 -14 -1 -2.7 5.5
-13 12 -1 45.7 7.7
-12 13 1 73.79 9.7
-13 12 -1 66.99 8.9
12 -13 -1 59.79 9.6
13 -12 1 69.49 9.7
13 -12 1 63.49 9.1
12 -13 -1 55.99 8.4
-13 12 1 73.09 9.4
-12 13 -1 53.09 9.1
13 -12 -1 56.29 8.6
13 -12 -1 53.89 8.4
12 -13 1 73.89 9.1
-11 14 -1 -5.7 6.8
-14 11 1 6.6 7.4
-15 10 1 -1.8 5.5
10 -15 1 -7.4 7.2
15 -10 -1 -12.2 5.3
15 -10 -1 0 5
10 -15 1 -6.6 6.1
-16 9 1 4.8 3.4
-9 16 -1 3.9 5.5
16 -9 -1 -3.6 4.2
9 -16 1 3.4 5.5
-17 8 1 32.4 9
-17 8 1 42.7 5.5
-8 17 -1 40.7 8
8 -17 1 45.3 9.1
17 -8 -1 52.99 7.9
8 -17 1 34.7 8.3
17 -8 -1 41.9 7
-17 9 -1 2.8 3.7
-9 17 1 -0.6 4.5
-17 9 -1 1 5.4
9 -17 -1 8.8 6.6
-16 10 -1 83.19 10.2
-10 16 1 86.29 10.9
-16 10 -1 86.99 10.1
10 -16 -1 58.49 10.1
10 -16 -1 71.09 10.6
-11 15 1 72.29 9.8
-15 11 -1 64.79 8.8
15 -11 1 49.3 9.3
11 -15 -1 57.59 9
-14 12 -1 9.3 6.4
-14 12 -1 -2.3 5.5
14 -12 1 5.4 5.5
14 -12 1 4.9 5.1
12 -14 -1 20.6 6.8
-13 13 1 2.4 4.2
-13 13 -1 15.5 6.3
13 -13 1 3.4 5.5
13 -13 -1 2.7 5.7
13 -13 1 -7.4 7.6
13 -13 -1 -1.5 4.2
-12 14 -1 7.7 6.3
12 -14 1 15.8 6.1
12 -14 1 10.9 7.4
-11 15 -1 47.8 7.8
-15 11 1 51.29 7.3
15 -11 -1 49.4 8.8
-10 16 -1 56.19 9.5
-16 10 1 46.6 7.4
10 -16 1 46.1 7.5
-15 12 -1 -7.5 5.7
-12 15 1 -10.3 6.7
-15 12 -1 -5.5 4.7
15 -12 1 -4.3 5.5
12 -15 -1 0.3 5.9
-13 14 1 -4.3 6.1
-14 13 -1 3.5 4.5
13 -14 -1 -7 6.7
14 -13 1 -7.1 7.5
14 -13 1 -6.4 6.1
-13 14 -1 4.1 5.7
-14 13 1 13.2 6.2
14 -13 -1 0.1 4.6
13 -14 1 3.3 5.4
-15 12 1 0.2 6.2
-12 15 -1 0.6 6.9
12 -15 1 7.2 6.8
12 -15 1 -6.3 4.4
15 -12 -1 -8 8.1
13 13 2 0.4 4.1
12 12 2 42.3 6.4
-10 -10 -2 25.2 4.8
9 9 2 22.1 3.7
8 8 2 34.2 4.5
-8 -8 -2 41.6 14.5
-8 -8 -2 32 4.3
7 7 2 81.29 9.8
-7 -7 -2 142.89 22.2
-7 -7 -2 104.09 10.2
6 6 2 93.29 23.7
-6 -6 -2 67.49 18.3
6 6 2 86.89 10.9
6 6 2 73.39 19
5 5 2 157.88 20.6
5 5 2 165.68 35.9
4 4 2 85.29 15.4
4 4 2 52.79 9.6
3 3 2 103.89 13.4
-3 -3 -2 94.09 10.3
-3 -3 -2 115.79 15.4
-3 -3 -2 115.39 12.9
-2 -2 -2 97.69 9.4
2 2 2 133.89 21.4
0 0 2 453.85 420.86
1 1 -2 106.19 23.5
-1 -1 2 111.89 27.3
-1 -1 2 99.49 20.2
-2 -2 2 65.39 9.4
2 2 -2 58.99 8
-2 -2 2 54.39 6.7
2 2 -2 51.79 5.1
-3 -3 2 176.08 21
3 3 -2 160.18 15.1
-5 -5 2 146.69 21.6
6 6 -2 71.49 8
6 6 -2 57.99 7.7
7 7 -2 109.09 10.9
-7 -7 2 97.09 11.5
8 8 -2 33.2 4.2
8 8 -2 47.1 10.7
8 8 -2 40.4 5.3
8 8 -2 37.5 4.6
9 9 -2 37.4 5.5
12 12 -2 42.5 6.5
13 13 -2 10.6 5.1
13 13 -2 16.2 5.4
-12 -13 -2 6.8 5.2
13 12 2 2.6 7
-11 -12 -2 20.4 5.3
10 11 2 99.89 10.8
-10 -11 -2 88.19 11.1
11 10 2 79.29 10.9
-10 -9 -2 27.6 4.9
9 10 2 30.3 4.7
-9 -10 -2 32.8 4.8
8 9 2 8 13.3
-9 -8 -2 -0.5 3.7
9 8 2 -9.8 11.9
-8 -9 -2 11.6 3.5
9 8 2 3.6 3.3
7 8 2 37.6 13.1
-7 -8 -2 8.5 13.4
8 7 2 13.1 11.8
-7 -8 -2 20 4.7
-7 -6 -2 15.8 6.7
6 7 2 18.9 11.7
-7 -6 -2 16.4 13.4
-6 -7 -2 4 13.8
-6 -7 -2 22.1 4.8
-6 -5 -2 344.87 36.3
5 6 2 264.17 28.4
-6 -5 -2 284.97 36.3
-6 -5 -2 341.87 31.9
-6 -5 -2 262.27 30.9
6 5 2 301.87 43
-5 -6 -2 263.37 27.9
-5 -6 -2 318.57 37.2
4 5 2 102.69 14.2
-5 -4 -2 123.09 12
-5 -4 -2 142.19 19.7
-5 -4 -2 99.19 12.4
-4 -5 -2 106.49 12.5
5 4 2 91.59 14.9
-4 -3 -2 29.1 6.3
3 4 2 40.1 7.5
-3 -4 -2 25.6 7.1
-3 -4 -2 34 6.3
-3 -2 -2 39.1 8.4
-3 -2 -2 51.79 6.5
3 2 2 43.8 7.2
-2 -3 -2 44.5 6.6
-2 -1 -2 33.2 7.4
2 1 2 54.39 15.4
-1 -2 -2 34.2 4.1
2 1 2 50.69 17.6
1 0 2 522.95 224.78
-1 0 2 198.78 73.49
0 -1 2 486.15 178.98
1 2 -2 27.9 6.5
-2 -1 2 18.7 3.8
3 2 -2 66.69 17.2
3 4 -2 46.7 6.4
4 3 -2 36.5 6.4
4 3 -2 46 8.6
-5 -4 2 201.38 19.1
4 5 -2 159.68 16.8
4 5 -2 186.18 19.7
-5 -4 2 217.08 26.4
5 4 -2 176.18 17.4
-4 -5 2 151.08 22.9
5 4 -2 171.28 16.1
5 4 -2 191.88 19
5 6 -2 214.08 24.6
5 6 -2 267.17 44.9
5 6 -2 232.88 24.4
-5 -6 2 240.18 27.2
6 5 -2 157.98 20.3
6 5 -2 182.08 22.5
6 5 -2 228.38 26.7
6 7 -2 24.6 3.7
-7 -6 2 22.3 15.3
-7 -6 2 19.2 5
7 6 -2 -2.3 10.8
-8 -7 2 39.6 7.6
7 8 -2 20 3.4
7 8 -2 23.6 3.6
8 7 -2 23.2 3.5
-7 -8 2 34.6 7.5
-9 -8 2 2.3 3.2
9 8 -2 5.3 2.2
-8 -9 2 8 2.9
9 8 -2 4.4 3.6
-10 -9 2 47.5 7.5
9 10 -2 62.99 8.1
-9 -10 2 65.49 7.9
-11 -10 2 92.19 12.8
10 11 -2 128.99 14.2
-10 -11 2 123.69 13
11 12 -2 -0.5 3.8
12 11 -2 7 5.7
12 13 -2 4.1 6
13 12 -2 11 4.9
13 12 -2 0.9 4.8
12 14 2 -1.4 3.1
14 12 2 5.2 7.3
14 12 2 8.7 4.4
-12 -14 -2 -1 3.9
11 13 2 -1 4.3
13 11 2 -1 3.6
-11 -13 -2 1.6 4.3
13 11 2 2.1 4.9
10 12 2 -2.5 4.5
12 10 2 -4.6 8.2
-10 -12 -2 3.9 5.5
-9 -11 -2 25.5 6.5
-9 -11 -2 19.7 3.7
8 10 2 -3.8 3.6
-10 -8 -2 1.2 1.9
-10 -8 -2 -4.6 3
10 8 2 -5.1 3.2
10 8 2 0.4 6.2
-8 -10 -2 -7.1 4.2
-8 -10 -2 1 2.3
7 9 2 11.8 9.4
-9 -7 -2 -0.6 16.3
-7 -9 -2 4.8 20.9
9 7 2 16.8 11.6
-8 -6 -2 63.09 16.2
-8 -6 -2 44.6 6
-8 -6 -2 30.4 5.9
-6 -8 -2 54.39 16
8 6 2 32.8 4.9
-6 -8 -2 36 4.7
-6 -8 -2 41.3 4.8
-7 -5 -2 -3.9 10.4
-5 -7 -2 -1 13.3
-5 -7 -2 7.3 5.9
-5 -7 -2 -0.2 2.4
7 5 2 0.7 8.3
-6 -4 -2 45.6 7.7
4 6 2 69.39 9.3
-4 -6 -2 66.29 10.2
-4 -6 -2 66.99 8.6
-4 -6 -2 59.89 7.8
6 4 2 38.4 10.2
6 4 2 60.09 7.6
-5 -3 -2 7.2 5.5
3 5 2 2.5 6.7
-5 -3 -2 6.9 7.4
-5 -3 -2 9.5 7.3
-3 -5 -2 6.6 6.8
-3 -5 -2 11.6 9.5
-3 -5 -2 7.7 8.6
5 3 2 9.2 10
5 3 2 0.3 4
-3 -5 -2 3.7 2.9
2 4 2 88.89 12.3
-4 -2 -2 89.69 10
-2 -4 -2 80.89 9.4
-2 -4 -2 100.49 14.6
-2 -4 -2 82.99 9.2
4 2 2 107.29 11.3
1 3 2 54.69 9.1
-3 -1 -2 58.29 6.4
-1 -3 -2 68.39 6.6
-1 -3 -2 55.59 7.6
-1 -3 -2 67.99 9.2
-2 0 -2 6 5.3
0 2 2 16.2 16.2
0 2 2 20.7 10.1
-2 0 -2 7.1 6.4
-2 0 -2 15.6 16.2
0 2 2 7.8 10.2
0 -2 -2 3.6 1.3
2 0 2 15.7 12.2
2 0 2 6.6 8.1
1 -1 2 221.88 46.4
0 2 -2 2.3 4.3
0 2 -2 8.5 13
0 2 -2 10.5 11.2
0 2 -2 10.1 12.1
-2 0 2 5 4.2
0 2 -2 10.1 15.2
-2 0 2 5 1.2
0 2 -2 -0.8 3
2 0 -2 3.1 3.5
2 0 -2 11.6 12.6
2 0 -2 4.3 3.4
2 0 -2 12 9.3
2 0 -2 6.9 3.2
0 -2 2 6.2 6
2 0 -2 4.4 7.3
1 3 -2 80.49 11.1
-1 -3 2 77.19 12.1
-1 -3 2 70.79 9
3 1 -2 77.69 16.6
3 1 -2 66.99 9.7
-4 -2 2 144.49 18.3
-4 -2 2 128.59 13.3
2 4 -2 121.59 16.1
2 4 -2 120.89 11.7
4 2 -2 159.38 19
-2 -4 2 134.59 17.3
-2 -4 2 96.59 13.6
3 5 -2 11.5 8.7
-5 -3 2 5.7 5.7
-5 -3 2 5.9 6.6
3 5 -2 8.9 8.6
3 5 -2 8.5 6.3
3 5 -2 1.9 8.9
5 3 -2 6 5
5 3 -2 12.3 13.3
5 3 -2 11.4 8.4
-3 -5 2 0.9 3.1
5 3 -2 8.9 6
-3 -5 2 -1 8.6
4 6 -2 68.29 7.6
4 6 -2 106.99 19.7
4 6 -2 120.19 26
-4 -6 2 50.39 8.4
6 4 -2 56.89 7.5
-7 -5 2 5.6 4.6
-7 -5 2 5.1 10.8
5 7 -2 1.9 9.7
7 5 -2 7.5 10.9
-5 -7 2 10.2 14.8
7 5 -2 10.6 10.3
6 8 -2 38.9 4.8
6 8 -2 48.3 6.4
6 8 -2 36.4 13
-6 -8 2 37 6.2
8 6 -2 43.5 4.9
8 6 -2 42.9 6.1
8 6 -2 49.3 5.3
8 6 -2 42.3 11.7
9 7 -2 28.4 9
9 7 -2 25.5 3.5
-7 -9 2 27.6 4.6
8 10 -2 2.8 4.2
-10 -8 2 -5.7 3.6
-8 -10 2 -4 3
-8 -10 2 -3 4.3
10 8 -2 1.6 3.8
10 8 -2 -9.2 13.7
10 12 -2 1.3 4.9
10 12 -2 4.9 5.3
-12 -10 2 1.8 4.4
12 10 -2 3.7 4
12 10 -2 -7.6 4.3
11 13 -2 4.7 4.2
-13 -11 2 14.9 4.9
11 13 -2 9.8 5.5
13 11 -2 14.5 6
12 14 -2 -6.3 6.3
12 14 -2 0.6 5.2
14 12 -2 -7 5.5
14 12 -2 2 6.4
-11 -14 -2 10.8 5.3
14 11 2 6.7 3.3
10 13 2 6.6 6.9
13 10 2 -5.8 3.7
13 10 2 -3 4.5
-10 -13 -2 2.3 3.6
12 9 2 8.1 6.8
12 9 2 3 4.5
-9 -12 -2 -0.2 5.2
-8 -11 -2 4.8 5.2
7 10 2 5.1 6.1
10 7 2 -7.6 9.4
10 7 2 -19.5 14.9
-7 -10 -2 6 13.3
-9 -6 -2 38.3 16.8
6 9 2 50.69 13.3
-9 -6 -2 50.59 6.1
-6 -9 -2 41.8 6.8
-6 -9 -2 44.2 5.5
-6 -9 -2 45.3 5.6
9 6 2 34.7 7.4
-6 -9 -2 59.69 7.4
-8 -5 -2 5 11.4
5 8 2 11.4 8
-5 -8 -2 13.6 16.5
8 5 2 5 4
8 5 2 -0.3 8.7
-7 -4 -2 7.5 10.2
-7 -4 -2 34.8 6.1
4 7 2 29 5.7
-4 -7 -2 4.6 10.6
7 4 2 31.3 8.2
-4 -7 -2 20.2 3.4
7 4 2 29.2 4
3 6 2 61.59 10.3
3 6 2 46.7 6.1
-3 -6 -2 55.19 8.2
-3 -6 -2 47.9 6.6
-5 -2 -2 34.3 8.4
2 5 2 28.9 12
2 5 2 36.6 9.9
-2 -5 -2 20 5.6
-2 -5 -2 20.1 6.1
5 2 2 38.2 8.1
5 2 2 36.3 6.2
5 2 2 44.6 14.3
-4 -1 -2 115.19 15.2
1 4 2 130.39 14.1
4 1 2 84.09 13.1
-1 -4 -2 100.89 16.9
4 1 2 108.49 15.3
-1 -4 -2 147.99 23.1
0 3 2 42.8 7
-3 0 -2 27.9 5.6
0 3 2 34.2 6.5
3 0 2 44.3 7.5
0 -3 -2 37.7 4
3 0 2 71.59 19.2
-2 1 -2 76.59 23.1
-2 1 -2 31.5 9.4
1 -2 -2 37.3 6.8
1 -2 -2 38.6 4.4
2 -1 2 62.29 11.4
-2 1 2 22.7 4.3
2 -1 -2 28.6 6.1
1 -2 2 59.29 16.3
2 -1 -2 67.39 19.3
0 3 -2 52.69 8.6
-3 0 2 68.79 9.8
0 3 -2 53.09 7.5
3 0 -2 49.7 7.7
3 0 -2 78.29 18.9
3 0 -2 54.09 12.3
0 -3 2 53.19 9.6
1 4 -2 164.28 19
-4 -1 2 135.99 20.9
-4 -1 2 169.78 33.1
1 4 -2 162.38 17.5
4 1 -2 197.38 31.4
-1 -4 2 135.89 15.3
-5 -2 2 39.1 8.6
5 2 -2 51.39 6.8
5 2 -2 43.5 15.8
5 2 -2 47.4 5.7
5 2 -2 48.6 9.3
6 3 -2 32 4.4
6 3 -2 29.9 4.4
-7 -4 2 5.8 8.9
-4 -7 2 19 14.8
7 4 -2 17 2.8
7 4 -2 10.5 1.6
5 8 -2 20.9 13.4
-8 -5 2 14.7 13.4
-5 -8 2 16.9 15.2
8 5 -2 20.8 9
6 9 -2 32.7 4.4
6 9 -2 40.5 6.9
-6 -9 2 47.5 5.3
9 6 -2 47.6 5.4
-6 -9 2 37.8 5.1
7 10 -2 8.6 17.5
10 7 -2 0.9 5.4
-7 -10 2 2.5 5.5
-7 -10 2 10.6 12.4
-11 -8 2 26.2 5.3
9 12 -2 7.6 8.1
9 12 -2 2.7 4.8
12 9 -2 -3.9 6.7
10 13 -2 4.8 5.2
-13 -10 2 2 3.5
10 13 -2 -1.5 3.6
-10 -13 2 2.5 4.6
13 10 -2 0.9 3
13 10 -2 7.4 5.8
14 11 -2 20.5 7.4
11 15 2 4.7 4.4
15 11 2 6.4 4.7
-14 -10 -2 -0.9 3
14 10 2 6.9 3
14 10 2 2.5 2.9
9 13 2 0.8 3.8
13 9 2 7.4 3.9
13 9 2 3.7 3.6
8 12 2 30.6 4.8
12 8 2 26.1 4.8
-8 -12 -2 32.7 5.2
12 8 2 27.4 4.6
11 7 2 0.5 6.4
6 10 2 16.8 15.9
-10 -6 -2 -7.1 18
10 6 2 -11.7 15.3
-9 -5 -2 6.6 9.3
9 5 2 7.5 7.8
-5 -9 -2 11.9 14.3
4 8 2 55.19 14.1
4 8 2 82.29 16.4
4 8 2 61.79 7.7
8 4 2 49.5 11.7
-4 -8 -2 43.6 6.5
8 4 2 56.69 7.8
-4 -8 -2 48.8 6
8 4 2 66.49 8.7
8 4 2 55.49 6.6
-4 -8 -2 57.49 8.8
-4 -8 -2 95.49 20.7
-4 -8 -2 45.2 6
3 7 2 110.89 17.1
-7 -3 -2 98.79 15.2
-7 -3 -2 108.29 11.7
7 3 2 115.39 13.1
-3 -7 -2 87.59 10
-3 -7 -2 82.69 9.7
7 3 2 72.39 11.4
-3 -7 -2 111.89 9.9
7 3 2 76.69 10
-6 -2 -2 96.99 13.6
2 6 2 106.09 11.6
-2 -6 -2 106.89 11.5
-2 -6 -2 111.29 10.4
-2 -6 -2 89.59 10.4
6 2 2 106.59 13.2
1 5 2 198.68 56.59
1 5 2 168.48 22.2
-5 -1 -2 72.29 48.8
-5 -1 -2 130.59 48.2
-1 -5 -2 163.28 46.6
-1 -5 -2 112.59 30
-1 -5 -2 163.88 33.2
-4 0 -2 143.49 34
-4 0 -2 56.99 14.6
0 4 2 149.88 38.8
0 -4 -2 85.59 18.5
0 -4 -2 67.39 9.8
4 0 2 84.79 31.4
4 0 2 140.89 40.9
-1 3 2 79.09 11
-1 3 2 68.29 12.5
-1 3 2 70.79 10.2
1 -3 -2 98.49 14.7
1 -3 -2 73.79 14
3 -1 2 64.49 10.5
1 -3 -2 72.59 7.7
3 -1 2 77.89 26.2
1 -3 -2 71.59 12.9
-2 2 2 82.39 11.7
2 -2 -2 98.59 16.5
2 -2 2 96.39 9.3
2 -2 -2 80.99 10
2 -2 -2 117.79 17.2
2 -2 -2 112.39 17
2 -2 -2 101.39 8.7
-1 3 -2 88.99 9.7
-3 1 2 68.29 10.8
3 -1 -2 62.49 8.2
3 -1 -2 91.69 15
1 -3 2 82.09 10
-4 0 2 88.79 22.5
4 0 -2 98.09 10.4
0 -4 2 49.6 41
4 0 -2 217.98 80.99
0 -4 2 89.09 39.9
4 0 -2 104.89 11.9
1 5 -2 116.79 36
-5 -1 2 169.58 28.6
5 1 -2 114.09 23.8
-1 -5 2 148.49 26.3
5 1 -2 246.58 58.29
-1 -5 2 118.39 43.9
5 1 -2 168.58 20.2
2 6 -2 87.09 12.2
-6 -2 2 113.69 11.7
2 6 -2 74.19 12
6 2 -2 118.89 13.9
6 2 -2 85.69 13.7
6 2 -2 85.79 9.7
6 2 -2 110.09 11.6
3 7 -2 86.39 8.8
-7 -3 2 81.99 9
3 7 -2 60.59 7.1
7 3 -2 75.89 7.6
-3 -7 2 71.59 7.8
-3 -7 2 78.69 14.8
7 3 -2 74.29 7.9
-8 -4 2 39.8 5.1
-8 -4 2 40.5 11.2
8 4 -2 38.6 4.7
8 4 -2 31.8 4.2
8 4 -2 38.5 4.7
-6 -10 2 57.49 15.8
-6 -10 2 38.6 7.8
-7 -11 2 18.2 9
-7 -11 2 6.7 5.9
-12 -8 2 61.59 7.6
8 12 -2 51.09 7.6
-8 -12 2 49 8
9 13 -2 2.6 4.9
13 9 -2 3.4 4.3
-9 -13 2 4.7 3.4
10 14 -2 7.6 5.2
-10 -14 2 4.5 5.2
11 15 -2 6.6 5.4
15 11 -2 3.2 3.7
-10 -15 -2 33.4 6.5
9 14 2 18.2 7.1
9 14 2 26.4 5.2
-8 -13 -2 -1.4 4.7
13 8 2 4.4 4.4
13 8 2 5.7 4.1
-7 -12 -2 38.1 6.3
6 11 2 162.18 19.3
6 11 2 159.78 33
11 6 2 125.29 14.8
11 6 2 141.29 15.6
-6 -11 -2 141.49 18
-10 -5 -2 102.59 20.3
-5 -10 -2 89.09 10.7
10 5 2 93.69 12
-5 -10 -2 135.59 12.5
-5 -10 -2 122.39 11.3
10 5 2 92.89 16.8
-4 -9 -2 67.99 22.5
-4 -9 -2 35.5 5.1
-4 -9 -2 35 4.7
-4 -9 -2 40 5.3
-4 -9 -2 28.8 4.2
9 4 2 43.9 11.8
8 3 2 42.2 10.8
8 3 2 52.19 7.1
-3 -8 -2 63.29 19.5
2 7 2 39.4 10.9
2 7 2 38.8 5.8
-2 -7 -2 28.2 13
-2 -7 -2 29.7 5.7
1 6 2 150.38 21.3
-6 -1 -2 225.38 26
6 1 2 172.68 21.3
-1 -6 -2 161.08 23.2
6 1 2 156.28 16.6
-5 0 -2 361.96 63.99
0 -5 -2 538.65 78.99
5 0 2 430.66 82.19
5 0 2 569.94 90.89
-1 4 2 155.98 34.8
-1 4 2 114.19 20.9
-4 1 -2 108.29 33.9
1 -4 -2 115.89 11.2
1 -4 -2 104.09 13.3
1 -4 -2 133.79 17.3
4 -1 2 127.19 22.9
-3 2 -2 50.69 15.4
3 -2 2 38.5 12.8
2 -3 -2 35.7 5.7
2 -3 -2 33.3 5.3
3 -2 2 35.7 9.1
-3 2 2 24.1 3.3
3 -2 -2 15.3 3.6
-4 1 2 92.79 14.4
-1 4 -2 62.19 12.8
-4 1 2 87.19 11.3
4 -1 -2 90.49 8.1
0 5 -2 549.25 93.49
0 5 -2 554.64 79.79
-5 0 2 426.06 68.69
-5 0 2 584.44 83.59
0 5 -2 650.73 92.79
0 5 -2 556.84 85.39
5 0 -2 885.41 277.37
5 0 -2 746.43 131.19
5 0 -2 840.22 140.39
0 -5 2 641.74 144.29
1 6 -2 248.88 31.2
1 6 -2 187.38 27
1 6 -2 155.78 40
1 6 -2 235.68 27.4
-6 -1 2 232.68 51.69
-1 -6 2 230.78 57.29
6 1 -2 273.87 36
-1 -6 2 269.97 31.2
6 1 -2 298.77 31.3
6 1 -2 246.98 52.69
6 1 -2 253.47 53.79
-7 -2 2 31.3 7.8
3 8 -2 17.9 13.6
-3 -8 2 12.8 10.9
-9 -4 2 35.1 5.3
5 10 -2 125.09 22.8
-5 -10 2 136.19 15.4
10 5 -2 146.79 14.4
-5 -10 2 150.58 14.1
6 11 -2 109.29 11.5
-6 -11 2 108.59 11.2
11 6 -2 98.39 11.3
11 6 -2 101.19 12.1
-6 -11 2 148.29 19.1
-13 -8 2 4 3.2
8 13 -2 4.1 5
-8 -13 2 1.1 4.7
9 14 -2 -1.3 5.8
9 14 -2 13.1 3.9
14 9 -2 6 6.2
-9 -14 2 5.6 3.7
9 15 2 1.5 3.3
9 15 2 6.3 6.9
15 9 2 12.4 4.1
-9 -15 -2 -2.1 5.3
8 14 2 5.5 4.1
14 8 2 1.9 3.8
-8 -14 -2 4.6 4.7
14 8 2 17.6 6.7
-7 -13 -2 32.9 4.6
13 7 2 20.4 4.4
6 12 2 56.39 7.9
-6 -12 -2 53.59 7.6
-10 -4 -2 18.4 10.4
10 4 2 20.5 12
-3 -9 -2 43.5 5
9 3 2 35.2 5.1
-3 -9 -2 33.5 4.7
-3 -9 -2 38.8 4.1
9 3 2 32.9 5.9
2 8 2 83.69 10.4
-8 -2 -2 97.49 11.3
-2 -8 -2 97.49 10.5
8 2 2 104.19 11.2
-2 -8 -2 84.69 9.6
8 2 2 89.59 10
-2 -8 -2 110.19 12.4
1 7 2 80.59 9.2
-1 -7 -2 73.09 8.7
0 6 2 132.59 44.7
0 6 2 222.48 113.59
-6 0 -2 108.79 35.2
0 -6 -2 117.59 28.6
0 -6 -2 152.28 49.4
6 0 2 173.58 39.1
6 0 2 218.28 40.7
0 -6 -2 122.99 39.4
-5 1 -2 145.29 26.9
-1 5 2 96.69 43.3
5 -1 2 122.29 40.3
1 -5 -2 115.59 37.2
1 -5 -2 103.89 28.9
1 -5 -2 139.99 37.8
-4 2 -2 70.39 10.3
-2 4 2 81.99 12.5
2 -4 -2 86.39 9.2
4 -2 2 78.29 9.4
-3 3 2 192.98 25.8
3 -3 -2 184.88 27.2
3 -3 -2 169.88 19
3 -3 -2 196.78 17.1
3 -3 -2 203.18 17.9
3 -3 2 228.28 24.1
3 -3 -2 190.18 17.4
-4 2 2 88.39 14.1
-4 2 2 80.69 10.2
4 -2 -2 130.29 16.3
4 -2 -2 111.49 14.6
2 -4 2 97.09 10.8
2 -4 2 104.49 14.3
-5 1 2 138.09 150.68
-5 1 2 98.19 80.49
5 -1 -2 108.69 17.9
5 -1 -2 89.49 43
5 -1 -2 61.09 48.7
5 -1 -2 148.29 26.4
5 -1 -2 197.28 127.29
-6 0 2 194.38 59.09
6 0 -2 270.47 88.09
6 0 -2 218.28 49.99
0 -6 2 194.08 44.2
6 0 -2 219.18 51.89
1 7 -2 77.49 9.1
-7 -1 2 57.79 12.9
-7 -1 2 101.99 10.5
7 1 -2 116.79 15.5
7 1 -2 104.69 15
7 1 -2 69.59 9.7
7 1 -2 82.89 8.4
-1 -7 2 111.79 20.2
-8 -2 2 101.69 10.8
2 8 -2 110.59 10.7
2 8 -2 83.49 9.1
-8 -2 2 68.09 14.7
2 8 -2 91.99 12.4
8 2 -2 147.69 27.8
8 2 -2 88.09 11
8 2 -2 134.49 17.5
-2 -8 2 122.49 21.7
3 9 -2 46 6.3
-9 -3 2 50.19 16.9
3 9 -2 35 5.4
9 3 -2 49.6 11.1
9 3 -2 42.7 6.1
-3 -9 2 44.9 5.6
9 3 -2 58.49 10.1
9 3 -2 34 4.8
-10 -4 2 21.4 5
5 11 -2 54.69 8.6
-5 -11 2 55.89 8.3
7 13 -2 39.4 6.3
-13 -7 2 31.5 5.5
13 7 -2 52.69 6.8
-7 -13 2 49.7 7.6
-8 -14 2 2 4.5
14 8 -2 -2.3 6
-15 -9 2 17.6 4.8
9 15 -2 1 6.7
9 15 -2 -3.5 5.5
-9 -15 2 9.4 4
16 9 2 26.2 6.6
8 15 2 3.1 3.1
8 15 2 1.6 5.8
15 8 2 -2.6 5.6
-8 -15 -2 10 3.2
7 14 2 -4.9 5.9
7 14 2 -3.6 4.1
14 7 2 -2 3.9
14 7 2 4.7 6.6
-7 -14 -2 -11.8 5.8
14 7 2 4.9 4.6
13 6 2 5.6 4.2
5 12 2 19 5.6
5 12 2 39.7 8
-5 -12 -2 27.7 4.7
-11 -4 -2 63.49 18.6
4 11 2 81.19 21.1
-4 -11 -2 60.19 8.6
-4 -11 -2 46.5 6.1
11 4 2 39.5 8.3
3 10 2 -15.5 14.8
-10 -3 -2 2.9 10.1
-3 -10 -2 23 16.1
10 3 2 21.4 9.8
-3 -10 -2 3.9 6
-3 -10 -2 14.8 3.1
10 3 2 21.7 7.9
-3 -10 -2 9.3 2
2 9 2 16.3 12.2
-2 -9 -2 18.5 14.1
9 2 2 28.9 5.4
1 8 2 56.69 10.7
8 1 2 44.5 5.1
-1 -8 -2 31.5 4.7
-1 -8 -2 64.09 12.8
8 1 2 37.8 5.8
-7 0 -2 25.8 6.5
0 7 2 34.4 14.9
0 -7 -2 26.1 8.8
0 -7 -2 40.4 14.3
0 -7 -2 25.9 7.2
7 0 2 42.6 9
0 -7 -2 43.7 14.5
-1 6 2 274.87 26
-6 1 -2 304.17 61.69
-1 6 2 250.67 24.3
1 -6 -2 243.38 30.4
1 -6 -2 208.08 29.4
6 -1 2 225.98 28.1
1 -6 -2 241.48 24.9
1 -6 -2 310.77 31.5
6 -1 2 385.76 81.89
6 -1 2 165.78 54.09
-2 5 2 25.8 8.2
-5 2 -2 27.8 8.7
-2 5 2 9.8 7.3
2 -5 -2 28.1 6.5
5 -2 2 18.7 3.9
3 -4 -2 40.6 5.3
4 -3 2 44.3 7.7
3 -4 2 68.89 8.7
4 -3 -2 43.6 5.7
5 -2 -2 29.6 15.9
2 -5 2 23 5.7
-6 1 2 331.17 35.1
-1 6 -2 278.47 35.4
-1 6 -2 278.27 36.2
-6 1 2 241.78 28.8
6 -1 -2 307.17 28.2
6 -1 -2 353.66 36.8
6 -1 -2 290.47 33.8
1 -6 2 363.46 60.39
-7 0 2 23.9 6.2
0 7 -2 26.2 6.4
0 -7 2 42.9 23.8
7 0 -2 41.6 18.4
0 -7 2 16.9 11.9
7 0 -2 43.5 12.5
7 0 -2 26.1 12.3
-8 -1 2 53.59 7.9
8 1 -2 71.49 9.9
8 1 -2 71.49 12.8
2 9 -2 4.8 10.9
-2 -9 2 1.7 16.1
-10 -3 2 20.1 4.1
10 3 -2 3.7 10
10 3 -2 11.2 2.7
4 11 -2 81.89 9.4
4 11 -2 58.69 10.1
5 12 -2 42.1 10.5
-13 -6 2 16.8 3.9
6 13 -2 12.4 4.9
-6 -13 2 10.8 7.6
7 14 -2 3.1 5.4
-7 -14 2 5.6 5.2
8 15 -2 -0.9 3.5
8 15 -2 3.7 4.6
-15 -8 2 1.3 4.2
15 8 -2 16.4 6.8
15 8 -2 -1.6 4.6
-8 -15 2 2.2 5.2
-9 -16 2 24.2 5.6
-16 -8 -2 1.9 3.8
8 16 2 6.8 6.2
16 8 2 9.6 7.1
16 8 2 12.3 4.3
7 15 2 -4.6 6.2
-7 -15 -2 -10.1 5.3
15 7 2 -4.1 3.8
15 7 2 7.2 5
14 6 2 14.6 4
5 13 2 -7.5 4.3
5 13 2 -4.5 5.8
-13 -5 -2 2 2.2
-5 -13 -2 0.8 3.9
13 5 2 4.1 3.4
13 5 2 1.3 2.8
-5 -13 -2 -9.2 4.5
12 4 2 53.89 8.2
-4 -12 -2 45.9 6.8
-11 -3 -2 1.3 13.1
11 3 2 11.5 8.6
-10 -2 -2 -19.6 13
2 10 2 -0.4 13.6
-10 -2 -2 15.1 12
2 10 2 2.8 12.6
2 10 2 4 7.4
-2 -10 -2 7.3 1.9
10 2 2 26.7 16
10 2 2 41 25.2
-2 -10 -2 2.1 9.9
10 2 2 2.3 7.9
-2 -10 -2 0.9 10
-2 -10 -2 -7 20.9
1 9 2 66.09 16.3
1 9 2 54.19 7.3
-1 -9 -2 53.79 7.5
-1 -9 -2 40.3 5.7
-1 -9 -2 61.29 7.4
-1 -9 -2 57.49 16.2
0 8 2 5.4 4.7
-8 0 -2 2.8 3.2
0 8 2 3.5 6.3
-8 0 -2 0 6.2
0 -8 -2 -9.4 9.9
0 -8 -2 1.5 1.6
8 0 2 -4.6 6.4
0 -8 -2 2 10.3
-7 1 -2 106.49 12.5
-1 7 2 104.69 12.8
7 -1 2 90.69 11.2
7 -1 2 76.99 12
1 -7 -2 80.09 9.3
-6 2 -2 89.49 12.6
-2 6 2 110.29 11.8
2 -6 -2 106.79 10.4
6 -2 2 87.19 11.3
2 -6 -2 82.49 10.1
2 -6 -2 99.39 9.7
6 -2 2 98.39 13.5
-3 5 2 7.4 7.4
-3 5 2 12.3 8.4
-5 3 -2 8.4 5.7
-3 5 2 5.3 8.9
3 -5 -2 9.4 7.2
3 -5 -2 7.3 6.7
5 -3 2 7 4.1
-4 4 2 45.5 6.2
4 -4 -2 61.19 6.9
4 -4 -2 61.59 7.9
4 -4 -2 82.09 20.3
-3 5 -2 2.7 6.8
-3 5 -2 2.7 9.1
-5 3 2 -1.4 9.6
3 -5 2 2.3 2.4
3 -5 2 2.1 1.2
3 -5 2 1.3 5.2
5 -3 -2 10.1 7.8
3 -5 2 10.6 14.9
3 -5 2 3.5 6.4
6 -2 -2 153.58 25.2
6 -2 -2 117.59 11.8
6 -2 -2 115.69 11
2 -6 2 127.69 14.2
6 -2 -2 87.09 14.2
6 -2 -2 118.59 15.5
-1 7 -2 64.79 8.2
-7 1 2 95.19 15.1
1 -7 2 69.79 15.3
7 -1 -2 75.89 8.4
1 -7 2 72.69 8.1
0 8 -2 -4.8 12.2
0 8 -2 -1.6 4.8
-8 0 2 -5.5 8.6
0 8 -2 2.9 3.2
-8 0 2 6.6 5
8 0 -2 9.2 7.3
0 -8 2 3.6 9.7
8 0 -2 -2.2 2.3
0 -8 2 0.9 5.6
8 0 -2 4.9 9.3
-9 -1 2 67.29 9
1 9 -2 93.69 20.2
9 1 -2 59.99 9.1
9 1 -2 86.79 10.2
9 1 -2 72.59 10.6
2 10 -2 -5.6 15.9
2 10 -2 -1.7 15.4
-2 -10 2 6.5 6.8
-2 -10 2 3.1 7.4
10 2 -2 -1.2 5.2
-11 -3 2 39.7 6.4
11 3 -2 37.4 7.1
-12 -4 2 58.69 7.5
12 4 -2 50.09 7.2
-4 -12 2 32.6 5.6
-13 -5 2 -0.6 2.6
5 13 -2 -6.1 4.3
13 5 -2 -0.9 3.4
13 5 -2 1.2 2.4
13 5 -2 -8.2 4.3
14 6 -2 19.5 4.5
7 15 -2 -10.5 7.4
-7 -15 2 2 5.2
8 16 -2 0.4 5.7
-8 -16 2 1.9 5.4
-16 -7 -2 -0.7 2.7
7 16 2 16.4 6.7
7 16 2 -1.8 3.1
-7 -16 -2 -0.4 3.4
16 7 2 -5.7 4.5
-7 -16 -2 -7.5 5
-6 -15 -2 46.7 7.9
15 6 2 53.79 7.8
5 14 2 53.89 8.8
-5 -14 -2 48.6 7.1
14 5 2 44.9 6.7
4 13 2 17.6 4.7
13 4 2 22.4 5.7
13 4 2 17.9 5.3
12 3 2 42.8 7.3
12 3 2 14.7 13.8
2 11 2 7.8 15.1
-11 -2 -2 -7.3 14
11 2 2 10.7 8.6
11 2 2 8.7 3.7
11 2 2 12.6 4.6
1 10 2 146.99 24.1
1 10 2 162.18 24.9
10 1 2 113.39 19
10 1 2 132.59 15.4
-1 -10 -2 113.59 13.3
-1 -10 -2 136.39 19.7
10 1 2 120.39 15.4
-1 -10 -2 125.59 14.5
0 -9 -2 127.49 13.2
0 -9 -2 92.49 10.2
9 0 2 101.19 11.4
0 -9 -2 107.69 23.3
-8 1 -2 80.39 9.3
8 -1 2 52.19 7.9
8 -1 2 63.49 7.5
-2 7 2 51.99 9.6
2 -7 -2 40.4 6.5
6 -3 2 46.1 11.6
-5 4 -2 194.68 22.4
5 -4 2 158.58 20.3
4 -5 -2 154.88 15.1
-5 4 2 238.48 53.69
-5 4 2 141.79 36.2
5 -4 -2 202.18 37.1
5 -4 -2 228.48 43
5 -4 -2 166.48 19.7
4 -5 2 161.88 18.3
5 -4 -2 167.88 15.6
5 -4 -2 148.59 14.5
-6 3 2 30.2 5
6 -3 -2 24.7 6.9
7 -2 -2 48.5 8.4
7 -2 -2 43.3 9.5
8 -1 -2 35.5 6.6
-9 0 2 115.19 21.7
0 9 -2 140.49 14.3
9 0 -2 98.39 12.6
9 0 -2 129.09 12.1
9 0 -2 97.19 17.6
9 0 -2 124.79 14.4
9 0 -2 149.88 13.6
1 10 -2 174.78 24.8
1 10 -2 161.68 27
-10 -1 2 167.48 16.1
10 1 -2 151.18 15.3
10 1 -2 124.99 15.8
-1 -10 2 144.09 17.5
10 1 -2 151.28 17.4
-2 -11 2 7.9 7.6
-2 -11 2 2.6 6
-12 -3 2 19.4 4.6
4 13 -2 1.5 3.8
13 4 -2 3.3 4.6
-4 -13 2 6.3 4.9
5 14 -2 32 5.4
-15 -6 2 36.1 5.6
-6 -15 2 48.2 9.2
7 16 -2 1.6 3.9
-7 -16 2 10.8 5.4
16 7 -2 8.8 4.9
16 7 -2 3.5 7
7 17 2 22.5 4.8
-17 -7 -2 24.1 5.1
16 6 2 18.9 5.2
4 14 2 15 4.8
14 4 2 12.2 4.1
-3 -13 -2 54.29 7
13 3 2 53.79 7.3
13 3 2 41.8 9.4
2 12 2 94.49 11.5
2 12 2 80.29 10.3
-2 -12 -2 84.09 13.5
-2 -12 -2 93.79 10.3
12 2 2 74.69 10.7
12 2 2 91.39 10.8
1 11 2 89.09 16.3
11 1 2 92.79 9.6
11 1 2 70.29 16.1
0 10 2 109.39 17.8
-10 0 -2 154.58 18.6
10 0 2 130.79 20.4
0 -10 -2 143.59 15.5
-1 9 2 54.99 9.3
1 -9 -2 42.7 5.4
1 -9 -2 57.29 13.1
-2 8 2 64.19 8.4
2 -8 -2 73.89 8.1
2 -8 -2 75.49 9.5
2 -8 -2 77.79 8.4
-3 7 2 67.79 9.1
-3 7 2 61.79 8.7
-7 3 -2 75.99 10.5
3 -7 -2 125.59 24.9
7 -3 2 60.89 9.1
3 -7 -2 86.09 8.3
3 -7 -2 94.79 11
3 -7 -2 70.79 9.4
-6 4 -2 105.69 26.8
6 -4 2 124.19 43
-5 5 2 76.19 26.6
5 -5 2 202.78 64.99
6 -4 -2 79.79 13.4
-7 3 2 94.99 10.6
7 -3 -2 111.89 10.8
7 -3 -2 79.89 10.5
7 -3 -2 87.79 11.6
-8 2 2 86.89 17.7
8 -2 -2 131.29 18.1
2 -8 2 101.69 20.3
8 -2 -2 119.89 12.8
8 -2 -2 113.69 12.1
2 -8 2 130.09 18.3
9 -1 -2 46.8 7.5
9 -1 -2 64.99 8.6
10 0 -2 203.18 23.3
-12 -2 2 83.09 9.6
-2 -12 2 82.19 16.1
12 2 -2 65.99 10.2
3 13 -2 58.49 7.7
13 3 -2 47.9 7
-3 -13 2 46.3 7.1
14 4 -2 5.9 5
-17 -7 2 30.4 5.9
-7 -17 2 19.5 4.8
6 17 2 24.7 5.5
6 17 2 32.3 8
5 16 2 57.79 7.4
-5 -16 -2 43.9 6.7
16 5 2 52.79 7.7
4 15 2 35.6 6.7
4 15 2 47.2 6.7
15 4 2 41.5 6.1
15 4 2 41.7 6.9
-4 -15 -2 37.5 5.9
3 14 2 4 4.3
3 14 2 14.8 5.6
14 3 2 9.5 3.8
-3 -14 -2 1.4 3.2
-3 -14 -2 3.9 2.9
13 2 2 52.19 7.5
1 12 2 32.1 5.8
-1 -12 -2 38.9 5.8
12 1 2 27.9 7.6
-1 -12 -2 25.2 5
-11 0 -2 149.49 18.5
0 11 2 243.28 31.8
0 -11 -2 192.28 17.6
11 0 2 162.28 18.6
11 0 2 214.58 21.2
-10 1 -2 84.39 11.5
1 -10 -2 143.19 26.3
1 -10 -2 96.79 8.4
10 -1 2 76.29 9.6
1 -10 -2 71.29 8.6
-2 9 2 5.8 13.7
2 -9 -2 11.5 16.9
9 -2 2 36.4 7.7
-8 3 -2 72.09 9.7
8 -3 2 56.89 10.3
-7 4 -2 -14.8 8.7
-4 7 2 -8.4 12.7
-4 7 2 3.6 9.2
-7 4 -2 4.8 4.1
-5 6 2 313.27 35.7
-6 5 -2 363.56 81.89
5 -6 -2 277.57 27.8
5 -6 -2 273.47 49.4
5 -6 -2 284.47 27.5
-6 5 2 225.08 32.9
-5 6 -2 255.57 40.2
5 -6 2 381.86 92.69
6 -5 -2 232.88 29.6
6 -5 -2 237.98 25.6
6 -5 -2 212.88 27.7
6 -5 -2 252.67 34
6 -5 -2 276.97 35.2
6 -5 -2 239.98 23.1
-7 4 2 7.4 10.8
-4 7 -2 3 13.6
-4 7 -2 5.9 6.8
7 -4 -2 16.7 6.9
4 -7 2 -3.9 8.4
-8 3 2 3.6 10.2
-3 8 -2 6.8 14.3
3 -8 2 16.5 13.4
-9 2 2 -12.9 13.1
-2 9 -2 -8.5 11.2
2 -9 2 12 16.5
9 -2 -2 3.2 2.8
2 -9 2 7.6 5.2
-1 10 -2 151.48 16.1
1 -10 2 177.98 29.2
10 -1 -2 123.69 13.6
1 -10 2 121.89 15.6
0 11 -2 299.97 26.9
0 -11 2 256.57 29.9
11 0 -2 296.57 27.5
12 1 -2 67.89 9.7
-13 -2 2 14.1 4.1
13 2 -2 5.6 5.1
-2 -13 2 14.8 4.2
13 2 -2 26.6 5.6
-14 -3 2 -0.7 2.9
3 14 -2 8.1 4.8
14 3 -2 8.7 6.9
-3 -14 2 2 2.4
15 4 -2 26.9 4.9
5 16 -2 66.19 8.2
17 6 -2 22.1 5.4
17 6 -2 29.6 8.7
5 17 2 10.4 4.8
5 17 2 -1.9 5.9
-5 -17 -2 3.5 3.9
3 15 2 9.2 5.8
-15 -3 -2 -0.7 3.8
3 15 2 -8.8 5
15 3 2 -5.1 4.2
15 3 2 -9.9 6.5
15 3 2 3.9 5.5
-3 -15 -2 -6.1 3.9
2 14 2 17.5 5.1
14 2 2 22.9 5.5
-2 -14 -2 20.6 5.2
13 1 2 35.4 6.4
-1 -13 -2 27.9 4.6
-1 -13 -2 31.1 4.9
13 1 2 26.2 5
12 0 2 17.7 5.7
11 -1 2 72.49 9.2
11 -1 2 62.19 9.2
-2 10 2 2.8 7
-10 2 -2 -0.9 5.7
-2 10 2 4 7.2
-10 2 -2 -6.5 9.6
-2 10 2 -9.7 11.1
2 -10 -2 11.8 4.9
10 -2 2 -0.5 7.5
2 -10 -2 3.6 7.9
10 -2 2 -6.8 9.2
2 -10 -2 -3.6 14
10 -2 2 7.8 20
-3 9 2 46.5 12.7
-3 9 2 38.2 6.3
-3 9 2 63.19 8
3 -9 -2 64.89 9.6
3 -9 -2 50.19 6.5
3 -9 -2 67.29 9.3
3 -9 -2 50.99 6.5
-4 8 2 64.69 7.2
4 -8 -2 43.2 6.7
4 -8 -2 52.19 6.9
8 -4 2 74.29 13.2
4 -8 -2 56.29 6.9
-5 7 2 1.1 5.2
-7 5 -2 -4.7 9.3
-5 7 2 -2.2 13.9
-5 7 2 -10.6 14.7
-7 5 -2 3.2 4.2
-7 5 -2 13.1 9.2
5 -7 -2 19.1 16.2
7 -5 2 1.9 2.2
-6 6 2 126.89 37.6
-6 6 2 80.79 38.6
6 -6 -2 128.49 23.2
6 -6 -2 109.29 13.6
-7 5 2 19.1 14.7
-5 7 -2 -6.4 10.1
-5 7 -2 0.2 13.5
-5 7 -2 3 6.5
7 -5 -2 3.7 6.2
5 -7 2 12 10.3
5 -7 2 5.2 6.9
7 -5 -2 2.7 10.2
7 -5 -2 23.9 18.5
7 -5 -2 5 12.7
-8 4 2 35.8 5
-8 4 2 75.39 16
8 -4 -2 42.8 6.4
8 -4 -2 43.1 5.8
8 -4 -2 52.09 5.8
-3 9 -2 59.89 8.3
-9 3 2 50.59 6.9
-3 9 -2 86.79 19.5
-9 3 2 72.79 19.5
9 -3 -2 84.29 16
9 -3 -2 57.69 7.5
9 -3 -2 75.29 9.8
3 -9 2 83.49 18
-2 10 -2 -4.8 13
-10 2 2 12.1 13
-2 10 -2 -27.8 19.3
10 -2 -2 13 14.6
2 -10 2 5.5 9.9
10 -2 -2 14.2 14.3
10 -2 -2 3.5 4.8
2 -10 2 28.3 20.5
-11 1 2 71.79 10.1
11 -1 -2 76.99 9.6
-12 0 2 5.7 7.2
0 12 -2 5.3 4.8
-13 -1 2 58.89 7.2
13 1 -2 44.5 7
-1 -13 2 48.9 6.3
2 14 -2 19.5 5.4
-2 -14 2 13.6 4.2
14 2 -2 23 7.6
3 15 -2 -3.5 5
-15 -3 2 -4.5 4.1
-3 -15 2 2.9 4.5
15 3 -2 1 4.9
15 3 -2 5.8 4.9
16 4 -2 35.5 7.7
5 17 -2 10.5 4.2
17 5 -2 1.3 4.3
5 18 2 -8.7 4.9
5 18 2 2.3 6.3
-18 -5 -2 6.6 4.6
18 5 2 -7.5 5
18 5 2 -3.5 3.3
-5 -18 -2 -7.6 4.9
3 16 2 -3.9 4.7
16 3 2 -3.2 5
-3 -16 -2 5.5 4.3
-3 -16 -2 -1.1 6.8
2 15 2 7.4 5.4
-2 -15 -2 7.7 4.6
15 2 2 3.6 4.2
15 2 2 0.9 14.4
15 2 2 -1.4 9.1
-2 -15 -2 -4 12
14 1 2 42.6 7.4
14 1 2 48.3 7.5
13 0 2 40.2 6.2
13 0 2 28.4 6.9
-12 1 -2 96.29 10.6
12 -1 2 83.79 10
12 -1 2 72.49 9.8
-2 11 2 19.6 5.3
-11 2 -2 -5.5 12
2 -11 -2 22 14.9
11 -2 2 3.7 10.1
11 -2 2 31 11.5
-3 10 2 21.7 11.6
-10 3 -2 6.4 9.8
-3 10 2 18.7 15
10 -3 2 11.6 10.8
10 -3 2 34.5 9.7
9 -4 2 69.69 9.8
-8 5 -2 -9 9.4
-5 8 2 15.8 12.9
-5 8 2 6.7 9.3
-5 8 2 8.1 3.2
-5 8 2 11.6 8.2
-8 5 -2 11.6 8.8
-7 6 -2 9.1 12.8
-6 7 2 6.9 13.9
-6 7 -2 14.9 12.7
-7 6 2 20.5 3.6
-7 6 2 19 15.5
7 -6 -2 31.6 6.1
-8 5 2 18.3 16.3
-5 8 -2 6.5 10.4
-5 8 -2 9.9 12.3
5 -8 2 11.7 12.8
8 -5 -2 11.4 8.3
8 -5 -2 -10.8 12.7
-9 4 2 62.99 8.7
9 -4 -2 75.99 9.1
4 -9 2 79.79 10.5
9 -4 -2 88.89 9.9
-10 3 2 40.4 7.7
-3 10 -2 0 16.7
10 -3 -2 30 5.1
10 -3 -2 41.8 6.9
3 -10 2 9 19.3
11 -2 -2 3.5 4.1
0 13 -2 17.8 6.1
0 -13 2 7.3 5.8
13 0 -2 18.5 5.4
1 14 -2 58.99 8.7
14 1 -2 71.29 8.9
2 15 -2 2.1 6.1
-15 -2 2 2.1 4.7
-2 -15 2 13.8 5.1
15 2 -2 5.1 11.5
3 16 -2 3.4 5.6
16 3 -2 -18.1 9.3
16 3 -2 8.2 6.7
-17 -4 2 17.1 5.8
4 17 -2 16.4 6.2
17 4 -2 32.9 7.8
-18 -5 2 7.1 5.1
5 18 -2 3.7 4.6
-5 -18 2 -2.8 5
18 5 -2 15.1 6.1
-4 -18 -2 5.3 5.4
-4 -18 -2 9.2 4.1
18 4 2 5.8 4.7
18 4 2 3 6.1
3 17 2 40.2 7.9
3 17 2 41 6.7
17 3 2 44 6.7
-3 -17 -2 41.4 7.4
2 16 2 6.2 5.7
16 2 2 3.3 5
-2 -16 -2 7.2 7.4
15 1 2 20.4 4.9
-1 -15 -2 13.5 15.1
0 14 2 36.2 6.6
14 0 2 39.3 6.7
-1 13 2 32.8 5.6
13 -1 2 34.8 5.6
1 -13 -2 40.9 7.4
-2 12 2 104.19 11.2
-2 12 2 96.59 11.3
2 -12 -2 79.19 14
-11 3 -2 37.1 11.2
-10 4 -2 113.79 13.5
10 -4 2 107.19 20.6
-9 5 -2 15.3 11.2
-9 5 -2 19.3 15.6
-5 9 2 -8 15.1
9 -5 2 27.7 7.1
-6 8 2 21.7 3.7
6 -8 -2 26.5 5.9
-7 7 2 90.89 11.9
-7 7 2 79.89 10.7
7 -7 -2 114.89 12.8
7 -7 -2 108.19 12.6
7 -7 -2 104.89 13.7
-8 6 2 36 5.5
8 -6 -2 36 8.4
-5 9 -2 24.1 18.1
-5 9 -2 -0.3 10.3
-4 10 -2 8.8 14.2
4 -10 2 33.5 22.9
11 -3 -2 49.5 11.2
11 -3 -2 35.3 6.2
-2 12 -2 74.69 10.1
-12 2 2 106.19 10.6
12 -2 -2 85.79 10
-13 1 2 54.89 8.9
13 -1 -2 68.99 8.1
13 -1 -2 62.79 8.9
-1 -15 2 -6.8 8.1
15 1 -2 6 5.6
2 16 -2 1.7 3.9
16 2 -2 -6.1 6.8
16 2 -2 12.5 5.9
3 17 -2 38.1 6.5
18 4 -2 21.2 8.3
18 4 -2 25.2 9.1
18 3 2 12 5
17 2 2 2.9 3.9
-2 -17 -2 15.7 4.3
1 16 2 51.69 9.2
1 16 2 73.39 8.9
16 1 2 58.69 9.3
0 15 2 131.39 13
0 -15 -2 127.69 18.6
15 0 2 109.09 13.9
-1 14 2 34.2 6.7
-13 2 -2 50.19 7
13 -2 2 64.49 8.5
13 -2 2 43.1 6.2
-12 3 -2 38.3 6.1
12 -3 2 33.5 7.7
-4 11 2 64.09 10.6
4 -11 -2 98.69 13.2
11 -4 2 79.29 13
-5 10 2 168.48 17.1
5 -10 -2 138.09 17.6
10 -5 2 155.58 17.5
5 -10 -2 136.29 16.2
-9 6 -2 16.5 13
-8 7 -2 7.7 6.7
-8 7 -2 6.6 13.9
-8 7 -2 13.4 9.8
7 -8 -2 26.1 8.3
-7 8 -2 27 18.6
-7 8 -2 13.8 12.3
8 -7 -2 23.4 5.5
9 -6 -2 39.5 9.6
-10 5 2 181.38 18.8
10 -5 -2 196.38 19.7
10 -5 -2 156.38 17.7
11 -4 -2 134.29 14.4
11 -4 -2 137.29 14.4
11 -4 -2 124.59 14.1
12 -3 -2 45.9 8.8
2 -13 2 12.6 10.3
-1 14 -2 33.8 5.6
1 -14 2 33.9 6.1
0 15 -2 121.59 12.4
0 -15 2 89.89 11.2
15 0 -2 118.29 12.2
16 1 -2 53.39 7.9
2 17 -2 28.3 6.4
17 2 -2 27.5 6.3
2 18 2 36.5 6.2
-2 -18 -2 28.1 6.5
-1 -17 -2 31.7 6.4
17 1 2 29.9 6.5
0 16 2 71.19 9.5
-16 0 -2 79.59 10
16 0 2 88.89 11.1
0 -16 -2 60.99 10.6
15 -1 2 0.8 5.8
15 -1 2 27.3 6.5
-2 14 2 12.8 3.9
14 -2 2 12.3 5.7
14 -2 2 8.9 7.4
-3 13 2 27.8 5.3
-3 13 2 46.6 6.3
-12 4 -2 85.69 11.2
12 -4 2 89.79 12
-11 5 -2 31.7 22.9
-10 6 -2 -2.7 13.8
6 -10 -2 22.1 23.6
-9 7 -2 8.6 7.2
-9 7 -2 -4.2 13.1
-7 9 2 10 7.2
-9 7 -2 34.8 19.1
9 -7 2 42.2 27.7
-8 8 -2 38.5 10.1
-8 8 2 60.49 7.5
8 -8 2 49.9 11.5
-7 9 -2 10.7 19.1
7 -9 2 35 8.1
7 -9 2 42.1 13.4
10 -6 -2 37.6 9.7
-13 3 2 48.5 7.2
-3 13 -2 58.69 7.9
13 -3 -2 69.39 8.8
-14 2 2 18.9 4.7
14 -2 -2 20.5 4.4
-15 1 2 19.1 14.6
0 16 -2 66.59 9.4
16 0 -2 65.79 8.9
17 1 -2 22.9 6.3
-18 -2 2 28.2 5.2
1 18 2 4.9 4.5
18 1 2 11 5.2
0 17 2 28.5 6.1
0 -17 -2 26.5 6.1
16 -1 2 45.5 6.9
1 -16 -2 48.5 7.3
-2 15 2 -3.2 5.7
-2 15 2 1.2 3.7
-15 2 -2 13.1 4.4
2 -15 -2 5.4 4.6
2 -15 -2 6.3 4.6
15 -2 2 8.4 3.8
2 -15 -2 12.9 9.5
-3 14 2 1.9 4.2
-3 14 2 2.3 4.8
14 -3 2 -0.1 3.2
3 -14 -2 4.6 3.8
13 -4 2 21.1 5.8
-5 12 2 8 6
-5 12 2 6.4 5.4
-12 5 -2 3.5 5
5 -12 -2 24.9 16.9
12 -5 2 6.7 5.7
-6 11 2 134.29 13.4
-6 11 2 115.39 12.3
6 -11 -2 92.99 12.1
11 -6 2 137.49 17.2
6 -11 -2 93.29 15.4
-7 10 2 9.9 14.3
-10 7 -2 2.8 9.3
-10 7 -2 2.5 9.1
7 -10 -2 3.4 5.3
10 -7 2 12.9 15.8
7 -10 -2 1.4 5.3
-8 9 2 0.9 7.2
8 -9 -2 6.8 5.2
8 -9 -2 6.1 4.2
-9 8 2 4.9 6.4
-9 8 2 5.5 4.1
9 -8 -2 3.7 5.1
-10 7 2 4.4 2.5
10 -7 -2 -9 12.6
10 -7 -2 3.8 15
10 -7 -2 -4.1 4.9
-11 6 2 121.89 13.6
-6 11 -2 115.99 13.7
11 -6 -2 100.29 12.4
11 -6 -2 134.09 14.2
6 -11 2 150.88 15.6
5 -12 2 34.4 14.8
12 -5 -2 23.8 7
12 -5 -2 25.6 5.4
-4 13 -2 -1.2 4.2
13 -4 -2 4.8 5.1
13 -4 -2 14.2 5.3
13 -4 -2 2.3 4.2
-3 14 -2 6.5 5
3 -14 2 4.3 4.4
14 -3 -2 6.2 4.3
-15 2 2 2.3 3.2
-2 15 -2 5.3 5.6
15 -2 -2 -0.2 4.8
2 -15 2 6.1 6.3
2 -15 2 -8.2 5.1
15 -2 -2 -9.2 8.9
-1 16 -2 51.29 6.8
16 -1 -2 39.8 7.5
1 -16 2 41.5 6.6
1 18 -2 4.9 4.7
18 1 -2 5 4.9
0 18 2 -4.3 4.4
-18 0 -2 2.5 4.5
0 -18 -2 1.1 4.7
18 0 2 1.8 4.7
-2 16 2 5.2 4
16 -2 2 -0.4 6
2 -16 -2 5.4 4.8
16 -2 2 6.3 6.3
15 -3 2 8 5.7
3 -15 -2 -1.3 5.4
-13 5 -2 -6.8 3.9
-5 13 2 0.2 4.4
-5 13 2 -10.1 6.4
-13 5 -2 -2.1 3.4
5 -13 -2 -1.9 5.3
13 -5 2 6.8 5.6
13 -5 2 -6 3.7
-11 7 -2 3 4.3
-8 10 2 -5 5.2
-10 8 -2 -2.5 5.2
-10 8 -2 -7.7 4.5
8 -10 -2 -3.9 4.6
8 -10 -2 3.1 4.6
10 -8 2 -7.2 7.2
10 -8 2 -3.4 7.1
8 -10 -2 -2.5 4.8
-8 10 -2 -10 6
-10 8 2 -3.7 4.5
8 -10 2 5.6 5.5
10 -8 -2 5.1 4.7
10 -8 -2 -1.8 5.4
8 -10 2 -0.7 4.9
12 -6 -2 60.49 7.6
-5 13 -2 2.3 4.3
13 -5 -2 -2.5 4.9
13 -5 -2 3 3.2
5 -13 2 1.1 3.5
13 -5 -2 3.8 4
13 -5 -2 -3.4 6
-4 14 -2 18.5 5.9
-3 15 -2 -0.6 4.9
-15 3 2 7.3 2.9
15 -3 -2 2.5 5.6
3 -15 2 -4.6 6.2
15 -3 -2 5.5 9.2
3 -15 2 -4.2 6.6
-16 2 2 2 3.2
16 -2 -2 -4.4 3.9
0 18 -2 -1.5 5.3
-18 0 2 -6.9 4.9
0 -18 2 -6.2 4.3
18 0 -2 -9.8 4.4
18 0 -2 7.4 6.7
-1 18 2 14 5.1
1 -18 -2 3.1 4
1 -18 -2 -3.4 5.7
-17 2 -2 51.19 7.6
-3 16 2 5.3 5.2
3 -16 -2 8.1 6
16 -3 2 -5.7 3.1
16 -3 2 0.7 6.5
3 -16 -2 -2 5.8
3 -16 -2 5.7 5.4
-6 13 2 2.8 4.5
-6 13 2 10.6 4
6 -13 -2 19.4 4.5
-11 8 -2 -0.7 4.7
-8 11 2 4.5 10.1
-8 11 2 -1.3 4.1
8 -11 -2 7.2 7.8
8 -11 -2 19.5 6
-9 10 2 31.7 4.9
-10 9 2 63.99 18.5
-11 8 2 14.6 13.8
-8 11 -2 8.6 4.8
11 -8 -2 -1.6 6.4
12 -7 -2 10.8 8.5
12 -7 -2 29.9 9.1
13 -6 -2 5.9 4
6 -13 2 10.9 8.4
14 -5 -2 45.5 5.8
-4 15 -2 43.6 7.5
-15 4 2 39.8 5.9
15 -4 -2 50.99 6.3
-3 16 -2 -8.9 4.2
3 -16 2 0 3.4
3 -16 2 -2.9 6.6
16 -3 -2 3.1 5.2
-2 17 -2 5.4 5.1
17 -2 -2 13.7 5.3
2 -17 2 -1.9 5.9
1 -18 2 20 6.8
18 -1 -2 9.6 5.6
18 -1 -2 5.8 5.1
-18 2 -2 33.3 5.8
-2 18 2 21.1 4.7
17 -3 2 27.5 5.5
16 -4 2 17.2 4.1
-14 6 -2 5.6 4.7
7 -13 -2 27.7 5.8
12 -8 2 59.19 13.2
8 -12 -2 31.4 6.5
-11 9 -2 0 5.6
9 -11 -2 19.7 8.1
-8 12 -2 80.19 11
13 -7 -2 25.5 5.1
14 -6 -2 16 6.6
5 -15 2 5 5.7
5 -15 2 -2.7 5.3
16 -4 -2 8.2 5.6
16 -4 -2 5.9 4.2
4 -16 2 -0.9 8.5
17 -3 -2 21.4 4.5
3 -18 -2 8.6 6.3
18 -3 2 22 6.2
-4 17 2 1.6 4.9
-17 4 -2 2.1 4.3
4 -17 -2 4.5 4.4
-16 5 -2 24.7 5.1
15 -6 2 5.6 4.4
-14 7 -2 1.8 4.8
-7 14 2 3.3 5.5
-14 7 -2 -9.3 5
7 -14 -2 -0.9 4
-13 8 -2 1.4 4.9
-8 13 2 0.3 5.9
-12 9 -2 2.2 7.5
9 -12 -2 0 6.7
9 -12 -2 3.6 4
-11 10 -2 81.19 14.4
-11 10 -2 112.49 19.5
11 -10 2 89.19 15.2
10 -11 2 83.59 15.9
-9 12 -2 2.8 5.9
-12 9 2 0.2 15.7
12 -9 -2 5.8 4.6
-13 8 2 2.2 5.4
-8 13 -2 2 5.7
8 -13 2 5.7 7
13 -8 -2 1.6 5.9
13 -8 -2 -7.4 6.1
14 -7 -2 3.3 4.7
14 -7 -2 -6.4 4
14 -7 -2 -1.8 3.9
15 -6 -2 33 5.4
15 -6 -2 22.5 6.9
-5 16 -2 62.29 8.1
16 -5 -2 63.19 7.9
17 -4 -2 13.7 4.1
17 -4 -2 25.5 5.3
4 -17 2 1.6 5.5
-3 18 -2 17.9 6
3 -18 2 8.1 6.5
18 -4 2 8.6 6.1
-17 5 -2 3.2 3.4
-5 17 2 -1.2 4.5
5 -17 -2 4.1 5.9
16 -6 2 1.8 4
-7 15 2 -8 6.3
-15 7 -2 9.9 5.4
-15 7 -2 -3.4 4.7
7 -15 -2 6.6 4.8
15 -7 2 0.5 5.5
7 -15 -2 0.8 6.6
-14 8 -2 4.3 3.6
14 -8 2 7 6.5
8 -14 -2 8.6 6.7
8 -14 -2 19.2 6.1
8 -14 -2 -1.8 3.9
-13 9 -2 2.9 5.1
9 -13 -2 5.4 5.8
-12 10 -2 2.3 4
-10 12 2 3 7.2
-12 10 -2 0.1 6.2
12 -10 2 5.4 6.1
10 -12 -2 4.6 5.2
10 -12 -2 1.2 5.5
10 -12 -2 2.3 5.3
-11 11 2 26.3 24.4
-12 10 2 3.7 6.2
12 -10 -2 -3.9 4.8
12 -10 -2 5.4 4.8
-14 8 2 4.1 5.2
-8 14 -2 4.1 4.2
14 -8 -2 6.6 4.8
14 -8 -2 12.9 4.7
8 -14 2 8.4 5.7
-7 15 -2 0.5 6.2
7 -15 2 10.1 7.4
15 -7 -2 -3.2 8.9
15 -7 -2 -2.9 4.8
15 -7 -2 -2.6 5.6
-16 6 2 12.8 9.7
16 -6 -2 1.4 5.2
-5 17 -2 1.4 4
5 -17 2 0.6 4
17 -5 -2 6.4 4.9
18 -4 -2 -2.8 4.2
18 -4 -2 3.4 5.3
4 -18 2 0.8 5.2
-18 5 -2 -6.1 5
-5 18 2 -4.5 3.9
5 -18 -2 7.2 5.8
18 -5 2 -1 4.4
-7 16 2 0.9 4.4
-16 7 -2 -5.1 5.2
-16 7 -2 -0.2 5.5
7 -16 -2 12 6.3
7 -16 -2 -1 6.2
16 -7 2 -5.2 6.4
7 -16 -2 6.2 5.7
-15 8 -2 3.8 5.2
-8 15 2 -8 5.8
-15 8 -2 6.2 3.9
15 -8 2 -5.6 5.3
8 -15 -2 13.1 5.1
8 -15 -2 2.2 4.2
15 -8 2 4.1 6.6
-14 9 -2 9.6 4.5
-14 9 -2 16.3 5
9 -14 -2 2.2 6.1
9 -14 -2 25.3 7.5
9 -14 -2 -0.6 5.1
-13 10 -2 0.7 4.1
-13 10 -2 -9.7 5.3
10 -13 -2 3.6 4.2
10 -13 -2 4.3 5.4
10 -13 -2 12.9 5.5
10 -13 -2 -1.8 4.6
-11 12 2 -6.3 5.7
-11 12 -2 -2.1 4.7
11 -12 2 -1.2 4.6
12 -11 -2 6.2 4.9
11 -12 2 9.9 7.9
-13 10 2 -0.5 5.3
-10 13 -2 2.3 6
10 -13 2 2.7 6
13 -10 -2 -2.2 4.4
10 -13 2 15.4 7.2
-9 14 -2 7 5.6
9 -14 2 26.7 8.3
9 -14 2 29.8 6.1
-8 15 -2 -2.8 5.8
-15 8 2 -2.6 5.4
15 -8 -2 1.4 4.7
8 -15 2 6.8 4.3
15 -8 -2 5.2 4.9
-7 16 -2 0.4 5.8
16 -7 -2 -2.3 6
16 -7 -2 5.1 5.1
16 -7 -2 5.7 4.8
7 -16 2 16.6 6.4
7 -16 2 3.7 7.3
17 -6 -2 26.6 5
17 -6 -2 14.9 8
7 -17 -2 18.5 6.6
-16 8 -2 -4.7 6
8 -16 -2 9.5 6.8
16 -8 2 6.9 6.2
-15 9 -2 -2.1 6.1
-9 15 2 1.8 6.1
9 -15 -2 11.7 7.4
9 -15 -2 3 4.5
15 -9 2 6 4.6
-14 10 -2 15 6.2
-11 13 2 -1 5.3
-13 11 -2 -8.4 5.8
-13 11 -2 7.8 6.5
11 -13 -2 2.8 5.4
11 -13 -2 6.7 6.2
-13 11 2 8.4 6.1
-11 13 -2 21.7 7.1
-14 10 2 2.7 5.6
-15 9 2 5.1 5.4
9 -15 2 2.4 5.4
15 -9 -2 6.1 4.4
15 -9 -2 15.7 4.8
9 -15 2 5.1 5.6
-16 8 2 -1.7 5.9
16 -8 -2 1.4 4.8
8 -16 2 7.2 5.6
16 -8 -2 8.4 4.5
16 -8 -2 -12.7 6.2
8 -16 2 -3 6.8
17 -7 -2 21.2 7.3
9 -16 -2 30.6 6.5
16 -9 2 16.5 5
10 -15 -2 32.2 8.6
-14 11 -2 -13.1 7.3
-14 11 -2 5 5
11 -14 -2 9 6.5
-13 12 -2 3 6.6
-12 13 2 2.8 6
13 -12 2 7.2 5.9
12 -13 -2 2.1 4
12 -13 -2 8.3 5.9
12 -13 -2 15.7 6
-12 13 -2 8.6 7.1
12 -13 2 5.9 4.4
14 -11 -2 5.5 4.3
-10 15 -2 37.7 7.5
10 -15 2 32.5 6.5
9 -16 2 30.4 8
-15 11 -2 -5.5 7.6
-15 11 -2 -0.4 6.4
15 -11 2 5.5 7.8
11 -15 -2 3.4 6
-12 14 2 21.7 6.8
-14 12 -2 2.4 6.5
12 -14 -2 10.8 5.8
12 -14 -2 6.9 6.2
-13 13 -2 4.7 5
-13 13 2 19.3 6.3
-14 12 2 6.1 6.9
12 -14 2 9.3 7.4
14 -12 -2 6.8 5.6
12 -14 2 3.1 6.2
-11 15 -2 4.7 7
-15 11 2 -2.6 7.4
11 -15 2 3.7 4.6
11 -15 2 -2.6 5.9
12 12 3 117.39 14.1
-12 -12 -3 100.29 11.9
-9 -9 -3 4.5 2.6
9 9 3 4.8 6.3
8 8 3 69.39 9.3
-8 -8 -3 62.49 12
7 7 3 277.47 27.4
-7 -7 -3 318.17 40.9
-7 -7 -3 313.47 28.1
7 7 3 361.26 29.8
-6 -6 -3 114.79 11.4
-6 -6 -3 105.99 25.1
6 6 3 136.99 19.2
-6 -6 -3 120.19 11.3
-6 -6 -3 98.99 10.2
-5 -5 -3 -8.1 3.7
-5 -5 -3 -5.3 5.1
5 5 3 -3.4 9.3
-5 -5 -3 -10.1 13.8
-5 -5 -3 -3.7 7.4
5 5 3 6.7 5.6
5 5 3 2.7 4.7
-5 -5 -3 -6.6 3.8
-4 -4 -3 134.79 12.4
-4 -4 -3 153.38 12.3
-4 -4 -3 147.79 14.4
-4 -4 -3 132.79 12.3
4 4 3 124.79 14.6
-4 -4 -3 154.38 14.6
-4 -4 -3 105.89 16.8
-3 -3 -3 76.19 8.6
3 3 3 80.49 7.6
-3 -3 -3 64.59 6.9
-3 -3 -3 91.79 11.6
-2 -2 -3 638.34 54.09
-2 -2 -3 663.13 56.69
-2 -2 -3 603.94 56.89
2 2 3 649.14 58.89
2 2 3 706.63 57.79
-1 -1 -3 202.68 20.5
-1 -1 -3 211.08 21.6
1 1 3 229.98 24.9
1 1 3 267.07 33.4
0 0 -3 0.1 0.6
0 0 -3 0.3 15.3
0 0 -3 0 1.5
0 0 -3 2.9 20.8
0 0 3 2.6 4.7
0 0 3 -0.8 2.5
0 0 -3 -3.3 2
0 0 -3 4.4 29.9
1 1 -3 142.29 15.2
1 1 -3 134.09 13.2
1 1 -3 179.68 13.6
-1 -1 3 140.89 15.4
2 2 -3 542.25 48.8
2 2 -3 517.65 55.19
-2 -2 3 494.15 54.99
2 2 -3 494.05 42.5
3 3 -3 48.6 5.2
3 3 -3 51.99 5.5
-3 -3 3 51.69 7.6
4 4 -3 131.29 12.5
4 4 -3 137.79 15.9
4 4 -3 171.88 19.1
4 4 -3 151.78 13.2
5 5 -3 -9.5 8
-5 -5 3 -12.6 9.8
5 5 -3 -23.7 11.1
5 5 -3 2.2 5.1
5 5 -3 -6 7.2
5 5 -3 -5.7 5.1
-6 -6 3 80.39 10.3
6 6 -3 123.39 18.3
6 6 -3 94.79 10.8
6 6 -3 96.39 9
6 6 -3 101.89 9.5
6 6 -3 113.99 10.6
-6 -6 3 124.29 20
7 7 -3 327.17 30.7
-7 -7 3 386.96 34.1
7 7 -3 362.76 32.1
7 7 -3 334.87 32.6
7 7 -3 328.97 29.5
8 8 -3 51.79 7.5
8 8 -3 68.59 10.3
8 8 -3 63.39 6.2
8 8 -3 55.99 5.7
9 9 -3 -2.3 3.6
9 9 -3 1.6 5.1
-9 -9 3 0.7 2.9
10 10 -3 7 5.7
-10 -10 3 4.5 4.7
11 11 -3 14.6 4.4
-11 -11 3 18.3 5.4
11 11 -3 17.4 6.9
-12 -12 3 111.29 12.3
12 12 -3 123.29 12.3
12 13 3 6.1 7.3
13 12 3 3.4 3.5
13 12 3 5.7 7.4
11 12 3 6.6 6.6
12 11 3 15.3 5.4
-11 -12 -3 5.8 3.4
12 11 3 5.4 4.6
-11 -10 -3 163.08 22.9
10 11 3 180.78 17.2
11 10 3 172.58 17.1
-10 -11 -3 142.19 15.6
-10 -9 -3 170.48 21.9
9 10 3 182.08 18.5
10 9 3 192.08 19.1
-9 -8 -3 26.3 3.7
8 9 3 21.4 6.4
-8 -9 -3 23.1 4.1
-8 -7 -3 -0.5 11.4
-8 -7 -3 4.4 2.2
7 8 3 3.4 6
-8 -7 -3 7.7 4.3
-7 -8 -3 0.4 12.1
-7 -8 -3 2.7 4.6
6 7 3 10.6 3.3
-7 -6 -3 9.3 2.2
6 7 3 9 4.8
-7 -6 -3 7.3 3
-7 -6 -3 5.6 17.4
-6 -7 -3 8.9 2.3
7 6 3 14.6 5.3
-6 -7 -3 17.9 5
7 6 3 11 4
-6 -7 -3 -0.1 22.1
-6 -5 -3 758.52 65.69
-6 -5 -3 731.53 71.99
5 6 3 744.13 67.79
-5 -6 -3 683.83 62.29
-5 -6 -3 793.92 74.49
6 5 3 647.24 72.69
-5 -6 -3 792.62 65.69
6 5 3 742.63 69.89
-5 -6 -3 844.12 63.69
4 5 3 596.04 55.69
-5 -4 -3 535.35 67.59
-5 -4 -3 583.24 62.69
-5 -4 -3 577.44 53.89
-5 -4 -3 718.43 51.89
4 5 3 579.74 58.29
-4 -5 -3 719.53 54.09
-4 -5 -3 633.84 52.19
-4 -5 -3 737.13 54.19
5 4 3 553.54 61.19
-4 -5 -3 584.14 52.29
5 4 3 516.55 63.29
3 4 3 18.9 4.7
3 4 3 13.5 2.5
-4 -3 -3 22.1 3.8
-4 -3 -3 25.7 6.3
-4 -3 -3 8.6 5.8
3 4 3 11.3 4.7
-4 -3 -3 15.4 2.3
-4 -3 -3 19.6 6.1
-3 -4 -3 13.2 6.1
-3 -4 -3 20.2 9
4 3 3 15.8 3.3
4 3 3 16.2 3.9
-3 -4 -3 20.9 3.8
-3 -4 -3 11.7 2
-3 -4 -3 19.6 4.9
-3 -4 -3 21.6 4.8
4 3 3 16.8 2.9
2 3 3 -1 2.9
2 3 3 2.5 0.7
-3 -2 -3 0.3 2
-3 -2 -3 2.8 1.6
-3 -2 -3 2.7 5.1
2 3 3 6 3.1
3 2 3 7.1 2.5
-2 -3 -3 2 1.7
-2 -3 -3 -0.9 2.2
-2 -1 -3 22 3.8
1 2 3 28 3.9
-2 -1 -3 29.4 3.8
-1 -2 -3 26.5 2.8
-1 -2 -3 21 2.9
2 1 3 26.5 3.4
-1 -2 -3 37.7 6.9
0 1 3 801.92 70.89
0 1 3 575.14 96.49
0 1 3 607.54 67.99
0 -1 -3 698.23 78.89
-1 0 3 651.43 112.09
-1 0 3 861.61 91.39
1 0 -3 871.81 73.09
0 -1 3 757.32 97.19
-2 -1 3 14.6 5.2
1 2 -3 20.1 3.1
1 2 -3 25.4 5.3
1 2 -3 23.9 3.8
-2 -1 3 24.8 3.6
2 1 -3 22.9 3
-1 -2 3 25.1 5.9
2 1 -3 18.5 4.5
-1 -2 3 26.7 6.3
2 1 -3 30 3.6
2 1 -3 26.2 3.7
2 1 -3 20.9 4.9
2 3 -3 1.1 5.1
2 3 -3 0.4 4.9
2 3 -3 0 3
2 3 -3 0.5 5.6
2 3 -3 -3.5 3.8
2 3 -3 -0.1 1.7
-3 -2 3 4.2 4.8
3 2 -3 7.3 5.5
3 2 -3 0.5 6.7
3 2 -3 1.7 2
3 2 -3 3.1 4.9
-2 -3 3 1.8 2.7
-2 -3 3 -2.2 6.1
3 2 -3 -2 3.9
3 2 -3 1.6 4.3
3 4 -3 19.9 7.5
-4 -3 3 29.8 9.1
3 4 -3 20.9 6
3 4 -3 23.3 6.3
3 4 -3 15.7 5.7
3 4 -3 16.4 2.7
4 3 -3 13.9 6.6
-3 -4 3 12.2 2.1
4 3 -3 16.7 3.7
4 3 -3 19.6 3.7
4 3 -3 14.8 2.2
4 3 -3 20.8 5
-3 -4 3 19.3 8.9
4 5 -3 723.53 64.59
4 5 -3 635.84 59.89
4 5 -3 708.53 60.99
5 4 -3 711.93 63.29
5 4 -3 745.73 60.89
5 4 -3 669.13 59.99
5 4 -3 695.63 57.39
5 4 -3 625.24 59.89
5 4 -3 750.42 65.59
5 6 -3 784.12 73.19
-6 -5 3 821.72 75.89
5 6 -3 775.92 65.79
5 6 -3 871.01 68.99
5 6 -3 857.21 75.49
-6 -5 3 731.43 69.09
-5 -6 3 904.01 77.19
6 5 -3 792.72 72.19
6 5 -3 866.81 77.09
6 5 -3 820.72 70.19
6 5 -3 658.93 71.19
6 5 -3 699.73 68.29
6 7 -3 11.1 9.8
6 7 -3 17.3 2.8
-7 -6 3 11.8 4.4
6 7 -3 18.4 12.2
6 7 -3 17 3.4
7 6 -3 5.5 5.7
7 6 -3 17.2 9.4
7 6 -3 10.9 2.7
-6 -7 3 10.9 12
7 6 -3 17.6 4.6
-8 -7 3 2.5 2.8
7 8 -3 1.7 2.5
7 8 -3 3.4 4.8
7 8 -3 -3 4.7
8 7 -3 3.6 2.4
-7 -8 3 1.6 3.3
8 7 -3 0 7
8 7 -3 5.5 2.4
8 9 -3 28.2 4.2
-9 -8 3 33.6 5
9 8 -3 23.6 3.7
9 8 -3 26.5 3.6
9 8 -3 18.4 5.4
-8 -9 3 21.3 4
-10 -9 3 206.48 18.5
9 10 -3 191.78 19.3
10 9 -3 179.58 19.5
10 11 -3 130.09 16.9
-11 -10 3 160.28 15.2
11 10 -3 198.78 22.5
11 12 -3 11.9 3.7
11 12 -3 4.7 6.3
12 11 -3 9.1 6.8
-11 -12 3 17.3 5.4
12 11 -3 11.5 4.8
12 13 -3 2.5 4.8
12 13 -3 11.8 7
-13 -12 3 3.5 5.2
13 12 -3 6.4 4.5
-12 -13 3 2.4 4
13 12 -3 5.7 7.1
13 11 3 33.8 8.1
-11 -13 -3 25.4 8.3
10 12 3 2.8 6.6
-10 -12 -3 -4.2 4.4
12 10 3 -0.3 6.6
12 10 3 8 3.6
9 11 3 36.1 7.4
-9 -11 -3 24.9 6.3
11 9 3 20.7 5.7
11 9 3 28.8 6.8
-8 -10 -3 -2.9 5
10 8 3 6.6 4.5
10 8 3 -7.3 9.4
-9 -7 -3 83.49 9.7
-9 -7 -3 108.79 13.7
7 9 3 117.49 11.1
9 7 3 104.19 11.2
-7 -9 -3 92.99 12.8
9 7 3 104.49 13.2
-8 -6 -3 139.79 13.1
6 8 3 112.99 17.5
6 8 3 140.49 14.5
-8 -6 -3 113.89 12.9
-6 -8 -3 117.39 15.8
8 6 3 129.39 14.5
-6 -8 -3 134.59 17.1
-6 -8 -3 160.08 32.2
8 6 3 143.99 13.3
5 7 3 0.4 3.3
-7 -5 -3 -2.9 3.8
5 7 3 4.6 8.4
-7 -5 -3 1.4 2
-7 -5 -3 2.3 2.4
5 7 3 -0.5 8.3
7 5 3 -1.3 4.3
-5 -7 -3 1.8 7.5
-5 -7 -3 0.2 2.7
7 5 3 1.6 1.7
-5 -7 -3 -27.7 22.7
7 5 3 -1.2 3.4
-5 -7 -3 0.2 1.7
-5 -7 -3 -1.7 5.1
4 6 3 133.69 17.2
-6 -4 -3 157.38 12.9
4 6 3 144.79 12.5
-6 -4 -3 129.89 20.2
-4 -6 -3 151.38 23.1
-4 -6 -3 112.99 12.5
6 4 3 108.79 15.2
-4 -6 -3 134.49 15.9
-4 -6 -3 154.78 12.9
-4 -6 -3 156.58 12.7
-4 -6 -3 146.39 14.6
6 4 3 125.29 13
6 4 3 149.49 14.5
-5 -3 -3 1 7
3 5 3 1.1 5.3
-5 -3 -3 6.8 1.9
3 5 3 5.5 2.6
3 5 3 4.8 2.2
-5 -3 -3 6.6 2
-5 -3 -3 6 1.7
5 3 3 6 0.9
-3 -5 -3 5.2 2
5 3 3 2.8 2.7
5 3 3 6.4 3.4
-3 -5 -3 5.3 6.9
-3 -5 -3 5 7.5
-3 -5 -3 9.8 4.6
-3 -5 -3 3.1 1.4
5 3 3 7.5 3.4
2 4 3 155.08 14.3
-4 -2 -3 144.69 14.3
-4 -2 -3 137.89 13.3
-4 -2 -3 172.58 18.1
-2 -4 -3 131.79 13.6
-2 -4 -3 168.18 13.8
-2 -4 -3 157.88 15
4 2 3 176.08 16.6
-2 -4 -3 137.19 16.1
1 3 3 351.66 29.1
-3 -1 -3 291.07 28
1 3 3 287.87 30.6
-3 -1 -3 298.87 28.6
-1 -3 -3 342.87 28
3 1 3 333.77 29
-1 -3 -3 332.17 26.7
-1 -3 -3 309.17 27
0 2 3 1.9 6.1
0 2 3 7.2 2.2
0 2 3 0.6 1.6
-2 0 -3 2.9 27.3
-2 0 -3 0.5 2
0 2 3 -1 2.5
-2 0 -3 2.8 2.3
0 -2 -3 3 3.5
2 0 3 3.7 4.1
0 -2 -3 2.5 3
-1 1 3 203.88 18
-1 1 3 160.88 16.8
1 -1 3 184.58 15.9
1 -1 -3 155.88 14.8
1 -1 -3 157.68 20.3
-2 0 3 1.3 4
0 2 -3 -0.9 3.1
-2 0 3 1.6 1.7
0 2 -3 -0.4 2.1
0 2 -3 5 2.9
0 2 -3 3.6 2.6
0 -2 3 -5.9 4.2
2 0 -3 -0.8 3
2 0 -3 2.6 3.5
2 0 -3 1.5 1.9
2 0 -3 -0.2 2.2
0 -2 3 3.1 2.3
1 3 -3 292.87 28.4
-3 -1 3 302.37 29
1 3 -3 314.47 26.7
1 3 -3 252.77 26
1 3 -3 326.67 24.7
1 3 -3 321.17 26.3
3 1 -3 274.77 27.9
3 1 -3 327.57 25.8
-1 -3 3 280.07 29.3
-1 -3 3 276.37 26.1
3 1 -3 258.47 25.8
2 4 -3 140.79 12.8
2 4 -3 124.89 15.9
-4 -2 3 163.78 17.9
2 4 -3 116.79 12.5
2 4 -3 136.09 13
4 2 -3 150.18 13.3
4 2 -3 157.38 13.7
-2 -4 3 139.99 17.7
-2 -4 3 122.49 14.4
4 2 -3 138.09 12.5
4 2 -3 147.69 16.4
-5 -3 3 1 3.2
-5 -3 3 -3.2 8.9
3 5 -3 7.5 8
-3 -5 3 -16.9 10.7
5 3 -3 -10.3 13.8
5 3 -3 1.8 4.4
5 3 -3 2.8 3.8
4 6 -3 108.79 12.1
4 6 -3 129.39 11.2
4 6 -3 140.89 18.8
4 6 -3 117.29 10.6
-6 -4 3 97.59 11
4 6 -3 127.39 11.8
6 4 -3 119.99 12.6
6 4 -3 123.69 11.5
-4 -6 3 134.89 20.6
6 4 -3 105.69 16.2
5 7 -3 -1.5 2
5 7 -3 2.8 11.3
5 7 -3 -3.4 6.5
5 7 -3 2.4 4
-7 -5 3 8.6 11.8
5 7 -3 1.7 1.7
-7 -5 3 5.5 6.9
7 5 -3 0.4 1.5
-5 -7 3 -0.4 11.1
7 5 -3 1.6 3.3
7 5 -3 -0.8 3.4
7 5 -3 1.4 7.7
7 5 -3 -0.6 1.6
6 8 -3 101.79 11.4
6 8 -3 101.09 9.9
6 8 -3 105.29 11.4
8 6 -3 124.39 13.6
-6 -8 3 114.19 12
8 6 -3 113.59 10.5
7 9 -3 91.99 11.7
-9 -7 3 91.99 10.2
7 9 -3 118.59 11.1
9 7 -3 104.39 9.4
9 7 -3 107.89 13.4
9 7 -3 107.39 16.2
-7 -9 3 117.39 10.8
9 7 -3 95.69 9.8
8 10 -3 5.9 4.4
8 10 -3 1 3.2
-8 -10 3 -3 4.4
10 8 -3 -12.9 10.3
10 8 -3 3.5 5.1
-11 -9 3 34.9 5.7
9 11 -3 25.7 5.7
11 9 -3 18.5 8.4
-9 -11 3 28.2 5.8
11 9 -3 27.5 7.2
10 12 -3 -0.3 4.7
10 12 -3 -6.1 5.1
-12 -10 3 8.1 4
12 10 -3 9.1 3.8
12 10 -3 4.9 4.6
-10 -12 3 0.6 4.7
11 13 -3 37.5 6.9
11 13 -3 29.8 6.9
-13 -11 3 38 5.5
10 13 3 25.7 7
13 10 3 19 5.2
-10 -13 -3 14.5 3.8
13 10 3 14.1 6
9 12 3 11.3 6
12 9 3 -0.3 6.9
-9 -12 -3 -5.6 10.5
12 9 3 -12.7 7
8 11 3 34.2 7.3
11 8 3 33.8 7.4
-8 -11 -3 12.4 10.4
11 8 3 18.3 6.9
-10 -7 -3 14.9 3.2
-7 -10 -3 18.2 6.7
10 7 3 16.7 9.4
10 7 3 22.1 6.4
6 9 3 213.38 19.9
-9 -6 -3 217.48 20.6
6 9 3 230.08 21.1
9 6 3 250.77 22
-6 -9 -3 191.08 21
-6 -9 -3 214.28 21.5
9 6 3 201.38 24.6
5 8 3 94.99 10.4
-8 -5 -3 89.19 8.6
5 8 3 82.89 8.7
8 5 3 91.09 10.5
-5 -8 -3 95.49 30.3
8 5 3 72.79 12
-5 -8 -3 86.49 8.3
-5 -8 -3 81.59 8.9
-5 -8 -3 70.89 7.9
4 7 3 11.4 7.8
-7 -4 -3 -9.2 13.4
4 7 3 6.3 12.6
-7 -4 -3 22.4 4.7
4 7 3 13.6 9.4
-4 -7 -3 -1.6 17.1
-4 -7 -3 16.4 11.7
-4 -7 -3 21 5.8
-4 -7 -3 22.4 9.8
7 4 3 22.7 4.7
7 4 3 16.9 3.5
-4 -7 -3 15.8 3.6
3 6 3 41.6 6.3
-6 -3 -3 47 9.7
3 6 3 43.8 4.3
-6 -3 -3 42.8 7
-6 -3 -3 17.2 10.2
3 6 3 40.3 9.3
-3 -6 -3 37.3 4.7
6 3 3 41.3 6.2
-3 -6 -3 39.2 4.6
-3 -6 -3 54.59 13.1
6 3 3 47.8 5.4
-3 -6 -3 33.5 5.1
-3 -6 -3 35.2 4.2
6 3 3 29.9 6.3
2 5 3 43.6 9.1
-5 -2 -3 52.19 5.5
-5 -2 -3 40.4 5.1
2 5 3 56.19 7.4
-5 -2 -3 49.8 5.9
2 5 3 47.4 5.8
-2 -5 -3 59.89 10.3
-2 -5 -3 57.89 5.8
5 2 3 48.7 8.1
-2 -5 -3 45.3 6.4
-2 -5 -3 47.9 6.5
5 2 3 54.69 6.6
-2 -5 -3 59.19 5.9
1 4 3 376.06 38.5
1 4 3 386.96 37.1
-4 -1 -3 393.26 34.5
-4 -1 -3 394.06 36
-4 -1 -3 460.25 36.1
-1 -4 -3 413.66 34.7
4 1 3 408.26 37.2
4 1 3 444.86 36.5
-1 -4 -3 412.76 34.2
-3 0 -3 30 4.8
0 3 3 42.2 6.2
-3 0 -3 42.9 7.2
0 3 3 34.5 4.4
0 3 3 34.5 6.7
3 0 3 36 4
0 -3 -3 31.9 4.2
0 -3 -3 42.4 6.8
0 -3 -3 42 5
3 0 3 45.3 6.4
0 -3 -3 36.1 4.8
-1 2 3 21.9 4.9
-1 2 3 19.9 3.6
-2 1 -3 28.6 3.4
-1 2 3 26.7 5.2
1 -2 -3 33.4 3.8
1 -2 -3 30.2 6.4
1 -2 -3 23 3.2
-1 2 -3 17.1 3.2
-1 2 -3 29.8 3.8
-1 2 -3 41.4 10.1
-2 1 3 21.9 5.1
-1 2 -3 20.6 3.8
-1 2 -3 31.8 3.9
2 -1 -3 25.9 3.6
2 -1 -3 29.4 4.5
2 -1 -3 30.4 5.5
2 -1 -3 17.6 3
2 -1 -3 24.5 3.1
2 -1 -3 40 8
1 -2 3 23.4 5.2
0 3 -3 24.3 5.8
-3 0 3 47.3 7.7
0 3 -3 44 5.4
-3 0 3 32 5.8
3 0 -3 45.2 5
3 0 -3 37.6 4.3
3 0 -3 49.7 7.3
0 -3 3 45 8.4
3 0 -3 45 6.7
3 0 -3 35.7 5.3
0 -3 3 29.4 4.1
1 4 -3 336.37 33.1
-4 -1 3 374.46 32.2
1 4 -3 322.57 35
1 4 -3 389.76 30.7
4 1 -3 423.96 32.7
-1 -4 3 347.27 36.3
4 1 -3 316.77 32.1
-1 -4 3 377.86 32.5
4 1 -3 407.46 30.7
4 1 -3 360.56 32
-5 -2 3 43.6 9.2
2 5 -3 39.8 5.3
2 5 -3 43.9 9.9
-5 -2 3 30.4 4.3
2 5 -3 42.5 5.1
2 5 -3 38.3 5.4
2 5 -3 39.7 4.6
-2 -5 3 30.8 8.8
5 2 -3 54.09 8
5 2 -3 46 6.8
5 2 -3 46.6 8.6
5 2 -3 33.7 6.4
-2 -5 3 32.7 5.9
-6 -3 3 17 11.6
3 6 -3 28.3 6.6
-6 -3 3 42.3 6.8
3 6 -3 40.4 8
3 6 -3 24.3 9.5
3 6 -3 51.39 6.4
6 3 -3 41.6 9.7
6 3 -3 42.5 5.2
6 3 -3 47.4 5.3
6 3 -3 42.3 5.7
-3 -6 3 55.79 14.3
-3 -6 3 34.2 5.3
6 3 -3 38.7 10.8
6 3 -3 42.7 4.9
4 7 -3 17.5 7.4
-7 -4 3 17.4 12.4
4 7 -3 23.7 12.4
-7 -4 3 18.2 4.8
4 7 -3 18.1 4.3
7 4 -3 9.3 3.7
7 4 -3 16.5 3.1
-4 -7 3 6 10.4
7 4 -3 17 3.3
7 4 -3 11.4 3.7
7 4 -3 10.9 11.2
5 8 -3 60.69 6.7
5 8 -3 67.59 14
5 8 -3 71.19 7.1
5 8 -3 67.79 9.9
5 8 -3 66.09 6.8
8 5 -3 54.59 6.6
8 5 -3 71.59 6.9
8 5 -3 78.39 10
8 5 -3 62.79 6.6
8 5 -3 91.19 11.5
6 9 -3 180.58 16.4
-9 -6 3 173.28 17.9
6 9 -3 165.08 18.1
9 6 -3 199.28 15.9
9 6 -3 178.88 16.7
9 6 -3 220.58 25.4
7 10 -3 16.6 6.4
-10 -7 3 21.9 3.8
10 7 -3 15.4 2.8
10 7 -3 19.6 6.6
10 7 -3 25.1 3.7
-7 -10 3 21.2 4.7
-11 -8 3 28.2 5.1
8 11 -3 15.9 6.4
8 11 -3 18.5 7.1
11 8 -3 22 6.3
11 8 -3 16.9 5.4
-12 -9 3 3.8 4.7
9 12 -3 5.1 4.9
9 12 -3 -4.3 6.6
-9 -12 3 5.3 3.8
12 9 -3 1.9 6
12 9 -3 -6.4 10
-13 -10 3 24.4 5.3
10 13 -3 20.3 4.5
13 10 -3 12.2 5
13 10 -3 17.7 6.9
-10 -13 3 31.4 6.1
10 14 3 -1 6.7
-10 -14 -3 -10.7 8
14 10 3 -2.9 7.1
14 10 3 -2.6 3.4
9 13 3 29.4 7.1
13 9 3 9.4 4.8
-9 -13 -3 16.9 5
13 9 3 19.5 5.7
8 12 3 165.78 15.8
12 8 3 144.39 16
12 8 3 143.59 16.5
-8 -12 -3 122.29 13.1
7 11 3 92.59 10.6
-11 -7 -3 83.79 9.2
-7 -11 -3 95.09 10.7
11 7 3 79.59 12.1
11 7 3 83.09 11.3
6 10 3 -5 4.7
-10 -6 -3 8.2 6
6 10 3 -3.6 5.3
-6 -10 -3 -6.7 7.8
10 6 3 3.1 3.7
10 6 3 1.2 10.9
5 9 3 8.3 7.4
9 5 3 0.1 16.3
9 5 3 8.6 6.2
-5 -9 -3 31.9 31.6
-5 -9 -3 2.4 7.1
4 8 3 78.69 14.8
-8 -4 -3 62.99 15.5
4 8 3 88.99 9.4
-8 -4 -3 67.99 7.7
4 8 3 85.49 8.4
-4 -8 -3 83.29 7.9
-4 -8 -3 69.79 7.5
8 4 3 80.09 9.5
8 4 3 104.39 12.3
-4 -8 -3 76.19 7.8
-4 -8 -3 130.39 28.5
-4 -8 -3 83.59 7.7
3 7 3 367.76 36.2
3 7 3 401.06 34.3
-7 -3 -3 430.96 35.1
3 7 3 365.76 39.5
-3 -7 -3 418.06 43.6
-3 -7 -3 425.66 34.1
-3 -7 -3 427.56 34.8
7 3 3 374.26 36.9
-3 -7 -3 359.16 33.4
2 6 3 165.58 20.8
2 6 3 186.08 16.3
6 2 3 170.18 18
-2 -6 -3 190.18 15.8
-2 -6 -3 219.88 16.8
6 2 3 171.48 16.1
1 5 3 3.6 23.9
-5 -1 -3 19.3 26.2
5 1 3 33.8 13.3
-4 0 -3 -2.3 5.7
0 4 3 1.1 4.1
0 4 3 0.2 2.4
-4 0 -3 4.6 6.1
0 4 3 -6.6 3.7
0 4 3 -4.2 5.6
0 -4 -3 -0.7 2.8
0 -4 -3 -3 2.1
0 -4 -3 -3.2 2.5
0 -4 -3 -2.2 4.8
4 0 3 0.7 2.5
4 0 3 4.7 3.3
-1 3 3 285.57 28.2
-3 1 -3 301.97 25.1
-3 1 -3 335.27 26.3
-1 3 3 275.77 25.7
3 -1 3 275.07 26.4
3 -1 3 297.27 26.9
1 -3 -3 308.27 25.1
1 -3 -3 301.27 24.9
1 -3 -3 282.87 26
1 -3 -3 305.87 26
-2 2 3 551.24 53.79
2 -2 -3 438.26 45.7
2 -2 3 549.74 47.9
2 -2 -3 573.54 53.99
2 -2 -3 503.85 50.09
2 -2 -3 465.25 44.1
2 -2 -3 508.35 43.9
-1 3 -3 218.08 22.4
-1 3 -3 201.98 18.1
-3 1 3 227.38 18.8
1 -3 3 220.18 22.4
3 -1 -3 212.28 19.2
3 -1 -3 198.48 19.1
3 -1 -3 219.58 21.4
0 4 -3 0.4 11.3
0 4 -3 -8.8 17.1
-4 0 3 0.3 1
0 4 -3 2.8 7.5
-4 0 3 1.5 2.5
-4 0 3 8.3 6.3
0 4 -3 0 2.8
4 0 -3 -0.2 2.3
4 0 -3 3.5 17
4 0 -3 1.8 13.4
4 0 -3 1.5 2.3
4 0 -3 -9.4 5.1
0 -4 3 4.8 7.9
0 -4 3 -1.9 4.7
4 0 -3 17.6 12.7
1 5 -3 -3.4 14.1
1 5 -3 -1.9 2.8
-5 -1 3 2.7 3.2
1 5 -3 -3.5 17.6
1 5 -3 -0.5 4.4
-5 -1 3 -6.5 52.39
1 5 -3 0.7 2
-1 -5 3 -4.7 7.9
5 1 -3 -4.5 39.8
5 1 -3 -0.3 5.9
-1 -5 3 3 3.4
5 1 -3 3.6 30.8
2 6 -3 247.38 27.1
2 6 -3 247.48 23.8
2 6 -3 252.47 21.7
2 6 -3 208.88 21.1
-6 -2 3 205.38 25.8
2 6 -3 214.18 20.5
6 2 -3 256.47 21
6 2 -3 280.77 21.8
-2 -6 3 269.97 29.2
6 2 -3 225.58 25.6
6 2 -3 239.58 20.8
-2 -6 3 226.98 24.6
3 7 -3 315.67 31.5
-7 -3 3 397.46 37.8
3 7 -3 325.27 30
3 7 -3 303.67 35.8
3 7 -3 342.07 29.1
-3 -7 3 327.87 31.1
7 3 -3 365.56 28.9
7 3 -3 319.37 35.1
7 3 -3 365.76 30
7 3 -3 356.06 30.2
7 3 -3 329.07 29.8
7 3 -3 377.06 31.7
4 8 -3 68.29 9.2
-8 -4 3 63.99 7.5
4 8 -3 79.89 7.6
4 8 -3 68.29 7.4
4 8 -3 68.69 15.8
4 8 -3 66.19 6.9
8 4 -3 80.59 7.2
8 4 -3 82.69 7.2
8 4 -3 93.19 10.1
8 4 -3 85.39 16
8 4 -3 83.59 8.5
8 4 -3 83.39 7.7
-4 -8 3 72.59 16.8
5 9 -3 -3 3.4
5 9 -3 1.6 4.2
-9 -5 3 -0.7 2.5
5 9 -3 -7 8.4
5 9 -3 -3 2.4
9 5 -3 8.3 7.3
9 5 -3 0.5 6.7
9 5 -3 3.3 2.8
6 10 -3 -5.5 6.3
6 10 -3 6.8 4.7
10 6 -3 0.6 3
10 6 -3 0.8 2
10 6 -3 -12 9.4
7 11 -3 92.29 9.7
-11 -7 3 72.19 8.2
7 11 -3 62.69 9.9
11 7 -3 76.69 10.6
-7 -11 3 87.89 9.2
11 7 -3 82.49 10.9
-12 -8 3 125.09 13.9
8 12 -3 161.78 14.4
12 8 -3 147.39 18.4
-8 -12 3 152.78 14.6
-13 -9 3 22.5 4.3
9 13 -3 30.5 5.9
-9 -13 3 29 5
-14 -10 3 3.1 3.4
10 14 -3 -6.2 6.3
10 14 -3 3.1 5.4
-10 -14 3 -9.6 5.8
14 10 -3 5 6.9
-9 -14 -3 24.8 4.9
14 9 3 34.4 5
14 9 3 38.5 8.2
8 13 3 -4.1 4.6
-8 -13 -3 -11.2 7.2
13 8 3 -13.8 9
13 8 3 -7.1 5.1
-12 -7 -3 -8 4.1
7 12 3 -6 5.5
12 7 3 -1.5 6.6
-7 -12 -3 -8.1 4.3
12 7 3 -1.1 9.4
6 11 3 184.38 18.3
6 11 3 208.28 19.6
-11 -6 -3 195.88 18.5
11 6 3 200.18 22.6
-6 -11 -3 172.98 17
11 6 3 193.18 21.9
5 10 3 731.23 60.59
-10 -5 -3 698.63 61.69
5 10 3 705.23 63.79
-5 -10 -3 715.33 59.59
10 5 3 721.33 64.99
-5 -10 -3 645.74 61.09
4 9 3 150.88 15
4 9 3 144.59 13.6
-4 -9 -3 135.29 13.3
9 4 3 143.99 13.6
-4 -9 -3 154.38 14.3
-4 -9 -3 133.59 29.7
-4 -9 -3 126.89 13.1
-4 -9 -3 135.19 13.2
9 4 3 151.98 14.8
-4 -9 -3 121.09 12.5
3 8 3 4.7 6.3
3 8 3 -0.2 4.6
-8 -3 -3 4.2 4.7
3 8 3 -0.2 9.9
-8 -3 -3 -1.8 11.1
-3 -8 -3 4.4 3.5
-3 -8 -3 -21.7 19.9
-3 -8 -3 5.2 5.8
-3 -8 -3 6.8 6.7
8 3 3 11.3 8.2
-3 -8 -3 3.8 4.7
8 3 3 26.7 11.6
2 7 3 -9.3 10.1
-7 -2 -3 -3.1 5.5
2 7 3 -2.1 12
-7 -2 -3 -14.6 9.2
2 7 3 2.1 7.6
-2 -7 -3 -2.9 8.4
-2 -7 -3 4.1 4.5
-2 -7 -3 7.6 11.1
-2 -7 -3 0.8 6.5
-2 -7 -3 -0.3 7.3
7 2 3 8.8 7.3
-2 -7 -3 -1.2 5.5
1 6 3 506.35 49.6
-6 -1 -3 518.95 45.1
1 6 3 517.75 44
-1 -6 -3 489.15 44.6
-1 -6 -3 507.15 42.6
6 1 3 578.24 45.6
-1 -6 -3 525.05 49.7
-1 -6 -3 499.45 45.4
-1 -6 -3 507.75 44.5
6 1 3 477.95 46.5
-1 -6 -3 511.35 43.3
0 5 3 1527.05 173.78
0 5 3 1479.65 170.38
-5 0 -3 1991.5 202.58
0 5 3 1787.22 185.98
0 5 3 1733.43 160.28
0 -5 -3 1667.83 159.08
0 -5 -3 1790.92 154.38
5 0 3 1572.44 176.78
0 -5 -3 1872.51 162.38
0 -5 -3 1946.21 174.88
-1 4 3 441.76 39.2
-1 4 3 338.27 36.5
-1 4 3 325.67 34.1
4 -1 3 413.56 35.2
1 -4 -3 359.16 33.9
1 -4 -3 396.06 33.9
1 -4 -3 409.16 32.5
1 -4 -3 430.76 34.4
-2 3 3 2.9 1.1
-2 3 3 -2.4 6.3
-2 3 3 2.8 1.2
-2 3 3 2.9 5
-3 2 -3 -0.9 5.6
-3 2 -3 -4.8 9.1
3 -2 3 4.4 7.8
3 -2 3 1.9 3.6
2 -3 -3 1.6 1.7
2 -3 -3 -0.5 4.3
2 -3 -3 4.9 4.4
2 -3 -3 4 1.3
2 -3 -3 0.9 3.2
-2 3 -3 1.8 1.8
-2 3 -3 4.9 3.8
-3 2 3 0.4 3.9
-2 3 -3 -3.1 3.7
-2 3 -3 4.8 3.5
-3 2 3 2.8 1.7
3 -2 -3 -2.8 2.2
3 -2 -3 2.5 4.6
2 -3 3 2.2 6.7
3 -2 -3 4.7 1.3
3 -2 -3 1.7 2.5
3 -2 -3 0.5 1.2
2 -3 3 5.1 3.8
3 -2 -3 0.4 2.4
2 -3 3 3.1 3.7
-4 1 3 376.26 36.4
-1 4 -3 447.16 34.9
-1 4 -3 366.66 39.1
-4 1 3 423.76 39.8
-1 4 -3 434.46 36.4
4 -1 -3 485.65 82.99
1 -4 3 458.45 37.1
4 -1 -3 431.56 36.4
4 -1 -3 420.46 39.4
4 -1 -3 427.66 36.3
4 -1 -3 367.76 34.7
-5 0 3 1997.7 213.98
0 5 -3 1548.84 229.38
-5 0 3 1794.12 185.68
0 5 -3 1527.55 163.08
5 0 -3 1920.11 204.38
5 0 -3 1957.5 212.28
0 -5 3 1613.04 200.08
5 0 -3 1959.1 158.38
0 -5 3 1464.65 177.28
5 0 -3 1743.53 150.68
-6 -1 3 563.14 49.1
1 6 -3 448.86 43.2
1 6 -3 431.46 45.3
1 6 -3 489.15 49.2
6 1 -3 534.05 43.7
6 1 -3 508.05 41.8
6 1 -3 570.24 48.7
6 1 -3 560.44 44.2
6 1 -3 517.45 43.7
-1 -6 3 485.85 44.6
6 1 -3 446.76 45.3
2 7 -3 2.6 8.1
-7 -2 3 -12.1 11.7
2 7 -3 -3.7 7.5
2 7 -3 -2.9 8.9
-7 -2 3 3 6.3
2 7 -3 -20.1 12.3
2 7 -3 -1.3 5.9
7 2 -3 -7 14.7
-2 -7 3 -21.3 14.9
7 2 -3 -2.1 1.8
-2 -7 3 -0.2 4.9
7 2 -3 -2.5 7.6
7 2 -3 3.1 3
-8 -3 3 3.8 2.9
3 8 -3 0.2 1.5
3 8 -3 0.7 5
3 8 -3 1.6 2.8
3 8 -3 -18.2 12.5
3 8 -3 3.9 2.5
-8 -3 3 14.5 14.9
8 3 -3 2.5 6.5
-3 -8 3 -1.8 2.8
-3 -8 3 9.3 15
8 3 -3 5.2 2.2
8 3 -3 -1.8 4.4
8 3 -3 -14.2 8.2
-9 -4 3 115.59 11.6
4 9 -3 112.79 9.9
4 9 -3 128.79 13.4
9 4 -3 94.69 10.4
9 4 -3 114.59 11.2
-10 -5 3 557.44 54.79
5 10 -3 529.15 56.89
10 5 -3 713.03 54.29
10 5 -3 672.03 57.19
10 5 -3 650.43 51.89
6 11 -3 221.58 19.9
-11 -6 3 204.38 19.4
11 6 -3 228.48 21.5
11 6 -3 207.38 24.8
11 6 -3 193.58 19.1
7 12 -3 5.1 6.1
-12 -7 3 -4.1 4
7 12 -3 -9.8 4.7
12 7 -3 -10 5.5
12 7 -3 -4.1 6.3
8 13 -3 -5.1 4.6
8 13 -3 7.3 4.9
-13 -8 3 -2 4.2
-8 -13 3 -6 4.4
13 8 -3 -0.1 4.9
9 14 -3 37.7 5.8
9 14 -3 24.7 7.5
14 9 -3 40.6 6
-9 -14 3 37.8 5.9
9 15 3 5.6 7.2
15 9 3 -8.7 4.8
15 9 3 -4.6 5.1
8 14 3 1.1 6.3
14 8 3 4.4 3.4
14 8 3 1.7 6.8
-8 -14 -3 -0.4 11.2
7 13 3 141.79 14.5
-7 -13 -3 121.09 12.5
13 7 3 131.69 14.9
13 7 3 107.49 13.4
-12 -6 -3 93.09 10.2
6 12 3 101.79 11.9
12 6 3 114.69 14.4
-6 -12 -3 97.79 10
12 6 3 94.09 12
-11 -5 -3 7.2 5.8
5 11 3 -1.4 6.5
5 11 3 8.2 6.7
-5 -11 -3 -4.4 5.2
-5 -11 -3 -2.2 4.7
11 5 3 4.9 12.1
11 5 3 6.7 14.5
-10 -4 -3 -1.8 4.5
4 10 3 -4.1 3.4
4 10 3 6.5 6.6
-4 -10 -3 0.5 5.3
10 4 3 -3.1 4.7
-4 -10 -3 -8.7 4.6
10 4 3 -5.3 4.4
-4 -10 -3 2.7 10.2
3 9 3 20.6 12.4
3 9 3 23.5 5.3
-9 -3 -3 24.3 4.4
3 9 3 31 5.9
-3 -9 -3 23 4.2
-3 -9 -3 23.5 4.2
-3 -9 -3 19.7 3.6
9 3 3 25.4 6.4
-3 -9 -3 8.9 24.7
-3 -9 -3 23.5 3.3
9 3 3 19.3 5.4
-3 -9 -3 21.9 3.2
2 8 3 214.88 18.7
2 8 3 184.98 18.1
2 8 3 167.38 24.2
8 2 3 188.88 19.8
-2 -8 -3 184.28 17.5
-2 -8 -3 173.28 17.3
-2 -8 -3 204.78 18
-2 -8 -3 239.78 29.2
8 2 3 190.38 17.7
-2 -8 -3 203.18 19.1
1 7 3 228.98 28.3
1 7 3 264.27 22.9
-1 -7 -3 281.17 23.4
-1 -7 -3 268.77 23.6
-1 -7 -3 225.08 22.4
-1 -7 -3 256.87 22.9
7 1 3 276.77 25.5
-1 -7 -3 290.07 24.9
-6 0 -3 -4.1 4.6
0 6 3 -3.6 22.4
0 6 3 -8.8 11.3
-6 0 -3 10.2 3.7
0 6 3 6.9 13.4
0 6 3 -6.7 8.1
0 -6 -3 -0.3 6.2
6 0 3 12.8 8.6
0 -6 -3 6.8 3.2
0 -6 -3 6.1 4.3
6 0 3 6.4 7.1
-5 1 -3 -6.7 6.5
-1 5 3 6.9 40.7
-1 5 3 -0.1 10.1
-1 5 3 9.1 7.6
5 -1 3 -0.2 28.1
5 -1 3 -1.5 5
1 -5 -3 5.5 19.5
1 -5 -3 2 3.5
1 -5 -3 2.7 32.3
-2 4 3 154.28 13.3
-2 4 3 138.39 16.2
-2 4 3 148.49 12.8
-2 4 3 134.09 15.9
-4 2 -3 141.19 12.6
2 -4 -3 131.49 12.2
2 -4 -3 154.18 12.9
2 -4 -3 119.59 12.6
4 -2 3 126.39 14.3
2 -4 -3 153.68 12.4
2 -4 -3 136.19 13.1
-3 3 -3 59.49 9.2
-3 3 -3 80.89 7.5
-3 3 3 58.59 6.8
3 -3 -3 75.69 6.5
3 -3 -3 67.69 6.3
3 -3 -3 62.49 6.6
3 -3 -3 76.69 6.5
3 -3 3 58.89 7.7
-4 2 3 128.99 12.1
-2 4 -3 112.09 10.7
-2 4 -3 142.19 11.1
-2 4 -3 116.59 14.6
2 -4 3 107.49 10.4
4 -2 -3 124.99 10.6
4 -2 -3 115.99 10.7
4 -2 -3 138.59 10.7
2 -4 3 101.19 12.5
4 -2 -3 107.89 10.9
2 -4 3 127.09 14.4
-1 5 -3 2.5 68.19
-1 5 -3 4.5 56.99
-1 5 -3 11 50.79
-1 5 -3 3.9 35.6
-5 1 3 0.4 13.9
-5 1 3 -13.4 49.2
5 -1 -3 -1.2 3.7
5 -1 -3 3.2 32.6
5 -1 -3 -3.8 43.2
5 -1 -3 4.4 4.5
5 -1 -3 4.3 9.7
1 -5 3 5.7 6.5
1 -5 3 -7.8 29.7
0 6 -3 -11.6 13.4
0 6 -3 2.9 5.6
0 6 -3 0.9 3.2
-6 0 3 1.2 6.1
-6 0 3 -0.3 15.7
6 0 -3 3.1 12.8
6 0 -3 -1 2
0 -6 3 0.1 11.9
0 -6 3 2.4 2.9
6 0 -3 6.9 5.3
0 -6 3 6.5 10.5
6 0 -3 3.7 2.2
6 0 -3 -6.7 29.5
1 7 -3 312.97 28.4
1 7 -3 296.37 28.5
-7 -1 3 288.07 32.8
-7 -1 3 299.87 27.6
1 7 -3 318.97 34.5
1 7 -3 272.77 28.4
7 1 -3 292.37 26.5
-1 -7 3 367.26 37.1
7 1 -3 319.57 28.7
-1 -7 3 320.77 29.4
7 1 -3 341.57 27.2
7 1 -3 307.97 27.8
7 1 -3 312.97 32.2
7 1 -3 338.17 27.4
2 8 -3 182.38 15.5
2 8 -3 173.78 23.5
2 8 -3 188.48 16.6
2 8 -3 172.18 16.8
2 8 -3 154.48 16.4
-8 -2 3 190.68 23.4
-8 -2 3 139.09 16
8 2 -3 144.29 15.6
8 2 -3 201.38 16.1
-2 -8 3 169.18 18.3
8 2 -3 215.68 22.9
-2 -8 3 153.08 24.5
-9 -3 3 30.9 4.1
3 9 -3 24.3 5.3
3 9 -3 25.8 3.5
3 9 -3 17.3 13.9
9 3 -3 22.3 5.4
9 3 -3 24.7 3.5
-3 -9 3 14.5 4
9 3 -3 23.1 3
9 3 -3 22.4 5.5
9 3 -3 23.8 3.9
4 10 -3 3.6 6.9
4 10 -3 5.7 11.7
-10 -4 3 -0.3 7
10 4 -3 2.6 2.9
10 4 -3 0 2.4
10 4 -3 1.6 2.7
5 11 -3 -5.7 5.6
5 11 -3 -5.6 5.2
-11 -5 3 -3.8 3.9
11 5 -3 -11.2 15.1
11 5 -3 -1.1 2.7
11 5 -3 3.3 6.3
11 5 -3 1.5 2.4
6 12 -3 86.29 8.9
6 12 -3 65.29 10.7
12 6 -3 107.79 13.3
12 6 -3 80.59 8.6
12 6 -3 89.99 8.9
7 13 -3 133.69 14.8
-13 -7 3 142.49 13.3
-7 -13 3 152.38 13.9
13 7 -3 120.09 13.9
13 7 -3 105.49 14.9
-8 -14 3 -2.9 4.9
14 8 -3 0.8 4.4
-15 -9 3 -5.4 4.4
15 9 -3 -0.1 3.4
-9 -15 3 -1.5 4
15 9 -3 -10.5 7.3
8 15 3 7.3 6.8
-8 -15 -3 8.1 3.7
15 8 3 8.9 4.9
15 8 3 5.9 4.9
-14 -7 -3 -0.6 4.5
14 7 3 -6.6 6.6
-7 -14 -3 -10.3 4.5
-13 -6 -3 20.7 3.9
13 6 3 21.9 6.7
13 6 3 25.4 5.1
-6 -13 -3 27.6 4.3
-6 -13 -3 31.3 4.2
-12 -5 -3 16.6 3.4
5 12 3 8.4 5.9
-5 -12 -3 21 6.5
-5 -12 -3 17.7 3.4
12 5 3 19.9 16.2
4 11 3 175.28 19
4 11 3 214.18 19.7
-11 -4 -3 219.38 19.9
-4 -11 -3 202.38 17.9
-4 -11 -3 206.88 18.8
11 4 3 185.28 19.5
3 10 3 20.2 4.4
3 10 3 23.1 5.4
3 10 3 7.6 11.8
-3 -10 -3 30.4 5.4
10 3 3 25.3 5.5
-3 -10 -3 6.6 22
-3 -10 -3 21.3 3.9
10 3 3 28.6 9.8
-3 -10 -3 22.7 3.4
2 9 3 10.8 3.4
-9 -2 -3 8 2.9
2 9 3 10.7 4
2 9 3 25.1 13.2
9 2 3 6.8 4.7
-2 -9 -3 9.2 19.4
-2 -9 -3 4.9 2.3
-2 -9 -3 12.7 3
-2 -9 -3 7.3 1.9
9 2 3 10.1 4.4
1 8 3 61.99 15.1
1 8 3 59.09 9.2
1 8 3 65.29 9.6
-8 -1 -3 68.69 8.1
-1 -8 -3 70.49 9.1
-1 -8 -3 72.59 7.2
-1 -8 -3 69.59 8
-1 -8 -3 75.49 8
-1 -8 -3 81.89 17.8
8 1 3 71.29 10.2
0 7 3 58.19 11.3
-7 0 -3 43.6 9.1
0 7 3 53.59 7.1
0 7 3 60.59 13.8
0 7 3 67.49 11
7 0 3 65.09 6.4
7 0 3 68.29 10.5
7 0 3 37.3 9.5
0 -7 -3 49.8 6.5
0 -7 -3 54.69 5.9
0 -7 -3 80.09 14.3
0 -7 -3 49.3 5.6
-1 6 3 382.56 36.8
-1 6 3 391.76 41.8
-1 6 3 439.66 41.4
-1 6 3 478.25 38.8
-6 1 -3 378.96 37.7
1 -6 -3 490.25 38
1 -6 -3 456.25 44.4
1 -6 -3 463.55 36.4
1 -6 -3 401.46 37.3
6 -1 3 386.76 38.8
1 -6 -3 446.06 43.5
-2 5 3 48 10.2
-5 2 -3 33.7 6.6
-2 5 3 48.7 6.1
-2 5 3 51.89 6.6
-2 5 3 49.7 9.8
2 -5 -3 39.3 4.8
2 -5 -3 56.09 6.4
5 -2 3 43.2 5.7
2 -5 -3 38.8 4.7
5 -2 3 43 6.3
2 -5 -3 47.8 4.7
2 -5 -3 47.6 4.8
-3 4 3 30 8.3
-3 4 3 16 2.6
-3 4 3 24.7 2.9
-4 3 -3 12.6 4
-4 3 -3 17 6.7
-3 4 3 21.3 7.5
4 -3 3 14.6 2.8
3 -4 -3 22.7 3.9
3 -4 -3 20.1 3.5
4 -3 3 23 9.7
3 -4 -3 20.3 2.4
3 -4 -3 16.6 5.1
-3 4 -3 9.3 6.3
-4 3 3 16 3.7
-3 4 -3 19.2 9.9
-4 3 3 25 8.6
-3 4 -3 22.8 6
4 -3 -3 32.7 4.2
4 -3 -3 25.4 3.1
4 -3 -3 21.1 3.7
3 -4 3 26.8 3.8
3 -4 3 21.1 5.8
4 -3 -3 23.1 2.5
4 -3 -3 22.8 4.4
-2 5 -3 42.1 9.9
-2 5 -3 35.5 4.9
-2 5 -3 38.3 7.9
-5 2 3 47.8 4.5
5 -2 -3 46.9 5.5
2 -5 3 44.3 9.5
2 -5 3 48.6 5.6
5 -2 -3 35.6 4.4
5 -2 -3 35 4.2
5 -2 -3 42.6 9
5 -2 -3 45.1 5.1
5 -2 -3 49.3 4.7
2 -5 3 38.2 6.9
5 -2 -3 46 4.7
-1 6 -3 497.95 49.5
-6 1 3 572.44 49.4
-1 6 -3 506.75 42
-1 6 -3 456.15 43.2
6 -1 -3 553.34 43.2
6 -1 -3 456.05 45.2
1 -6 3 426.16 44.5
6 -1 -3 494.35 41.8
6 -1 -3 520.95 43.9
1 -6 3 475.65 50.29
6 -1 -3 547.35 48.2
6 -1 -3 538.75 43.8
0 7 -3 52.39 7.7
-7 0 3 33.4 10.9
-7 0 3 57.39 9.6
0 7 -3 55.39 9.6
0 7 -3 72.49 11.6
0 -7 3 67.39 11
7 0 -3 72.39 12.2
7 0 -3 50.79 5.1
0 -7 3 36.2 6.4
7 0 -3 58.19 10.8
7 0 -3 41.3 4.9
1 8 -3 64.49 10.2
1 8 -3 43 7.8
1 8 -3 51.59 8.5
-8 -1 3 51.99 7.9
1 8 -3 62.49 16.1
-8 -1 3 48 11.9
8 1 -3 47 5.6
8 1 -3 61.49 5.6
-1 -8 3 54.79 7.5
8 1 -3 73.39 10.6
-1 -8 3 45.9 14.7
8 1 -3 61.89 8.1
8 1 -3 40.9 5.4
8 1 -3 72.59 13.8
2 9 -3 7.9 2.4
2 9 -3 2.6 2.3
2 9 -3 4.5 11.8
2 9 -3 8.2 5.4
-9 -2 3 10.5 2.9
2 9 -3 3.2 3.1
-2 -9 3 -1.4 17.8
9 2 -3 4.4 1.4
9 2 -3 -1.2 10.9
3 10 -3 31.6 4.7
-10 -3 3 26.5 4
3 10 -3 26 3.5
3 10 -3 20.4 3.3
10 3 -3 25.9 4.3
10 3 -3 23.7 2.9
10 3 -3 20.5 5.3
10 3 -3 27 5.7
10 3 -3 20.9 3.6
-11 -4 3 172.78 18.8
4 11 -3 188.68 19.9
4 11 -3 204.98 18.5
11 4 -3 221.38 20.2
11 4 -3 217.48 19.7
11 4 -3 191.08 19
11 4 -3 215.48 18.7
5 12 -3 18.9 5.9
-12 -5 3 19.2 4.5
12 5 -3 20.9 3.6
12 5 -3 9.2 9.5
12 5 -3 20.8 4.1
12 5 -3 19.1 5
6 13 -3 18.6 7.2
13 6 -3 14.5 9.7
13 6 -3 18.4 4.5
7 14 -3 -1.8 4.8
-14 -7 3 10.6 3.4
14 7 -3 3.3 3.4
-7 -14 3 11.3 5.3
14 7 -3 0.7 4.7
-15 -8 3 16.7 4.8
15 8 -3 9.6 7.4
15 8 -3 14.9 4.4
-15 -7 -3 -1.5 4
7 15 3 2.7 4.4
-7 -15 -3 -9.8 13.2
15 7 3 -0.1 16.3
15 7 3 -5.9 6.6
6 14 3 21.6 5.3
14 6 3 21 20.4
-6 -14 -3 9.3 4.5
-6 -14 -3 12.6 4.9
5 13 3 1.7 5.6
-13 -5 -3 4.2 2.9
5 13 3 -0.3 3.7
13 5 3 -9.3 6
-5 -13 -3 0.7 3.5
-5 -13 -3 -0.4 4.2
-12 -4 -3 91.69 9.6
4 12 3 89.79 9.1
-4 -12 -3 113.69 9.9
12 4 3 81.79 10.3
-4 -12 -3 109.09 10.3
12 4 3 79.99 10
-11 -3 -3 93.19 9.9
3 11 3 78.69 10.8
3 11 3 79.79 8.8
11 3 3 93.19 10.5
-3 -11 -3 81.99 10
11 3 3 81.99 15.5
-3 -11 -3 75.39 9.4
-3 -11 -3 96.39 10.8
-10 -2 -3 23 8.1
2 10 3 9.9 8.2
1 9 3 47.6 14.4
-1 -9 -3 45.7 5.3
-1 -9 -3 57.19 5.6
-1 -9 -3 54.49 5.5
-1 -9 -3 48.7 20.6
-1 -9 -3 48.7 4.9
0 8 3 1.7 2.9
-8 0 -3 -3.6 3.8
-8 0 -3 9.3 7.2
0 8 3 -3.2 3.6
0 8 3 6 10.3
0 8 3 -3.7 10.2
0 -8 -3 5.9 3.5
0 -8 -3 4.2 5
0 -8 -3 3.5 3.1
8 0 3 5.3 8.1
0 -8 -3 6.8 2.5
0 -8 -3 3 2.1
0 -8 -3 1 12.4
-1 7 3 275.27 24.5
-1 7 3 257.77 28.2
-7 1 -3 224.98 27.9
1 -7 -3 280.67 23.5
1 -7 -3 260.67 23.9
1 -7 -3 285.17 22.8
1 -7 -3 259.87 23.6
1 -7 -3 295.17 23.5
7 -1 3 234.68 26.4
-2 6 3 279.77 23.9
-6 2 -3 289.37 23.8
-2 6 3 292.17 27.9
-2 6 3 204.58 26.9
-2 6 3 222.08 22.5
2 -6 -3 275.87 22.5
2 -6 -3 232.88 21.9
2 -6 -3 262.67 23.3
2 -6 -3 238.88 22.8
2 -6 -3 269.27 23
6 -2 3 279.47 23.6
-3 5 3 5.3 5.2
-5 3 -3 1.8 1.7
-5 3 -3 -2 7.3
-3 5 3 7.7 6.6
-5 3 -3 0 4.2
-3 5 3 4.7 2.4
5 -3 3 6.4 5.7
5 -3 3 5.3 2.6
3 -5 -3 5.9 1.7
3 -5 -3 1.4 2.7
3 -5 -3 4.9 1.8
3 -5 -3 4.1 1.3
-4 4 3 126.49 11.5
-4 4 -3 115.49 14
-4 4 3 143.49 16.6
-4 4 3 137.99 11.4
4 -4 -3 124.49 11.7
4 -4 -3 134.69 11.6
4 -4 -3 121.19 11.6
4 -4 3 112.59 13.8
4 -4 -3 118.49 11.3
4 -4 -3 114.49 11.1
4 -4 -3 136.29 11.3
4 -4 -3 146.09 16.3
-5 3 3 -1.3 7.9
-3 5 -3 16.8 8.8
-3 5 -3 3.2 2.1
-5 3 3 2.4 1.4
3 -5 3 2.2 1.9
5 -3 -3 15.5 9.6
3 -5 3 -1.6 5.9
3 -5 3 3.5 2.1
5 -3 -3 4.1 1.5
5 -3 -3 7.3 2.3
5 -3 -3 10.2 4.1
5 -3 -3 5.4 4.4
3 -5 3 10.5 4.4
-6 2 3 251.97 27.1
-2 6 -3 204.28 21.5
-2 6 -3 216.08 28.3
2 -6 3 289.77 27.2
6 -2 -3 257.47 26.2
6 -2 -3 267.37 21
2 -6 3 254.67 28.2
2 -6 3 227.98 21.5
6 -2 -3 247.18 21.5
-1 7 -3 303.27 28.4
-1 7 -3 299.07 27.7
-1 7 -3 307.17 35.3
-7 1 3 333.97 28.6
-7 1 3 348.87 34.9
7 -1 -3 327.47 27.6
7 -1 -3 329.57 27.5
7 -1 -3 359.56 28.2
1 -7 3 371.96 37.6
7 -1 -3 356.66 33.7
1 -7 3 270.27 29.1
0 8 -3 -0.6 1.9
-8 0 3 2.8 8.2
0 8 -3 -3.3 2.6
-8 0 3 -1.2 2.3
0 8 -3 -1.2 11.1
0 8 -3 -4.9 3.4
0 8 -3 -0.9 2.1
0 -8 3 2.2 2.6
8 0 -3 -0.2 2.8
8 0 -3 0.6 1.9
8 0 -3 -0.7 1.9
0 -8 3 -0.4 1.7
0 -8 3 21.1 15.6
8 0 -3 4.8 7
8 0 -3 -9.6 9.6
1 9 -3 67.99 6.7
1 9 -3 71.59 6.5
9 1 -3 53.99 6.9
9 1 -3 57.59 8.4
-1 -9 3 99.89 22.9
9 1 -3 66.19 6.5
-1 -9 3 48.9 6.9
2 10 -3 6.6 2.8
2 10 -3 4.3 8.7
2 10 -3 5.6 3.3
2 10 -3 3.1 2.5
-2 -10 3 8.6 4.2
10 2 -3 8.4 2.9
3 11 -3 72.19 9.8
-11 -3 3 107.89 11.9
3 11 -3 71.19 8.8
11 3 -3 86.59 9.1
11 3 -3 83.99 11.3
11 3 -3 93.09 8.3
11 3 -3 78.79 9.5
-12 -4 3 120.89 11.6
4 12 -3 124.39 11.9
12 4 -3 113.29 13.4
12 4 -3 108.49 12.4
-13 -5 3 -4.5 3.9
13 5 -3 -5.4 4.1
13 5 -3 -3.8 5.3
13 5 -3 -2.4 3.3
13 5 -3 -3.6 3.6
6 14 -3 17.2 4.9
-14 -6 3 13.4 3.7
14 6 -3 20.9 7.1
14 6 -3 25.9 11.9
7 15 -3 -10.6 5.8
-15 -7 3 -7.8 4.6
15 7 -3 -7 7.5
15 7 -3 2.1 6.6
-7 -15 3 3 5.5
7 16 3 -3.3 6
16 7 3 -6.3 4.3
16 7 3 4.6 6.8
6 15 3 127.09 13.1
-15 -6 -3 97.89 11.4
-6 -15 -3 109.69 11.2
-6 -15 -3 105.39 11.4
15 6 3 118.49 13.6
15 6 3 98.69 13
-14 -5 -3 131.89 14.3
5 14 3 123.89 13.5
5 14 3 145.49 14.4
-5 -14 -3 115.69 12.1
14 5 3 127.69 16.1
14 5 3 125.49 14.1
-5 -14 -3 126.09 12.9
4 13 3 32.4 5.5
4 13 3 21.9 4.2
13 4 3 29.6 6.6
-4 -13 -3 26.1 4.4
-4 -13 -3 27.5 5.1
3 12 3 -3.9 9.2
-12 -3 -3 2.7 8.3
12 3 3 65.49 24.7
-3 -12 -3 -2.1 14.2
2 11 3 24.4 5.7
2 11 3 15 5.1
11 2 3 50.29 13.8
-2 -11 -3 21.9 5
11 2 3 20.5 5.6
-2 -11 -3 25.4 3.6
-2 -11 -3 23.9 3.6
1 10 3 388.76 44
1 10 3 462.45 35.7
-10 -1 -3 358.46 36.2
-1 -10 -3 394.36 36.6
10 1 3 405.06 37.8
-1 -10 -3 369.26 36.4
-1 -10 -3 376.76 45.8
10 1 3 459.05 37.6
-1 -10 -3 389.86 35.6
-1 -10 -3 465.05 35.3
0 9 3 403.66 45.8
0 9 3 497.35 40
0 9 3 500.15 41.8
0 9 3 462.55 48.3
-9 0 -3 528.15 40.9
0 -9 -3 419.86 39.9
9 0 3 441.36 42
0 -9 -3 420.86 40.8
0 -9 -3 404.36 40.1
0 -9 -3 536.05 39.5
0 -9 -3 465.75 49.6
0 -9 -3 424.46 38.2
-8 1 -3 54.29 8.3
-1 8 3 56.19 13
-1 8 3 63.39 8.8
-1 8 3 70.09 10.1
-1 8 3 50.29 15
1 -8 -3 52.59 5.6
1 -8 -3 53.59 6.7
1 -8 -3 47 6.8
8 -1 3 59.39 6.7
1 -8 -3 43.7 6.7
1 -8 -3 53.39 5.5
-7 2 -3 3.4 4.6
-7 2 -3 2.9 10.4
-2 7 3 -7.6 8.3
-2 7 3 -23 11.6
-2 7 3 -10.9 10.7
-7 2 -3 -0.7 2.5
-7 2 -3 -4.9 6.4
2 -7 -3 5 4.8
7 -2 3 -4 6.4
2 -7 -3 3.2 6.2
2 -7 -3 4.5 5.4
2 -7 -3 -3.8 5.9
7 -2 3 3.8 10.4
-3 6 3 40.9 4.9
-3 6 3 57.09 12.3
-3 6 3 35 9.8
-6 3 -3 28.8 11.3
-3 6 3 49.9 8.5
-6 3 -3 37.3 5.9
3 -6 -3 38.2 5
3 -6 -3 30.7 4.4
6 -3 3 44.5 14.8
3 -6 -3 35.4 4.3
3 -6 -3 35 4.6
6 -3 3 37 5.1
-4 5 3 791.52 67.29
-4 5 3 696.63 65.19
-4 5 3 764.92 60.99
4 -5 -3 654.63 60.49
4 -5 -3 775.22 59.99
4 -5 -3 591.64 61.99
4 -5 -3 667.13 57.89
4 -5 -3 676.93 60.69
-4 5 -3 613.64 56.99
-5 4 3 586.64 63.59
-4 5 -3 531.05 57.69
5 -4 -3 522.15 49.8
5 -4 -3 548.35 47.7
5 -4 -3 581.44 54.89
5 -4 -3 627.34 55.19
5 -4 -3 600.64 51.39
-6 3 3 35.7 10.3
-6 3 3 43.5 5.4
-3 6 -3 21 10.2
3 -6 3 51.99 7
6 -3 -3 38.4 4.3
6 -3 -3 52.29 5.6
6 -3 -3 45.6 4.6
6 -3 -3 52.19 10.8
6 -3 -3 37.5 4.7
6 -3 -3 32.8 4
3 -6 3 42.1 5.9
-7 2 3 -12.5 13
-2 7 -3 -2.6 12.3
-2 7 -3 -3 6.4
-7 2 3 0.3 4.9
7 -2 -3 -2 9
7 -2 -3 1.7 4.1
7 -2 -3 -12.4 14.1
2 -7 3 -3.2 11.5
2 -7 3 -0.7 4.2
7 -2 -3 -1.6 4.3
7 -2 -3 -0.2 0.8
7 -2 -3 -3.5 2.9
2 -7 3 1.3 10.3
-8 1 3 66.29 7.2
-1 8 -3 64.49 13.8
-8 1 3 69.79 15.9
8 -1 -3 69.69 11
1 -8 3 56.59 7.9
1 -8 3 49.7 16.1
8 -1 -3 56.49 12.1
8 -1 -3 66.79 7.6
8 -1 -3 59.49 8.4
8 -1 -3 71.49 6.9
0 9 -3 428.16 51.29
-9 0 3 544.95 43.3
0 9 -3 491.25 43
9 0 -3 511.55 49.8
0 -9 3 562.84 56.09
9 0 -3 437.76 43.2
9 0 -3 522.85 43
0 -9 3 507.65 46.2
9 0 -3 436.36 41.3
9 0 -3 499.55 44.8
1 10 -3 382.36 46.6
1 10 -3 446.36 38.3
10 1 -3 457.45 36.7
10 1 -3 476.45 38.6
10 1 -3 383.86 35.3
10 1 -3 361.66 37
-1 -10 3 407.36 41
-11 -2 3 12.6 2.9
2 11 -3 15.8 3.6
-2 -11 3 12.7 3.4
11 2 -3 19.5 4.1
3 12 -3 1.4 9.3
-12 -3 3 7 6.3
12 3 -3 -5.4 7.9
12 3 -3 4.4 8.6
12 3 -3 11.2 3.5
12 3 -3 4.1 3.4
-13 -4 3 35.9 5.1
4 13 -3 24.9 4.9
13 4 -3 41.5 10.3
13 4 -3 31.8 5.5
13 4 -3 29.6 4.7
5 14 -3 133.49 12.6
-14 -5 3 114.29 11
14 5 -3 97.89 10.9
14 5 -3 114.49 16.4
14 5 -3 96.69 10.4
-15 -6 3 138.99 13
6 15 -3 116.79 12.7
-6 -15 3 125.89 12.9
15 6 -3 124.19 14.2
-16 -7 3 7.1 3.4
7 16 -3 -2.3 4.9
16 7 -3 -2.9 7.2
16 7 -3 11.8 5
-7 -16 3 6.3 4.5
6 16 3 -9.3 6.7
16 6 3 4.4 5.9
-6 -16 -3 -4.9 4.3
-15 -5 -3 1.6 4.2
15 5 3 -3 5.6
-5 -15 -3 -4 3.4
-5 -15 -3 2.8 2.9
4 14 3 4.7 4.7
-14 -4 -3 4.1 4
4 14 3 14.4 4.6
-4 -14 -3 16 4.7
14 4 3 2.4 10.3
-4 -14 -3 11 3.6
14 4 3 7.2 5.6
3 13 3 111.39 11.3
3 13 3 116.49 12.5
-13 -3 -3 113.79 11.5
-3 -13 -3 102.79 11.3
-3 -13 -3 109.29 11.1
13 3 3 124.29 16.4
13 3 3 107.19 12.4
-12 -2 -3 295.27 30.8
2 12 3 348.97 29.7
2 12 3 331.77 32.8
12 2 3 349.37 34.7
-2 -12 -3 298.47 30.4
-2 -12 -3 329.97 30.6
-11 -1 -3 123.79 13.1
0 10 3 5.3 8
0 10 3 2 15.1
0 10 3 15 14.5
0 -10 -3 22.5 5.8
0 -10 -3 -28.4 22
0 -10 -3 23.9 11.1
0 -10 -3 23 5.6
0 -10 -3 19.4 7.1
10 0 3 21.9 4.7
-1 9 3 78.19 16.5
-1 9 3 85.49 10.2
-1 9 3 88.19 11.7
-1 9 3 64.69 18
9 -1 3 61.09 7.7
1 -9 -3 93.59 9.4
9 -1 3 66.69 8.3
1 -9 -3 75.89 7.7
1 -9 -3 82.49 8.1
1 -9 -3 71.19 7.8
-2 8 3 202.68 22.9
-2 8 3 203.28 18.3
-8 2 -3 144.59 23
-2 8 3 169.48 23.4
-2 8 3 192.08 17.4
2 -8 -3 197.18 16.5
8 -2 3 183.18 18.3
2 -8 -3 202.78 18.5
2 -8 -3 174.18 15.9
2 -8 -3 164.98 16.8
2 -8 -3 176.18 16.6
8 -2 3 145.19 18.5
-7 3 -3 307.47 39.8
-3 7 3 400.16 33.8
-3 7 3 398.36 39.8
-3 7 3 383.06 40.2
-3 7 3 425.86 35.5
3 -7 -3 371.36 34.7
3 -7 -3 413.86 33.5
-4 6 3 147.09 12.4
-6 4 -3 122.79 13
-4 6 3 126.39 18.2
-6 4 -3 114.19 20
-4 6 3 132.99 19.3
4 -6 -3 139.29 15.1
6 -4 3 135.89 14.4
4 -6 -3 140.89 13.2
4 -6 -3 148.79 12.6
4 -6 -3 114.39 11.7
4 -6 -3 134.19 12.8
-5 5 3 -24.1 25.1
-5 5 -3 3.3 6.2
-5 5 -3 -4.6 5.7
-5 5 -3 1.1 12.9
-5 5 3 -17 10.2
5 -5 -3 0 10.6
5 -5 -3 -15.6 12.7
5 -5 -3 -2.7 6.5
5 -5 -3 -0.8 20.7
5 -5 -3 2.8 8.5
5 -5 3 5.2 13.1
5 -5 -3 -8.5 13.2
5 -5 -3 -2.9 4.1
-4 6 -3 106.09 18
-4 6 -3 120.99 21.1
-6 4 3 151.88 19.1
6 -4 -3 159.48 16.9
6 -4 -3 162.58 13.7
4 -6 3 125.29 13.6
6 -4 -3 165.68 13.4
4 -6 3 127.29 17.8
6 -4 -3 154.18 14.6
6 -4 -3 141.59 19.5
6 -4 -3 147.19 14.6
-7 3 3 414.96 39.9
-7 3 3 361.56 33.7
3 -7 3 390.76 33.1
3 -7 3 397.56 40.1
7 -3 -3 404.96 32.8
7 -3 -3 357.76 32.5
-8 2 3 215.48 20
8 -2 -3 218.68 18.9
8 -2 -3 238.88 21.2
2 -8 3 233.78 26
8 -2 -3 193.18 18.4
8 -2 -3 189.48 17.9
2 -8 3 252.27 28.7
8 -2 -3 169.68 23.4
8 -2 -3 212.68 18.4
2 -8 3 183.18 19.6
-1 9 -3 80.99 14.3
-1 9 -3 96.09 21.4
1 -9 3 62.19 11.7
1 -9 3 83.29 23.4
9 -1 -3 94.49 8.5
9 -1 -3 73.79 8.1
9 -1 -3 98.99 10.5
9 -1 -3 82.69 8.4
9 -1 -3 55.29 24.8
9 -1 -3 78.89 9.7
9 -1 -3 92.09 9.2
-10 0 3 4.7 6.8
0 10 -3 -37.1 20.2
0 10 -3 4.1 6.3
0 -10 3 -45.8 27.6
10 0 -3 2.2 3
10 0 -3 -6.5 3.4
0 -10 3 31.7 19.1
1 11 -3 59.29 7.4
11 1 -3 67.09 7.5
-1 -11 3 58.59 9.9
11 1 -3 58.29 7.3
-12 -2 3 371.66 32.5
2 12 -3 370.76 30.4
12 2 -3 311.17 28.9
-2 -12 3 280.37 31.9
12 2 -3 325.17 29.8
12 2 -3 324.37 33.6
12 2 -3 326.97 29.8
3 13 -3 115.09 10.9
-13 -3 3 120.19 10.7
13 3 -3 118.79 11.3
13 3 -3 92.59 10.3
13 3 -3 92.69 11.3
13 3 -3 85.69 9.9
-14 -4 3 2.5 2.8
4 14 -3 -3.1 3.9
14 4 -3 6.6 3.3
14 4 -3 1.4 3.2
14 4 -3 3.6 11.9
5 15 -3 -4.8 5.3
-15 -5 3 -5.2 4.4
15 5 -3 -0.2 6.8
15 5 -3 -6.4 8.5
15 5 -3 4.1 5.4
-6 -16 3 10.6 5.5
16 6 -3 0.4 6.6
16 6 -3 9.4 6.5
-16 -5 -3 115.19 12.5
16 5 3 138.99 16.7
16 5 3 118.39 14.1
-5 -16 -3 125.19 12.4
-5 -16 -3 119.49 11.9
4 15 3 80.09 9.4
-15 -4 -3 88.99 9.7
4 15 3 95.19 10.3
15 4 3 90.09 10
-4 -15 -3 87.69 9.8
-4 -15 -3 82.79 9.5
15 4 3 83.99 10.8
3 14 3 4.6 3.5
-3 -14 -3 1.6 4.3
14 3 3 5.1 5.3
2 13 3 14.9 4.2
2 13 3 4.3 3.9
-13 -2 -3 5.1 5
-2 -13 -3 2.2 4.2
13 2 3 10.7 3.8
13 2 3 32 12.6
1 12 3 11.3 6.3
1 12 3 22.4 6.2
-12 -1 -3 23.8 6
-1 -12 -3 21.5 9.5
12 1 3 12.5 12
-1 -12 -3 22.3 3.8
-1 -12 -3 20.2 3.8
0 11 3 463.75 43.7
-11 0 -3 410.26 42.4
0 -11 -3 454.05 42.8
11 0 3 561.04 43.3
0 -11 -3 431.76 42
0 -11 -3 556.94 41.3
11 0 3 481.55 45.4
-1 10 3 332.57 41.3
-1 10 3 369.76 34
-1 10 3 369.16 42.4
-10 1 -3 389.86 34.6
1 -10 -3 420.26 34.4
10 -1 3 366.66 36.1
1 -10 -3 361.36 34.1
1 -10 -3 453.25 34.1
1 -10 -3 352.96 32.6
1 -10 -3 436.16 35
-9 2 -3 14.1 4.3
-2 9 3 1.9 3
-2 9 3 4.9 4.4
-2 9 3 9 8.5
2 -9 -3 11.4 2.5
9 -2 3 7.9 3.1
9 -2 3 10.2 8.2
2 -9 -3 5.5 3.1
2 -9 -3 0.5 4.4
2 -9 -3 12.6 3
-3 8 3 -15 11.1
-3 8 3 1.6 9.8
-3 8 3 2 11.6
-8 3 -3 3.3 9
-8 3 -3 5.8 13.4
-3 8 3 1 10.7
8 -3 3 2.8 10.7
3 -8 -3 1.4 5.3
3 -8 -3 5.9 2.1
3 -8 -3 -1.3 4.1
-4 7 3 15.7 6.4
-4 7 3 26.8 13.3
-7 4 -3 24 4.9
-7 4 -3 0.8 8.3
-4 7 3 4.8 10.2
-7 4 -3 2.6 16
-7 4 -3 12.2 3.2
4 -7 -3 18.4 3.5
4 -7 -3 14.6 3.1
4 -7 -3 12.3 7.5
4 -7 -3 16.6 6.4
4 -7 -3 20.7 3.2
-6 5 -3 776.12 73.89
-6 5 -3 707.33 71.79
-5 6 3 739.23 70.29
5 -6 -3 720.23 62.19
5 -6 -3 733.03 64.99
5 -6 -3 831.42 65.29
5 -6 -3 730.13 66.09
-5 6 -3 757.82 66.79
-5 6 -3 659.43 71.79
-5 6 -3 876.31 73.99
6 -5 -3 667.03 67.89
6 -5 -3 634.54 64.49
6 -5 -3 766.42 63.39
6 -5 -3 816.12 64.89
5 -6 3 750.92 65.89
5 -6 3 805.12 72.59
-7 4 3 13.5 14
-4 7 -3 29.9 16.1
-7 4 3 21.2 4.4
4 -7 3 3.1 9.9
4 -7 3 26.9 9.7
7 -4 -3 22.4 5.1
7 -4 -3 17.6 2.6
7 -4 -3 21.5 5.4
7 -4 -3 13.8 3.1
4 -7 3 16.7 5.3
7 -4 -3 16.9 5.2
-8 3 3 -9.7 11.6
-3 8 -3 -4.6 6
-8 3 3 0.9 2.1
-3 8 -3 -15.9 12.8
8 -3 -3 1.8 3.6
8 -3 -3 0.6 2.8
8 -3 -3 -2 7.6
8 -3 -3 3.1 3.9
8 -3 -3 8.9 3.4
3 -8 3 2.6 4
8 -3 -3 2.7 3.3
3 -8 3 0.6 9.4
3 -8 3 4.9 11.5
-2 9 -3 3.8 3.2
-9 2 3 5.7 1.8
-2 9 -3 17.6 11.6
2 -9 3 20.5 16.2
9 -2 -3 11.9 3.3
9 -2 -3 5.1 3.4
2 -9 3 0.6 3
9 -2 -3 2 2.8
2 -9 3 7.1 4.2
-1 10 -3 491.55 53.99
-10 1 3 513.45 43.5
-1 10 -3 512.65 43.1
10 -1 -3 477.25 43.6
10 -1 -3 470.85 44.7
10 -1 -3 509.45 41.6
10 -1 -3 524.55 42.6
1 -10 3 415.66 47.1
0 11 -3 591.34 51.09
-11 0 3 557.24 50.69
0 -11 3 480.95 52.59
11 0 -3 611.84 51.09
11 0 -3 661.03 50.09
11 0 -3 596.94 48.7
11 0 -3 550.44 52.39
11 0 -3 563.24 50.29
-12 -1 3 22.4 8.8
1 12 -3 32 12.9
12 1 -3 30.7 6.1
-1 -12 3 29.2 5.3
2 13 -3 5.3 4.6
-13 -2 3 1 3.9
13 2 -3 3 3.3
13 2 -3 5.1 4.8
13 2 -3 -1.9 14.6
3 14 -3 2.2 3.9
14 3 -3 4.3 5.9
14 3 -3 2.4 3.4
14 3 -3 -2.1 3.8
14 3 -3 12.7 5.3
4 15 -3 93.89 10.5
-15 -4 3 98.19 10.2
15 4 -3 89.69 10.1
15 4 -3 83.49 10
15 4 -3 103.79 10.9
15 4 -3 102.39 12.4
5 16 -3 162.68 15.9
-16 -5 3 169.38 15.7
16 5 -3 164.98 16.5
16 5 -3 141.69 15.9
5 17 3 6.6 6.4
17 5 3 -1.5 6
17 5 3 -6.3 4.3
-5 -17 -3 1.3 4.1
-16 -4 -3 12.5 3.7
16 4 3 6.7 11.1
-4 -16 -3 2 4.7
-4 -16 -3 6.2 5.4
3 15 3 10.3 6
-3 -15 -3 2.3 8.4
-3 -15 -3 3.8 4.3
15 3 3 -0.9 3.7
15 3 3 -4.8 6.8
2 14 3 21.9 5.1
-2 -14 -3 14.5 4.7
14 2 3 29.1 5.3
1 13 3 80.19 9
-13 -1 -3 63.59 7.5
1 13 3 79.09 7.9
-1 -13 -3 56.79 6.8
-1 -13 -3 68.69 7.5
13 1 3 63.19 8.2
13 1 3 94.19 12.9
-1 -13 -3 63.99 7.5
0 12 3 -3.5 4.4
-12 0 -3 -0.3 3.8
0 12 3 2 3.5
0 -12 -3 1.2 3.6
12 0 3 -2 3.8
12 0 3 -5.1 11.2
0 -12 -3 -2.9 4.2
-11 1 -3 67.69 8.7
-1 11 3 58.99 7
11 -1 3 63.49 9.3
1 -11 -3 52.59 7.8
11 -1 3 47.4 6.8
-2 10 3 27.1 17.6
-10 2 -3 18.3 7.6
-2 10 3 7.3 7.3
-2 10 3 -6.7 15
10 -2 3 8.6 3.5
2 -10 -3 14.5 8.4
2 -10 -3 13.5 7.3
2 -10 -3 17.2 5.2
2 -10 -3 7.9 4.9
-9 3 -3 18.3 3.9
-9 3 -3 22.8 5.8
-3 9 3 16.7 7.2
-3 9 3 12.4 12.5
-3 9 3 16.5 13.3
3 -9 -3 21 3.9
3 -9 -3 13.9 2.6
9 -3 3 19.3 9.7
3 -9 -3 17 3.3
3 -9 -3 22.8 5.8
3 -9 -3 23.2 3.1
-4 8 3 74.39 7.2
-8 4 -3 69.99 7.8
-8 4 -3 93.79 19.5
-4 8 3 78.69 14
-8 4 -3 78.39 7.5
4 -8 -3 71.09 7.5
4 -8 -3 74.99 7.5
4 -8 -3 64.69 7
8 -4 3 75.99 8.7
4 -8 -3 77.59 7.6
-5 7 3 1.5 4.1
-5 7 3 -11.9 10.9
-7 5 -3 -20.2 10.8
-7 5 -3 -1.7 3
-7 5 -3 -2.6 4.8
-7 5 -3 15.4 18.7
-5 7 3 -16.4 12.2
5 -7 -3 1.8 2.1
5 -7 -3 4.1 3.6
5 -7 -3 -1.6 3.1
5 -7 -3 -3.6 2.5
5 -7 -3 4 3.2
7 -5 3 7.8 5.9
-6 6 -3 114.19 24.8
-6 6 -3 106.89 11.7
-6 6 3 139.09 20.7
-6 6 3 142.39 14
-6 6 3 153.68 20.8
6 -6 -3 101.49 11.8
6 -6 3 124.79 12.9
6 -6 -3 136.59 12.7
6 -6 -3 123.59 13.2
6 -6 -3 110.99 11.7
6 -6 -3 141.59 11.8
-5 7 -3 0.1 17
-7 5 3 4.9 8.9
-5 7 -3 2.8 3
-5 7 -3 -4.1 12
5 -7 3 -4.7 5.1
7 -5 -3 -4 4.7
5 -7 3 -2.8 6.9
7 -5 -3 1.3 2.2
7 -5 -3 23.8 12
7 -5 -3 -7.4 4.4
7 -5 -3 6.6 5.2
7 -5 -3 0.8 4.8
7 -5 -3 3.5 3.1
-8 4 3 74.49 8.5
-4 8 -3 108.19 21.9
-4 8 -3 82.09 8.6
8 -4 -3 87.49 9.6
8 -4 -3 97.49 10.3
4 -8 3 95.89 9.4
4 -8 3 87.39 9
8 -4 -3 73.49 8.4
8 -4 -3 121.69 17.5
8 -4 -3 91.29 8.9
4 -8 3 74.99 15.5
8 -4 -3 80.49 8.1
-9 3 3 31.9 3.6
-3 9 -3 23.7 5.7
-3 9 -3 8.8 17.3
9 -3 -3 29.7 7.2
3 -9 3 25.4 4
3 -9 3 31.8 5.5
9 -3 -3 30.4 5.9
9 -3 -3 28.8 4.4
9 -3 -3 29 4.2
9 -3 -3 32.7 5.4
9 -3 -3 28.1 4.8
-10 2 3 7.9 6.1
-2 10 -3 11.2 16
-2 10 -3 7.4 7.1
10 -2 -3 12.5 3.4
2 -10 3 34.8 20.8
10 -2 -3 16.3 6.2
2 -10 3 5.6 16.7
10 -2 -3 8.5 3.1
10 -2 -3 9.2 2.9
-11 1 3 56.49 6.4
11 -1 -3 55.39 7.3
11 -1 -3 68.49 7.7
11 -1 -3 58.69 7.9
-12 0 3 -1.6 3.1
0 12 -3 -10.9 10.7
12 0 -3 3.8 4.8
12 0 -3 -2.8 3
12 0 -3 -5.8 4.8
0 -12 3 3.4 4.9
12 0 -3 3.7 1.9
12 0 -3 -1.2 4.3
1 13 -3 74.49 8.8
-13 -1 3 86.89 8.3
13 1 -3 89.49 8.8
13 1 -3 63.19 8.7
-1 -13 3 63.39 9.7
13 1 -3 88.89 15.3
-14 -2 3 27.6 4.7
2 14 -3 17.8 5.4
14 2 -3 16 8.8
3 15 -3 5.7 3.7
-15 -3 3 -0.5 3.9
15 3 -3 2.6 4.8
15 3 -3 -2 4.3
15 3 -3 -14.4 6.2
15 3 -3 -1.7 6.6
4 16 -3 13.2 6.7
16 4 -3 -4.7 17.9
16 4 -3 21.1 6.2
4 17 3 14.5 5.5
-4 -17 -3 11.8 5.1
3 16 3 1 4.3
3 16 3 14.5 5.9
16 3 3 5.1 5.9
-3 -16 -3 0.3 4.4
-3 -16 -3 2 4.5
2 15 3 6.9 3.7
-2 -15 -3 10.9 3.4
15 2 3 3.6 18.5
-2 -15 -3 5.1 3.7
1 14 3 104.69 9.6
-14 -1 -3 73.99 9.1
-1 -14 -3 102.39 9.9
14 1 3 85.49 9.6
-1 -14 -3 82.09 8.9
-1 -14 -3 83.09 8.9
0 13 3 66.19 8.2
-13 0 -3 73.69 8.2
0 13 3 56.59 7.5
0 -13 -3 56.19 7
13 0 3 67.19 8.5
0 -13 -3 64.49 7.8
0 -13 -3 69.89 7.3
-1 12 3 8.1 7.4
-1 12 3 14.9 6.2
1 -12 -3 15.5 10.4
1 -12 -3 13.4 3.2
1 -12 -3 21.9 4.8
-11 2 -3 22 3.9
-2 11 3 24.9 6.9
2 -11 -3 9.9 3.1
2 -11 -3 16.6 3.4
2 -11 -3 20.2 3.3
2 -11 -3 11.9 7.8
2 -11 -3 14.7 2.4
11 -2 3 19.6 13.7
-3 10 3 27 5.4
-3 10 3 31.5 4.1
-10 3 -3 31.7 5.1
3 -10 -3 22 3.8
3 -10 -3 21.2 4.1
3 -10 -3 29.8 4.4
3 -10 -3 27.1 3.6
10 -3 3 25.8 4.6
3 -10 -3 22 3.5
-9 4 -3 170.68 17.1
-4 9 3 163.18 15.6
-9 4 -3 118.39 13
-4 9 3 126.09 20.1
-4 9 3 139.19 13
4 -9 -3 163.48 13.8
4 -9 -3 152.18 15.1
4 -9 -3 116.79 13.1
9 -4 3 141.89 13.8
-8 5 -3 53.99 14
-8 5 -3 100.49 12.7
-5 8 3 84.19 8.7
-5 8 3 79.59 10.4
-8 5 -3 68.49 20.1
-5 8 3 60.69 14.1
-5 8 3 77.69 19.2
8 -5 3 90.19 18
5 -8 -3 80.69 8.3
5 -8 -3 75.59 8.2
5 -8 -3 86.39 8.2
5 -8 -3 98.99 12.4
5 -8 -3 67.49 7.6
-6 7 3 12 3.5
-6 7 3 6.9 10.3
-6 7 3 27 15.4
-7 6 -3 5.3 20.5
-7 6 -3 11 13.4
-7 6 -3 7.7 5.9
6 -7 -3 14.7 3.3
7 -6 3 15.8 5.9
6 -7 -3 18.2 2.8
6 -7 -3 16 3.8
6 -7 -3 11.2 5.3
6 -7 -3 12.3 3.9
-6 7 -3 9.5 3.6
-6 7 -3 -11.7 22.3
-6 7 -3 -4.9 13.9
-7 6 3 4.1 8.9
-7 6 3 11.4 3.6
7 -6 -3 3.4 3.4
7 -6 -3 11.4 3
7 -6 -3 -0.5 8.7
7 -6 -3 19.3 4.9
6 -7 3 12.5 4.4
6 -7 3 18.1 6
7 -6 -3 12.3 4.2
-5 8 -3 60.99 19
-5 8 -3 83.09 8.7
-5 8 -3 95.49 25.6
8 -5 -3 76.89 8.5
5 -8 3 74.79 9.2
8 -5 -3 90.39 9.7
8 -5 -3 101.29 11
5 -8 3 77.09 8.9
8 -5 -3 96.09 9.2
-4 9 -3 136.99 15.1
-9 4 3 179.68 18.3
-4 9 -3 160.08 28.5
4 -9 3 141.49 24
4 -9 3 157.28 16.2
9 -4 -3 178.88 17.5
9 -4 -3 194.38 15.7
9 -4 -3 160.98 16.3
9 -4 -3 167.78 15.6
4 -9 3 162.58 18.7
-3 10 -3 35.4 6.2
-10 3 3 39.7 4.5
-3 10 -3 63.39 22.5
10 -3 -3 39.3 6.1
10 -3 -3 44.3 5
3 -10 3 35.4 6.4
3 -10 3 20.3 16
3 -10 3 35.6 5
10 -3 -3 41.3 7.6
-11 2 3 19.3 3.6
-2 11 -3 8.4 7.2
2 -11 3 21 5.9
11 -2 -3 22.2 6.2
11 -2 -3 12.4 6.7
11 -2 -3 18.6 3.2
11 -2 -3 16.3 4
-12 1 3 20.8 4.4
-1 12 -3 32 9.7
1 -12 3 11.6 5.2
12 -1 -3 16.8 8.9
12 -1 -3 20.9 3.7
12 -1 -3 15.2 8.1
0 13 -3 76.49 9.1
-13 0 3 82.69 8.6
13 0 -3 83.89 10.1
13 0 -3 73.99 9
13 0 -3 78.19 10
0 -13 3 72.89 10
13 0 -3 76.29 17.3
1 14 -3 119.79 11.5
-14 -1 3 103.89 11.6
14 1 -3 86.89 10.6
-1 -14 3 87.19 11.8
14 1 -3 130.79 13.1
14 1 -3 114.29 12.9
14 1 -3 128.69 12.7
2 15 -3 1.8 4.7
15 2 -3 5.7 7.6
15 2 -3 9.1 6.5
15 2 -3 16.8 5.1
3 16 -3 4.1 4.3
-16 -3 3 12.8 3.6
16 3 -3 10.3 6
16 3 -3 27.4 7.5
16 3 -3 20.4 5.6
4 17 -3 20.7 5.9
-17 -3 -3 75.49 9
3 17 3 90.49 9.5
3 17 3 58.99 8.1
-3 -17 -3 73.09 8.4
17 3 3 59.79 9.9
-3 -17 -3 83.59 9.4
-16 -2 -3 34.6 5.6
2 16 3 43.6 6.7
-2 -16 -3 26.8 6.3
-2 -16 -3 29.3 5.2
1 15 3 -2.8 4.7
1 15 3 3.2 4.4
-1 -15 -3 -1.8 4.8
-1 -15 -3 -7.9 10
0 14 3 -3.7 4.8
-14 0 -3 13 7.7
0 -14 -3 3.8 6
14 0 3 18.9 9.4
0 -14 -3 -1.4 3.3
0 -14 -3 2.4 4.4
-1 13 3 71.59 8
-1 13 3 70.19 8.8
-13 1 -3 76.19 8.4
1 -13 -3 72.39 8.2
1 -13 -3 64.09 7.6
1 -13 -3 81.79 8.4
13 -1 3 79.49 11.2
-2 12 3 272.17 25.7
-2 12 3 306.37 29.2
2 -12 -3 279.97 26.2
2 -12 -3 295.77 26.3
12 -2 3 287.57 26.8
2 -12 -3 273.07 25
-11 3 -3 117.69 18.8
-3 11 3 74.59 8.5
-3 11 3 84.79 10
3 -11 -3 93.69 13
11 -3 3 87.29 21.1
3 -11 -3 75.39 8.3
3 -11 -3 64.39 8.7
3 -11 -3 81.99 8.9
3 -11 -3 93.19 9
-10 4 -3 -4.3 2.9
-4 10 3 1.1 6.5
-4 10 3 -4.3 8.2
-10 4 -3 17 13.2
4 -10 -3 -2 4.9
4 -10 -3 2.4 2.8
10 -4 3 28.7 22.5
4 -10 -3 -2.1 2.9
4 -10 -3 3.6 3.4
4 -10 -3 1.6 4.7
-5 9 3 3 3.7
-9 5 -3 -5.2 3.6
-9 5 -3 -6.5 15.2
-5 9 3 -0.4 10.8
9 -5 3 6.4 25.8
5 -9 -3 -0.4 2.4
5 -9 -3 0.5 3.2
5 -9 -3 -3.7 9.7
5 -9 -3 1.2 4.2
-8 6 -3 107.79 13.8
-6 8 3 113.59 11.6
-6 8 3 127.59 16.4
-8 6 -3 108.19 13.5
6 -8 -3 142.99 15.3
6 -8 -3 124.59 11.9
8 -6 3 173.78 27.4
6 -8 -3 124.39 12.1
6 -8 -3 125.39 12.1
-7 7 -3 394.96 35.4
-7 7 -3 370.16 49.3
-7 7 3 427.66 36.8
7 -7 -3 338.07 36.1
7 -7 -3 402.16 34.4
7 -7 3 388.26 35.2
7 -7 3 446.16 47
7 -7 -3 426.86 34.9
7 -7 -3 437.46 38.4
-6 8 -3 115.89 24
-8 6 3 159.88 15.1
6 -8 3 150.58 18.2
6 -8 3 149.99 18.1
8 -6 -3 131.99 13.6
8 -6 -3 115.19 13.3
8 -6 -3 150.38 16.7
8 -6 -3 157.78 16.1
8 -6 -3 156.08 14.7
-5 9 -3 20.4 28.1
-5 9 -3 -3.8 9.5
-5 9 -3 4.2 19.8
5 -9 3 2.5 2.7
9 -5 -3 -5.2 11.5
5 -9 3 5.3 9.3
5 -9 3 14.8 14.1
9 -5 -3 -3.4 3.4
9 -5 -3 4.9 3.7
-4 10 -3 -2.6 4.4
-10 4 3 2.5 3.6
-4 10 -3 -29.8 28.6
10 -4 -3 10.5 13.1
10 -4 -3 0.8 6.8
4 -10 3 -12.3 6.7
10 -4 -3 0.3 6.3
10 -4 -3 0.7 7
4 -10 3 7.4 6.2
10 -4 -3 -6.7 3.8
-3 11 -3 69.39 9.6
-11 3 3 83.89 8.3
11 -3 -3 82.39 10.5
11 -3 -3 76.09 10.1
11 -3 -3 83.69 8.9
11 -3 -3 98.49 14.8
11 -3 -3 98.49 9
11 -3 -3 74.89 9.3
3 -11 3 102.29 12.4
-2 12 -3 385.16 31.6
12 -2 -3 365.36 33.7
12 -2 -3 318.07 30.7
2 -12 3 296.97 34.8
12 -2 -3 395.96 32.3
12 -2 -3 342.27 31.5
-13 1 3 94.29 9.1
-1 13 -3 102.09 9.7
1 -13 3 75.79 10.5
13 -1 -3 72.59 9.8
13 -1 -3 97.79 15.2
13 -1 -3 89.49 9.6
13 -1 -3 74.79 9.1
-14 0 3 -1.7 4.6
0 -14 3 -0.7 5.5
14 0 -3 1.6 5.1
14 0 -3 4.2 4.7
1 15 -3 14.7 7.3
15 1 -3 19 6.8
15 1 -3 10.4 10.2
-16 -2 3 38.7 6.5
2 16 -3 41.8 6.9
16 2 -3 35.5 6.6
16 2 -3 31.7 8.2
3 17 -3 94.09 10.7
-17 -3 3 101.99 10.7
17 3 -3 98.89 12.3
17 3 -3 93.79 11.7
17 3 -3 82.89 10.8
2 17 3 -10.5 6.6
-17 -2 -3 -4 4.7
2 17 3 -6.6 4.6
-2 -17 -3 3.3 5.3
-2 -17 -3 6.9 3.8
1 16 3 118.69 12.6
-16 -1 -3 101.49 11.6
1 16 3 107.49 11.2
-1 -16 -3 108.79 11.1
-1 -16 -3 113.89 11.8
16 1 3 82.89 11.7
0 15 3 261.57 25.7
0 15 3 216.08 21.4
-15 0 -3 244.08 29.4
0 -15 -3 249.18 22.4
0 -15 -3 222.18 22.4
0 -15 -3 243.68 24.5
-14 1 -3 115.09 11.1
-1 14 3 114.39 11.4
-1 14 3 94.79 10.2
1 -14 -3 90.69 10.7
1 -14 -3 86.99 10.3
14 -1 3 114.59 12
1 -14 -3 107.69 10.9
2 -13 -3 5.9 4
13 -2 3 15.6 14.4
2 -13 -3 5.5 5.6
-3 12 3 11.2 11
-3 12 3 5.2 11.6
-12 3 -3 2.8 6
12 -3 3 3.2 9.2
3 -12 -3 13.1 5.8
3 -12 -3 5.5 4.4
3 -12 -3 4.9 8.5
-4 11 3 242.58 21.7
-11 4 -3 203.48 21.8
-4 11 3 236.58 22.4
4 -11 -3 249.28 23
4 -11 -3 237.98 21.9
4 -11 -3 248.28 22.1
4 -11 -3 207.98 20.8
11 -4 3 292.17 36.6
-5 10 3 737.33 62.69
-5 10 3 708.83 65.29
5 -10 -3 690.53 61.79
5 -10 -3 631.64 64.39
5 -10 -3 744.03 63.79
5 -10 -3 719.83 60.39
5 -10 -3 721.73 62.99
10 -5 3 842.92 64.89
-6 9 3 222.28 26.9
-6 9 3 226.98 26.3
-9 6 -3 271.07 24.6
6 -9 -3 239.88 23.3
9 -6 3 260.77 33.4
6 -9 -3 238.38 24.1
6 -9 -3 249.58 24.2
6 -9 -3 244.68 28.1
6 -9 -3 243.88 22.8
-8 7 -3 2.3 3.4
-7 8 3 3.2 11.3
7 -8 -3 1.3 3.5
7 -8 -3 5.1 4.5
7 -8 -3 3.1 4.4
8 -7 3 2.3 3.5
8 -7 3 5.7 4.9
7 -8 -3 8.9 5.7
-7 8 -3 16.4 27.4
-7 8 -3 -2.9 15.6
-8 7 3 4.6 6.1
8 -7 -3 -0.9 3.8
7 -8 3 14.2 14.3
8 -7 -3 5.6 2.7
8 -7 -3 5.4 4.5
7 -8 3 4.3 6.4
8 -7 -3 4.4 4.7
-6 9 -3 161.58 31.2
-6 9 -3 187.88 21
-6 9 -3 173.08 37.1
9 -6 -3 194.38 19.2
9 -6 -3 245.18 20.3
6 -9 3 184.28 20.8
6 -9 3 249.38 30.3
9 -6 -3 239.28 21
9 -6 -3 220.08 19.4
9 -6 -3 254.77 20
-5 10 -3 811.72 66.59
10 -5 -3 778.52 66.09
10 -5 -3 705.13 66.09
5 -10 3 749.73 65.39
10 -5 -3 793.52 67.79
-11 4 3 207.98 22
11 -4 -3 250.47 21.5
4 -11 3 246.38 21.4
11 -4 -3 272.17 27.4
11 -4 -3 213.18 22
11 -4 -3 215.38 20.3
-3 12 -3 -0.1 7.4
-12 3 3 3.6 3.8
12 -3 -3 7.1 5.8
12 -3 -3 7.4 14.4
12 -3 -3 -1 5.8
3 -12 3 17 15.2
12 -3 -3 0.8 7
-2 13 -3 -1.4 3.5
13 -2 -3 5.7 4.6
13 -2 -3 7.9 5.8
2 -13 3 13.1 5.5
13 -2 -3 2.7 11.4
13 -2 -3 7.6 6.3
-1 14 -3 97.69 10.6
-14 1 3 123.69 10.7
1 -14 3 84.69 11.2
14 -1 -3 92.59 10.1
14 -1 -3 112.09 11.7
14 -1 -3 105.19 12.6
14 -1 -3 113.19 11.3
0 15 -3 226.88 20.5
-15 0 3 220.38 23.1
15 0 -3 208.48 21.5
0 -15 3 186.38 21.1
15 0 -3 253.27 25.3
15 0 -3 220.58 20.4
15 0 -3 274.07 29.5
-16 -1 3 140.89 14.7
16 1 -3 144.79 16.9
16 1 -3 114.29 18.3
16 1 -3 136.19 15.2
16 1 -3 134.69 14.1
-17 -2 3 -7.9 4.7
17 2 -3 4.2 5.6
17 2 -3 8.1 5.9
17 2 -3 10.1 7.3
-17 -1 -3 61.89 7.8
1 17 3 49.6 7.3
1 17 3 67.49 9.5
-1 -17 -3 43.5 6.6
-1 -17 -3 57.09 7.4
0 16 3 -2.4 4.3
0 16 3 -2.1 4.2
16 0 3 41.5 19.5
-15 1 -3 1.9 7.5
-1 15 3 14.7 5.5
1 -15 -3 7.7 7.5
1 -15 -3 26 5.5
15 -1 3 1.4 11.6
-14 2 -3 17.2 4
-2 14 3 22.7 4.8
-2 14 3 27.5 5.4
2 -14 -3 17.2 4
2 -14 -3 16.3 4
14 -2 3 9 8
2 -14 -3 11.3 4.7
-3 13 3 104.09 10.7
-13 3 -3 124.79 12.6
-3 13 3 99.49 11.4
3 -13 -3 106.19 11.6
3 -13 -3 118.99 11.3
13 -3 3 113.09 16.1
3 -13 -3 96.29 11.2
-4 12 3 92.39 10.4
-4 12 3 95.79 10
4 -12 -3 104.09 11
4 -12 -3 118.89 11.2
4 -12 -3 102.69 11.3
12 -4 3 96.59 10.6
-5 11 3 -5 9.9
-5 11 3 -11 10.7
-11 5 -3 6.7 18.5
5 -11 -3 -1.2 3.2
5 -11 -3 1.3 3.1
11 -5 3 4.8 25
5 -11 -3 1.2 8
5 -11 -3 7.8 3.6
-6 10 3 -3.4 5.1
-6 10 3 6.1 12.1
-10 6 -3 5.9 10.9
6 -10 -3 7.3 4.9
6 -10 -3 5.7 5.2
10 -6 3 5.6 5.5
6 -10 -3 5.3 6.4
6 -10 -3 7.1 5.2
6 -10 -3 -4.8 7.1
-7 9 3 109.99 18.1
-7 9 3 90.99 20.2
-9 7 -3 100.19 11.2
-9 7 -3 127.49 18
7 -9 -3 105.29 11.3
9 -7 3 135.29 17.7
7 -9 -3 95.79 10.9
7 -9 -3 106.69 11.3
7 -9 -3 110.19 15.6
7 -9 -3 123.29 11.1
-8 8 3 77.79 10.6
-8 8 -3 88.99 9.1
8 -8 -3 69.49 8
8 -8 3 92.59 11.8
8 -8 -3 86.59 9.1
8 -8 -3 66.09 8.6
8 -8 -3 73.89 9.5
8 -8 3 85.19 10.3
9 -7 -3 121.09 16
9 -7 -3 130.59 12.1
9 -7 -3 95.89 11.4
7 -9 3 119.09 13.9
9 -7 -3 111.19 10.9
9 -7 -3 128.69 12.8
9 -7 -3 99.49 11.7
7 -9 3 125.19 17.8
6 -10 3 8.4 10.6
10 -6 -3 5.5 4.2
10 -6 -3 4.2 5.5
6 -10 3 2.9 13.7
10 -6 -3 6.2 5.7
-5 11 -3 0.8 7.8
11 -5 -3 2.4 10.9
11 -5 -3 -1.2 4.4
5 -11 3 -0.8 8.9
11 -5 -3 -3.4 6.3
5 -11 3 -7.6 7.3
11 -5 -3 0 4.2
11 -5 -3 9.1 6
11 -5 -3 -7.9 8.8
-12 4 3 128.19 12.4
-4 12 -3 129.19 11.9
4 -12 3 101.99 13
12 -4 -3 122.49 13.2
12 -4 -3 117.49 12.4
12 -4 -3 96.59 10.9
12 -4 -3 96.99 11.6
12 -4 -3 130.59 11.8
12 -4 -3 107.69 13.3
-3 13 -3 111.89 11.2
-13 3 3 106.89 11
3 -13 3 121.99 12.9
13 -3 -3 107.09 13.1
13 -3 -3 116.79 11.1
13 -3 -3 93.89 10.2
13 -3 -3 110.99 11.2
-14 2 3 30.9 4.6
-2 14 -3 20.3 5.6
14 -2 -3 27.8 8.2
14 -2 -3 27.2 6.1
14 -2 -3 16.3 4.5
15 -1 -3 4.5 18.8
15 -1 -3 2.6 4.8
15 -1 -3 4 6.7
-16 0 3 1.6 5.5
16 0 -3 1 6.1
0 -16 3 4.8 5.7
16 0 -3 -12.3 13.6
-17 -1 3 56.59 7.6
1 17 -3 65.29 8.6
17 1 -3 62.99 11.2
17 1 -3 77.79 10.7
17 1 -3 68.09 9.3
-17 0 -3 48.8 7
0 17 3 39.1 6.8
0 -17 -3 43.9 7.4
-16 1 -3 118.79 12.1
-1 16 3 108.79 12.3
-1 16 3 86.49 10.2
1 -16 -3 92.09 10.5
16 -1 3 118.19 16.8
1 -16 -3 118.29 11.9
-2 15 3 8.7 4.7
2 -15 -3 14.5 5.2
2 -15 -3 12.9 4.1
-14 3 -3 7.5 4.5
-3 14 3 8.2 3.3
3 -14 -3 14 5
14 -3 3 7.5 4.7
3 -14 -3 4.2 4.7
-13 4 -3 27 4.8
-4 13 3 17.9 4.1
-4 13 3 32.8 5.7
4 -13 -3 33.6 5.9
4 -13 -3 24.6 4.9
-5 12 3 25.5 7.1
-5 12 3 9.4 7.8
5 -12 -3 17.4 4.5
5 -12 -3 17.6 4.9
5 -12 -3 20.5 3.8
12 -5 3 21.1 8.4
5 -12 -3 9 7
-6 11 3 173.08 19.7
-6 11 3 178.38 17.7
-11 6 -3 196.78 18.8
11 -6 3 254.37 29.7
6 -11 -3 201.78 17.6
6 -11 -3 213.48 19.1
6 -11 -3 186.68 18.6
6 -11 -3 189.28 18.1
6 -11 -3 200.38 19.1
-10 7 -3 24.3 9.3
-7 10 3 23.5 6.8
-10 7 -3 18 4.9
-7 10 3 21.1 4.3
7 -10 -3 12.5 5.2
10 -7 3 31.1 5.9
7 -10 -3 26.7 5.4
7 -10 -3 16.4 5.9
7 -10 -3 29.7 5.3
7 -10 -3 28.5 5.4
8 -9 -3 27.3 5
8 -9 -3 25.1 5
8 -9 -3 29.9 5.8
8 -9 -3 20.8 5
9 -8 3 29.8 4.9
9 -8 3 29.3 4.3
-9 8 3 28.5 6.3
-8 9 -3 36.5 5.9
9 -8 -3 36.1 6.3
8 -9 3 29.9 5.6
9 -8 -3 38.6 5.6
9 -8 -3 34.5 5.8
9 -8 -3 39 6.9
9 -8 -3 30.3 6.2
-7 10 -3 15.1 5.4
-10 7 3 22.4 4.7
10 -7 -3 11.6 10.2
10 -7 -3 21.4 5.8
7 -10 3 23.4 6.6
10 -7 -3 22.9 6.4
7 -10 3 14.3 6.3
10 -7 -3 19.4 5.7
11 -6 -3 177.18 18.1
11 -6 -3 164.98 17.3
11 -6 -3 188.38 17.5
6 -11 3 192.58 20
11 -6 -3 182.78 16.9
11 -6 -3 197.88 19.8
-5 12 -3 17.6 4.6
12 -5 -3 37 8
12 -5 -3 13.1 5.5
12 -5 -3 21.8 10.6
12 -5 -3 32 5.5
12 -5 -3 22.9 4
12 -5 -3 19.2 3.7
5 -12 3 23.9 7.4
-4 13 -3 30.2 5.9
4 -13 3 22.8 5.8
13 -4 -3 31.1 5.4
13 -4 -3 38.3 5.5
13 -4 -3 26.4 7.3
13 -4 -3 29.9 5.2
13 -4 -3 19.7 6.8
13 -4 -3 40 7.7
-3 14 -3 2.9 5.1
-14 3 3 9.3 3.5
14 -3 -3 17.6 4.4
3 -14 3 17.8 5
14 -3 -3 11.2 4.2
14 -3 -3 8.2 5.3
14 -3 -3 21.8 6
14 -3 -3 14.9 4.4
-2 15 -3 -0.2 5
-15 2 3 4.8 3.7
2 -15 3 3.3 5.2
15 -2 -3 3.5 5.2
15 -2 -3 11.5 4.7
15 -2 -3 3.9 13.2
15 -2 -3 -0.1 6
-16 1 3 119.59 11.5
-1 16 -3 115.29 11.9
1 -16 3 96.59 13
16 -1 -3 97.19 11.5
16 -1 -3 107.99 12.7
16 -1 -3 111.89 14.1
16 -1 -3 138.29 13.4
-17 0 3 48 6.7
0 17 -3 49.4 7.3
17 0 -3 30.1 8.5
-1 17 3 53.49 6.1
-17 1 -3 45.5 7
1 -17 -3 53.39 6.5
17 -1 3 35.8 6.7
-2 16 3 37.9 7.9
-16 2 -3 34.5 6.3
2 -16 -3 37.8 5.5
16 -2 3 33.7 12.3
2 -16 -3 33.1 5.5
-15 3 -3 3 3.6
-3 15 3 10.3 5.6
15 -3 3 -4.9 5.9
3 -15 -3 -8 4.8
3 -15 -3 -9.1 4
3 -15 -3 2.4 3.8
-4 14 3 14.8 4.8
14 -4 3 -3.2 7.9
4 -14 -3 4.9 5.4
-5 13 3 0.6 4.8
-13 5 -3 4.8 5.1
-5 13 3 3.2 4
5 -13 -3 1.4 4.7
13 -5 3 -0.3 5.6
5 -13 -3 2.3 4.7
-12 6 -3 120.49 11.5
-6 12 3 100.89 11.4
12 -6 3 79.79 10.5
6 -12 -3 99.99 11
6 -12 -3 96.39 11.1
6 -12 -3 95.19 10.6
6 -12 -3 108.29 10
-7 11 3 80.29 10.5
-7 11 3 98.19 12.3
-11 7 -3 103.09 11.7
7 -11 -3 111.49 11.5
11 -7 3 113.49 14.1
7 -11 -3 102.09 11.9
7 -11 -3 104.39 11.7
7 -11 -3 96.79 9.9
-8 10 3 -6.4 6.6
-10 8 -3 -3.6 7.1
-8 10 3 -3.4 6.7
8 -10 -3 -2.9 4.9
10 -8 3 0.1 7.6
10 -8 3 7.3 7.6
8 -10 -3 8.4 5.1
8 -10 -3 0.9 5.3
8 -10 -3 6 4.8
8 -10 -3 -4.3 4.8
-9 9 3 3.9 3.8
9 -9 -3 5.3 4.2
9 -9 3 2.1 4.4
9 -9 -3 -3 5.2
9 -9 -3 3.8 4
9 -9 -3 9.3 4.2
-10 8 3 -1 4.5
10 -8 -3 3.4 4.5
10 -8 -3 -3.5 4.5
8 -10 3 -2.1 4.7
10 -8 -3 7.8 5.4
10 -8 -3 0.4 4
8 -10 3 5.3 5.7
-7 11 -3 102.79 10.4
-11 7 3 94.49 9.1
11 -7 -3 76.19 8.9
7 -11 3 70.89 8.8
11 -7 -3 93.59 10.5
7 -11 3 107.99 11.8
11 -7 -3 73.69 8.9
11 -7 -3 94.89 10.2
11 -7 -3 92.39 10.5
-6 12 -3 99.29 11
6 -12 3 84.19 10.9
6 -12 3 98.39 12.7
12 -6 -3 101.09 12.2
12 -6 -3 117.29 13.2
12 -6 -3 112.29 11.2
12 -6 -3 120.49 15.7
12 -6 -3 112.19 11.7
-5 13 -3 7.2 4.9
13 -5 -3 4.7 5.3
5 -13 3 8.7 4.9
13 -5 -3 -5.2 4.1
13 -5 -3 9.5 6.6
13 -5 -3 -5.1 4.6
13 -5 -3 -2.1 3.8
13 -5 -3 -6.3 4.2
-4 14 -3 10.3 5
14 -4 -3 6.4 4.6
14 -4 -3 1.4 6.1
14 -4 -3 4.4 4.7
14 -4 -3 4.1 8
14 -4 -3 5 4.4
-15 3 3 -3.9 3.7
-3 15 -3 -9.6 5.4
15 -3 -3 3.2 5.1
3 -15 3 -6.3 6.6
15 -3 -3 8.9 5.1
15 -3 -3 2.4 4.3
15 -3 -3 7.6 6.3
-16 2 3 50.99 6.6
16 -2 -3 45.8 11
2 -16 3 50.89 8.9
16 -2 -3 41.2 7.2
-17 1 3 52.79 6.7
-1 17 -3 65.79 8.1
17 -1 -3 44.5 10
17 -1 -3 67.79 9.6
1 -17 3 41.1 7.3
2 -17 -3 12.7 6.2
17 -2 3 13.9 8.8
-16 3 -3 5.2 3.7
-3 16 3 3.4 4.7
-3 16 3 12.7 6
16 -3 3 -5.4 10.1
3 -16 -3 13.9 5.7
3 -16 -3 0.1 3.6
-15 4 -3 97.19 10.9
-4 15 3 84.89 9.6
-4 15 3 99.29 11
15 -4 3 96.49 11.3
4 -15 -3 98.59 10.8
4 -15 -3 96.79 10.6
4 -15 -3 88.59 10.5
-14 5 -3 114.89 13.1
-5 14 3 130.59 13.8
-5 14 3 122.09 12.8
14 -5 3 152.98 19
5 -14 -3 147.09 13.7
5 -14 -3 131.89 13.4
-13 6 -3 40.8 7.3
-6 13 3 29.3 5.8
6 -13 -3 35.8 6.6
6 -13 -3 30.6 5.7
6 -13 -3 36.4 6.9
-7 12 3 -1.8 4.7
-7 12 3 -3.8 2.9
-12 7 -3 -7.5 9.6
7 -12 -3 1.4 4.2
12 -7 3 -0.6 11
7 -12 -3 -0.3 5.7
7 -12 -3 2.7 3.7
7 -12 -3 -5.6 4.9
7 -12 -3 -6 4.2
-8 11 3 25.1 9.8
-8 11 3 20.4 13.9
-11 8 -3 31.3 8
8 -11 -3 19.6 10.5
8 -11 -3 19 5.4
11 -8 3 26.7 9
8 -11 -3 26.6 4.7
8 -11 -3 24.3 6.1
8 -11 -3 22.6 5.6
11 -8 3 23.2 8.9
-9 10 3 201.68 22.3
-10 9 -3 194.98 18.5
10 -9 3 210.08 23.6
9 -10 -3 196.28 18.2
9 -10 -3 179.08 18.9
9 -10 -3 153.18 18.1
10 -9 3 246.58 30.1
9 -10 -3 157.48 17.2
9 -10 -3 224.28 19.9
10 -9 -3 168.48 17.1
10 -9 -3 209.18 18.3
9 -10 3 206.78 24.4
10 -9 -3 154.58 17.8
9 -10 3 186.18 24
-11 8 3 38 8.5
8 -11 3 32.6 6
8 -11 3 24.4 6.2
11 -8 -3 31.1 5.7
11 -8 -3 31.5 6.7
11 -8 -3 36.3 7.9
11 -8 -3 41 7.3
-7 12 -3 3.8 5.3
12 -7 -3 4 5.9
12 -7 -3 7.9 5.5
12 -7 -3 -8 8
7 -12 3 1.4 6.9
-6 13 -3 21.4 5.1
13 -6 -3 34 8.4
6 -13 3 27.7 6.3
13 -6 -3 20.5 5
13 -6 -3 33.6 6.2
13 -6 -3 25 6.9
13 -6 -3 29.1 7.2
5 -14 3 141.49 17.3
14 -5 -3 173.38 19.2
14 -5 -3 131.99 16.3
14 -5 -3 176.98 15.4
14 -5 -3 150.18 15.9
14 -5 -3 131.19 14.4
-4 15 -3 109.19 11.3
15 -4 -3 111.89 11.4
15 -4 -3 88.19 9.9
15 -4 -3 118.79 12.1
15 -4 -3 109.79 14.1
15 -4 -3 98.19 12.1
4 -15 3 84.69 12.5
15 -4 -3 76.19 12.4
-3 16 -3 0.9 4.9
16 -3 -3 15.8 7.4
16 -3 -3 11.8 5.6
3 -16 3 9.5 5.1
16 -3 -3 -13.3 10.1
16 -3 -3 6 5.4
-17 2 3 4 4.1
-2 17 -3 2.4 5
17 -2 -3 2.3 6.1
17 -2 -3 3.8 5.1
2 -17 3 -8.4 7.1
17 -2 -3 -4.4 6.5
-17 3 -3 63.89 7.9
3 -17 -3 67.49 8.5
17 -3 3 63.69 8.2
4 -16 -3 -0.6 5.6
4 -16 -3 14.7 4.5
4 -16 -3 14.3 6.1
16 -4 3 15.5 11.3
-5 15 3 -7.7 5
-15 5 -3 3.8 6.9
5 -15 -3 3 5.3
15 -5 3 2.8 7.1
5 -15 -3 5.8 4.3
5 -15 -3 2.5 4.2
-6 14 3 13.9 8.9
-14 6 -3 19.7 6.1
6 -14 -3 18.1 4.7
-13 7 -3 126.49 13.1
-7 13 3 118.69 12.6
7 -13 -3 123.49 14.1
7 -13 -3 145.99 14.3
13 -7 3 123.79 13.5
7 -13 -3 147.29 14.3
7 -13 -3 104.69 11.7
-8 12 3 125.89 13.9
-12 8 -3 143.59 14.9
-8 12 3 138.59 14.7
12 -8 3 146.39 21.9
8 -12 -3 146.19 15.2
8 -12 -3 170.68 15.1
8 -12 -3 141.79 15.5
8 -12 -3 154.38 14.9
12 -8 3 169.08 24.2
8 -12 -3 146.99 15
-9 11 3 23 6.3
9 -11 -3 26.3 7
11 -9 3 16.3 8.4
9 -11 -3 29.4 6.6
9 -11 -3 32.1 6.2
-10 10 3 -7.9 4.9
-10 10 -3 8.4 5.8
10 -10 -3 -0.7 4.8
10 -10 -3 4.5 6
10 -10 -3 -6.6 3.5
-9 11 -3 26.1 6.9
-11 9 3 18.8 5.7
11 -9 -3 18.7 6.2
11 -9 -3 27.7 6.1
-8 12 -3 124.69 14.1
8 -12 3 164.88 16.4
12 -8 -3 119.79 15.7
8 -12 3 148.49 15.1
12 -8 -3 155.88 16
12 -8 -3 174.08 18.7
12 -8 -3 132.69 15
12 -8 -3 136.79 15
-7 13 -3 159.98 14.7
13 -7 -3 152.68 15
7 -13 3 130.99 16
13 -7 -3 147.69 21
13 -7 -3 128.99 15.7
13 -7 -3 121.59 13.7
13 -7 -3 139.69 15.1
-6 14 -3 17.3 4.7
14 -6 -3 14.9 6.6
14 -6 -3 24.7 13
14 -6 -3 10.3 3.5
14 -6 -3 16.5 5.3
-5 15 -3 -5.4 6
15 -5 -3 -6.5 5.2
15 -5 -3 0.6 3.1
15 -5 -3 -7.6 5.6
5 -15 3 8.1 7.8
15 -5 -3 -9.1 6.8
15 -5 -3 3.2 12
15 -5 -3 -13 6.6
-4 16 -3 14.8 6.4
4 -16 3 0.6 6.4
16 -4 -3 5.2 7.3
16 -4 -3 -3.9 7.1
16 -4 -3 6.2 7.1
-3 17 -3 106.49 10.6
17 -3 -3 101.79 12
17 -3 -3 66.99 10.9
3 -17 3 70.29 11.9
17 -3 -3 81.39 13.3
17 -3 -3 87.79 11.7
-17 4 -3 8.4 5
-4 17 3 1.4 5
4 -17 -3 15 4.6
17 -4 3 11.9 8.2
-16 5 -3 180.48 17.3
-5 16 3 167.48 16.3
16 -5 3 153.78 28.4
5 -16 -3 145.69 15.7
5 -16 -3 176.58 17.5
5 -16 -3 166.28 17.4
-6 15 3 108.09 11.5
-15 6 -3 114.69 12.2
6 -15 -3 132.59 13.7
6 -15 -3 111.39 12.5
6 -15 -3 104.29 11.5
15 -6 3 121.89 15.1
-14 7 -3 7.4 5.8
-7 14 3 -4.4 4.9
7 -14 -3 6.1 5.1
7 -14 -3 6.1 6.1
14 -7 3 -1.2 5.6
-13 8 -3 0.2 5.9
-8 13 3 3.8 4.9
13 -8 3 5.1 5.9
8 -13 -3 4.4 5.1
8 -13 -3 4 3.3
8 -13 -3 -8.1 5.8
13 -8 3 5.6 3.6
8 -13 -3 5.9 5.7
-9 12 3 1.3 6.3
-9 12 3 3.1 7.3
9 -12 -3 -2 5.9
9 -12 -3 1.1 4.9
9 -12 -3 1 5.3
12 -9 3 14.8 10.8
12 -9 3 16.3 17.1
9 -12 -3 3 5.5
-10 11 3 159.58 18.8
-10 11 3 191.48 22.3
10 -11 -3 171.58 17.8
10 -11 -3 187.58 18.4
10 -11 -3 196.48 19.4
10 -11 -3 218.88 18.6
11 -10 3 259.77 40.3
11 -10 3 190.48 18.1
-11 10 3 200.88 20
10 -11 3 209.88 24.8
11 -10 -3 195.78 20.5
11 -10 -3 208.38 20
10 -11 3 202.88 28.9
-9 12 -3 2.3 7.4
-12 9 3 11.1 17.1
9 -12 3 -0.9 6.7
9 -12 3 20.7 7.8
12 -9 -3 13.1 5.3
12 -9 -3 7.5 4.7
12 -9 -3 11.4 6.4
12 -9 -3 21.8 5.2
-8 13 -3 -3.8 5.9
-13 8 3 -5.4 7.7
13 -8 -3 -2.8 5.1
13 -8 -3 5 6.4
13 -8 -3 -1.6 6.8
13 -8 -3 -8.3 5.6
8 -13 3 -5.4 5.1
13 -8 -3 -7.9 4.3
-7 14 -3 10.4 6.2
14 -7 -3 3 4
14 -7 -3 -1.3 5.8
7 -14 3 9.4 5.4
14 -7 -3 8.5 5.3
14 -7 -3 18.4 6.4
-6 15 -3 118.19 11.7
15 -6 -3 88.49 12.8
15 -6 -3 88.09 10.7
15 -6 -3 97.19 12
15 -6 -3 105.49 11.4
15 -6 -3 123.39 11.6
15 -6 -3 90.99 16.7
-5 16 -3 162.48 15.3
5 -16 3 167.98 17.3
16 -5 -3 157.08 21.5
16 -5 -3 156.58 15.9
16 -5 -3 141.09 16.3
16 -5 -3 122.79 16.9
-4 17 -3 15.1 5.6
17 -4 -3 7.2 7.8
17 -4 -3 11.9 8.8
17 -4 -3 19.6 7.4
6 -16 -3 6.4 6.9
16 -6 3 5.9 13
-15 7 -3 -3.2 5.9
15 -7 3 -8.4 6.7
7 -15 -3 3.4 4.7
7 -15 -3 1.7 5.7
7 -15 -3 5.4 5.8
-8 14 3 -0.4 5.1
8 -14 -3 12.4 4.5
8 -14 -3 -5.3 5.4
14 -8 3 4.9 3.7
14 -8 3 1.2 4.5
8 -14 -3 17.5 7.3
-13 9 -3 19 6.2
-9 13 3 30.3 5.8
13 -9 3 23.1 7.1
9 -13 -3 9.6 5.6
13 -9 3 23.3 4.5
9 -13 -3 16.6 4.5
9 -13 -3 16.7 6
-10 12 3 4 4.4
10 -12 -3 5.9 6.5
10 -12 -3 -6 5.5
10 -12 -3 2.1 5
10 -12 -3 1.6 6.2
12 -10 3 3.4 5.1
10 -12 -3 10.6 4.7
11 -11 -3 12.5 4.7
11 -11 -3 11.1 6.5
11 -11 3 10.6 4.3
-12 10 3 0.9 4.7
10 -12 3 12 5.5
12 -10 -3 -0.8 6.2
10 -12 3 8.4 5.6
12 -10 -3 0.1 5.9
12 -10 -3 14.1 7
-9 13 -3 7.8 4.9
13 -9 -3 17.7 6.9
13 -9 -3 13.5 3.6
-8 14 -3 -10.1 6.9
-14 8 3 3.2 3.7
14 -8 -3 3 4.3
14 -8 -3 0.2 4.2
14 -8 -3 9 6.7
14 -8 -3 0.4 6.4
8 -14 3 4.8 7.4
-7 15 -3 -13.5 7.4
15 -7 -3 2.4 5.6
15 -7 -3 -1 8
15 -7 -3 -12.7 6
15 -7 -3 -1.2 5.9
15 -7 -3 -1.8 5.5
-6 16 -3 7.4 7.3
16 -6 -3 6.4 6.4
16 -6 -3 24.5 8.1
16 -6 -3 5.5 4.7
6 -16 3 7.8 5.8
16 -6 -3 5.4 10.7
-7 16 3 10.5 5.4
-16 7 -3 5 4.3
16 -7 3 10.9 6
7 -16 -3 25.6 6.8
7 -16 -3 -0.2 5.4
7 -16 -3 -3.3 6.2
-15 8 -3 19.5 6.6
-8 15 3 10.1 5.6
8 -15 -3 7.8 5.7
15 -8 3 4.6 3.8
8 -15 -3 2 7.2
-9 14 3 29.3 6.9
-14 9 -3 32.4 8
9 -14 -3 40.7 7.1
9 -14 -3 42.5 8.2
9 -14 -3 46.8 7.5
14 -9 3 42.2 6.2
-10 13 3 25.4 5.7
10 -13 -3 12.4 5.7
10 -13 -3 3.1 6.8
-11 12 3 -5.2 5.1
11 -12 -3 17.9 6.1
11 -12 -3 2.9 6.4
12 -11 3 18.4 5.8
11 -12 -3 5.5 4.3
-12 11 3 0.9 3.7
12 -11 -3 2.9 4.9
12 -11 -3 -4.1 6
12 -11 -3 4.6 6.1
-13 10 3 23.7 5.4
13 -10 -3 24.1 7
13 -10 -3 33.5 6.3
13 -10 -3 30.1 6.2
-9 14 -3 39.5 7.3
-14 9 3 49.1 7
14 -9 -3 39.8 8
14 -9 -3 41.9 8.5
14 -9 -3 49.1 9.5
-15 8 3 19.5 4.7
-8 15 -3 8.2 7.2
15 -8 -3 10.6 4.5
15 -8 -3 22 7.3
15 -8 -3 32.5 5.9
-7 16 -3 -2.5 7.4
16 -7 -3 -3.3 3.3
7 -16 3 15.4 7
16 -7 -3 -8.6 6.1
16 -7 -3 -9.4 6.9
16 -7 -3 15.7 6.7
-9 15 3 5.8 5.6
-15 9 -3 -2.6 4.5
15 -9 3 -6.5 7.1
15 -9 3 -4.2 5.3
9 -15 -3 -7 5.7
9 -15 -3 1 6.5
-14 10 -3 2.5 7
10 -14 -3 5.4 5.9
14 -10 3 10.5 5.6
10 -14 -3 2.8 7
10 -14 -3 6.1 7
-11 13 3 34 6.3
11 -13 -3 50.19 9.3
11 -13 -3 34.8 7.5
11 -13 -3 41 6.9
11 -13 -3 34.3 7.1
-12 12 3 148.09 15.6
12 -12 3 122.89 15.5
12 -12 -3 119.99 13.5
12 -12 -3 148.29 14.6
12 -12 -3 100.09 14.2
12 -12 -3 114.09 13
12 -12 3 135.59 15.8
-13 11 3 66.79 12.3
13 -11 -3 66.89 9.6
13 -11 -3 57.89 8.5
-14 10 3 -9.4 6.9
10 -14 3 1.5 7.6
14 -10 -3 -9.4 6.4
14 -10 -3 -1.2 4.7
14 -10 -3 -6.2 6.5
14 -10 -3 2.6 6.9
-15 9 3 -0.5 5.4
9 -15 3 3.9 8
15 -9 -3 8.9 7.4
15 -9 -3 0.2 3.5
15 -9 -3 4 7.6
15 -9 -3 7.4 5.8
-11 -11 -4 15.8 4.3
11 11 4 11.2 5.6
-10 -10 -4 2.2 3.4
10 10 4 2.9 7
10 10 4 -4.8 5
9 9 4 37.4 7.9
9 9 4 39.1 5.6
-9 -9 -4 47.7 5.9
8 8 4 193.18 19.3
-8 -8 -4 198.58 19.6
-7 -7 -4 483.75 44.9
-7 -7 -4 533.55 45.4
7 7 4 519.75 47.2
6 6 4 106.39 11.3
-6 -6 -4 101.59 12.9
-6 -6 -4 93.39 9.6
-6 -6 -4 109.39 10.4
6 6 4 103.19 21.4
-5 -5 -4 -2.2 9
5 5 4 -6.3 11.1
5 5 4 3.1 5.4
-4 -4 -4 136.09 13.6
-4 -4 -4 166.78 13.4
4 4 4 138.89 14.2
-4 -4 -4 145.99 16.4
4 4 4 129.19 14
-4 -4 -4 148.99 13.8
3 3 4 646.44 55.39
-3 -3 -4 604.04 52.19
-3 -3 -4 625.24 54.59
-3 -3 -4 600.74 54.69
3 3 4 684.73 56.59
-3 -3 -4 596.94 52.89
-2 -2 -4 534.55 48.6
-2 -2 -4 630.24 47.9
-2 -2 -4 533.55 47.8
-2 -2 -4 594.54 45.7
2 2 4 519.75 49.3
2 2 4 471.45 48.3
1 1 4 313.87 47.9
-1 -1 -4 258.17 37.2
1 1 4 251.27 103.69
0 0 -4 25.4 67.59
0 0 -4 2.4 62.89
0 0 -4 10.2 91.59
0 0 4 4.6 26.5
0 0 4 51.19 27.4
1 1 -4 137.59 14.3
1 1 -4 135.89 12.7
2 2 -4 623.74 51.79
2 2 -4 598.64 48.9
-2 -2 4 480.25 60.89
2 2 -4 607.94 51.09
3 3 -4 440.56 47
3 3 -4 451.55 48.9
3 3 -4 606.64 44.9
-3 -3 4 486.75 49.8
3 3 -4 454.45 46.9
3 3 -4 610.24 45.1
4 4 -4 122.29 10.5
4 4 -4 109.69 10.2
4 4 -4 99.89 11.5
4 4 -4 107.89 10
-4 -4 4 116.69 18.6
4 4 -4 101.59 19.4
5 5 -4 -18 10.8
5 5 -4 -20.7 15.4
5 5 -4 -13.9 6.2
5 5 -4 4 6.9
5 5 -4 -14.4 7.9
5 5 -4 -7.6 4.3
-5 -5 4 -18.2 13.9
6 6 -4 116.69 10.1
6 6 -4 101.69 9.5
6 6 -4 86.79 9.4
-6 -6 4 119.99 13.8
6 6 -4 80.39 10.6
-7 -7 4 545.25 46.1
7 7 -4 476.05 43.1
7 7 -4 419.56 45.4
7 7 -4 523.95 41.3
7 7 -4 504.85 43
8 8 -4 148.99 18.3
8 8 -4 193.68 17.9
8 8 -4 201.08 16.9
9 9 -4 47.2 6.3
-9 -9 4 55.49 7.1
9 9 -4 34.4 7.8
-10 -10 4 -3.8 5.2
10 10 -4 -3.7 4.4
10 10 -4 -2.5 5
11 11 -4 19.5 4.6
11 11 -4 4.8 7.9
-11 -11 4 21.9 5.1
10 11 4 273.17 28.4
11 10 4 288.97 41.2
-10 -11 -4 241.28 36.3
11 10 4 248.88 25.3
9 10 4 172.38 17.8
-10 -9 -4 143.29 16.6
-9 -10 -4 163.08 20.6
10 9 4 159.08 17.1
10 9 4 193.58 17.7
-9 -8 -4 15 4.2
9 8 4 8.6 3.5
-8 -9 -4 11.2 3.9
-8 -7 -4 1.8 5.3
-8 -7 -4 4.8 3.2
-7 -8 -4 -1.3 10
-7 -8 -4 1.7 6.7
8 7 4 3.5 10.5
8 7 4 3.8 6
-7 -6 -4 58.89 6.9
-7 -6 -4 48.5 6.6
6 7 4 68.29 8.4
-6 -7 -4 52.99 6.9
7 6 4 61.59 8.4
7 6 4 46 7.1
-6 -7 -4 56.19 7.5
-6 -7 -4 59.29 7.3
-6 -5 -4 992 97.39
-6 -5 -4 1101.89 97.19
-6 -5 -4 1131.59 89.49
5 6 4 1040.3 96.39
6 5 4 1239.88 96.79
6 5 4 1135.39 96.59
-5 -6 -4 902.91 92.29
-5 -6 -4 1062.09 98.79
-5 -6 -4 1033.5 91.89
-5 -4 -4 724.03 70.09
-5 -4 -4 814.82 66.99
-5 -4 -4 780.52 70.59
4 5 4 740.53 72.29
5 4 4 829.82 72.49
-4 -5 -4 811.22 67.09
5 4 4 875.71 71.59
-4 -5 -4 813.12 69.89
-4 -5 -4 821.32 69.89
-4 -5 -4 823.32 69.69
3 4 4 49.8 7
-4 -3 -4 49.99 7.1
-4 -3 -4 57.49 6.7
-4 -3 -4 51.89 5.8
3 4 4 59.99 11.9
-3 -4 -4 54.09 8.9
-3 -4 -4 51.79 6.2
4 3 4 62.59 7.5
-3 -4 -4 47.1 6.2
-3 -4 -4 52.69 5.4
-3 -2 -4 -2.8 4.3
-3 -2 -4 0.7 6.4
2 3 4 21.5 9.2
-3 -2 -4 -2.1 3
2 3 4 0.1 4.6
3 2 4 -1.3 8.5
-2 -3 -4 -2.1 2.2
-2 -3 -4 0.4 4
3 2 4 1.6 4.2
-2 -3 -4 -2.5 4
-2 -3 -4 0.3 4.3
-2 -1 -4 35.9 5.4
1 2 4 53.09 55.39
1 2 4 45.9 4.7
-2 -1 -4 31.3 5.4
-2 -1 -4 34.8 4.5
2 1 4 37 4.8
-1 -2 -4 46.3 5.8
-1 -2 -4 42.5 4.1
-1 -2 -4 42.4 6.9
-1 -2 -4 47.7 6.8
2 1 4 29.7 20.8
0 1 4 1166.58 131.29
-1 0 -4 1359.26 116.99
1 0 4 1344.17 135.99
1 0 4 1530.05 164.68
0 1 -4 1500.65 135.99
-1 0 4 1478.95 166.98
0 -1 4 1496.75 184.48
1 2 -4 33.5 5.6
1 2 -4 51.79 5.8
-2 -1 4 44.3 5.3
1 2 -4 55.29 5.7
-1 -2 4 33.1 5.5
2 1 -4 55.09 7.3
2 1 -4 48.6 5.7
2 1 -4 43.9 5.7
2 3 -4 -12.5 8.4
-3 -2 4 -5.2 8.7
2 3 -4 0.7 2.4
2 3 -4 5.3 5.1
2 3 -4 2.3 3
3 2 -4 -4.2 3.1
3 2 -4 -0.9 3.1
3 2 -4 1.3 8.3
3 2 -4 -2.6 4
3 2 -4 -1 1.9
3 4 -4 31.6 4.4
3 4 -4 28.3 3.6
-4 -3 4 33.6 11.6
3 4 -4 32.8 5.9
3 4 -4 51.19 11
3 4 -4 32.7 10.9
3 4 -4 51.99 8.9
4 3 -4 43 6.7
-3 -4 4 30.8 11.4
-5 -4 4 773.82 69.09
4 5 -4 788.42 58.79
4 5 -4 622.44 65.59
4 5 -4 714.63 69.79
4 5 -4 682.83 68.29
4 5 -4 654.83 63.39
4 5 -4 790.72 61.39
5 4 -4 756.72 63.89
5 4 -4 666.73 64.99
5 4 -4 603.34 58.59
5 4 -4 701.23 71.89
5 4 -4 738.43 65.49
-6 -5 4 841.92 92.29
5 6 -4 888.41 102.49
5 6 -4 1025.6 84.29
5 6 -4 992.3 80.69
5 6 -4 808.92 90.29
-6 -5 4 1112.99 85.19
5 6 -4 931.91 108.19
6 5 -4 854.31 96.19
6 5 -4 1083.59 96.39
6 5 -4 868.31 93.89
6 5 -4 1090.49 80.69
-5 -6 4 1053.59 95.49
6 5 -4 991.3 84.19
-7 -6 4 49.3 5.5
6 7 -4 50.79 5.3
6 7 -4 39.1 8.7
7 6 -4 45.4 9
7 6 -4 45.2 6.7
-6 -7 4 39.8 6.1
7 8 -4 5.9 3.7
7 8 -4 4.4 3.3
-8 -7 4 11.4 9.6
7 8 -4 6.8 2.7
8 7 -4 9.5 4.8
8 7 -4 3 2.5
-7 -8 4 1.1 6
8 7 -4 2 6.3
-9 -8 4 21.2 5.1
-8 -9 4 21.9 5.3
9 10 -4 188.78 20
-10 -9 4 182.58 17
10 9 -4 163.38 20.1
-9 -10 4 168.78 16.9
11 10 -4 231.68 19.9
11 10 -4 177.28 21.1
10 12 4 -1.7 6.9
-10 -12 -4 0.7 4.7
12 10 4 1.5 4.6
9 11 4 46.4 8
11 9 4 38.4 8.4
11 9 4 36.9 7.1
8 10 4 1 4.1
10 8 4 -8.7 12.8
-8 -10 -4 -1.6 3.4
10 8 4 8.6 6.6
7 9 4 117.19 12.7
9 7 4 122.09 19.6
-7 -9 -4 93.19 11
9 7 4 117.09 13
6 8 4 198.58 21.9
-6 -8 -4 188.48 20.1
-6 -8 -4 183.88 19.2
8 6 4 185.08 19.3
8 6 4 220.58 24.2
-6 -8 -4 197.48 18.7
7 5 4 13.9 5.7
-5 -7 -4 6.5 3
7 5 4 4.6 9.3
-5 -7 -4 15.7 4.6
-5 -7 -4 4.8 7.9
-6 -4 -4 112.99 12
-6 -4 -4 110.79 12.2
-4 -6 -4 123.99 12.1
-4 -6 -4 148.89 12.9
-4 -6 -4 129.29 11.7
6 4 4 149.99 13.3
-4 -6 -4 132.89 11.8
6 4 4 121.49 13.1
-5 -3 -4 10.5 2.8
-5 -3 -4 5.6 4.5
-5 -3 -4 -0.6 10.1
3 5 4 5.9 9.7
-5 -3 -4 4.1 11
-3 -5 -4 8.3 6.2
-3 -5 -4 6.5 6
-3 -5 -4 0.9 11
5 3 4 3.4 4.2
-3 -5 -4 2.8 8.6
-4 -2 -4 457.55 38.7
-4 -2 -4 389.06 40.3
2 4 4 509.45 42
-4 -2 -4 438.16 40.5
-2 -4 -4 467.75 41.1
-2 -4 -4 488.85 40.6
4 2 4 439.56 44.3
4 2 4 487.15 42
-3 -1 -4 353.96 30.3
-3 -1 -4 381.66 29.5
-3 -1 -4 340.37 30.3
1 3 4 386.36 30.4
-1 -3 -4 309.57 28.6
3 1 4 304.47 31
-1 -3 -4 302.97 28.8
-1 -3 -4 392.26 30.3
3 1 4 345.17 30.5
-1 -3 -4 293.47 29.9
-2 0 -4 5.3 21.7
-2 0 -4 3.6 58.29
-2 0 -4 3.7 32.1
0 2 4 21.9 43
2 0 4 0.7 26.4
0 -2 -4 20.3 33.4
2 0 4 3.3 3
0 -2 -4 1.8 1.5
-1 1 4 269.27 48.9
1 -1 -4 188.08 26.6
1 -1 -4 199.68 31.5
1 -1 -4 142.59 41
1 -1 4 215.18 29.2
0 2 -4 1.2 8.4
0 2 -4 0.6 4.9
-2 0 4 4.6 2.2
0 2 -4 -5.2 3.5
0 2 -4 -0.8 3.7
2 0 -4 2.4 13.3
2 0 -4 1.3 2.4
2 0 -4 -0.8 6.2
2 0 -4 -1.6 27.4
0 -2 4 3.9 8.9
-3 -1 4 301.17 27.7
1 3 -4 218.68 22.7
1 3 -4 256.27 22.9
1 3 -4 263.27 21.9
1 3 -4 258.87 25.9
-1 -3 4 277.87 23.2
3 1 -4 290.47 22
3 1 -4 211.88 23.1
2 4 -4 411.56 31.2
2 4 -4 409.16 32.5
2 4 -4 323.47 31.9
2 4 -4 384.56 37.4
4 2 -4 348.67 30.9
4 2 -4 358.96 32.3
4 2 -4 318.67 38
4 2 -4 415.26 33.8
4 2 -4 324.57 35.6
3 5 -4 0.4 2.6
3 5 -4 1.2 2.7
-5 -3 4 -27.4 12.3
3 5 -4 0.3 5.9
-5 -3 4 2.3 3.8
3 5 -4 -17.9 14.2
5 3 -4 -3.8 4.4
-3 -5 4 12.2 12.6
5 3 -4 2.4 2.3
5 3 -4 -5.8 13.9
5 3 -4 -0.7 6.3
5 3 -4 -1.6 3.2
4 6 -4 111.39 11.9
-6 -4 4 131.09 14.1
4 6 -4 132.29 12.3
-6 -4 4 109.39 21.5
4 6 -4 148.59 12.5
4 6 -4 107.39 21.4
4 6 -4 124.09 15.3
6 4 -4 113.79 25.4
6 4 -4 117.69 28.9
-4 -6 4 148.99 24.5
6 4 -4 140.39 12.5
6 4 -4 109.39 12.8
6 4 -4 134.99 11.8
6 4 -4 132.39 12.3
5 7 -4 3.3 8.4
5 7 -4 11 2.8
5 7 -4 6.1 2.6
-7 -5 4 10.3 5.9
7 5 -4 1.3 8.6
7 5 -4 1.7 4.6
7 5 -4 4.2 4.9
7 5 -4 3.9 4.7
6 8 -4 156.58 15.5
-8 -6 4 177.18 17.2
6 8 -4 176.78 16.5
6 8 -4 178.88 16.3
6 8 -4 173.68 19.4
8 6 -4 191.08 18.7
8 6 -4 178.88 19
8 6 -4 181.08 16.1
7 9 -4 105.69 11.9
7 9 -4 96.59 12
9 7 -4 94.49 11.8
9 7 -4 120.89 10.1
9 7 -4 107.99 15.1
8 10 -4 -0.1 4
-10 -8 4 5 4.7
8 10 -4 3.4 6
10 8 -4 0.9 4.6
-8 -10 4 -7.9 3.8
9 11 -4 28.2 6.2
-11 -9 4 32.9 5.3
-9 -11 4 41.7 7
11 9 -4 36.3 8.6
-12 -10 4 4 4.6
10 12 -4 4.4 3.5
12 10 -4 4.4 6.7
-9 -12 -4 7.5 14.5
12 9 4 10.1 24.8
8 11 4 33.3 7.8
11 8 4 47.5 8.1
-8 -11 -4 17 9.5
11 8 4 13.5 15.5
7 10 4 38.9 7.2
-7 -10 -4 27.3 7.6
10 7 4 33.4 8
6 9 4 240.68 23.2
9 6 4 234.48 24.2
9 6 4 277.97 26.3
-6 -9 -4 221.68 23.9
-6 -9 -4 243.28 21.7
5 8 4 68.39 10.9
-5 -8 -4 60.29 8
8 5 4 64.29 8.7
8 5 4 72.39 13.4
-5 -8 -4 57.19 6.5
-5 -8 -4 66.99 9.6
-5 -8 -4 74.89 11.4
4 7 4 38.8 9.5
-4 -7 -4 24 6.8
-4 -7 -4 26.3 4.3
-4 -7 -4 23.9 24.8
-4 -7 -4 17.5 4.9
-6 -3 -4 71.29 7.8
-6 -3 -4 53.99 7.9
3 6 4 63.69 12.3
-6 -3 -4 58.19 6.3
-3 -6 -4 56.89 6.3
-3 -6 -4 53.59 6.2
-3 -6 -4 51.29 6.3
-3 -6 -4 60.39 6.7
-5 -2 -4 106.69 10.4
-5 -2 -4 87.29 9.5
-5 -2 -4 89.09 9.7
2 5 4 109.59 13.2
-2 -5 -4 109.09 12.8
5 2 4 107.29 17.7
5 2 4 105.29 12.2
-2 -5 -4 103.89 9.8
-2 -5 -4 85.79 9.1
-2 -5 -4 101.89 11.5
-4 -1 -4 469.05 48.9
1 4 4 584.24 47.3
-1 -4 -4 546.95 44.3
-1 -4 -4 586.74 45.3
-1 -4 -4 519.65 45.5
4 1 4 461.05 47.1
-1 -4 -4 463.35 48.4
4 1 4 522.95 52.49
-3 0 -4 197.78 19.5
-3 0 -4 173.78 19.8
-3 0 -4 148.89 17
0 -3 -4 168.58 15.5
0 -3 -4 193.38 16.8
3 0 4 167.18 17.3
0 -3 -4 201.78 17.2
0 -3 -4 201.18 16.3
-1 2 4 57.19 11.2
-2 1 -4 45.2 6.9
-1 2 4 41.4 4.6
-2 1 -4 46.3 6.3
1 -2 -4 39.1 3.9
1 -2 -4 41.8 61.69
1 -2 -4 55.39 9.6
2 -1 4 32.4 8.2
2 -1 4 35 4.9
1 -2 -4 35.9 41.3
-2 1 4 42.1 5.3
-1 2 -4 48 9.4
-1 2 -4 37.4 22.6
-1 2 -4 37.9 5.6
2 -1 -4 27 7.7
2 -1 -4 34.2 4.3
1 -2 4 39.7 5.6
2 -1 -4 44 26.8
2 -1 -4 29.7 10.2
1 -2 4 36.7 5
2 -1 -4 51.79 25.3
0 3 -4 155.88 15.9
0 3 -4 198.48 16
0 3 -4 192.08 17
3 0 -4 148.49 14.7
0 -3 4 158.78 16.4
3 0 -4 173.38 15.6
1 4 -4 416.36 35.1
-4 -1 4 418.86 39.9
1 4 -4 378.36 35.7
1 4 -4 417.46 39.2
-4 -1 4 395.96 35
4 1 -4 556.14 73.79
4 1 -4 407.56 36.4
4 1 -4 372.06 41.2
4 1 -4 391.36 34
4 1 -4 379.76 35
4 1 -4 362.56 38.3
-1 -4 4 420.66 39.2
2 5 -4 88.69 10.2
2 5 -4 70.09 13.5
-5 -2 4 85.09 9.4
2 5 -4 60.29 6.8
2 5 -4 76.89 9.1
-5 -2 4 77.69 13.7
5 2 -4 70.49 6.8
5 2 -4 69.19 7.9
5 2 -4 67.69 12.6
5 2 -4 72.09 7.4
-6 -3 4 29.8 13.6
3 6 -4 51.39 8.2
3 6 -4 36.5 6.7
3 6 -4 29.9 16.7
3 6 -4 48.2 7.8
3 6 -4 41 8.1
6 3 -4 52.69 5.3
6 3 -4 66.39 11.9
6 3 -4 43.8 5.5
6 3 -4 36.6 15
4 7 -4 16.5 5.7
4 7 -4 14.8 7.1
4 7 -4 1.5 27.5
4 7 -4 14.3 16.3
-7 -4 4 38 8.9
7 4 -4 27.9 5.2
7 4 -4 8 17.2
7 4 -4 19 4.1
5 8 -4 74.59 8.4
5 8 -4 62.99 7.9
5 8 -4 68.19 8.4
-8 -5 4 60.69 7.2
5 8 -4 67.49 8.9
8 5 -4 56.69 18.3
8 5 -4 76.09 7.1
8 5 -4 81.89 12.8
8 5 -4 75.39 7.4
6 9 -4 198.68 18.9
-9 -6 4 230.98 21.3
6 9 -4 182.08 20.7
9 6 -4 235.58 19.9
9 6 -4 213.88 19.2
9 6 -4 180.18 21.2
9 6 -4 217.98 18.8
7 10 -4 31.5 6
-10 -7 4 43.9 6.5
10 7 -4 40.8 5
10 7 -4 34 5.3
10 7 -4 29.1 11.8
-7 -10 4 45.5 6.3
8 11 -4 25 5.6
-8 -11 4 33.3 5.5
11 8 -4 32.6 11.6
11 8 -4 29.9 7.2
-12 -9 4 22.2 5.5
9 12 -4 6 9.4
9 12 -4 5.1 9.2
12 9 -4 0.9 11.3
9 13 4 39.2 8.4
-9 -13 -4 49.4 6.7
13 9 4 47.5 8.7
8 12 4 174.18 17.3
12 8 4 170.38 21.3
-8 -12 -4 154.68 16.7
12 8 4 148.89 16.7
7 11 4 79.89 10.1
-7 -11 -4 95.39 15.5
11 7 4 87.99 18.8
11 7 4 91.69 12.1
6 10 4 3.7 5.7
-6 -10 -4 -2.4 5.1
-6 -10 -4 -1.3 17.8
10 6 4 11 7.7
5 9 4 -0.2 6.5
-5 -9 -4 -5.1 10.2
9 5 4 -4.6 12.5
9 5 4 0.1 4.2
-5 -9 -4 -4.7 2.8
4 8 4 223.28 20.9
-8 -4 -4 169.98 19.2
-4 -8 -4 182.38 17
8 4 4 218.18 25.4
-4 -8 -4 201.58 18.5
-4 -8 -4 188.98 18.1
-4 -8 -4 217.78 17.9
8 4 4 185.38 19.4
-7 -3 -4 497.75 46.4
3 7 4 550.24 48.1
-3 -7 -4 536.25 44.7
-3 -7 -4 523.65 46.2
7 3 4 534.25 47.1
-3 -7 -4 524.95 46.2
2 6 4 384.76 33.5
-2 -6 -4 311.67 31.7
-2 -6 -4 378.06 32
-2 -6 -4 360.76 30.8
-2 -6 -4 372.96 30.6
-5 -1 -4 80.59 27
-1 -5 -4 5.1 64.49
-1 -5 -4 5.6 51.79
-1 -5 -4 2.7 35.9
-4 0 -4 5.5 18.7
0 4 4 -9.3 5
-4 0 -4 2.9 16.2
4 0 4 13 16.2
4 0 4 -1.8 4.3
0 -4 -4 0.4 3.8
0 -4 -4 -0.6 5.2
0 -4 -4 -1.9 3.2
-1 3 4 380.86 31.5
1 -3 -4 321.67 28.9
1 -3 -4 328.47 30.3
3 -1 4 312.47 30.7
3 -1 4 399.56 31.6
1 -3 -4 326.37 30.2
1 -3 -4 342.77 29.1
-2 2 4 547.25 44.4
2 -2 -4 489.45 42.5
2 -2 4 421.36 41.9
2 -2 -4 393.86 59.49
2 -2 -4 498.55 40.7
2 -2 -4 412.16 40.4
-3 1 4 240.08 23.7
-3 1 4 250.17 22.7
-3 1 4 258.37 25.5
3 -1 -4 269.67 21.2
3 -1 -4 240.58 25.1
3 -1 -4 228.18 22.3
-4 0 4 1.6 32.6
-4 0 4 -5 9.4
0 4 -4 8.4 6.1
0 4 -4 -3.4 5.7
0 4 -4 -4.3 8
4 0 -4 3.1 2.9
0 -4 4 2.5 5.1
4 0 -4 -3.9 8.7
4 0 -4 -2.4 2.2
4 0 -4 -0.8 33.8
4 0 -4 0.9 26.9
1 5 -4 9.6 22.2
-5 -1 4 5.7 2.7
1 5 -4 3.3 13.2
-5 -1 4 -6.2 102.79
1 5 -4 -1.1 9.2
1 5 -4 5 19.7
5 1 -4 16.3 6.1
5 1 -4 -5.8 144.79
5 1 -4 0.2 118.69
5 1 -4 42 29.8
-1 -5 4 5.5 4
5 1 -4 12.9 5.6
-6 -2 4 259.17 31.8
2 6 -4 297.47 33.5
2 6 -4 323.57 25.6
2 6 -4 274.47 25
2 6 -4 298.47 24.4
2 6 -4 269.77 26.4
6 2 -4 307.17 26.9
6 2 -4 250.57 33.6
6 2 -4 276.17 27.5
-7 -3 4 359.96 34.1
3 7 -4 336.17 41.4
-7 -3 4 446.06 43.8
3 7 -4 438.76 33.2
3 7 -4 344.07 34.2
3 7 -4 376.86 35.3
3 7 -4 337.17 33.5
7 3 -4 352.96 40.5
7 3 -4 449.86 32.7
7 3 -4 416.16 34
7 3 -4 393.76 33.6
-8 -4 4 156.28 15.3
4 8 -4 162.18 16.5
4 8 -4 161.58 15.3
4 8 -4 173.18 14.6
4 8 -4 178.38 15.6
8 4 -4 202.58 19.2
8 4 -4 163.68 15.5
8 4 -4 185.18 20.3
8 4 -4 140.89 14.4
5 9 -4 -0.9 5.2
5 9 -4 -13 7.1
5 9 -4 -1.8 4.4
-9 -5 4 -1.5 2.8
5 9 -4 -9.9 4.2
9 5 -4 -0.4 2.8
9 5 -4 1.4 10.2
9 5 -4 -3.8 2.8
9 5 -4 -4.4 11.6
6 10 -4 -0.2 4.6
-10 -6 4 6.8 3.5
6 10 -4 -0.2 4.1
10 6 -4 -2.1 3.7
7 11 -4 71.49 11.5
7 11 -4 93.39 11.3
-11 -7 4 98.79 9.9
11 7 -4 77.09 11.3
-7 -11 4 94.09 10
11 7 -4 100.89 9.5
-12 -8 4 184.28 16.4
8 12 -4 157.58 16.1
12 8 -4 150.78 20
-13 -9 4 42.5 6.1
9 13 -4 32.2 5.5
13 9 -4 28.1 6.1
8 13 4 -4.1 4.6
13 8 4 -7.6 4.1
13 8 4 -5.6 6.9
7 12 4 -2.4 6.3
12 7 4 3.6 4.7
6 11 4 375.86 38.4
11 6 4 376.36 33.7
-6 -11 -4 408.56 32.4
11 6 4 318.37 34.6
5 10 4 653.13 60.99
-5 -10 -4 647.24 58.49
-5 -10 -4 719.93 56.99
10 5 4 757.42 59.99
10 5 4 570.64 60.89
4 9 4 218.58 20.5
-9 -4 -4 196.78 18.5
-4 -9 -4 162.58 17.6
-4 -9 -4 201.48 17.9
9 4 4 242.68 31.3
-4 -9 -4 208.38 21.3
9 4 4 179.48 20.8
3 8 4 -7 12.3
-3 -8 -4 -0.3 8.1
-3 -8 -4 3.2 4.6
-3 -8 -4 -8.3 11.6
8 3 4 13.1 8.1
2 7 4 -7.2 10.8
-2 -7 -4 9.3 2.5
-2 -7 -4 5.6 7.8
-2 -7 -4 -0.2 10.4
-2 -7 -4 12.4 4.5
7 2 4 4.6 6.4
1 6 4 843.62 71.49
-6 -1 -4 872.81 74.99
-1 -6 -4 753.42 68.69
-1 -6 -4 795.22 65.49
-1 -6 -4 843.12 68.49
6 1 4 672.43 71.19
-1 -6 -4 769.72 66.49
0 5 4 2403.66 206.68
-5 0 -4 2265.77 204.08
5 0 4 2152.88 240.28
0 -5 -4 2258.27 196.48
0 -5 -4 2455.45 206.68
0 -5 -4 2454.25 207.28
0 -5 -4 1962.3 199.38
5 0 4 2144.19 224.98
-4 1 -4 460.75 43.9
4 -1 4 486.75 47.3
1 -4 -4 595.64 45.7
4 -1 4 466.15 48.3
1 -4 -4 585.54 45.8
1 -4 -4 538.35 43.7
-3 2 -4 4.4 6.9
-3 2 -4 4.9 4.1
2 -3 -4 3.7 3.3
3 -2 4 0.6 5.4
2 -3 -4 -4.2 4.1
2 -3 -4 1.9 3.8
2 -3 -4 3.7 2.8
-2 3 -4 -5.4 8.2
-2 3 -4 -3.3 3.7
-3 2 4 0.8 6.3
3 -2 -4 5.9 3.7
2 -3 4 -0.7 14.5
2 -3 4 -3.8 2.7
3 -2 -4 6.3 6.2
3 -2 -4 6.7 9
3 -2 -4 1.6 2.4
-1 4 -4 391.76 34.6
-1 4 -4 399.16 36.2
-4 1 4 461.05 41.5
4 -1 -4 443.86 36.2
4 -1 -4 368.66 40.5
-5 0 4 1984.9 245.78
-5 0 4 2124.29 204.88
5 0 -4 1738.43 165.68
5 0 -4 1758.42 228.78
5 0 -4 1632.94 220.48
5 0 -4 2217.68 174.68
5 0 -4 2246.98 194.28
0 -5 4 1890.11 265.27
1 6 -4 537.85 51.09
-6 -1 4 654.73 64.09
1 6 -4 540.45 58.99
-6 -1 4 543.25 51.39
6 1 -4 607.24 68.19
6 1 -4 641.44 51.69
6 1 -4 630.74 57.39
6 1 -4 592.44 53.89
2 7 -4 -3.6 12.8
2 7 -4 -1.1 13
-7 -2 4 0.3 7.5
2 7 -4 2.4 4.2
2 7 -4 -2.8 11.8
-7 -2 4 -27.4 12.9
2 7 -4 2.1 9.7
7 2 -4 -3 17.2
7 2 -4 7.6 6.8
7 2 -4 4.7 3.8
7 2 -4 -3.7 8.1
7 2 -4 -0.3 5.6
7 2 -4 2.4 2.3
-8 -3 4 11.6 4.3
3 8 -4 0.8 4
3 8 -4 -0.4 3.8
3 8 -4 -4.1 5.2
3 8 -4 -5.5 4.7
8 3 -4 10.6 8.1
8 3 -4 -3.8 2.5
8 3 -4 1.9 2.2
4 9 -4 163.88 15.6
4 9 -4 196.88 16.6
4 9 -4 174.48 16.4
-9 -4 4 209.68 18.6
9 4 -4 146.39 16.1
9 4 -4 180.38 16.2
9 4 -4 181.68 20.4
9 4 -4 190.38 20.1
5 10 -4 470.65 51.69
5 10 -4 641.14 49.6
-10 -5 4 582.64 49.99
10 5 -4 481.45 49.3
10 5 -4 657.03 49.5
6 11 -4 281.27 32.5
6 11 -4 318.57 30
-11 -6 4 332.67 30.6
11 6 -4 388.46 29
11 6 -4 312.87 32.3
11 6 -4 378.86 30.8
11 6 -4 351.96 30.1
7 12 -4 -5.1 4.7
-12 -7 4 2.5 3
-7 -12 4 -0.1 4
12 7 -4 0 7.6
12 7 -4 -0.1 7.2
8 13 -4 -3.6 6.2
-13 -8 4 2.2 3.5
13 8 -4 -10.7 6
-8 -13 4 -2.3 5.4
13 8 -4 9.5 7.5
8 14 4 16.3 7.2
-8 -14 -4 14.4 9
14 8 4 19.7 8.1
7 13 4 140.59 14.9
13 7 4 117.19 14.8
-7 -13 -4 147.79 19
13 7 4 121.79 15
6 12 4 120.69 13.3
12 6 4 111.09 12.7
12 6 4 108.89 12.8
-6 -12 -4 120.59 11.5
5 11 4 0.4 13.3
-5 -11 -4 -3.5 7.1
11 5 4 8.7 6.3
11 5 4 23.9 21
4 10 4 3.3 10.3
-10 -4 -4 3.6 3.1
10 4 4 10 4.3
-4 -10 -4 -0.5 3.4
-4 -10 -4 -5.7 3.9
10 4 4 3 5.2
3 9 4 177.58 18.2
-3 -9 -4 176.28 16.2
9 3 4 159.28 17.3
-3 -9 -4 153.48 16
-3 -9 -4 196.08 20.9
9 3 4 202.18 28.9
-3 -9 -4 187.48 16.4
-8 -2 -4 446.16 35.2
2 8 4 422.36 36.3
-2 -8 -4 360.46 34.6
-2 -8 -4 400.76 35.3
-2 -8 -4 370.76 33.2
-2 -8 -4 374.86 33.6
8 2 4 349.47 37.2
8 2 4 425.76 35.6
1 7 4 429.56 36.3
-7 -1 -4 399.66 34.7
7 1 4 365.56 36
-1 -7 -4 401.76 33.1
-1 -7 -4 395.96 33.4
-1 -7 -4 393.96 34.2
-1 -7 -4 337.77 34.1
0 -6 -4 41.2 7.9
6 0 4 6 32.7
0 -6 -4 39.9 11.9
0 -6 -4 34.7 14.6
6 0 4 45.5 50.79
0 -6 -4 21 19
-1 5 4 8.8 44.8
1 -5 -4 64.59 26.3
5 -1 4 3.3 75.19
1 -5 -4 24.9 4
1 -5 -4 56.79 24.7
-4 2 -4 455.55 36.8
4 -2 4 419.46 39.8
2 -4 -4 421.36 37
2 -4 -4 423.86 38
2 -4 -4 402.26 36.2
2 -4 -4 486.65 38.1
4 -2 4 426.86 39.3
-3 3 -4 524.05 47.7
-3 3 4 600.54 56.99
-3 3 4 528.25 53.39
3 -3 -4 668.13 71.69
3 -3 4 512.85 51.29
3 -3 -4 575.94 49.8
3 -3 -4 569.74 47.6
3 -3 4 610.44 51.29
3 -3 -4 654.43 49.8
3 -3 -4 527.45 49.7
-4 2 4 364.16 38.2
-2 4 -4 448.46 35
-2 4 -4 424.46 33.5
4 -2 -4 384.16 39.7
4 -2 -4 382.56 34.6
2 -4 4 441.96 35.5
4 -2 -4 411.06 33.2
4 -2 -4 336.77 36.8
2 -4 4 343.37 35.7
-1 5 -4 44.2 58.49
-5 1 4 -14.7 122.29
-1 5 -4 9.1 85.49
-5 1 4 5.3 4.4
5 -1 -4 9.1 6.5
5 -1 -4 -6.6 71.59
5 -1 -4 6.6 12.2
5 -1 -4 4.8 51.89
-6 0 4 -21.1 51.29
0 6 -4 -0.4 6.9
-6 0 4 -3 6.1
0 6 -4 5.5 3.8
0 6 -4 -3.3 11.4
6 0 -4 -6.7 38.8
0 -6 4 4.6 57.79
6 0 -4 -41.9 57.89
1 7 -4 356.66 30.7
1 7 -4 345.67 31.5
1 7 -4 318.27 29.4
7 1 -4 329.97 29.4
7 1 -4 356.76 29.8
7 1 -4 292.27 36.3
7 1 -4 366.16 30
7 1 -4 338.87 31.2
7 1 -4 320.07 28.5
2 8 -4 323.37 32.2
2 8 -4 322.97 31.6
8 2 -4 398.06 33.7
8 2 -4 392.76 30.6
8 2 -4 369.66 31.6
3 9 -4 150.18 13
3 9 -4 133.09 13.5
3 9 -4 151.58 13.6
3 9 -4 124.59 14.4
9 3 -4 137.39 13.3
9 3 -4 143.89 13.1
9 3 -4 170.38 17.7
9 3 -4 153.58 21.3
4 10 -4 -9.9 12.3
-10 -4 4 9.8 5.1
10 4 -4 3.6 6.5
10 4 -4 3 4.2
10 4 -4 2 2.8
-11 -5 4 5.9 3.1
5 11 -4 0.3 7
11 5 -4 2.8 2.4
11 5 -4 -16.4 15.1
11 5 -4 2.3 7.2
11 5 -4 2.1 2.6
6 12 -4 115.29 12.1
12 6 -4 120.79 12
12 6 -4 107.99 14.8
12 6 -4 128.49 11.3
7 13 -4 112.69 11.9
13 7 -4 107.89 14.1
-7 -13 4 132.99 12.5
-14 -8 4 28.8 5.7
8 14 -4 25.3 5.1
14 8 -4 16.8 14.7
-8 -14 4 28.4 6.5
14 7 4 -1.9 5.8
14 7 4 2.6 6.8
-7 -14 -4 -2.2 3.6
6 13 4 20.4 5.3
13 6 4 17.7 14.1
13 6 4 21.8 7.2
-6 -13 -4 13.8 6.2
5 12 4 94.39 11.9
12 5 4 99.49 24.5
12 5 4 70.89 9.5
-5 -12 -4 69.29 15.2
-11 -4 -4 288.87 25.6
4 11 4 266.37 26.7
-4 -11 -4 275.77 23.8
11 4 4 228.08 25.7
-4 -11 -4 285.77 24.7
11 4 4 262.67 28.6
3 10 4 65.19 7.8
-10 -3 -4 43.4 6.2
-3 -10 -4 56.89 6.1
-3 -10 -4 51.49 5.8
10 3 4 52.29 7.4
10 3 4 51.69 11
-9 -2 -4 37.2 5.2
2 9 4 34.5 9.8
9 2 4 21.3 5
-2 -9 -4 32.9 6.2
9 2 4 63.99 17.4
-2 -9 -4 39.2 6.7
-2 -9 -4 31.4 6.6
-2 -9 -4 27.2 3.8
1 8 4 80.29 12.4
-1 -8 -4 92.79 8.5
8 1 4 57.29 10.7
-1 -8 -4 84.19 8.3
-1 -8 -4 78.89 7.9
-1 -8 -4 83.99 8.2
-7 0 -4 154.08 15.4
0 7 4 149.69 17
0 -7 -4 161.88 16.1
0 -7 -4 138.99 13
0 -7 -4 131.49 12.9
0 -7 -4 155.98 13.8
7 0 4 102.49 22.5
-6 1 -4 894.91 75.39
-1 6 4 867.41 74.69
1 -6 -4 796.92 69.79
1 -6 -4 795.12 74.09
1 -6 -4 789.62 73.69
1 -6 -4 842.22 74.79
-2 5 4 119.19 11.5
2 -5 -4 98.69 10.6
2 -5 -4 112.09 10.5
2 -5 -4 115.59 10.2
2 -5 -4 134.99 11
5 -2 4 93.09 14.6
-4 3 -4 48.2 7.5
-3 4 4 38 4.3
3 -4 -4 44.8 6.5
3 -4 -4 32.2 6.7
3 -4 -4 49.9 5.2
4 -3 4 49.2 5.5
4 -3 4 51.39 6.5
-3 4 -4 49.1 12
-3 4 -4 58.69 9.1
-4 3 4 39.6 10.1
4 -3 -4 23.5 12.2
4 -3 -4 46.2 4.6
4 -3 -4 41.8 4.5
3 -4 4 41.4 5.3
4 -3 -4 53.89 5.6
-5 2 4 74.59 12.7
-2 5 -4 87.29 11.9
-2 5 -4 102.69 13.4
5 -2 -4 93.09 9
5 -2 -4 103.59 8.9
5 -2 -4 99.89 8.9
5 -2 -4 96.79 15.5
2 -5 4 76.49 9.3
2 -5 4 95.99 9.8
5 -2 -4 95.89 9.4
-1 6 -4 679.03 58.19
-6 1 4 744.03 74.69
-6 1 4 626.64 60.59
1 -6 4 685.63 60.89
6 -1 -4 658.33 72.79
6 -1 -4 633.24 57.99
6 -1 -4 678.03 65.19
-7 0 4 73.09 16.8
0 7 -4 117.99 16.8
0 7 -4 94.19 10.1
7 0 -4 106.19 9.5
7 0 -4 108.59 9.9
7 0 -4 101.79 10.2
7 0 -4 126.29 14.4
0 -7 4 92.99 14.9
1 8 -4 52.09 10.1
1 8 -4 63.69 13
1 8 -4 47.2 6.3
-8 -1 4 62.69 6.1
1 8 -4 68.69 15
8 1 -4 47.3 5.7
8 1 -4 57.99 6.6
8 1 -4 65.69 6.1
8 1 -4 54.29 6.7
2 9 -4 22.8 4.3
-9 -2 4 25.8 3.5
2 9 -4 20 4.2
9 2 -4 27.1 6.2
9 2 -4 26.9 3.8
9 2 -4 18 9.5
9 2 -4 29.6 3.7
3 10 -4 48.8 6.1
3 10 -4 54.39 6.7
10 3 -4 57.59 9.9
10 3 -4 60.09 6.1
10 3 -4 69.49 9.8
10 3 -4 54.19 6.4
4 11 -4 257.47 23.4
-11 -4 4 235.48 23.5
11 4 -4 287.57 22.3
11 4 -4 222.38 22.9
11 4 -4 263.37 24.9
11 4 -4 274.47 29.2
12 5 -4 70.59 8
12 5 -4 81.39 15.2
12 5 -4 100.29 16.2
12 5 -4 88.49 8.7
-13 -6 4 33.9 5.5
6 13 -4 26.4 6.2
13 6 -4 18.7 13.1
13 6 -4 40.1 5.6
7 14 -4 7.9 5
-14 -7 4 5.7 4.1
14 7 -4 10.5 7.5
14 7 -4 -1.4 3.6
-7 -14 4 15.1 5.5
6 14 4 25.5 6.5
14 6 4 44.4 24.5
-6 -14 -4 15.8 9.8
5 13 4 -2.2 6.2
13 5 4 -3.8 10.4
13 5 4 8 5.7
-5 -13 -4 -4.2 4.2
-12 -4 -4 115.09 13.2
4 12 4 149.69 14.2
-4 -12 -4 149.99 13.6
12 4 4 139.49 14.4
-4 -12 -4 123.69 12.6
12 4 4 137.89 16.4
-11 -3 -4 136.69 13.4
3 11 4 140.69 15.6
11 3 4 121.09 14.2
11 3 4 124.39 23.6
-3 -11 -4 135.39 12.6
-3 -11 -4 128.19 13.3
10 2 4 55.39 8.1
1 9 4 118.79 12.1
-1 -9 -4 112.49 12.8
-1 -9 -4 116.29 11.6
-1 -9 -4 121.19 14.1
9 1 4 131.19 12.9
-1 -9 -4 121.99 13.1
-1 -9 -4 115.99 13.9
-8 0 -4 1.4 2.9
8 0 4 1.5 4.8
8 0 4 -3.3 12.1
0 -8 -4 5.2 5
0 -8 -4 0.7 3.2
0 -8 -4 6.2 4.5
0 -8 -4 5.3 2.1
-1 7 4 408.56 33.7
-7 1 -4 349.67 33.1
1 -7 -4 391.86 32.3
1 -7 -4 309.07 32.4
1 -7 -4 375.26 30.9
1 -7 -4 375.96 31.2
1 -7 -4 357.16 32.1
7 -1 4 348.87 35.7
2 -6 -4 381.26 31.2
2 -6 -4 367.56 31.6
2 -6 -4 345.17 32.9
2 -6 -4 412.36 32.8
2 -6 -4 377.76 32.7
6 -2 4 335.47 33.5
-3 5 4 5.4 2.8
-3 5 4 4.3 3.8
3 -5 -4 10.8 3.4
5 -3 4 6.5 11.2
3 -5 -4 6.6 1.9
3 -5 -4 6.9 4
3 -5 -4 1.8 8.2
5 -3 4 10.6 3.7
3 -5 -4 3.5 3.6
-4 4 4 157.98 19.1
-4 4 4 140.09 18.7
-4 4 4 161.38 13.1
4 -4 -4 137.09 13
4 -4 -4 152.58 13
4 -4 -4 158.28 13.8
4 -4 4 118.49 14.9
4 -4 -4 145.39 13.6
-3 5 -4 -0.3 5.2
-5 3 4 -4.8 14.4
5 -3 -4 13.9 5.3
5 -3 -4 -4.5 11.1
5 -3 -4 6.1 5.2
3 -5 4 4.9 7.8
5 -3 -4 9.2 2.2
-2 6 -4 328.77 27.6
-6 2 4 323.97 38.6
6 -2 -4 289.47 28.1
6 -2 -4 297.37 61.19
6 -2 -4 315.97 28.4
6 -2 -4 349.47 27.3
6 -2 -4 312.87 47.3
-1 7 -4 315.77 30
-7 1 4 383.56 30.4
-7 1 4 325.57 36.7
-1 7 -4 364.76 29.8
7 -1 -4 283.97 28.9
7 -1 -4 338.87 29.9
7 -1 -4 368.76 30.4
7 -1 -4 365.76 31.9
7 -1 -4 380.66 30.7
1 -7 4 319.77 31.3
7 -1 -4 323.07 36.9
-8 0 4 -2.3 1.7
0 8 -4 -3.1 7.9
0 8 -4 2 7.1
0 8 -4 -4.7 3.1
8 0 -4 -0.4 2.9
0 -8 4 1.3 3.5
8 0 -4 0 3.5
8 0 -4 -3.1 7.7
8 0 -4 -3.7 14.1
8 0 -4 -1.6 5.3
-9 -1 4 100.19 10.8
1 9 -4 97.59 9.9
1 9 -4 104.89 11.2
1 9 -4 97.59 10
9 1 -4 110.89 13.1
9 1 -4 92.79 9.9
9 1 -4 115.19 10.2
2 10 -4 3.5 5.1
3 11 -4 112.69 11.4
11 3 -4 117.59 13.5
11 3 -4 106.09 19.4
11 3 -4 93.09 10.7
11 3 -4 123.49 10.5
4 12 -4 124.79 12.2
12 4 -4 125.79 11.4
12 4 -4 122.69 14
12 4 -4 115.09 11.9
12 4 -4 133.09 17
-13 -5 4 -2.5 3.8
5 13 -4 1.8 3.5
13 5 -4 -1.5 4.4
13 5 -4 -2.2 3.8
6 14 -4 17.6 4.5
-14 -6 4 23 4.2
6 15 4 132.39 14.5
15 6 4 146.39 16.1
15 6 4 99.59 13.7
5 14 4 147.69 15.8
14 5 4 138.49 15.7
-5 -14 -4 132.19 13.3
14 5 4 166.28 20.6
4 13 4 22.7 5.2
13 4 4 18.7 9.1
-4 -13 -4 16.1 9.6
-11 -2 -4 40 5.8
2 11 4 29.4 5.5
11 2 4 21 6
11 2 4 34 6.7
-2 -11 -4 32.8 4.6
-2 -11 -4 37.6 4.5
-2 -11 -4 24.8 6.4
1 10 4 519.05 48.3
10 1 4 468.35 47.5
-1 -10 -4 548.35 47.4
-1 -10 -4 528.05 44.3
-1 -10 -4 556.84 47
-1 -10 -4 556.74 46.8
-1 -10 -4 540.75 45.2
-9 0 -4 569.24 45.7
0 9 4 552.24 47
9 0 4 492.85 46.3
0 -9 -4 443.06 45.4
0 -9 -4 472.35 44.6
0 -9 -4 454.45 43.4
0 -9 -4 567.54 45.2
0 -9 -4 551.74 42.9
-8 1 -4 74.39 9.6
-1 8 4 60.39 6.7
1 -8 -4 55.19 6.1
1 -8 -4 62.19 10.8
8 -1 4 47.4 7.6
1 -8 -4 58.89 7.1
1 -8 -4 57.79 7.1
8 -1 4 54.29 11.1
1 -8 -4 55.89 7.1
-2 7 4 -3.1 8.2
-7 2 -4 2.2 11.1
7 -2 4 -10.2 9.1
2 -7 -4 -5.3 4.3
2 -7 -4 -1.5 6.7
2 -7 -4 5.8 3.9
2 -7 -4 3.2 2.7
7 -2 4 1.6 6.6
-3 6 4 67.09 8.2
-3 6 4 59.29 9.8
6 -3 4 73.79 9
3 -6 -4 55.49 6.3
3 -6 -4 59.79 6.2
3 -6 -4 64.09 9.8
3 -6 -4 57.49 6.3
3 -6 -4 61.19 6.1
-4 5 4 843.82 68.79
4 -5 -4 793.42 70.89
4 -5 -4 814.02 65.59
5 -4 4 907.01 72.19
4 -5 -4 702.13 68.59
4 -5 -4 769.92 68.39
4 -5 -4 714.33 66.99
-5 4 4 825.52 78.79
-5 4 4 786.12 71.59
5 -4 -4 806.52 60.89
5 -4 -4 666.93 62.59
5 -4 -4 730.83 68.79
5 -4 -4 676.33 65.39
5 -4 -4 742.63 63.69
5 -4 -4 741.93 63.59
4 -5 4 660.73 64.79
-6 3 4 51.09 13.7
3 -6 4 69.99 11.8
6 -3 -4 59.09 15.8
6 -3 -4 54.09 6.4
6 -3 -4 58.69 7
6 -3 -4 58.89 6.2
-7 2 4 -24 24.7
-2 7 -4 3.8 17.5
7 -2 -4 3.9 3.6
7 -2 -4 2.9 3.3
7 -2 -4 -6.7 12.1
2 -7 4 -0.3 8.6
7 -2 -4 -22.1 29.4
7 -2 -4 2.1 2.9
-1 8 -4 50.59 6.3
-1 8 -4 57.99 6.7
-8 1 4 65.79 7.1
1 -8 4 67.09 9.7
8 -1 -4 64.89 7.4
8 -1 -4 56.99 6.6
8 -1 -4 63.99 6.5
8 -1 -4 52.69 10.9
8 -1 -4 60.09 6.6
0 9 -4 501.95 41.7
-9 0 4 399.06 41.9
0 9 -4 481.65 40.6
9 0 -4 451.05 41.4
9 0 -4 476.55 43.7
0 -9 4 436.16 43.3
9 0 -4 544.35 42.3
9 0 -4 538.05 40.3
1 10 -4 502.05 45.3
-10 -1 4 595.34 47.5
10 1 -4 485.35 46.6
10 1 -4 522.65 49.3
10 1 -4 581.64 45.3
10 1 -4 532.45 47.4
10 1 -4 554.94 47.1
2 11 -4 24.2 5.3
-11 -2 4 35.7 4.6
11 2 -4 28.1 4.6
11 2 -4 37.8 5.9
11 2 -4 10.4 17.2
11 2 -4 38.2 4.8
3 12 -4 -9.8 5.3
-12 -3 4 -0.9 4
12 3 -4 11.8 12.9
12 3 -4 -11.6 9.9
12 3 -4 0.1 3.4
12 3 -4 1.3 3.4
-13 -4 4 15.9 4.5
4 13 -4 34.1 6
13 4 -4 23.2 4.1
13 4 -4 23.8 5.1
13 4 -4 14.5 9.7
-14 -5 4 130.79 13.8
5 14 -4 160.78 14.7
14 5 -4 139.79 13.3
14 5 -4 161.48 18.4
14 5 -4 123.89 20.2
14 5 -4 151.08 14.3
6 15 -4 116.49 12.4
15 6 -4 123.59 14.5
15 6 -4 101.79 13.2
5 15 4 -3.7 6.6
15 5 4 10.6 13
14 4 4 18.8 4.8
14 4 4 6 8.6
-4 -14 -4 16.5 4.6
-13 -3 -4 153.78 14.4
3 13 4 157.08 15.2
-3 -13 -4 141.19 14
13 3 4 134.19 22.6
-3 -13 -4 143.29 13.4
-3 -13 -4 130.99 13.5
13 3 4 125.59 15
2 12 4 309.47 25.8
-12 -2 -4 243.28 24.9
12 2 4 245.68 25.1
-2 -12 -4 320.37 25.2
12 2 4 226.58 26.7
-2 -12 -4 265.57 24.3
1 11 4 64.89 8.8
-1 -11 -4 63.59 7.4
-1 -11 -4 70.39 9.4
-1 -11 -4 54.19 6.4
-10 0 -4 25.9 7
0 10 4 21.3 9.6
0 -10 -4 9 9.1
0 -10 -4 10.7 5.9
0 -10 -4 22.9 13.5
-9 1 -4 102.69 12.9
-1 9 4 144.39 18.4
1 -9 -4 126.49 11.1
1 -9 -4 128.19 11.7
1 -9 -4 109.69 11.1
1 -9 -4 129.69 11.7
9 -1 4 111.69 17.2
-2 8 4 448.96 38.2
2 -8 -4 374.56 35.4
2 -8 -4 370.76 33.9
2 -8 -4 415.26 35.7
2 -8 -4 409.96 34.6
2 -8 -4 412.06 36.1
-3 7 4 540.65 46.1
-3 7 4 564.14 43.9
3 -7 -4 543.75 43.2
3 -7 -4 443.46 42.4
7 -3 4 450.65 45.5
3 -7 -4 477.05 44.5
3 -7 -4 499.45 45
3 -7 -4 545.85 44.4
-4 6 4 158.28 14.8
-4 6 4 154.48 13.7
4 -6 -4 128.19 23.4
6 -4 4 143.29 31.5
4 -6 -4 126.79 13.8
4 -6 -4 156.78 13.6
4 -6 -4 166.78 14.3
4 -6 -4 150.78 13.9
-5 5 4 -5.1 7.3
-5 5 4 -9.8 8.6
-5 5 4 -30.7 22.6
5 -5 4 -5 31.4
5 -5 -4 -2.5 3.3
5 -5 -4 1.5 3.2
5 -5 -4 -2 3
5 -5 -4 0.5 3.8
5 -5 -4 -12.1 17.2
-6 4 4 169.88 27.4
6 -4 -4 161.68 17
4 -6 4 160.48 15.8
6 -4 -4 146.89 13.8
6 -4 -4 130.49 26.4
6 -4 -4 142.89 13.9
6 -4 -4 146.29 18.9
-7 3 4 590.84 55.79
7 -3 -4 515.35 46.1
7 -3 -4 636.94 48.3
7 -3 -4 560.84 54.59
7 -3 -4 549.45 48.3
7 -3 -4 529.75 47.4
3 -7 4 485.55 50.69
8 -2 -4 410.56 33
2 -8 4 319.47 35.5
8 -2 -4 366.96 31.6
8 -2 -4 429.06 33.4
8 -2 -4 337.27 32.3
-9 1 4 127.09 14.1
9 -1 -4 103.19 10.4
9 -1 -4 101.49 10.9
9 -1 -4 113.89 10.9
9 -1 -4 107.39 13
1 -9 4 124.39 21.5
9 -1 -4 120.79 10.7
-10 0 4 1.4 4.5
10 0 -4 -8.4 6.4
10 0 -4 5 6
-11 -1 4 84.79 13.2
11 1 -4 61.59 9.1
11 1 -4 65.29 20.9
11 1 -4 75.89 9
11 1 -4 73.59 8.9
2 12 -4 287.17 29
-12 -2 4 355.76 30.8
12 2 -4 323.77 27.9
12 2 -4 293.57 33.3
12 2 -4 362.06 29.5
3 13 -4 129.49 13.3
13 3 -4 125.19 17.3
13 3 -4 138.89 18.4
-14 -4 4 19.7 3.8
4 14 -4 21.2 4.9
14 4 -4 24.5 4.9
14 4 -4 13.7 7.1
14 4 -4 27.9 4.9
5 15 -4 6.9 5.4
15 5 -4 -4.2 7.4
15 5 -4 -5.1 15.7
15 5 -4 -4.8 5.5
-15 -4 -4 112.69 12.2
4 15 4 122.19 12.6
15 4 4 92.39 11.7
-4 -15 -4 128.79 11.6
-4 -15 -4 122.19 11.9
15 4 4 95.59 12.8
3 14 4 16.2 6.3
14 3 4 13.8 13.2
-3 -14 -4 11.1 3.3
-2 -13 -4 -1.8 6.2
-2 -13 -4 8.6 3.1
13 2 4 7.2 10.3
1 12 4 51.19 9.5
-12 -1 -4 51.59 7.3
12 1 4 45.8 13.1
-1 -12 -4 52.49 6.5
-1 -12 -4 55.69 6.6
-1 -12 -4 43.3 6
0 11 4 892.51 79.79
0 -11 -4 897.01 74.79
0 -11 -4 913.91 78.39
0 -11 -4 835.02 76.99
-10 1 -4 434.56 46.8
-1 10 4 579.04 48.3
1 -10 -4 524.05 46.1
1 -10 -4 470.55 47
1 -10 -4 565.74 45.2
1 -10 -4 581.94 46.7
1 -10 -4 548.95 44.5
-9 2 -4 32.2 9.6
-2 9 4 20.8 7.7
2 -9 -4 27 5.4
2 -9 -4 27.8 6
2 -9 -4 25.1 5.3
9 -2 4 20.3 23.8
2 -9 -4 31.7 4.3
2 -9 -4 30.1 4.3
-8 3 -4 -0.2 6.2
-3 8 4 -1.2 12.7
-3 8 4 -1.2 11.6
3 -8 -4 3.1 8.9
8 -3 4 -10 20.8
3 -8 -4 -5.9 6.3
3 -8 -4 6.4 6.1
-4 7 4 23.2 8.2
4 -7 -4 27.7 3.6
4 -7 -4 25.6 3.8
4 -7 -4 31.1 3.8
4 -7 -4 36.9 4.7
4 -7 -4 22.1 4.4
-5 6 4 1220.58 98.19
5 -6 -4 1012.6 94.19
6 -5 4 905.81 97.39
5 -6 -4 1123.29 93.89
5 -6 -4 1151.28 89.99
5 -6 -4 1121.69 96.79
-6 5 4 1237.88 119.29
-6 5 4 1290.47 110.39
-6 5 4 1307.67 118.19
6 -5 -4 1229.38 113.69
6 -5 -4 1182.88 120.99
6 -5 -4 1100.09 103.09
6 -5 -4 1173.08 98.79
6 -5 -4 1091.49 107.29
4 -7 4 19.9 17
7 -4 -4 26.9 4.7
7 -4 -4 14.5 18.1
7 -4 -4 40.1 5.2
7 -4 -4 33.4 5.1
7 -4 -4 30.1 4.5
8 -3 -4 -1.8 2.8
3 -8 4 2.5 14.3
8 -3 -4 -7.8 3.7
8 -3 -4 -0.3 4.5
2 -9 4 19.6 8.2
9 -2 -4 20.2 11.9
9 -2 -4 35.9 5.6
9 -2 -4 25.4 4.1
9 -2 -4 29.7 9
-1 10 -4 487.85 44
1 -10 4 469.25 46.1
10 -1 -4 488.75 44.4
10 -1 -4 477.35 45.8
10 -1 -4 567.44 43.8
10 -1 -4 527.25 42.5
-11 0 4 1008.5 76.39
0 11 -4 753.32 75.19
11 0 -4 910.31 72.69
11 0 -4 820.52 75.99
11 0 -4 817.42 78.69
11 0 -4 964.3 76.19
11 0 -4 829.72 75.89
1 12 -4 45.1 7.4
-12 -1 4 46.3 6.6
12 1 -4 56.19 7.1
12 1 -4 43.5 5.8
12 1 -4 41.5 9.5
12 1 -4 45.5 13
2 13 -4 5.7 5
-13 -2 4 10.4 3.9
13 2 -4 28.7 9.5
13 2 -4 16 5
13 2 -4 -6 17.1
3 14 -4 5 5.3
14 3 -4 -14.1 11.5
14 3 -4 6.4 3.5
-15 -4 4 143.89 12.2
4 15 -4 108.39 12.7
15 4 -4 113.89 18.4
15 4 -4 118.49 11.6
15 4 -4 98.49 11.8
-15 -3 -4 6.5 5.3
3 15 4 11 6.3
15 3 4 4.2 25.9
-3 -15 -4 -1.9 8.5
2 14 4 50.79 8.5
-14 -2 -4 67.69 7.9
-2 -14 -4 51.19 6.5
14 2 4 67.09 8.6
-2 -14 -4 61.79 7.3
-2 -14 -4 51.19 6.6
-13 -1 -4 111.79 12.9
1 13 4 139.59 13.8
13 1 4 123.39 26.4
-1 -13 -4 120.49 12.3
-1 -13 -4 140.09 12.5
-1 -13 -4 125.79 12.6
-12 0 -4 6.9 4.9
0 12 4 1.4 3.6
0 -12 -4 1.7 3.9
12 0 4 -7.2 15.2
-11 1 -4 78.79 9.8
11 -1 4 61.39 11.6
1 -11 -4 90.89 8.8
1 -11 -4 71.79 8.1
1 -11 -4 73.89 8.4
-2 10 4 30.5 12.3
-10 2 -4 10.5 8.7
2 -10 -4 9.3 9.1
2 -10 -4 8.1 4
2 -10 -4 9.2 7
-3 9 4 185.18 21.1
-9 3 -4 223.28 25.2
-3 9 4 184.28 18.5
3 -9 -4 160.18 16.7
3 -9 -4 207.08 17.2
3 -9 -4 189.38 16.9
3 -9 -4 195.08 16.2
3 -9 -4 161.38 16.9
9 -3 4 169.68 28.7
-4 8 4 224.38 19.7
-8 4 -4 184.78 21.9
-4 8 4 227.28 20.5
4 -8 -4 215.68 20.4
8 -4 4 192.78 29.5
4 -8 -4 238.78 19.4
4 -8 -4 217.48 19.9
4 -8 -4 215.08 19.9
-5 7 4 12.1 2.8
-5 7 4 9.3 3.9
5 -7 -4 16.1 3
5 -7 -4 14.7 2.9
5 -7 -4 12.7 3.4
-6 6 4 112.49 9.8
6 -6 4 112.79 12.4
6 -6 -4 108.69 10.8
6 -6 -4 100.39 10
6 -6 -4 95.99 9.7
6 -6 -4 86.29 9.9
-7 5 4 11.8 2.8
7 -5 -4 12.2 2.8
7 -5 -4 12.7 3.1
7 -5 -4 9 3.8
5 -7 4 6.9 5.5
7 -5 -4 9 3.5
7 -5 -4 7.2 2.6
4 -8 4 227.38 31.6
8 -4 -4 215.68 20
8 -4 -4 228.98 20.9
8 -4 -4 239.28 20.7
9 -3 -4 201.88 18.8
9 -3 -4 175.08 17
9 -3 -4 169.28 16.4
9 -3 -4 193.38 16.4
9 -3 -4 188.08 17.8
3 -9 4 153.58 19.6
10 -2 -4 12.4 4.7
10 -2 -4 13.3 5.2
10 -2 -4 12 2.8
2 -10 4 44.7 22.1
11 -1 -4 57.49 6.4
11 -1 -4 64.79 7.7
11 -1 -4 61.09 21.8
11 -1 -4 62.99 9.6
11 -1 -4 49.9 6
-12 0 4 0.6 2.4
0 12 -4 -4.1 3.9
12 0 -4 -4.4 7.9
12 0 -4 -1.4 3.5
-13 -1 4 158.78 14.4
13 1 -4 142.79 17.8
13 1 -4 153.18 13.4
13 1 -4 114.89 18.4
13 1 -4 120.09 13.7
-14 -2 4 65.59 7.9
14 2 -4 90.39 10.6
14 2 -4 54.99 12.5
14 2 -4 72.59 8.1
14 2 -4 71.19 8.9
3 15 -4 -8.5 6.2
-15 -3 4 0.3 4.2
15 3 -4 -1.9 15.8
15 3 -4 8.3 6.8
15 3 -4 0.7 4.8
-15 -2 -4 16.6 5.3
-2 -15 -4 12.3 4.7
15 2 4 3.4 23.1
1 14 4 117.09 12.4
-14 -1 -4 120.59 14.4
-1 -14 -4 124.09 11.7
-1 -14 -4 97.79 11
-1 -14 -4 121.29 12
0 13 4 65.89 8.1
-13 0 -4 46.8 6.7
0 -13 -4 41.3 6.4
13 0 4 82.69 17.9
0 -13 -4 55.49 6.9
0 -13 -4 57.69 7
-1 12 4 50.79 8.3
12 -1 4 83.49 17.8
1 -12 -4 39.2 7.2
1 -12 -4 46.5 6.2
1 -12 -4 51.69 6.4
-2 11 4 32.4 10.7
2 -11 -4 32.4 4.9
11 -2 4 21.3 17.7
2 -11 -4 32.4 4.4
2 -11 -4 25.7 5.9
2 -11 -4 33.2 4.9
-3 10 4 60.39 9.2
3 -10 -4 60.19 7.1
3 -10 -4 55.49 6.1
3 -10 -4 69.69 6.8
10 -3 4 52.69 8
3 -10 -4 61.49 6.9
3 -10 -4 64.69 7
-9 4 -4 244.18 22
-4 9 4 192.38 18.7
-4 9 4 216.38 23.7
4 -9 -4 187.98 18
4 -9 -4 220.48 19.6
9 -4 4 209.98 26.9
4 -9 -4 230.78 18.9
4 -9 -4 210.68 19.2
4 -9 -4 182.68 18.8
-5 8 4 70.29 7.8
-5 8 4 76.99 13.8
5 -8 -4 73.59 8.1
8 -5 4 76.49 16.2
5 -8 -4 80.29 8.5
5 -8 -4 80.69 8.2
5 -8 -4 83.99 8.1
5 -8 -4 86.19 8.5
-6 7 4 58.69 6.7
6 -7 -4 57.59 6.4
7 -6 4 54.19 9.4
6 -7 -4 63.19 7.3
6 -7 -4 61.69 6.6
6 -7 -4 65.19 7.2
-7 6 4 80.29 9.1
7 -6 -4 74.19 7.7
7 -6 -4 69.39 8
7 -6 -4 62.09 7.4
7 -6 -4 76.99 7.8
6 -7 4 53.19 10.8
8 -5 -4 85.79 8.6
5 -8 4 87.09 13.2
8 -5 -4 88.09 9.3
8 -5 -4 65.49 10
9 -4 -4 175.28 18.2
9 -4 -4 205.48 17.8
4 -9 4 173.18 19.5
9 -4 -4 207.58 17.5
9 -4 -4 205.98 18.6
10 -3 -4 58.79 6.8
10 -3 -4 61.09 7
10 -3 -4 48.8 6
3 -10 4 57.39 8.3
10 -3 -4 61.09 7.6
10 -3 -4 67.09 6.6
11 -2 -4 47.4 6.2
11 -2 -4 27.7 10.6
11 -2 -4 39.3 6.5
11 -2 -4 40.5 5.1
11 -2 -4 30.2 5.4
12 -1 -4 54.09 14.8
12 -1 -4 63.89 7.3
12 -1 -4 79.79 9.3
12 -1 -4 71.59 8.2
12 -1 -4 52.59 8.9
-13 0 4 54.29 6.6
0 13 -4 50.49 7.5
13 0 -4 54.69 7.9
13 0 -4 37.1 10.1
13 0 -4 58.89 7
-14 -1 4 109.69 10.5
1 14 -4 97.59 11.4
14 1 -4 109.39 13.3
14 1 -4 84.19 13.3
14 1 -4 106.69 10.4
2 15 -4 -1 5.9
-15 -2 4 11.9 3.2
15 2 -4 8.6 12.8
15 2 -4 20.8 4.8
-2 -16 -4 25.7 5.7
-2 -16 -4 23.1 6.2
1 15 4 -5.3 5.8
-1 -15 -4 -0.6 7.3
-1 -15 -4 1.4 2.8
-1 -15 -4 -2 4.8
0 -14 -4 -4 4.4
14 0 4 6.8 5.3
0 -14 -4 2.7 3.6
0 -14 -4 -2.3 4.7
-13 1 -4 103.59 12.3
-1 13 4 119.49 12.3
1 -13 -4 127.59 12
1 -13 -4 136.99 12.4
13 -1 4 96.79 15.1
1 -13 -4 117.99 11.3
-12 2 -4 350.86 32.3
-2 12 4 309.17 30.2
2 -12 -4 304.77 28.3
2 -12 -4 316.37 29.3
2 -12 -4 345.37 29.8
-11 3 -4 176.58 21.1
-3 11 4 146.09 15.3
3 -11 -4 133.99 13
3 -11 -4 125.69 12.5
3 -11 -4 152.48 13.6
3 -11 -4 126.49 12.9
3 -11 -4 131.69 13.3
11 -3 4 122.39 27.7
-4 10 4 -2.1 5.8
-10 4 -4 8.6 15.7
-4 10 4 -7.4 8.7
10 -4 4 -0.3 4.9
4 -10 -4 5.4 4.1
4 -10 -4 -0.1 8
4 -10 -4 2.8 3
4 -10 -4 3.7 4.1
-9 5 -4 -5.2 5.4
-5 9 4 -4.7 6.3
-5 9 4 -17.4 12.9
5 -9 -4 -3.5 3.2
5 -9 -4 -4.6 7.6
9 -5 4 0.5 14.1
5 -9 -4 -2.5 3.4
5 -9 -4 0.2 3.4
-6 8 4 210.78 20.3
-6 8 4 216.08 19.1
6 -8 -4 217.08 19.6
6 -8 -4 201.18 19.7
8 -6 4 185.28 24.7
6 -8 -4 201.68 18.6
6 -8 -4 237.88 20.6
-7 7 4 642.44 50.19
7 -7 -4 535.35 50.89
7 -7 4 551.34 55.89
7 -7 -4 581.84 48.8
7 -7 -4 605.34 49.7
7 -7 -4 558.14 50.99
-8 6 4 260.47 23.5
6 -8 4 177.98 25.2
8 -6 -4 228.48 19.8
8 -6 -4 225.58 21
8 -6 -4 233.58 20.6
8 -6 -4 199.38 19.7
8 -6 -4 220.78 21.2
5 -9 4 5.8 5.7
9 -5 -4 -9 4.8
9 -5 -4 3.7 3.1
9 -5 -4 -6.2 5.9
4 -10 4 6.1 4.3
10 -4 -4 7.4 5
11 -3 -4 125.69 12.6
11 -3 -4 154.48 14.3
11 -3 -4 136.79 22.7
3 -11 4 134.59 17
11 -3 -4 113.59 14.6
11 -3 -4 133.09 13.8
12 -2 -4 317.97 28.1
12 -2 -4 299.57 30.6
12 -2 -4 281.97 26.1
12 -2 -4 308.57 26.8
12 -2 -4 295.67 27.6
2 -12 4 290.67 29.3
13 -1 -4 100.19 11.8
13 -1 -4 110.09 11.4
13 -1 -4 137.89 13.8
13 -1 -4 126.59 12.4
0 14 -4 5.4 5.4
14 0 -4 -2.5 13.9
14 0 -4 2.7 4
1 15 -4 -10 6.2
15 1 -4 16.7 18.2
-16 -2 4 43.9 6.4
16 2 -4 41 7.6
-16 -1 -4 128.69 13.7
1 16 4 121.69 14.3
-1 -16 -4 142.29 13.7
-1 -16 -4 143.29 13
16 1 4 99.09 15
0 15 4 306.57 29.8
-15 0 -4 326.67 33
0 -15 -4 326.07 29.5
0 -15 -4 305.97 27.7
0 -15 -4 311.27 28.6
-14 1 -4 126.09 13.3
-1 14 4 114.09 13.3
1 -14 -4 130.49 13
14 -1 4 111.69 17.5
1 -14 -4 123.69 12.6
1 -14 -4 136.79 12.4
2 -13 -4 7.6 5.5
2 -13 -4 6.6 4.3
13 -2 4 11.1 19.9
-12 3 -4 -0.5 6.8
-3 12 4 14.8 11.4
3 -12 -4 1.9 9.7
12 -3 4 2.3 15.8
-11 4 -4 277.07 27.6
-4 11 4 259.67 27.5
-4 11 4 294.37 26.6
4 -11 -4 323.87 26.7
4 -11 -4 305.87 27.2
4 -11 -4 304.77 27.3
4 -11 -4 318.87 27.2
11 -4 4 265.17 39.9
4 -11 -4 302.07 26.6
-5 10 4 721.83 63.29
-5 10 4 658.53 66.09
-10 5 -4 706.03 65.29
5 -10 -4 776.62 64.39
5 -10 -4 831.92 63.89
5 -10 -4 775.22 61.19
5 -10 -4 636.14 64.99
5 -10 -4 758.82 62.49
-6 9 4 249.48 23.6
-6 9 4 263.87 27.3
6 -9 -4 240.98 21.6
6 -9 -4 276.17 22.8
6 -9 -4 252.57 23
6 -9 -4 219.98 22.6
-7 8 4 6.7 6.9
-7 8 4 0.1 7.1
7 -8 -4 14.4 3.6
7 -8 -4 -3.8 4.7
8 -7 4 10.8 12.9
-8 7 4 11.2 9.4
8 -7 -4 3.4 4.7
8 -7 -4 14.5 4.2
8 -7 -4 13.7 5.3
8 -7 -4 13.2 4.7
7 -8 4 6.6 11.6
-9 6 4 308.97 27.2
9 -6 -4 300.17 25.3
9 -6 -4 251.47 24
6 -9 4 251.47 38.6
9 -6 -4 228.78 24.2
9 -6 -4 279.57 23.9
10 -5 -4 715.13 65.69
10 -5 -4 866.11 68.69
10 -5 -4 758.82 68.89
10 -5 -4 796.02 67.59
11 -4 -4 260.07 25.1
11 -4 -4 272.47 25.6
11 -4 -4 305.17 25.5
11 -4 -4 291.87 27.1
11 -4 -4 300.07 26.8
12 -3 -4 6.9 5.1
12 -3 -4 1.4 3.2
12 -3 -4 -1.3 7.9
12 -3 -4 5.7 4.8
12 -3 -4 -6.7 13.6
2 -13 4 23.5 6.7
13 -2 -4 0.3 8.9
13 -2 -4 12.5 4
13 -2 -4 0.7 5.9
14 -1 -4 137.89 14.9
14 -1 -4 130.19 15.6
14 -1 -4 151.88 13.9
14 -1 -4 108.09 21.2
0 15 -4 297.87 29.9
15 0 -4 336.07 29.1
15 0 -4 302.77 36.9
15 0 -4 375.56 31.1
1 16 -4 110.69 12.4
16 1 -4 111.09 12.4
16 1 -4 123.49 16.7
16 1 -4 106.59 13.8
0 16 4 13 6.3
0 -16 -4 2.2 4.9
-1 15 4 27 11.8
15 -1 4 1.4 13.1
1 -15 -4 21.8 5.3
-14 2 -4 48.8 7.4
-2 14 4 50.09 7.1
2 -14 -4 61.59 7.2
2 -14 -4 70.89 7.6
14 -2 4 37.4 10.8
2 -14 -4 65.29 7.7
-3 13 4 165.08 16.1
-13 3 -4 169.98 16.3
13 -3 4 122.09 20.3
3 -13 -4 166.68 15
3 -13 -4 160.18 15.7
3 -13 -4 146.19 15.3
-4 12 4 160.38 16.2
-4 12 4 175.48 22.2
-12 4 -4 169.28 17.6
4 -12 -4 198.58 16.5
12 -4 4 130.89 22.7
4 -12 -4 183.08 16.9
4 -12 -4 178.08 16.9
-11 5 -4 -10.4 13.7
-5 11 4 -4.2 10.8
-5 11 4 -9.8 14.8
5 -11 -4 1.8 4.3
5 -11 -4 1.2 5.1
11 -5 4 0.9 28.7
5 -11 -4 -2.2 8.4
5 -11 -4 -0.9 5.6
-6 10 4 -5.4 6.1
-6 10 4 -7 13.8
6 -10 -4 0.3 3.2
10 -6 4 7.4 4.9
6 -10 -4 -7.3 5
6 -10 -4 8.2 4.7
-7 9 4 127.79 14.7
-7 9 4 124.69 20.1
7 -9 -4 145.09 12.8
9 -7 4 108.49 17.1
7 -9 -4 141.19 13.3
7 -9 -4 141.19 13.3
7 -9 -4 118.39 12.9
-8 8 4 262.77 26.5
8 -8 -4 257.27 22.9
8 -8 -4 253.57 22.4
8 -8 -4 286.17 23.5
8 -8 -4 226.68 23
8 -8 4 193.98 33.2
-9 7 4 162.98 19.9
7 -9 4 129.19 23.6
9 -7 -4 157.78 15
9 -7 -4 142.09 15
9 -7 -4 161.78 15.3
9 -7 -4 177.38 16.1
6 -10 4 9.1 19.4
10 -6 -4 3.6 4.3
11 -5 -4 -6.1 7.8
12 -4 -4 166.88 15.7
12 -4 -4 179.88 19.8
4 -12 4 148.09 16.7
12 -4 -4 151.18 17.7
12 -4 -4 181.88 17.2
13 -3 -4 140.09 18.1
13 -3 -4 135.49 15.7
13 -3 -4 139.29 14.2
13 -3 -4 179.88 16.2
14 -2 -4 47.3 10.6
14 -2 -4 51.49 7.7
14 -2 -4 57.99 7.1
15 -1 -4 16.2 20.9
15 -1 -4 15.6 5.6
16 0 -4 1.3 22.3
-1 16 4 127.59 14.3
-16 1 -4 142.89 14.7
1 -16 -4 132.29 13.2
1 -16 -4 137.89 14.4
1 -16 -4 148.09 13.9
2 -15 -4 10.7 4.4
2 -15 -4 19.2 4.4
15 -2 4 -0.6 11.9
-14 3 -4 7.3 4
-3 14 4 7.5 4.8
3 -14 -4 3.2 4.6
3 -14 -4 5 4.7
3 -14 -4 3.4 4
14 -3 4 7.3 5.3
-13 4 -4 29.8 6.8
-4 13 4 26.1 4.7
4 -13 -4 30.1 5.8
4 -13 -4 25.6 5.6
13 -4 4 20.3 5.3
4 -13 -4 24 5.4
-5 12 4 79.49 11.3
-5 12 4 70.99 8.8
5 -12 -4 73.79 8
5 -12 -4 86.29 9.7
5 -12 -4 100.29 9.7
12 -5 4 73.29 18.1
5 -12 -4 87.09 9.7
-6 11 4 420.16 39.9
-6 11 4 390.66 37.2
6 -11 -4 435.96 38.4
6 -11 -4 397.26 36.9
6 -11 -4 468.05 40.3
6 -11 -4 416.96 38.7
6 -11 -4 461.85 37.7
-7 10 4 35.3 10.4
-7 10 4 37.6 13.4
7 -10 -4 46.5 6.7
7 -10 -4 57.19 6.7
7 -10 -4 56.09 7.1
7 -10 -4 46.1 6.9
8 -9 -4 11.9 4
8 -9 -4 24.6 5.3
9 -8 4 15 4.6
-9 8 4 12.6 4.5
9 -8 -4 23.9 5.3
9 -8 -4 15.4 4.8
-10 7 4 59.89 7.7
7 -10 4 50.29 15.9
10 -7 -4 47.4 7.1
10 -7 -4 42.5 6.3
10 -7 -4 36.7 13.5
10 -7 -4 51.59 7.8
11 -6 -4 516.05 40.1
11 -6 -4 442.66 40.4
11 -6 -4 390.76 39.4
11 -6 -4 477.55 38.9
6 -11 4 390.36 46.7
12 -5 -4 108.99 10.1
12 -5 -4 101.89 12
12 -5 -4 82.69 10.4
12 -5 -4 86.09 12
5 -12 4 73.99 11
13 -4 -4 24.3 4.7
13 -4 -4 14.7 11.9
13 -4 -4 18.9 6.2
14 -3 -4 17.6 6
14 -3 -4 11.4 4.3
14 -3 -4 -2.2 4.9
14 -3 -4 -1.6 5.4
15 -2 -4 6.7 10.8
15 -2 -4 18.8 6.4
15 -2 -4 25 6.4
16 -1 -4 131.19 14.3
16 -1 -4 136.89 13.4
16 -1 -4 115.59 22.3
-2 16 4 44.2 7.2
-16 2 -4 37.2 7.4
2 -16 -4 43.5 7.2
-3 15 4 -4.2 5.5
3 -15 -4 3.1 4.2
3 -15 -4 0.6 4.7
15 -3 4 19.9 12.6
-4 14 4 23.8 5.6
4 -14 -4 23.9 5.6
4 -14 -4 16.4 5.2
14 -4 4 26.6 16.2
4 -14 -4 9.1 6.8
-5 13 4 -7 4.8
-5 13 4 2.3 4.2
5 -13 -4 -1.2 4.7
5 -13 -4 6.5 4.7
13 -5 4 2.7 5.7
5 -13 -4 1 4.5
-6 12 4 107.19 12.9
-6 12 4 131.69 13.2
12 -6 4 120.49 18.6
6 -12 -4 156.98 13.4
6 -12 -4 140.49 12.4
6 -12 -4 128.59 13.6
6 -12 -4 124.79 13.2
-7 11 4 89.09 18
-7 11 4 104.59 11.2
7 -11 -4 110.29 11.5
7 -11 -4 99.69 10.1
7 -11 -4 119.89 11.4
7 -11 -4 97.09 10.4
11 -7 4 80.59 14.1
-8 10 4 -0.8 5.9
-8 10 4 -15.1 10.4
10 -8 4 8.1 5.2
8 -10 -4 -11 5.5
8 -10 -4 -0.3 4.5
-9 9 4 51.69 6.3
9 -9 -4 50.49 7.1
9 -9 4 39.9 6.9
9 -9 -4 44.4 7.3
9 -9 -4 60.49 7
10 -8 -4 6.2 4.2
8 -10 4 6.8 6
10 -8 -4 5.1 4.3
10 -8 -4 -4.1 4.8
-11 7 4 90.59 13.8
11 -7 -4 115.09 11.6
7 -11 4 124.49 15
11 -7 -4 100.99 11.3
11 -7 -4 102.99 11.8
12 -6 -4 128.09 14.1
12 -6 -4 146.19 14.9
6 -12 4 105.89 14.3
12 -6 -4 153.28 14.2
12 -6 -4 122.49 12.8
13 -5 -4 2.2 5.8
13 -5 -4 2.5 4
13 -5 -4 -1.7 3.6
13 -5 -4 6.3 5.2
14 -4 -4 23.5 10.8
14 -4 -4 33.4 8.5
14 -4 -4 45.6 6.5
14 -4 -4 39.1 7.6
14 -4 -4 30.8 6.7
15 -3 -4 13.2 4.2
15 -3 -4 17.7 7.6
16 -2 -4 29.3 7
16 -2 -4 17.3 9.3
-4 15 4 113.49 14.5
-15 4 -4 136.49 14.8
4 -15 -4 158.68 14.8
4 -15 -4 156.58 15
4 -15 -4 140.09 13.9
-14 5 -4 176.68 18.9
-5 14 4 171.28 21.7
5 -14 -4 182.98 17.4
5 -14 -4 191.38 18.2
5 -14 -4 185.18 18.2
-13 6 -4 30.8 5.9
-6 13 4 24.2 4.4
-6 13 4 26.8 5.8
6 -13 -4 22.4 6.4
6 -13 -4 23.3 6.4
13 -6 4 24.6 10.2
6 -13 -4 24.8 5.7
-12 7 -4 0.5 6.3
-7 12 4 -0.8 3.7
7 -12 -4 -3.7 4.1
7 -12 -4 6.1 5.7
7 -12 -4 5 4.3
7 -12 -4 2.8 5.2
12 -7 4 1.9 6.1
-8 11 4 21.8 8.1
-8 11 4 31.3 10.6
8 -11 -4 30.4 6.5
8 -11 -4 31.7 5.5
8 -11 -4 36.2 5.1
-9 10 4 195.88 22.4
-9 10 4 199.98 23.6
9 -10 -4 177.48 18.7
9 -10 -4 223.38 18.3
10 -9 4 225.38 27.6
9 -10 -4 164.88 18
-10 9 4 227.38 24.1
9 -10 4 202.98 27.6
10 -9 -4 180.58 19.3
10 -9 -4 179.08 18.7
10 -9 -4 230.88 19
-11 8 4 39.8 11.1
11 -8 -4 42.5 6.3
8 -11 4 40.4 7.2
11 -8 -4 58.49 8.6
11 -8 -4 52.89 7.3
-12 7 4 6 9.8
12 -7 -4 7.3 5.3
12 -7 -4 8.9 7
12 -7 -4 -8.3 6
12 -7 -4 0.4 10.2
13 -6 -4 32.2 7.1
13 -6 -4 13.2 10.2
13 -6 -4 29.9 5.3
13 -6 -4 36.7 6.7
14 -5 -4 166.28 16.2
5 -14 4 144.79 18.4
14 -5 -4 173.28 21.6
14 -5 -4 147.39 18.1
14 -5 -4 200.78 18.5
4 -15 4 111.19 14.1
15 -4 -4 126.19 12.5
15 -4 -4 106.59 12.2
15 -4 -4 127.79 18
-15 5 -4 -3.9 4.7
15 -5 4 3.9 16.7
5 -15 -4 6.5 5.6
-14 6 -4 31.6 8
-6 14 4 30.2 6.7
-6 14 4 17.9 7.8
6 -14 -4 25 5.2
6 -14 -4 23 7
6 -14 -4 36.7 6.6
14 -6 4 26.7 7.5
-7 13 4 157.68 17
-13 7 -4 161.18 16.4
-7 13 4 146.89 17.7
7 -13 -4 126.79 14.3
7 -13 -4 154.68 15.6
-8 12 4 155.08 16.4
-8 12 4 163.68 15.8
12 -8 4 146.69 20.4
8 -12 -4 182.38 16.1
8 -12 -4 183.18 17
-9 11 4 26.3 7.4
-9 11 4 27.1 7.8
9 -11 -4 26.6 5.5
-10 10 4 2.8 4.6
-10 10 4 -7.9 4.7
10 -10 -4 6.1 4.2
10 -10 -4 -8.4 6.1
10 -10 -4 6.5 5.8
10 -10 -4 0.7 4.9
-11 9 4 26.2 7.5
11 -9 -4 37.7 7.3
11 -9 -4 38.6 7.8
11 -9 -4 38.4 7
-12 8 4 216.98 25.9
12 -8 -4 227.28 21
12 -8 -4 252.77 22.2
8 -12 4 180.38 25.5
12 -8 -4 202.28 20.9
-13 7 4 169.58 22.8
13 -7 -4 182.38 17.4
13 -7 -4 153.58 16.4
13 -7 -4 148.19 20.4
14 -6 -4 24.2 13.6
14 -6 -4 32 5.5
14 -6 -4 18 8
15 -5 -4 -0.3 15.3
15 -5 -4 -11.9 5.8
15 -5 -4 -1 5.7
15 -5 -4 -11.7 5.8
5 -15 4 6.5 7.3
-15 6 -4 127.29 14.9
-6 15 4 133.79 14.7
6 -15 -4 167.58 16
15 -6 4 111.89 17.9
6 -15 -4 169.78 14.7
-14 7 -4 13.9 7.4
14 -7 4 25 7.2
7 -14 -4 20.8 6.4
7 -14 -4 19.1 6.5
-8 13 4 -3.3 5.3
-8 13 4 -5.4 4.8
8 -13 -4 3.6 4.2
8 -13 -4 -4.2 5.5
8 -13 -4 -4 4.2
13 -8 4 -3.6 4.8
-9 12 4 16.2 5.9
9 -12 -4 25.7 5.7
9 -12 -4 26.6 6.9
9 -12 -4 15 5.2
9 -12 -4 31.3 5.9
-10 11 4 276.97 31.5
-10 11 4 272.67 30.3
10 -11 -4 354.66 29.6
10 -11 -4 344.67 30.1
10 -11 -4 367.46 28.6
10 -11 -4 278.37 28.8
11 -10 4 332.67 49.1
-11 10 4 337.07 33.9
11 -10 -4 398.86 31.6
10 -11 4 273.37 43
11 -10 -4 351.86 32.7
12 -9 -4 35.4 7.8
12 -9 -4 35.4 7.6
-13 8 4 -2.8 6
13 -8 -4 4.3 6.2
13 -8 -4 5 5.4
8 -13 4 -1.5 8.1
7 -14 4 25.3 7.9
14 -7 -4 23.5 5.7
14 -7 -4 4 7.2
14 -7 -4 13.3 4.3
14 -7 -4 5.5 5.5
15 -6 -4 143.69 15.1
6 -15 4 108.79 15.6
15 -6 -4 121.29 13.7
15 -6 -4 166.28 16.5
15 -6 -4 138.49 14.2
-8 14 4 24.8 4.9
-14 8 -4 39.5 7.5
-9 13 4 41.3 7.3
-9 13 4 39.1 6.9
9 -13 -4 43.4 7.4
9 -13 -4 54.79 6.6
13 -9 4 50.09 8.8
-10 12 4 8.4 5.3
10 -12 -4 24.3 6.7
12 -10 4 8.6 7.4
-11 11 4 19.7 6.3
11 -11 -4 21.5 5.7
-12 10 4 -2.4 4.2
12 -10 -4 2.1 5.2
12 -10 -4 6.7 4.7
10 -12 4 -5 5.5
12 -10 -4 14.7 5.7
-13 9 4 40 5.9
13 -9 -4 57.39 8.2
13 -9 -4 45.4 9.2
13 -9 -4 45.9 8.7
-14 8 4 21.9 4.6
14 -8 -4 27.1 4.7
14 -8 -4 21 7.8
14 -8 -4 22.5 6.1
9 9 5 0.8 5.1
9 9 5 -9 6.4
8 8 5 8.5 6.6
8 8 5 23.2 5.6
-7 -7 -5 60.19 7.3
-7 -7 -5 53.49 7.2
6 6 5 45 8.1
4 4 5 36.2 7.4
-3 -3 -5 31.8 6.1
3 3 5 31.4 7.9
3 3 5 35.8 6.6
2 2 5 99.49 12
2 2 5 141.99 20.5
-2 -2 -5 103.59 16.5
-2 -2 -5 118.39 15.9
1 1 5 63.69 10.8
1 1 5 40.9 8.1
1 1 -5 65.69 19.8
2 2 -5 101.29 15.2
7 7 -5 60.19 6.9
7 7 -5 51.99 7.1
-7 -7 5 59.49 7.5
8 8 -5 7.1 4
-8 -8 5 4.3 3.3
9 9 -5 7.4 5
-9 -9 5 4.6 5.1
9 10 5 36 6.8
10 9 5 43.5 7.2
-9 -10 -5 29.8 6
8 9 5 5.9 5.3
8 9 5 5.6 4.7
9 8 5 8 6.5
-8 -9 -5 10.8 3.5
7 8 5 16.2 5.1
7 8 5 1.1 4.6
-7 -8 -5 5.8 4
8 7 5 6 5.1
8 7 5 16.2 5.8
6 7 5 4.1 4.5
5 6 5 127.29 13.4
-6 -5 -5 125.19 13.6
-6 -5 -5 107.69 13.8
5 6 5 147.89 14
-5 -6 -5 101.69 12.3
-5 -6 -5 150.78 14.6
-5 -6 -5 112.39 12.9
-5 -4 -5 98.09 10.9
-5 -4 -5 119.29 14.8
-4 -5 -5 105.69 11.5
-4 -5 -5 122.59 15.4
5 4 5 102.39 12.7
5 4 5 102.09 13.7
-4 -5 -5 76.29 10.9
3 4 5 13.6 8.3
-4 -3 -5 6.7 4.8
-4 -3 -5 2.7 4.9
-4 -3 -5 -2.9 4.3
3 4 5 12.4 4.6
-3 -4 -5 -0.5 3.5
2 3 5 9.3 8.9
2 3 5 -1.6 4.9
-3 -2 -5 12.2 10
-3 -2 -5 -0.9 9.4
-3 -2 -5 13.5 9.6
-2 -3 -5 -0.4 3.9
-2 -3 -5 5 3.5
3 2 5 13.3 7.2
-2 -3 -5 10.3 8.5
3 2 5 0.2 5
2 1 5 39.4 11
0 1 5 152.88 15.3
1 0 5 140.69 16.4
-1 0 5 195.48 21.6
0 -1 5 238.38 22.6
2 1 -5 14.1 11.5
2 3 -5 2.7 7
2 3 -5 1.7 5.5
3 2 -5 3.2 3.6
3 2 -5 5.6 7.2
3 2 -5 1.4 3.7
3 4 -5 0.3 3.6
4 5 -5 105.89 12.7
-5 -4 5 90.99 13
4 5 -5 122.89 12.9
5 4 -5 113.19 12.1
5 4 -5 93.99 12
5 6 -5 128.19 11.4
6 5 -5 102.49 11.7
6 5 -5 96.29 11.4
6 5 -5 95.69 11.6
6 7 -5 3.2 3.7
7 6 -5 1.1 3.3
7 6 -5 8.4 3.1
-6 -7 5 -2.7 4.6
7 8 -5 -0.8 2.7
-8 -7 5 1.1 4.6
7 8 -5 6.4 4.6
7 8 -5 -3.1 4.3
8 7 -5 4.3 3.3
8 7 -5 8.1 5.8
-7 -8 5 -1.8 3.3
8 7 -5 5.7 3.2
-9 -8 5 11.9 4.3
8 9 -5 0 6.4
9 8 -5 -3.3 6
-8 -9 5 18.6 5.1
-9 -10 5 32.5 5.7
8 10 5 -13.7 6.7
8 10 5 2.4 4.6
10 8 5 -1.3 4.6
-8 -10 -5 0.5 3
10 8 5 -8.8 9.6
7 9 5 12 4.4
9 7 5 19.9 15.7
-7 -9 -5 2.3 7.7
6 8 5 18.9 5.2
8 6 5 30.9 6.6
5 7 5 -11.5 12.7
-7 -5 -5 -4.8 7.2
-5 -7 -5 -1.9 4.1
-5 -7 -5 1.3 3.8
-5 -7 -5 3.4 4.9
-5 -7 -5 2.4 4.5
7 5 5 -0.7 8.1
7 5 5 -0.9 5.7
4 6 5 9.8 8.9
4 6 5 27.8 5.5
6 4 5 20 6.3
3 5 5 4 12.3
3 5 5 0.3 4.2
-5 -3 -5 3.1 4.9
-5 -3 -5 1.2 7.4
-5 -3 -5 4.4 5
5 3 5 3.9 3.4
-3 -5 -5 -0.9 6.4
-3 -5 -5 -3.1 4.7
5 3 5 -3.3 5.2
-3 -5 -5 -2.2 9.8
2 4 5 36.5 5.9
2 4 5 38.4 11
4 2 5 47.3 15.6
-2 -4 -5 36.2 7.9
4 2 5 45.2 7.2
3 1 5 43.9 7.7
3 1 5 40.8 6.5
0 2 5 4.9 18.4
-2 0 -5 5.9 6.8
-2 0 -5 16 16.4
0 2 5 10.9 5.2
0 -2 -5 16.2 11.3
0 -2 -5 5.2 7.3
2 0 5 7 6.2
1 -1 -5 48.5 9.2
1 -1 5 44.9 8
0 2 -5 14.2 17.9
0 2 -5 17.8 15.2
0 -2 5 23.8 22.7
2 0 -5 5.2 7.2
3 1 -5 50.19 7.6
3 1 -5 39.2 7.3
2 4 -5 31.5 12.2
4 2 -5 48.2 6.1
3 5 -5 -2 12.1
3 5 -5 -1.3 5.4
-5 -3 5 -2.8 3
5 3 -5 -6.1 4.4
5 3 -5 -4 3.5
5 3 -5 3.4 3.8
5 3 -5 6 3.3
-6 -4 5 31.3 7
6 4 -5 44.3 10.2
6 4 -5 23.3 5.4
-7 -5 5 -0.4 6.1
5 7 -5 -2 3.7
5 7 -5 -3.4 3.6
7 5 -5 1.2 3.5
7 5 -5 2.9 9.8
7 5 -5 -3.1 10.4
-8 -6 5 29.2 5.2
-6 -8 5 19.1 4.8
8 6 -5 24.9 4.8
7 9 -5 31.3 7.5
-7 -9 5 18 5.5
8 10 -5 1.1 6.2
-10 -8 5 -3.1 4.7
10 8 -5 1.7 4.3
8 11 5 9.2 6.8
11 8 5 19.3 7.4
11 8 5 6.8 5.9
-8 -11 -5 0.5 4
7 10 5 2.4 4.5
10 7 5 -3.6 6.7
-6 -9 -5 37.3 6.8
9 6 5 56.39 7.8
5 8 5 21.7 6.2
8 5 5 21.2 6.2
8 5 5 22.3 7.2
7 4 5 9.6 10.1
-4 -7 -5 -5.2 6
-4 -7 -5 14.5 12.5
-4 -7 -5 6 11.3
-6 -3 -5 8.3 6.4
6 3 5 6.2 7
-3 -6 -5 -5.9 10.6
2 5 5 8.7 3.2
2 5 5 5.1 14.2
-2 -5 -5 8.6 10.9
-2 -5 -5 7.6 7.2
-2 -5 -5 3.3 20.3
5 2 5 7.7 8.6
1 4 5 104.79 13.5
-1 -4 -5 79.09 12.3
4 1 5 89.29 15.1
-1 -4 -5 91.99 11
4 1 5 82.59 11
0 3 5 10.7 17
-3 0 -5 10.9 8
-3 0 -5 16.7 13.3
0 3 5 6.8 4.5
0 -3 -5 3.2 6.5
3 0 5 0.4 4
0 -3 -5 5.2 7.7
-2 1 -5 12.1 9.8
-1 2 -5 18.9 14.5
1 -2 5 13.8 9.3
3 0 -5 11.3 10.3
3 0 -5 10.2 10.1
4 1 -5 96.19 14.4
4 1 -5 92.39 10.9
2 5 -5 1.4 6.6
5 2 -5 6.8 7.8
5 2 -5 17.8 5
3 6 -5 8.6 8.4
3 6 -5 2.1 3.9
4 7 -5 1.8 3.4
-7 -4 5 8.6 3
4 7 -5 7.2 4.9
7 4 -5 11.9 8.2
7 4 -5 5.1 3.6
7 4 -5 19 5.5
-8 -5 5 13 3.2
8 5 -5 16.1 3.2
8 5 -5 13.3 4
-9 -6 5 35.8 5.8
9 6 -5 36.8 5.7
9 6 -5 37.5 5.8
-7 -10 5 -2.5 5
10 7 -5 -0.9 4.1
-11 -8 5 9.2 4.7
-8 -11 5 9.2 4.3
5 9 5 2.7 4.1
-5 -9 -5 3.4 2.8
-4 -8 -5 22 4.6
8 4 5 23.7 5.4
-4 -8 -5 24.7 5.2
3 7 5 56.29 7.1
-3 -7 -5 65.29 7.7
-3 -7 -5 44.5 6.4
7 3 5 61.89 8.4
-3 -7 -5 42.2 6.1
-3 -7 -5 58.79 7.7
2 6 5 53.79 15
-2 -6 -5 34 4.9
-2 -6 -5 25.5 4.6
1 5 5 29.9 8.7
-1 -5 -5 41.1 10
5 1 5 35.9 9
0 4 5 11.6 5.3
1 -3 -5 59.49 7.9
3 -1 5 59.19 13.8
1 -3 -5 48.2 7
1 -3 -5 64.89 8.7
3 -1 5 41 9.5
-2 2 -5 90.59 15.4
-2 2 -5 96.09 17.2
2 -2 5 96.59 14.3
2 -2 5 86.59 13.5
2 -2 -5 72.69 13.9
2 -2 -5 115.79 18
-1 3 -5 60.29 8
3 -1 -5 61.29 7.6
1 5 -5 22.1 16.3
6 2 -5 52.99 6.2
6 2 -5 40 6.6
3 7 -5 48.5 7.2
7 3 -5 60.29 6.9
7 3 -5 52.99 8.8
7 3 -5 37.9 5.6
4 8 -5 21.9 4.3
8 4 -5 19 4.2
8 4 -5 14.8 3.5
-9 -5 5 -0.2 2.9
11 7 -5 16.7 5.6
-7 -11 5 8.1 5.7
7 12 5 2.5 6.6
12 7 5 7.9 6.7
12 7 5 6.6 6.1
-6 -11 -5 31.8 4.7
5 10 5 107.49 13.7
-5 -10 -5 108.69 11.6
-5 -10 -5 129.79 12.1
10 5 5 113.69 12.9
4 9 5 36 7
9 4 5 43.9 6.7
-4 -9 -5 35.4 5.4
-4 -9 -5 37.3 5.5
3 8 5 6.6 3.8
-3 -8 -5 2.2 2.9
8 3 5 16.8 5.6
-3 -8 -5 7.4 3.8
-3 -8 -5 0.3 3.1
-2 -7 -5 3 3.4
-2 -7 -5 9.3 3.3
-2 -7 -5 6.8 5.1
1 6 5 114.99 15.7
-1 -6 -5 108.09 14.8
6 1 5 132.79 14.3
6 1 5 97.79 15.4
-1 -6 -5 101.69 11.2
-1 -6 -5 105.59 14.5
0 -5 -5 241.98 21.9
5 0 5 251.87 24.7
0 -5 -5 259.87 23.5
-4 1 -5 68.79 12
4 -1 5 80.19 9.9
1 -4 -5 61.09 7.3
4 -1 5 61.99 9.5
-2 3 5 0 13.4
-3 2 -5 14.2 14
2 -3 -5 8 7.6
3 -2 5 13.5 14.8
3 -2 5 8.5 10.1
2 -3 -5 0.6 4.8
-2 3 -5 9.9 7.9
2 -3 5 7.2 5.5
3 -2 -5 8.1 6.7
3 -2 -5 10.1 8.3
2 -3 5 7.2 9.8
3 -2 -5 13.1 10
-1 4 -5 100.89 15.6
4 -1 -5 92.89 11.1
4 -1 -5 101.59 12.4
1 -4 5 70.29 10.5
0 5 -5 197.58 17.9
5 0 -5 192.88 18.3
1 6 -5 90.59 11.2
6 1 -5 70.59 10
6 1 -5 91.99 11
6 1 -5 99.69 12.1
3 8 -5 2.2 2.5
3 8 -5 -0.4 3
8 3 -5 0.5 3.2
8 3 -5 -1.6 3.6
8 3 -5 3.4 4.1
8 3 -5 0.6 3.5
-9 -4 5 17.5 3.5
-10 -5 5 66.69 8.1
10 5 -5 71.89 7.8
10 5 -5 73.89 8.3
-11 -6 5 51.89 6.4
11 6 -5 41.5 6.2
11 6 -5 40.2 6.3
11 6 -5 50.49 8.7
-7 -12 5 1 5.8
12 7 -5 7 5.7
-6 -12 -5 19.1 4.8
10 4 5 3.9 5.8
10 4 5 7.5 12.7
3 9 5 14.2 4.9
-3 -9 -5 4.8 3.7
9 3 5 6.3 4.3
-3 -9 -5 1.9 3.5
9 3 5 4.2 4.8
2 8 5 42.5 6.4
-2 -8 -5 34.7 5.2
-2 -8 -5 27.2 4.9
-2 -8 -5 36.1 5.9
1 7 5 66.79 8.9
-1 -7 -5 68.69 7.8
-1 -7 -5 60.69 7.8
7 1 5 58.39 9.1
-1 -7 -5 54.29 7.2
0 -6 -5 31.2 6.4
1 -5 -5 30.2 5.9
5 -1 5 21.1 7.2
-2 4 5 37 9.8
4 -2 5 44.2 13.5
2 -4 -5 49.9 8.9
2 -4 -5 50.49 9.4
-3 3 5 34.8 5.2
3 -3 -5 39.6 10.7
3 -3 5 33.6 6.8
3 -3 -5 27.4 6.2
-2 4 -5 40 9
2 -4 5 36.4 5.5
4 -2 -5 26.4 4.3
1 7 -5 43 5.9
7 1 -5 46.6 5.4
7 1 -5 37.7 5.4
2 8 -5 27.4 4.8
2 8 -5 28.5 4.7
3 9 -5 4.5 4.1
-9 -3 5 10.8 3.4
9 3 -5 18.7 4.6
-10 -4 5 1.8 2.7
10 4 -5 -0.9 8.9
11 5 -5 3.8 5.2
5 12 5 6 6.1
12 5 5 6.5 4.6
12 5 5 13.9 6
11 4 5 60.49 11.6
-4 -11 -5 52.39 7.5
3 10 5 4.4 5
-3 -10 -5 -2.3 3.7
10 3 5 -3.5 7.8
2 9 5 5.3 4.7
-2 -9 -5 7.4 4.1
-2 -9 -5 10.6 3.8
9 2 5 2.6 3.9
-2 -9 -5 1.6 3.2
9 2 5 -0.1 10.9
-2 -9 -5 -1.2 3.5
1 8 5 18 5.3
8 1 5 12.4 4.4
0 7 5 29.2 7.7
0 -7 -5 13.8 3.5
7 0 5 26.8 7.3
7 0 5 5.1 4.6
-1 6 5 102.69 10.4
1 -6 -5 80.99 11.4
1 -6 -5 105.39 12.1
6 -1 5 86.19 12.7
-2 5 5 4.7 7.2
2 -5 -5 9.4 7.5
2 -5 -5 12.1 12.9
5 -2 5 13.5 22.5
-3 4 5 3.7 7.2
3 -4 -5 4.4 5.3
4 -3 5 6.6 3.7
3 -4 -5 16.3 7.4
-3 4 -5 5.8 9.8
4 -3 -5 7 4.9
-2 5 -5 11.1 21.9
-2 5 -5 19.2 24.8
2 -5 5 12.4 7.4
-1 6 -5 76.79 10.3
6 -1 -5 81.79 10
0 7 -5 10.4 4
0 7 -5 5.1 5.1
2 9 -5 0.5 4
2 9 -5 6.3 4.2
10 3 -5 -6.4 4.1
-11 -4 5 43.2 5.8
11 4 -5 48.7 6.1
11 4 -5 29.7 6.8
-12 -5 5 6.6 3.6
12 5 -5 1.9 4.9
5 13 5 3.8 6.4
13 5 5 0.1 4.2
-5 -13 -5 -1.2 4.2
13 5 5 -3.4 4.3
12 4 5 26.1 7.4
-3 -11 -5 28.6 4.8
2 10 5 -6.8 7.5
-2 -10 -5 -1 3
10 2 5 12.7 12.8
-2 -10 -5 5.2 3.6
-1 -9 -5 18.6 5.6
9 1 5 17.5 5.5
9 1 5 32.2 13.8
0 8 5 3 3.6
8 0 5 5.2 4.1
0 -8 -5 -5.8 3.3
0 -8 -5 0.4 3.4
0 -8 -5 0.5 3.9
-1 7 5 56.09 7.3
1 -7 -5 60.09 6.9
1 -7 -5 53.79 6.7
1 -7 -5 42.2 6.1
-2 6 5 53.69 9
2 -6 -5 36.5 10
6 -2 5 53.59 12.4
2 -6 -5 44.5 12.2
2 -6 -5 54.29 6.9
-3 5 5 -5.6 7.6
3 -5 -5 2.7 8
5 -3 5 2.7 22.7
3 -5 -5 2.9 11.2
4 -4 -5 26.5 4.9
4 -4 -5 25.7 6.2
4 -4 5 34.2 11.6
-3 5 -5 6.2 5.9
5 -3 -5 3.4 3.8
5 -3 -5 3.5 2.6
6 -2 -5 32.7 4.8
6 -2 -5 37.1 5.3
6 -2 -5 40.6 5.7
-1 7 -5 49.2 7.4
7 -1 -5 56.39 6.9
7 -1 -5 48.9 7.6
7 -1 -5 56.39 6.6
0 8 -5 1 3
0 8 -5 0.9 4
1 9 -5 15.3 3.9
2 10 -5 -0.8 3.4
2 10 -5 -3 3.6
12 4 -5 6.8 3.9
12 4 -5 13.1 3.2
-13 -5 5 2.2 3.2
13 5 -5 2.5 4.2
13 5 -5 3.5 5
13 5 -5 -3.5 4.9
13 5 -5 3.3 4.2
4 13 5 9.8 4.6
-4 -13 -5 0.9 3
-3 -12 -5 2.1 3.8
2 11 5 6.9 5.5
11 2 5 23.3 12
-2 -11 -5 -0.3 3.8
1 10 5 83.99 10.4
-1 -10 -5 74.19 8.5
-1 -10 -5 74.49 8.9
-9 0 -5 69.49 11
0 9 5 76.09 9.6
0 -9 -5 100.19 10.3
0 -9 -5 94.99 10
0 -9 -5 92.69 10.4
-1 8 5 7.7 8.3
1 -8 -5 21 4.1
8 -1 5 17.6 4.7
7 -2 5 9.5 7.3
2 -7 -5 15.3 4.2
-3 6 5 9.1 7.4
6 -3 5 20.1 7.1
-4 5 5 126.19 13.2
4 -5 -5 139.59 16.1
4 -5 -5 118.59 17.8
4 -5 -5 120.89 15
5 -4 -5 127.19 14.3
5 -4 -5 129.29 17.5
4 -5 5 129.09 16.4
5 -4 -5 140.49 18.4
0 9 -5 45.5 6.2
9 0 -5 47.3 6.2
9 0 -5 60.49 6.1
1 10 -5 67.49 9.1
10 1 -5 77.99 8.6
10 1 -5 84.09 9.2
10 1 -5 92.29 10.2
10 1 -5 68.29 8.4
11 2 -5 -0.8 5.1
12 3 -5 -10.5 5.2
13 4 -5 -0.9 4
13 4 -5 6.6 5.5
13 4 -5 4.3 4.1
13 3 5 38.4 7.7
2 12 5 59.99 8.7
12 2 5 60.19 8.4
-2 -12 -5 48.4 6.5
-2 -12 -5 54.29 6.9
-1 -11 -5 20.1 4.7
11 1 5 29.6 9.8
0 10 5 32.8 9.5
0 -10 -5 21.3 5.6
-1 9 5 14.7 7.2
9 -1 5 20.6 13.6
-2 8 5 43.2 6.6
2 -8 -5 50.79 6.3
2 -8 -5 48.9 6.2
-3 7 5 62.69 8.8
3 -7 -5 73.09 9.6
7 -3 5 76.89 9.6
3 -7 -5 74.89 8
3 -7 -5 79.09 8.8
6 -4 5 29.2 10.2
5 -5 5 59.49 16
7 -3 -5 61.39 7.1
7 -3 -5 69.29 6.7
3 -7 5 64.39 8.2
7 -3 -5 49.7 6.9
8 -2 -5 52.39 6.2
8 -2 -5 42.3 6.1
9 -1 -5 21.6 4.6
11 1 -5 5.3 8.6
12 2 -5 50.69 7.3
12 2 -5 54.69 7.3
13 3 -5 10.1 4.1
13 3 -5 9.7 5.1
2 13 5 -6.9 6.3
-2 -13 -5 4.4 3
13 2 5 3.3 4.6
1 12 5 19.2 5.1
12 1 5 22.7 6.9
-1 -12 -5 9.3 4.7
-11 0 -5 77.29 10.3
0 -11 -5 75.69 8.4
1 -10 -5 90.99 9.4
1 -10 -5 81.79 9.5
1 -10 -5 96.69 9.9
1 -10 -5 91.99 10.5
10 -1 5 81.79 11.4
-2 9 5 -1.5 4.4
2 -9 -5 5.4 3.8
9 -2 5 1.5 7.7
8 -3 5 -1.8 3.7
3 -8 -5 12.2 4.7
3 -8 -5 2.4 3.6
7 -4 5 14 4.8
5 -6 -5 134.79 14.3
5 -6 -5 142.79 14.1
6 -5 5 171.78 17.8
5 -6 -5 170.28 20.4
6 -5 -5 173.18 20.2
6 -5 -5 150.38 17.4
6 -5 -5 161.08 16.2
7 -4 -5 18.1 4.1
4 -7 5 18.2 4.7
8 -3 -5 4.7 3.4
8 -3 -5 -4.7 3.1
9 -2 -5 15.1 4
10 -1 -5 97.49 11.6
10 -1 -5 95.89 12.7
10 -1 -5 113.69 13.2
11 0 -5 96.89 11.4
11 0 -5 100.89 12.1
11 0 -5 104.59 13.9
11 0 -5 107.99 10.7
11 0 -5 84.49 12.3
12 1 -5 18.5 5.6
12 1 -5 -2.2 4.7
-1 -13 -5 13.2 4.7
-1 -13 -5 23.3 3.8
0 12 5 4.2 5.1
12 0 5 -1.7 6.4
0 -12 -5 -7 3.8
0 -12 -5 -0.1 2.7
-1 11 5 17.4 4.9
1 -11 -5 21.2 3.7
11 -1 5 24 16.3
-2 10 5 1.3 6.2
-10 2 -5 5 4.3
2 -10 -5 10.5 3.3
10 -2 5 3.8 10.2
2 -10 -5 4.1 8.3
2 -10 -5 1.5 7.2
-3 9 5 3.4 5.9
9 -3 5 9.5 5.4
3 -9 -5 10.7 4.1
-4 8 5 15.2 3.9
8 -4 5 14 4.2
4 -8 -5 26.2 4.7
4 -8 -5 20.7 3.5
4 -8 -5 20 4.3
-5 7 5 -7.7 5.7
-6 6 5 32.4 5.8
7 -5 -5 5.8 4.1
5 -7 5 4.9 17.3
9 -3 -5 1.2 3.3
10 -2 -5 4.5 3.7
10 -2 -5 3.8 3.2
11 -1 -5 26.5 5.2
11 -1 -5 7.4 6.5
12 0 -5 2.6 4.1
12 0 -5 15 5.3
12 0 -5 4 5.1
13 1 -5 21.1 5.7
13 1 -5 25.1 5.7
1 14 5 24.8 5.5
14 1 5 27.3 6.7
0 -13 -5 9.1 4.6
-1 12 5 13.1 5.6
1 -12 -5 22 4.4
12 -1 5 6.6 5.1
1 -12 -5 1.3 4.9
11 -2 5 -11.4 5.5
2 -11 -5 -4.2 4.5
2 -11 -5 5.7 3.4
-3 10 5 0.7 3.6
10 -3 5 8.6 6
3 -10 -5 5.8 3.8
3 -10 -5 9.1 4
3 -10 -5 13.7 3.8
4 -9 -5 30.2 4.4
4 -9 -5 22.8 4.1
4 -9 -5 37.6 5.2
8 -5 5 17.8 4.6
5 -8 -5 26.2 4.5
-6 7 5 9 11.1
8 -5 -5 22.7 5.2
9 -4 -5 35 6.1
9 -4 -5 32.9 5.3
10 -3 -5 5.6 4.4
10 -3 -5 13.7 3.5
11 -2 -5 1.4 2.8
12 -1 -5 13.7 4.3
13 0 -5 4.9 3.2
13 0 -5 3.5 5.1
-14 0 -5 0.4 5.7
0 14 5 1.8 4.8
0 -14 -5 0.3 4.4
0 -14 -5 -6.1 4.1
1 -13 -5 10.8 5.3
13 -1 5 36 7.1
-2 12 5 43.1 6.6
2 -12 -5 47.3 6.8
2 -12 -5 42.4 6.7
12 -2 5 49.2 8.5
-3 11 5 11.8 19.1
11 -3 5 7.7 6.7
-4 10 5 9.9 13.4
4 -10 -5 6.1 4.6
4 -10 -5 3.5 5.6
10 -4 5 19.6 18.3
-5 9 5 7.7 6.2
9 -5 5 3.9 4.5
6 -8 -5 25.2 4.8
6 -8 -5 20.4 3.8
8 -6 5 17.3 5.2
-7 7 5 74.19 12.3
7 -7 -5 57.09 6.8
7 -7 -5 53.19 6.7
7 -7 -5 61.29 7.8
8 -6 -5 24.6 4.5
10 -4 -5 2.6 3.1
11 -3 -5 27.4 5.6
12 -2 -5 55.79 7.2
12 -2 -5 35.7 5.5
12 -2 -5 47.8 6.3
13 -1 -5 7.4 5.7
13 -1 -5 7.9 4.3
14 0 -5 -10.6 5.6
14 0 -5 3.5 4.6
14 0 -5 -3.6 5.3
-14 1 -5 15.9 5.8
14 -1 5 17 5.1
2 -13 -5 -0.2 5.1
13 -2 5 3.1 4.6
2 -13 -5 4.8 4.6
-12 3 -5 18.1 6
-3 12 5 15.4 5.7
3 -12 -5 0.6 4.6
3 -12 -5 -1.9 4.1
3 -12 -5 4.1 3.8
-4 11 5 39 7.9
4 -11 -5 49.8 7.2
-5 10 5 125.19 16.5
10 -5 5 154.68 18
5 -10 -5 119.09 14.1
-6 9 5 29.8 9.5
9 -6 5 38.7 6.3
-7 8 5 6.3 5.8
8 -7 -5 5.3 4.2
9 -6 -5 35.7 6.4
10 -5 -5 101.89 11.6
10 -5 -5 116.89 12.6
10 -5 -5 104.79 11.6
12 -3 -5 -4.1 3.8
12 -3 -5 0.4 3.3
13 -2 -5 -6.1 3.4
-13 3 -5 38.2 7.9
13 -3 5 28.7 7.2
3 -13 -5 21.7 5.6
-4 12 5 20.5 6
-5 11 5 6.3 4.1
5 -11 -5 5.5 3.9
-6 10 5 5.7 6.2
10 -6 5 11.4 14.5
-7 9 5 11.1 5.4
9 -7 5 18 4.9
-8 8 5 7.6 5.5
8 -8 5 17.9 4.9
8 -8 -5 17.9 4.6
8 -8 -5 17.6 3.9
13 -3 -5 19.3 4.9
13 -3 -5 28.7 6.3
-4 13 5 9.1 4
4 -13 -5 6.8 5
5 -12 -5 2.9 3.7
-6 11 5 43.3 6.1
11 -6 5 41 7
-7 10 5 -3.7 8.8
10 -7 5 14.5 5.4
-8 9 5 0.3 3.5
8 -9 -5 12.8 3.6
8 -9 5 3 4.4
9 -8 -5 10.2 5.4
9 -8 -5 3.2 3.3
7 -10 5 2.8 6.6
10 -7 -5 26.5 5.7
11 -6 -5 40.3 5.8
12 -5 -5 5 4.3
12 -5 -5 5.2 4.1
12 -5 -5 1 5.6
13 -4 -5 -12.5 6.9
13 -4 -5 5.1 4
13 -4 -5 0.8 4.2
-5 13 5 -7 4.2
13 -5 5 4.9 4.5
-6 12 5 6.6 5.3
-7 11 5 16.4 4.3
11 -7 5 16.7 5.3
-8 10 5 -1.6 5.2
10 -8 5 8.1 6.3
8 -10 -5 -1.4 4
8 -10 -5 6.3 5
-9 9 5 -1 5.7
9 -9 -5 16.4 5.7
9 -9 -5 2.5 4.6
9 -9 -5 5 4
10 -8 -5 0.6 5.2
10 -8 -5 5.1 5.7
8 -10 5 4.7 6.2
10 -8 -5 12.5 3.8
12 -6 -5 15.9 5.3
13 -5 -5 -3.6 4.4
13 -5 -5 0 4.5
-7 12 5 6.9 4.9
7 -12 -5 3.3 4.4
12 -7 5 -4 4.6
9 -10 -5 51.69 8.1
-10 9 5 33 7
10 -9 -5 45.5 7.3
11 -8 -5 21.8 6.8
11 -8 -5 4.7 5
12 -7 -5 0.9 4.1
12 -7 -5 -2 4.7
-7 -7 -6 1.7 4.7
-6 -6 -6 154.58 19
6 6 6 116.99 15.6
6 6 6 138.69 15.6
-6 -6 -6 129.39 14
5 5 6 308.97 28.8
-5 -5 -6 310.97 33.2
-5 -5 -6 312.87 29.4
5 5 6 287.47 32.2
4 4 6 88.19 11.5
4 4 6 86.59 11.3
3 3 6 43.4 8.6
-1 -1 -6 161.38 22.1
-1 -1 -6 179.98 16.6
0 0 -6 398.06 35.7
1 1 -6 193.08 23.1
1 1 -6 160.28 17.5
-1 -1 6 141.49 18
3 3 -6 1.7 6.1
4 4 -6 49.9 6.3
5 5 -6 306.27 27.9
5 5 -6 288.17 27.4
6 6 -6 114.19 11.8
-7 -7 6 3.8 4.8
7 7 -6 2.9 4.6
7 7 -6 2.5 3.6
7 8 6 64.19 8.7
7 8 6 80.89 10.9
-7 -8 -6 67.59 8.9
8 7 6 73.09 10.2
8 7 6 82.39 10.8
-6 -7 -6 51.49 8.4
7 6 6 60.69 8.2
-6 -5 -6 12.6 19.6
-5 -6 -6 21.7 16.6
-5 -6 -6 13.7 10.4
6 5 6 25.3 14.8
-5 -4 -6 5.6 12.6
5 4 6 4.2 7.7
-4 -5 -6 8.7 10.6
-4 -3 -6 28.5 6.2
-4 -3 -6 44.2 6.3
3 4 6 36 8.4
3 4 6 31.8 5.2
4 3 6 54.29 8
-3 -4 -6 40.2 6.7
-3 -4 -6 41.8 6.1
-3 -4 -6 49.4 7.1
-3 -2 -6 129.39 14.4
-3 -2 -6 98.69 13.6
-3 -2 -6 121.49 14.1
2 3 6 133.09 16.2
-2 -3 -6 124.79 17.3
-2 -3 -6 126.49 14.5
-2 -3 -6 126.39 14.2
3 2 6 133.59 17.4
2 1 6 40 7.8
1 0 6 114.99 13.9
0 -1 -6 88.29 10.6
-2 -1 6 35.8 8.1
2 3 -6 92.89 13.6
2 3 -6 149.19 15.1
3 2 -6 122.09 18.7
4 3 -6 30.5 5.4
4 3 -6 31.2 5.1
5 4 -6 3.7 6
6 7 -6 29.3 4.8
-6 -7 6 37 6
8 7 -6 45.8 6.9
-7 -8 6 45.2 6.5
8 7 -6 56.09 7.2
6 8 6 10.7 9
8 6 6 21 6.3
8 6 6 12.7 5.9
5 7 6 7.5 10.7
-5 -7 -6 -7.2 6.3
-5 -7 -6 3.7 8.1
4 6 6 81.59 9.7
4 6 6 56.79 8.8
-4 -6 -6 97.59 17.1
-5 -3 -6 6.1 4.9
-3 -5 -6 2 5.4
5 3 6 -5.7 7.4
-3 -5 -6 -2 6.1
2 4 6 21.8 6.3
-2 -4 -6 11.4 14
-2 -4 -6 12.2 9.1
4 2 6 16.3 17.2
-3 -1 -6 12.2 8.7
3 1 6 4.4 4.8
0 2 6 5.4 7.4
-2 0 -6 16 17.6
-1 1 6 150.78 25.3
1 -1 -6 176.38 32.4
1 -1 6 201.38 20.6
-2 0 6 5.9 14.6
0 2 -6 -1.9 9
2 0 -6 19.7 16.8
2 0 -6 12.9 10.2
0 -2 6 7 6.8
2 0 -6 9.1 11.8
1 3 -6 16 14.7
1 3 -6 21.9 16.7
2 4 -6 8.5 10.9
2 4 -6 -2.9 8.5
4 2 -6 8.8 6.4
4 2 -6 6.1 10.9
3 5 -6 9.8 7.2
5 3 -6 6 4.9
4 6 -6 95.29 11
6 4 -6 83.79 11.9
6 4 -6 91.09 12.7
5 7 -6 5.6 6.8
7 5 -6 4.3 5.2
7 5 -6 19 11.2
6 8 -6 8.6 5.7
8 6 -6 5.2 4.5
-6 -8 6 3.6 4.6
8 6 -6 15.7 4.8
6 9 6 16.1 5.2
9 6 6 28.3 9.9
-6 -9 -6 7.5 4.8
5 8 6 -5 10.6
5 8 6 4.3 4.5
8 5 6 4.7 5.8
-5 -8 -6 0.1 5
-5 -8 -6 -0.8 3.7
8 5 6 -7.5 5.6
4 7 6 39.8 5.8
-4 -7 -6 34.3 6.2
7 4 6 34.8 15.9
-6 -3 -6 40.2 7.4
3 6 6 44.1 8.9
6 3 6 35.5 7.1
-3 -6 -6 35 6.6
2 5 6 4.8 8.2
-2 -5 -6 -3.6 7.4
5 2 6 24.5 24.4
-2 -5 -6 -1.2 12.2
-2 -5 -6 -1.9 15.6
4 1 6 91.49 11.5
4 1 6 83.49 13.4
-3 0 -6 0 7.4
0 3 6 -3.6 7.1
-3 0 -6 8.1 14.5
0 -3 -6 -1.4 7.3
3 0 6 6.8 20
0 -3 -6 -3.2 5.8
0 -3 -6 3.1 3.8
-1 2 6 86.69 16.3
2 -1 6 71.99 16.8
1 -2 6 33.4 6.1
0 3 -6 5.3 4.8
0 3 -6 4.1 4.6
3 0 -6 4.8 23.8
3 0 -6 1.7 5.3
3 0 -6 0.8 6.8
4 1 -6 66.29 10.7
2 5 -6 -2.2 9
2 5 -6 -6 22.8
5 2 -6 -12.1 6.7
6 3 -6 60.19 8.3
6 3 -6 71.19 8.2
6 3 -6 55.19 8.6
4 7 -6 23.7 5
7 4 -6 27.6 5.1
5 8 -6 -5.3 4.9
5 8 -6 -6.2 5.2
8 5 -6 5.2 4.2
8 5 -6 2.8 4.4
-6 -9 6 22.9 5.4
5 9 6 66.89 11.3
5 9 6 76.59 10.7
9 5 6 92.89 10.3
4 8 6 2.6 5.9
4 8 6 -1.2 3.9
-4 -8 -6 0.6 4.7
-4 -8 -6 3.3 5.1
-4 -8 -6 -4.6 4.1
3 7 6 -3 3.9
7 3 6 10.9 8.3
-3 -7 -6 -2.4 4.7
-3 -7 -6 0.5 4.4
-3 -7 -6 0.4 5.7
2 6 6 18.3 24.4
6 2 6 29.1 16.3
-5 -1 -6 213.58 22
1 5 6 232.98 22.3
5 1 6 190.58 23
-1 -5 -6 214.38 20.4
5 1 6 163.08 21.2
0 4 6 182.88 19.6
-4 0 -6 223.08 28.4
0 -4 -6 187.68 22
4 0 6 158.88 20.9
4 0 6 181.88 19.4
0 -4 -6 196.88 23.6
1 -3 -6 8.8 7.1
0 4 -6 134.39 14.2
0 4 -6 122.29 13.7
4 0 -6 144.19 17.8
5 1 -6 121.89 13.4
5 1 -6 135.79 12.7
2 6 -6 -6.7 5.7
2 6 -6 -0.3 3.8
3 7 -6 -0.9 3.8
3 7 -6 4.4 5.5
7 3 -6 -2.5 5.4
4 8 -6 -2.6 4.9
4 8 -6 1.6 3.7
8 4 -6 5.9 4.4
9 5 -6 81.89 9.3
9 5 -6 74.79 8.8
4 9 6 25.5 7.2
9 4 6 1.5 6.3
9 4 6 13.4 6
3 8 6 59.79 8.6
-3 -8 -6 70.99 8.7
-3 -8 -6 84.49 9.2
-3 -8 -6 63.69 8.5
8 3 6 81.59 10.1
2 7 6 125.29 14.6
2 7 6 86.19 14.1
-2 -7 -6 96.09 11.5
-2 -7 -6 118.79 11.8
-2 -7 -6 127.59 12.3
1 6 6 44.4 13.5
-1 -6 -6 56.99 9.7
6 1 6 62.59 9.7
0 5 6 106.69 16.5
-1 4 6 40.9 10.6
1 -4 -6 39.6 6.3
1 -4 -6 39.9 5.9
1 -4 -6 47.4 6.1
-2 3 6 125.99 18
-3 2 -6 101.19 11.5
2 -3 -6 105.29 11.2
2 -3 -6 131.09 14.1
2 -3 -6 87.99 11.2
-3 2 6 131.09 15.3
-2 3 -6 124.19 14.9
-2 3 -6 121.89 12.7
3 -2 -6 126.59 18.3
3 -2 -6 107.19 14.5
3 -2 -6 102.49 13.1
1 6 -6 57.29 10.9
2 7 -6 108.09 11.3
7 2 -6 88.69 10.5
7 2 -6 96.29 11.4
7 2 -6 117.19 12.2
3 8 -6 84.79 9.2
3 8 -6 69.69 8.6
8 3 -6 67.29 8.3
4 10 6 64.69 9.1
-4 -10 -6 79.89 9.2
3 9 6 25.6 6.6
9 3 6 23.7 6.4
2 8 6 2.9 2.5
-2 -8 -6 -3.9 4.8
7 1 6 12.6 14.2
-1 -7 -6 21.4 7.3
-1 -7 -6 31.5 6
-1 -7 -6 41.2 6.7
6 0 6 184.88 19.3
0 -6 -6 180.68 17.5
0 -6 -6 204.38 18.4
-1 5 6 139.69 17.4
-5 1 -6 166.38 16.8
1 -5 -6 188.78 20.9
1 -5 -6 169.78 21
1 -5 -6 145.49 16
-3 3 -6 4.8 9.9
-3 3 6 18.1 17.1
-1 5 -6 248.38 23.3
-1 5 -6 246.28 22.3
5 -1 -6 190.08 21.9
5 -1 -6 199.08 21.7
0 6 -6 185.28 16.9
6 0 -6 146.69 16
6 0 -6 165.88 20.6
1 7 -6 16 12
2 8 -6 0.8 5.1
2 8 -6 -1.9 3.8
3 9 -6 2.4 5.5
9 3 -6 12.9 3.9
10 4 -6 74.09 8.6
10 4 -6 75.79 8.3
10 4 -6 58.89 9.8
10 3 6 -14.2 7.4
2 9 6 34.9 7
-2 -9 -6 32 6
-1 -8 -6 30.8 7.2
8 1 6 37.4 6.7
0 7 6 8.6 7.2
0 -7 -6 -1 8.5
0 -7 -6 10.3 7.4
7 0 6 8.5 10.1
6 -1 6 19.5 7.9
-5 2 -6 4.7 5.8
-2 5 6 -12.7 28
2 -5 -6 6.2 9.5
2 -5 -6 8.4 7.7
5 -2 6 0.1 10.1
3 -4 -6 40.5 8.9
3 -4 -6 53.89 8.5
3 -4 -6 32.6 8.6
-4 3 6 44.6 7.4
-3 4 -6 32.7 6.8
4 -3 -6 45.2 7.1
4 -3 -6 47 6.1
-2 5 -6 -9.9 7.6
-2 5 -6 4.6 8.9
6 -1 -6 83.79 15
0 7 -6 -2.2 5.7
0 7 -6 -4.5 4.4
7 0 -6 5.2 4.6
7 0 -6 7.8 5.4
7 0 -6 4 3.8
1 8 -6 24.1 6
1 8 -6 17.7 4.5
2 9 -6 24.6 5.3
2 9 -6 39.6 6.8
9 2 -6 26.7 5.1
10 3 -6 3.9 3.2
10 2 6 34.7 19.8
1 9 6 47.8 7.4
-1 -9 -6 53.09 6.5
9 1 6 57.89 9.4
-1 -9 -6 53.99 7.4
0 8 6 16.7 15.5
8 0 6 8.8 6.4
0 -8 -6 12.9 5.1
1 -7 -6 -3.7 11.7
6 -2 6 1.5 5.4
2 -6 -6 1.2 8.1
2 -6 -6 5.4 14.5
-4 4 6 83.59 9.9
-4 4 -6 76.19 10.3
-3 5 -6 22.5 6.8
-2 6 -6 1.4 15.3
-2 6 -6 3.5 8.2
0 8 -6 5.1 5.8
1 10 6 26.3 8.6
10 1 6 37.7 12.5
0 -9 -6 4.1 3.7
0 -9 -6 3.8 5
0 -9 -6 3.5 3.4
9 0 6 2.7 5.3
-1 8 6 40.5 9
1 -8 -6 40.4 6.6
1 -8 -6 37.7 5.8
8 -1 6 42.5 7.9
-2 7 6 124.39 15.8
2 -7 -6 98.79 10.6
2 -7 -6 109.49 11.7
7 -2 6 95.29 11.5
3 -6 -6 42.9 6.4
6 -3 6 31.8 6.9
3 -6 -6 43.9 5.6
-4 5 6 5.3 6.9
-5 4 6 11.8 14.4
6 -3 -6 38.5 6
-2 7 -6 95.29 10.3
7 -2 -6 74.99 9.4
7 -2 -6 88.79 9.4
7 -2 -6 105.09 10.7
8 -1 -6 44.2 6.1
0 9 -6 2.1 5.6
0 10 6 205.08 26.1
10 0 6 234.18 25.2
0 -10 -6 186.78 21.5
-1 9 6 57.89 9.4
9 -1 6 77.69 10
-2 8 6 17.6 6.4
-3 7 6 -11.8 21.3
7 -3 6 5.8 5.5
-4 6 6 60.69 11.1
4 -6 -6 54.49 7.3
4 -6 -6 61.29 7.5
4 -6 -6 65.29 7.1
5 -5 -6 262.57 27.8
5 -5 -6 230.18 23
5 -5 -6 267.27 28.1
6 -4 -6 104.29 10.7
6 -4 -6 86.69 11.6
8 -2 -6 31 5.4
9 -1 -6 57.99 7.5
9 -1 -6 44.1 6.5
10 0 -6 131.39 12.6
10 0 -6 128.39 13.3
-1 10 6 41.2 15.1
10 -1 6 4.6 14.2
-2 9 6 25.7 6.7
9 -2 6 39.4 7.5
-3 8 6 61.19 9.3
3 -8 -6 62.89 7.2
3 -8 -6 74.39 8.3
8 -3 6 62.99 8.7
-4 7 6 16.1 20.9
4 -7 -6 43.4 6.2
7 -4 6 41 7.1
4 -7 -6 57.79 6.9
-5 6 6 27.3 13
-6 5 6 -11.9 13.1
8 -3 -6 45.4 6.1
8 -3 -6 56.49 7.5
9 -2 -6 44.7 6.1
9 -2 -6 31.1 4.9
-2 10 6 5.2 4.2
2 -10 -6 -0.1 4.2
2 -10 -6 5.9 4.4
10 -2 6 4.1 9.9
-4 8 6 -3.8 6.5
8 -4 6 5.6 4.8
-5 7 6 0.6 5.7
5 -7 -6 26.2 5.2
-6 6 6 103.29 13.8
6 -6 -6 122.99 13
6 -6 -6 138.29 13.5
6 -6 -6 140.79 13.9
7 -5 -6 33.2 6.4
9 -3 -6 4 4.2
10 -2 -6 17.3 4.8
-3 10 6 -8.8 5.4
10 -3 6 9.2 6.8
3 -10 -6 3.7 3.4
3 -10 -6 -1.7 4
-4 9 6 15.1 5.6
5 -8 -6 5 4.5
5 -8 -6 4.8 5
-6 7 6 44.2 6.8
7 -6 6 38.8 6.5
7 -6 -6 51.09 7.2
-4 10 6 79.29 11
4 -10 -6 80.59 9.5
4 -10 -6 75.39 9
-5 9 6 59.99 8.9
-6 8 6 2.2 6.2
-7 7 6 -6 4.9
-8 6 6 15.7 5
9 -5 -6 87.29 9.5
9 -5 -6 78.79 9.9
10 -4 -6 70.69 8
10 -4 -6 59.89 7.7
-6 9 6 -6.1 7.3
7 -8 -6 50.99 6.5
-8 7 6 64.09 9.3
8 -7 -6 53.89 7.3
8 -7 -6 62.99 8.1
3 3 7 8.8 7.8
2 2 7 2.2 9
-2 -2 -7 4.6 5.9
1 1 7 94.99 13.4
-1 -1 -7 80.59 10
-1 -1 -7 78.19 12.7
-1 -1 -7 98.39 11.7
0 0 -7 224.18 21
0 0 7 234.38 23.8
0 0 -7 192.18 20.8
0 0 -7 241.58 22.1
-1 -1 7 77.09 13.2
1 1 -7 71.99 9.4
1 1 -7 101.39 10.8
1 1 -7 108.09 16
-2 -2 7 0.9 6.6
2 2 -7 2.4 5.4
3 3 -7 3.1 4.5
2 3 7 66.89 8.6
-3 -2 -7 52.89 7.1
-2 -3 -7 52.69 7.4
3 2 7 52.69 8.1
-2 -3 -7 49.6 8
-2 -1 -7 48.6 7.2
1 2 7 69.19 13.9
-2 -1 -7 71.29 10.4
2 1 7 56.19 8.8
-1 -2 -7 64.79 7.3
-1 -2 -7 53.49 8.8
-1 0 -7 5.8 6.8
0 1 7 13.5 10.6
-1 0 -7 6.9 7.8
1 0 7 -9.3 8.7
0 1 -7 11.2 7.8
0 1 -7 -1.4 5.6
-1 0 7 -4.9 7
0 -1 7 -9.3 4.4
1 2 -7 71.19 9.6
1 2 -7 89.29 9.2
2 1 -7 67.59 9.5
2 1 -7 69.09 9.7
2 1 -7 79.39 11.8
2 3 -7 47.8 6.8
2 3 -7 42.2 6.6
3 2 -7 49.6 6.7
3 2 -7 52.89 6.6
3 2 -7 51.09 6.6
2 4 7 16.3 6.1
-4 -2 -7 6.4 11.2
-4 -2 -7 4.5 9.3
-2 -4 -7 -1.9 5.4
-2 -4 -7 10.2 5.4
-3 -1 -7 5.8 8.1
-3 -1 -7 1.2 5.6
-1 -3 -7 18.1 5.7
3 1 7 4.6 5.6
0 -2 -7 39.6 9.6
0 -2 -7 9.5 9.6
-1 1 7 87.79 12.5
-1 1 -7 94.19 12.2
-1 1 -7 85.19 9.7
1 -1 -7 73.09 10.8
1 -1 -7 87.99 11.4
1 -1 -7 64.29 9.8
0 2 -7 10.7 4.9
2 0 -7 16.9 8.1
2 0 -7 22.5 5.9
2 0 -7 21.3 5.8
1 3 -7 1.7 5.3
-3 -1 7 -0.2 5.9
3 1 -7 3.2 5.4
3 1 -7 16.5 12.6
2 4 -7 -2.9 5.2
2 4 -7 -9.4 6
4 2 -7 -1 5.2
4 2 -7 1.3 14.2
-4 -1 -7 34.8 6.1
1 4 7 36.2 9.5
-1 -4 -7 25 10.7
-1 -4 -7 4.8 12.2
-3 0 -7 6.2 9.7
0 3 7 0.7 6.2
-3 0 -7 3.8 4.7
0 -3 -7 4.3 3.9
0 -3 -7 2.3 4.1
-1 2 7 59.09 9.1
-2 1 -7 49.99 7.4
-2 1 -7 58.99 9
1 -2 -7 60.29 8.4
1 -2 -7 55.79 13.7
1 -2 -7 58.79 7.1
-1 2 -7 59.69 8.2
-1 2 -7 73.89 9.3
-2 1 7 50.99 11.7
2 -1 -7 58.49 7.8
2 -1 -7 65.69 8.8
2 -1 -7 60.29 10.6
0 3 -7 1.5 5.4
-3 0 7 -3.2 7.9
3 0 -7 -9.2 7
3 0 -7 5.7 7.6
1 4 -7 19.8 5.9
1 4 -7 15 5.9
4 1 -7 28 5.6
4 1 -7 9.1 4.3
4 1 -7 15 4.4
-4 0 -7 129.09 14.8
0 4 7 138.29 18.9
0 -4 -7 145.69 14.5
0 -4 -7 135.39 13.6
-3 1 -7 9 5
-1 3 7 4.7 9
-2 2 7 2.6 4.3
-2 2 -7 7.2 4.7
2 -2 -7 -5.1 6
2 -2 -7 1.9 5.4
-1 3 -7 15.2 4.5
-3 1 7 -1.9 7.1
3 -1 -7 2.9 3.6
3 -1 -7 6.7 5
3 -1 -7 -1.8 3.9
0 4 -7 155.28 15.7
0 4 -7 158.38 15.4
4 0 -7 154.28 15.3
4 0 -7 140.29 15.4
4 0 -7 134.49 19.4
-1 4 7 30.8 7.7
-4 1 -7 18.1 5.2
1 -4 -7 27.9 6.3
-2 3 7 56.09 17.2
-3 2 -7 58.89 9.2
-3 2 -7 44.4 6.9
2 -3 -7 55.59 7.1
2 -3 -7 62.79 7.6
-2 3 -7 74.69 9.1
-3 2 7 45.2 15
-2 3 -7 69.49 8.8
3 -2 -7 56.09 7.8
3 -2 -7 53.39 7.4
-1 4 -7 51.19 7.7
-1 4 -7 33.7 8
4 -1 -7 43.8 6.6
-4 2 -7 7.1 6.2
-2 4 7 -4.7 12.7
2 -4 -7 10.5 3.7
2 -4 -7 3.2 4.3
-3 3 7 -1.9 8.4
-3 3 -7 8.8 5.6
-3 3 -7 -5.8 4.5
3 -3 -7 -3.8 3.4
3 -3 -7 -12.2 5.3
-2 4 -7 5.3 4.9
-4 2 7 -19.4 10.4
-2 4 -7 6.8 6.4
