#------------------------------------------------------------------------------
#$Date: 2019-11-02 07:26:49 +0200 (Sat, 02 Nov 2019) $
#$Revision: 220943 $
#$URL: file:///home/coder/svn-repositories/cod/cif/4/12/77/4127772.cif $
#------------------------------------------------------------------------------
#
# This file is available in the Crystallography Open Database (COD),
# http://www.crystallography.net/
#
# All data on this site have been placed in the public domain by the
# contributors.
#
data_4127772
loop_
_publ_author_name
'Barton, Lisa M.'
'Edwards, Jacob T.'
'Johnson, Eric C.'
'Bukowski, Eric J.'
'Sausa, Rosario C.'
'Byrd, Edward F. C.'
'Orlicki, Joshua A.'
'Sabatini, Jesse J.'
'Baran, Phil S.'
_publ_section_title
;
 Impact of Stereo- and Regiochemistry on Energetic Materials.
;
_journal_issue                   32
_journal_name_full               'Journal of the American Chemical Society'
_journal_page_first              12531
_journal_page_last               12535
_journal_paper_doi               10.1021/jacs.9b06961
_journal_volume                  141
_journal_year                    2019
_chemical_formula_moiety         'C8 H12 N4 O12'
_chemical_formula_sum            'C8 H12 N4 O12'
_chemical_formula_weight         356.22
_space_group_crystal_system      monoclinic
_space_group_IT_number           4
_space_group_name_Hall           'P 2yb'
_space_group_name_H-M_alt        'P 1 21 1'
_symmetry_space_group_name_Hall  'P 2yb'
_symmetry_space_group_name_H-M   'P 1 21 1'
_atom_sites_solution_hydrogens   geom
_atom_sites_solution_primary     dual
_audit_creation_date             2019-01-31
_audit_creation_method
;
Olex2 1.2
(compiled 2016.09.09 svn.r3337 for OlexSys, GUI svn.r5227)
;
_cell_angle_alpha                90
_cell_angle_beta                 93.581(5)
_cell_angle_gamma                90
_cell_formula_units_Z            2
_cell_length_a                   7.6027(4)
_cell_length_b                   9.8312(4)
_cell_length_c                   9.8783(4)
_cell_measurement_reflns_used    2525
_cell_measurement_temperature    298.00(10)
_cell_measurement_theta_max      24.9330
_cell_measurement_theta_min      2.0570
_cell_volume                     736.90(6)
_computing_cell_refinement       'CrysAlisPro 1.171.39.46 (Rigaku OD, 2018)'
_computing_data_collection       'CrysAlisPro 1.171.39.46 (Rigaku OD, 2018)'
_computing_data_reduction        'CrysAlisPro 1.171.39.46 (Rigaku OD, 2018)'
_computing_molecular_graphics    'Olex2 (Dolomanov et al., 2009)'
_computing_publication_material  'Olex2 (Dolomanov et al., 2009)'
_computing_structure_refinement  'ShelXL (Sheldrick, 2015)'
_computing_structure_solution    'ShelXT (Sheldrick, 2015)'
_diffrn_ambient_environment      air
_diffrn_ambient_temperature      298.00(10)
_diffrn_detector                 'CCD plate'
_diffrn_detector_area_resol_mean 8.0945
_diffrn_detector_type            EosS2
_diffrn_measured_fraction_theta_full 1.000
_diffrn_measured_fraction_theta_max 1.000
_diffrn_measurement_details
;
List of Runs (angles in degrees, time in seconds):

  # Type    Start    End  Width  t~exp~   \w     \q     \k     \f   Frames
--------------------------------------------------------------------------
  1  \w     55.00 116.00   1.00   11.50    --   25.07-178.00 -30.00   61
  2  \w   -101.00   8.00   1.00   11.50    --  -26.94 -57.00-180.00  109
  3  \w   -117.00 -35.00   1.00   11.50    --  -26.94-178.00-180.00   82
  4  \w   -101.00   8.00   1.00   11.50    --  -26.94 -57.00 -90.00  109
  5  \w     57.00 116.00   1.00   11.50    --   25.07 178.00-180.00   59
  6  \w    -62.00 -23.00   1.00   11.50    --  -26.94  57.00 150.00   39
  7  \w   -107.00  14.00   1.00   11.50    --  -26.94 -77.00  60.00  121
;
_diffrn_measurement_device       'four-circle diffractometer'
_diffrn_measurement_device_type  'SuperNova, Dualflex, EosS2'
_diffrn_measurement_method       '\w scans'
_diffrn_orient_matrix_type
'CrysAlisPro convention (1999,Acta A55,543-557)'
_diffrn_orient_matrix_UB_11      -0.0793584000
_diffrn_orient_matrix_UB_12      -0.0219720000
_diffrn_orient_matrix_UB_13      0.0270832000
_diffrn_orient_matrix_UB_21      0.0242051000
_diffrn_orient_matrix_UB_22      -0.0687189000
_diffrn_orient_matrix_UB_23      -0.0103709000
_diffrn_orient_matrix_UB_31      0.0429803000
_diffrn_orient_matrix_UB_32      -0.0018066000
_diffrn_orient_matrix_UB_33      0.0658569000
_diffrn_radiation_monochromator  graphite
_diffrn_radiation_probe          x-ray
_diffrn_radiation_type           MoK\a
_diffrn_radiation_wavelength     0.71073
_diffrn_reflns_av_R_equivalents  0.0200
_diffrn_reflns_av_unetI/netI     0.0290
_diffrn_reflns_Laue_measured_fraction_full 1.000
_diffrn_reflns_Laue_measured_fraction_max 1.000
_diffrn_reflns_limit_h_max       8
_diffrn_reflns_limit_h_min       -9
_diffrn_reflns_limit_k_max       11
_diffrn_reflns_limit_k_min       -11
_diffrn_reflns_limit_l_max       11
_diffrn_reflns_limit_l_min       -11
_diffrn_reflns_number            5945
_diffrn_reflns_point_group_measured_fraction_full 0.987
_diffrn_reflns_point_group_measured_fraction_max 0.987
_diffrn_reflns_theta_full        25.350
_diffrn_reflns_theta_max         25.350
_diffrn_reflns_theta_min         2.066
_diffrn_source                   'fine-focus sealed X-ray tube'
_diffrn_source_type              'Enhance (Mo) X-ray Source'
_exptl_absorpt_coefficient_mu    0.154
_exptl_absorpt_correction_T_max  1.00000
_exptl_absorpt_correction_T_min  0.70389
_exptl_absorpt_correction_type   multi-scan
_exptl_absorpt_process_details
;
CrysAlisPro 1.171.39.46 (Rigaku Oxford Diffraction, 2018)
Empirical absorption correction using spherical harmonics,
 implemented in SCALE3 ABSPACK scaling algorithm.
;
_exptl_crystal_colour            colourless
_exptl_crystal_colour_primary    colourless
_exptl_crystal_density_diffrn    1.605
_exptl_crystal_description       irregular
_exptl_crystal_F_000             368
_exptl_crystal_size_max          0.32
_exptl_crystal_size_mid          0.23
_exptl_crystal_size_min          0.21
_refine_diff_density_max         0.116
_refine_diff_density_min         -0.123
_refine_diff_density_rms         0.029
_refine_ls_abs_structure_details
;
 Flack x determined using 876 quotients [(I+)-(I-)]/[(I+)+(I-)]
 (Parsons, Flack and Wagner, Acta Cryst. B69 (2013) 249-259).
;
_refine_ls_abs_structure_Flack   -0.1(5)
_refine_ls_extinction_method     none
_refine_ls_goodness_of_fit_ref   1.053
_refine_ls_hydrogen_treatment    constr
_refine_ls_matrix_type           full
_refine_ls_number_parameters     217
_refine_ls_number_reflns         2668
_refine_ls_number_restraints     1
_refine_ls_restrained_S_all      1.053
_refine_ls_R_factor_all          0.0472
_refine_ls_R_factor_gt           0.0399
_refine_ls_shift/su_max          0.000
_refine_ls_shift/su_mean         0.000
_refine_ls_structure_factor_coef Fsqd
_refine_ls_weighting_details
'w=1/[\s^2^(Fo^2^)+(0.0240P)^2^+0.1300P] where P=(Fo^2^+2Fc^2^)/3'
_refine_ls_weighting_scheme      calc
_refine_ls_wR_factor_gt          0.0725
_refine_ls_wR_factor_ref         0.0757
_reflns_Friedel_coverage         0.857
_reflns_Friedel_fraction_full    0.972
_reflns_Friedel_fraction_max     0.972
_reflns_number_gt                2351
_reflns_number_total             2668
_reflns_threshold_expression     'I > 2\s(I)'
_cod_data_source_file            ja9b06961_si_005.cif
_cod_data_source_block           all-trans-TNCB
_cod_database_code               4127772
_shelx_space_group_comment
;
The symmetry employed for this shelxl refinement is uniquely defined
by the following loop, which should always be used as a source of
symmetry information in preference to the above space-group names.
They are only intended as comments.
;
_reflns_odcompleteness_completeness 99.88
_reflns_odcompleteness_iscentric 1
_reflns_odcompleteness_theta     26.32
_olex2_refinement_description
;
1. Fixed Uiso
 At 1.2 times of:
  All C(H) groups, All C(H,H) groups
2.a Ternary CH refined with riding coordinates:
 C1(H1), C2(H2), C3(H3), C4(H4)
2.b Secondary CH2 refined with riding coordinates:
 C5(H5A,H5B), C6(H6A,H6B), C7(H7A,H7B), C8(H8A,H8B)
;
_shelx_res_file
;
TITL arl-satm-c11_a.res in P2(1)
 arl-satm-c11.res created by SHELXL-2016/4 at 15:53:40 on 31-Jan-2019
REM Old TITL ARL-SATM-C11 in P2(1)
REM SHELXT solution in P2(1)
REM R1 0.159, Rweak 0.168, Alpha 0.007, Orientation as input
REM Flack x = 0.336 ( 0.547 ) from Parsons' quotients
REM Formula found by SHELXT: C14 N3 O7
CELL 0.71073 7.6027 9.8312 9.8783 90 93.581 90
ZERR 2 0.0004 0.0004 0.0004 0 0.005 0
LATT -1
SYMM -X,0.5+Y,-Z
SFAC C H N O
UNIT 16 24 8 24

L.S. 4 0 0
PLAN  4
BOND $H
list 4
MORE -1
CONF
fmap 2 53
acta 52
SHEL 99.9 0.83
REM <olex2.extras>
REM <HklSrc "%.\\ARL-SATM-C11.hkl">
REM </olex2.extras>

WGHT    0.024000    0.130000
FVAR       1.22459
O1    4    0.635022    0.632903    0.156056    11.00000    0.06742    0.04293 =
         0.06540   -0.00186    0.01693   -0.00628
O2    4    0.611355    0.851001    0.157991    11.00000    0.10658    0.04214 =
         0.11010    0.01296   -0.00245   -0.01405
O3    4    0.550497    0.741007    0.338569    11.00000    0.08138    0.07527 =
         0.06335   -0.02164   -0.00449   -0.00480
O4    4    0.229706    0.700668    0.138246    11.00000    0.04525    0.03905 =
         0.05277    0.01269   -0.00235    0.00238
O5    4    0.199137    0.899151    0.046167    11.00000    0.09965    0.05375 =
         0.10850    0.03793    0.01002    0.00143
O6    4   -0.022663    0.761201    0.030917    11.00000    0.06350    0.08896 =
         0.07982    0.02797   -0.02203    0.00813
O7    4   -0.017050    0.384051    0.427549    11.00000    0.05516    0.07440 =
         0.04526    0.01570    0.00610    0.00461
O8    4   -0.223428    0.438314    0.559056    11.00000    0.07329    0.13749 =
         0.08740    0.01092    0.02495    0.02047
O9    4   -0.009928    0.311084    0.640803    11.00000    0.10801    0.10983 =
         0.06094    0.03916    0.02441    0.01194
O10   4    0.626131    0.158060    0.166215    11.00000    0.08228    0.04034 =
         0.06420    0.00253    0.01659    0.00907
O11   4    0.684799    0.094700    0.378886    11.00000    0.12931    0.08084 =
         0.06714    0.00782   -0.00617    0.02743
O12   4    0.889790    0.102596    0.238426    11.00000    0.07009    0.09164 =
         0.17666   -0.02345    0.01186    0.00279
N1    3    0.596494    0.751332    0.224842    11.00000    0.05198    0.04879 =
         0.06832   -0.00606   -0.00796   -0.00842
N2    3    0.124627    0.793626    0.065383    11.00000    0.06593    0.05481 =
         0.05230    0.01525    0.00310    0.01382
N3    3   -0.088152    0.375619    0.554119    11.00000    0.07032    0.07701 =
         0.05631    0.00922    0.01731   -0.00519
N4    3    0.740253    0.115206    0.271249    11.00000    0.08068    0.04389 =
         0.09133   -0.00884   -0.00213    0.00477
C1    1    0.442436    0.438813    0.196258    11.00000    0.04750    0.03597 =
         0.03663    0.00030    0.00213    0.00164
AFIX  13
H1    2    0.424410    0.425476    0.098056    11.00000   -1.20000
AFIX   0
C2    1    0.272004    0.494476    0.254311    11.00000    0.04204    0.03526 =
         0.03346   -0.00050   -0.00417   -0.00361
AFIX  13
H2    2    0.300557    0.545707    0.337911    11.00000   -1.20000
AFIX   0
C3    1    0.219616    0.346686    0.288086    11.00000    0.04851    0.03784 =
         0.03557    0.00013   -0.00423   -0.00450
AFIX  13
H3    2    0.140647    0.308166    0.215784    11.00000   -1.20000
AFIX   0
C4    1    0.413609    0.303361    0.271517    11.00000    0.05539    0.03293 =
         0.04203   -0.00127   -0.00198    0.00127
AFIX  13
H4    2    0.479753    0.304044    0.359903    11.00000   -1.20000
AFIX   0
C5    1    0.617021    0.506471    0.229930    11.00000    0.04798    0.04351 =
         0.06995    0.00291    0.00459    0.00498
AFIX  23
H5A   2    0.629121    0.524890    0.326532    11.00000   -1.20000
H5B   2    0.711063    0.445022    0.208295    11.00000   -1.20000
AFIX   0
C6    1    0.143762    0.572144    0.163102    11.00000    0.04595    0.04210 =
         0.04693    0.00200   -0.00688   -0.00344
AFIX  23
H6A   2    0.118173    0.523399    0.078791    11.00000   -1.20000
H6B   2    0.034431    0.586778    0.206605    11.00000   -1.20000
AFIX   0
C7    1    0.153474    0.317742    0.425143    11.00000    0.05680    0.04785 =
         0.04428    0.01067    0.00151   -0.00176
AFIX  23
H7A   2    0.141723    0.220519    0.438662    11.00000   -1.20000
H7B   2    0.234301    0.353783    0.496118    11.00000   -1.20000
AFIX   0
C8    1    0.443588    0.171219    0.199629    11.00000    0.06201    0.03993 =
         0.05414   -0.00101   -0.00222    0.00257
AFIX  23
H8A   2    0.413041    0.095998    0.257215    11.00000   -1.20000
H8B   2    0.367623    0.167133    0.117105    11.00000   -1.20000
AFIX   0
HKLF 4




REM  arl-satm-c11_a.res in P2(1)
REM R1 =  0.0399 for    2351 Fo > 4sig(Fo)  and  0.0472 for all    2668 data
REM    217 parameters refined using      1 restraints

END

WGHT      0.0243      0.1296

REM Highest difference peak  0.116,  deepest hole -0.123,  1-sigma level  0.029
Q1    1  -0.2339  0.3299  0.5233  11.00000  0.05    0.12
Q2    1  -0.1193  0.2895  0.5929  11.00000  0.05    0.11
Q3    1  -0.1516  0.7637 -0.0601  11.00000  0.05    0.11
Q4    1   0.4466  0.3664  0.2381  11.00000  0.05    0.10
;
_shelx_res_checksum              20212
_shelx_hkl_file
;
   0 -12   0   14.61    5.08
   0 -12  -1   11.54    4.78
   0 -12  -2   34.07    7.05
   0 -11   0   -0.17    2.60
   0 -11   1    4.42    2.98
   0 -11  -1    0.72    2.07
   0 -11  -2   20.71    5.75
   0 -11   2   29.59    5.52
   0 -11   3   21.90    5.20
   0 -11  -3   13.93    5.13
   0 -11  -3   21.09    6.13
   0 -11  -4    5.42    4.22
   0 -11  -4    4.83    3.16
   0 -11  -5   19.39    6.78
   0 -11   5   25.74    5.55
   0 -11  -5   22.36    5.98
   0 -10   0   11.39    3.89
   0 -10  -1    1.75    2.91
   0 -10   1    7.87    2.71
   0 -10   1    5.90    3.40
   0 -10  -2   11.36    4.05
   0 -10   2   20.31    4.31
   0 -10  -2   17.21    5.24
   0 -10  -3   24.64    5.73
   0 -10  -3   40.91    7.82
   0 -10   3   34.88    5.75
   0 -10  -4    6.18    4.13
   0 -10  -4    7.23    3.91
   0 -10   4    5.35    3.15
   0 -10  -5   27.14    6.74
   0 -10  -5   18.89    5.82
   0 -10   5   19.81    4.87
   0 -10   5   22.17    5.15
   0 -10  -6   62.82    9.28
   0 -10  -6   78.79   12.30
   0 -10   6   76.95    8.77
   0 -10  -7    1.29    3.07
   0 -10   7   -0.44    1.67
   0  -9   0    2.99    2.18
   0  -9   0    1.85    2.10
   0  -9   1   42.02    6.32
   0  -9  -1   35.71    6.18
   0  -9  -1   39.88    6.37
   0  -9   1   39.10    5.39
   0  -9  -2   31.91    6.04
   0  -9  -2   30.75    5.62
   0  -9   2   27.92    4.69
   0  -9   3   36.75    5.61
   0  -9  -3   37.28    6.43
   0  -9   4   54.08    6.86
   0  -9  -4   71.87    9.13
   0  -9   5   39.41    6.24
   0  -9  -5   45.21    7.50
   0  -9   5   35.14    5.64
   0  -9   6    6.67    3.06
   0  -9   6    6.65    3.20
   0  -9  -6    6.07    3.83
   0  -9   7    7.77    3.11
   0  -9  -7    5.48    3.85
   0  -9   8   13.26    4.36
   0  -9  -8    5.55    3.60
   0  -8   0   46.35    6.01
   0  -8   0   52.03    6.56
   0  -8   0   42.25    4.96
   0  -8  -1   94.91    8.91
   0  -8   1   83.00    7.97
   0  -8   1   79.40    6.93
   0  -8  -1   83.53    8.51
   0  -8  -1   86.13    6.47
   0  -8   1  103.70    8.14
   0  -8  -2   99.57    9.74
   0  -8  -2   90.50    8.95
   0  -8   2   86.44    7.59
   0  -8   3   15.55    3.66
   0  -8  -3   19.72    4.70
   0  -8   4  132.68   10.14
   0  -8  -4  118.55   10.78
   0  -8   5   14.40    4.04
   0  -8  -5    6.61    3.59
   0  -8   5    6.45    2.49
   0  -8  -6   11.63    4.18
   0  -8   6    9.42    3.60
   0  -8   6   10.13    3.88
   0  -8   7   18.12    4.27
   0  -8  -7   24.69    5.80
   0  -8  -8   33.93    6.92
   0  -8   8   38.76    6.22
   0  -8   9    5.01    3.17
   0  -8  -9    5.68    3.89
   0  -7   0   15.72    3.62
   0  -7   0   16.23    3.95
   0  -7   0   13.39    2.86
   0  -7  -1   73.67    7.33
   0  -7   1   73.70    7.05
   0  -7   1   75.49    6.29
   0  -7   1   76.04    6.53
   0  -7  -1   79.28    5.73
   0  -7  -1   65.63    7.00
   0  -7  -2  187.44   11.82
   0  -7   2  166.14    9.77
   0  -7  -2  193.10    8.08
   0  -7  -3   45.22    6.20
   0  -7   3   32.86    4.79
   0  -7   4  178.00   11.10
   0  -7  -4  200.57   13.21
   0  -7   5  234.39   12.40
   0  -7   5  216.06   12.65
   0  -7  -5  235.05   14.67
   0  -7  -6   30.88    5.66
   0  -7   6   34.16    5.53
   0  -7   6   39.55    5.32
   0  -7   7  103.70    9.09
   0  -7  -7  112.83   11.08
   0  -7  -8    5.35    3.39
   0  -7   8    3.34    2.47
   0  -7  -9   12.38    4.99
   0  -7   9    4.40    2.84
   0  -7 -10    3.44    3.60
   0  -7  10   -2.15    2.22
   0  -6   0  118.67    6.90
   0  -6   0  131.77    8.46
   0  -6   0  116.92    8.27
   0  -6  -1   22.48    3.98
   0  -6  -1   13.55    2.30
   0  -6   1   19.49    3.18
   0  -6   1   10.85    2.30
   0  -6   1   17.15    3.27
   0  -6   2  416.17   11.93
   0  -6  -2  419.15   16.42
   0  -6   2  405.81   14.10
   0  -6  -2  424.99   10.97
   0  -6   3  249.87   11.81
   0  -6  -3  235.62   12.75
   0  -6  -4   33.21    5.18
   0  -6   4   34.65    4.81
   0  -6   5   32.52    4.58
   0  -6   5   33.14    4.99
   0  -6  -5   35.19    5.50
   0  -6  -6   33.44    5.68
   0  -6   6   34.35    4.90
   0  -6   6   35.33    5.41
   0  -6   7   73.77    7.78
   0  -6  -7   72.97    8.55
   0  -6   7   76.66    7.45
   0  -6  -8    6.88    3.27
   0  -6   8   14.73    3.98
   0  -6  -9   20.00    4.97
   0  -6   9   37.20    6.02
   0  -6 -10    3.72    3.36
   0  -6  10    2.28    2.37
   0  -5   0    1.67    1.27
   0  -5   0    3.10    1.79
   0  -5   0    0.03    1.19
   0  -5   1 1382.62   22.42
   0  -5  -1 1387.09   26.13
   0  -5   1 1374.88   22.62
   0  -5  -1 1399.00   19.35
   0  -5   1 1424.41   25.21
   0  -5   2  299.73   11.32
   0  -5  -2  305.30    8.17
   0  -5   2  306.69    9.01
   0  -5  -2  325.51   13.28
   0  -5  -3  237.04    6.06
   0  -5   3  234.55   10.62
   0  -5  -3  235.26   11.83
   0  -5   3  235.32    6.13
   0  -5  -4   39.16    5.34
   0  -5   4   42.75    4.55
   0  -5   4   40.78    4.97
   0  -5  -5  317.27   14.80
   0  -5   5  313.55   13.89
   0  -5   5  332.85   12.98
   0  -5   6   64.81    6.63
   0  -5   6   50.04    5.65
   0  -5  -6   52.60    6.75
   0  -5  -7  141.85   11.05
   0  -5   7  150.12   10.46
   0  -5   7  141.83    9.81
   0  -5  -8   32.87    5.89
   0  -5   8   23.00    4.47
   0  -5  -9   50.31    7.52
   0  -5   9   50.46    6.91
   0  -5 -10    3.24    2.73
   0  -5  10   11.68    4.03
   0  -5 -11   -1.80    2.89
   0  -5  11    9.28    4.29
   0  -4   0 1746.21   21.03
   0  -4   0 1687.07   25.17
   0  -4  -1  380.96   12.35
   0  -4   1  386.57   11.77
   0  -4   1  371.33   10.30
   0  -4  -1  379.85    8.79
   0  -4   1  372.11   10.74
   0  -4   2  112.63    4.53
   0  -4  -2  111.62    4.13
   0  -4  -2  108.26    7.12
   0  -4   2  109.46    6.35
   0  -4  -3 1988.05   14.08
   0  -4   3 1986.01   13.80
   0  -4  -3 1932.04   30.76
   0  -4   3 1963.53   28.49
   0  -4   4  204.67    9.15
   0  -4   4  211.04   10.12
   0  -4  -4  196.96   10.34
   0  -4   5   71.94    6.38
   0  -4   5   75.37    6.02
   0  -4  -5   77.67    6.83
   0  -4   6   61.74    5.90
   0  -4  -6   72.55    7.14
   0  -4   6   58.88    6.02
   0  -4  -7  251.69   13.78
   0  -4   7  259.24   12.87
   0  -4   8   73.28    7.57
   0  -4  -8   66.81    7.79
   0  -4   9   77.13    8.27
   0  -4  -9   60.95    7.90
   0  -4 -10    2.20    2.38
   0  -4  10    3.88    2.53
   0  -4 -11   15.33    5.05
   0  -4  11   12.72    4.16
   0  -3   0    0.73    0.89
   0  -3   0   -0.28    1.01
   0  -3   1 3790.33   27.43
   0  -3  -1 3856.21   34.33
   0  -3   1 3841.63   30.58
   0  -3  -1 3922.06   23.10
   0  -3   1 3893.72   32.00
   0  -3  -2 1126.97   19.87
   0  -3   2 1121.89   10.94
   0  -3   2 1143.31   18.35
   0  -3   3  381.87   10.74
   0  -3   3  372.13   11.57
   0  -3  -3  375.76   12.27
   0  -3   3  386.69    5.19
   0  -3  -4  216.60    9.91
   0  -3   4  194.78    8.91
   0  -3   4  208.61    8.65
   0  -3   5    7.79    2.10
   0  -3   5   11.25    2.77
   0  -3  -5    7.78    2.60
   0  -3   6  804.46   20.47
   0  -3   6  833.05   20.62
   0  -3  -6  771.01   21.20
   0  -3  -7   76.64    7.40
   0  -3   7   88.52    7.39
   0  -3  -8  125.74    9.90
   0  -3   8  112.56    8.98
   0  -3   9   18.34    4.33
   0  -3  -9   17.45    4.36
   0  -3 -10   14.47    4.20
   0  -3  10   25.56    5.20
   0  -3 -11    5.66    3.17
   0  -3  11   14.28    4.31
   0  -2   0 3261.79   20.30
   0  -2   0 3284.04   24.67
   0  -2   1 2083.23   14.55
   0  -2  -1 2014.75   20.75
   0  -2   1 2057.77   19.41
   0  -2   1 2041.68   19.00
   0  -2   2 4572.03   32.95
   0  -2  -2 4562.15   34.57
   0  -2   2 4635.78   29.88
   0  -2   2 4616.18   15.24
   0  -2   3 1039.81   16.24
   0  -2  -3 1003.55   17.59
   0  -2   3 1024.25   17.11
   0  -2  -4  558.78   14.31
   0  -2   4  566.89   13.97
   0  -2   4  550.72   13.38
   0  -2   5   32.90    3.77
   0  -2  -5   30.11    2.59
   0  -2   5   28.21    3.44
   0  -2   5   32.46    2.96
   0  -2  -5   30.32    3.72
   0  -2  -6  587.49   12.29
   0  -2   6  572.12   13.79
   0  -2  -6  571.48   17.24
   0  -2   6  629.68   17.46
   0  -2   7   12.77    3.23
   0  -2  -7   12.72    4.52
   0  -2   7   21.13    3.02
   0  -2   8  180.44    9.03
   0  -2   8  173.84   11.01
   0  -2  -8  157.89   10.62
   0  -2   9   37.77    5.66
   0  -2  -9   39.41    5.94
   0  -2   9   45.38    4.91
   0  -2  10    4.51    2.18
   0  -2 -10    6.37    3.11
   0  -2  10    0.62    2.32
   0  -2  11    9.38    3.96
   0  -2 -11    4.71    2.48
   0  -2 -12    2.56    3.10
   0  -1   0    0.30    0.38
   0  -1   0    0.49    0.32
   0  -1   1  169.08    4.45
   0  -1  -1  163.02    4.55
   0  -1   2 2198.13   19.24
   0  -1   2 2190.94   18.32
   0  -1   2 2165.55   15.24
   0  -1  -2 2189.93   19.51
   0  -1   3 3480.72   22.83
   0  -1   3 3484.38   27.88
   0  -1   3 3490.93   28.04
   0  -1  -3 3491.16   28.86
   0  -1  -4  606.55   11.04
   0  -1  -4  627.04   13.96
   0  -1   4  642.74   13.28
   0  -1   4  659.67   11.36
   0  -1   4  621.26   13.81
   0  -1  -5  421.78   12.80
   0  -1   5  412.81   10.13
   0  -1   5  408.03   12.54
   0  -1  -5  413.07   10.27
   0  -1  -6  147.31    8.34
   0  -1  -6  138.52    6.66
   0  -1   6  146.48    8.40
   0  -1   6  140.37    6.55
   0  -1  -7  245.57    9.53
   0  -1  -7  211.50   10.87
   0  -1   7  235.15   11.60
   0  -1   7  222.72    9.00
   0  -1   8   63.78    5.28
   0  -1  -8   73.10    7.06
   0  -1   8   68.00    6.74
   0  -1   9  180.00    9.46
   0  -1  -9  177.35   11.67
   0  -1   9  178.63   11.78
   0  -1  10   18.33    3.42
   0  -1 -10   13.89    3.78
   0  -1  11   15.52    3.49
   0  -1 -11   20.08    4.70
   0  -1 -12   17.20    4.89
   0  -1  12   20.22    4.11
   0   0   1   69.53    1.79
   0   0   2 4759.14   23.92
   0   0  -2 4789.69   24.78
   0   0   2 4786.86   22.03
   0   0   2 4776.31   21.16
   0   0   3 1042.30   12.09
   0   0  -3 1027.74   14.02
   0   0   3 1050.07   13.69
   0   0   3 1036.75   15.03
   0   0   4   26.98    2.66
   0   0  -4   31.28    2.92
   0   0   4   27.66    3.03
   0   0   4   29.55    2.41
   0   0   5 1078.95   18.06
   0   0  -5 1136.64   20.19
   0   0   5 1133.74   16.45
   0   0  -5 1118.84   18.95
   0   0   5 1088.29   20.18
   0   0  -6   14.54    2.68
   0   0   6   14.47    2.40
   0   0   6   10.83    2.70
   0   0   6   10.34    2.35
   0   0  -6    8.07    2.30
   0   0  -7  129.17    8.32
   0   0   7  156.44    9.49
   0   0  -7  147.82    8.18
   0   0   7  138.77    7.88
   0   0   7  139.67    7.04
   0   0   8   59.19    5.64
   0   0  -8   56.08    6.12
   0   0   8   62.63    5.23
   0   0  -8   64.48    5.86
   0   0  -9   19.89    4.06
   0   0   9   17.91    3.21
   0   0   9   24.68    4.06
   0   0 -10   93.24    8.95
   0   0  10  118.19    8.21
   0   0  11    7.33    2.52
   0   0 -11    5.80    3.34
   0   0  12    0.72    1.77
   0   0 -12    0.03    1.79
   0   1   0    0.33    0.33
   0   1  -1  163.12    4.56
   0   1   1  168.12    3.92
   0   1   2 2198.66   16.40
   0   1   2 2161.18   18.11
   0   1  -2 2172.90   20.30
   0   1  -3 3467.50   29.56
   0   1   3 3476.51   27.11
   0   1   3 3495.51   23.95
   0   1   4  634.69   13.00
   0   1  -4  614.73   13.97
   0   1   4  636.57   11.49
   0   1   5  423.70   10.35
   0   1   5  408.31   11.49
   0   1  -5  414.79   12.60
   0   1   6  141.71    6.62
   0   1  -6  157.61    8.40
   0   1   6  145.41    7.50
   0   1   7  220.20    9.92
   0   1   7  235.64    9.31
   0   1  -7  227.56   10.81
   0   1   8   64.39    5.87
   0   1   8   64.50    5.31
   0   1  -8   61.35    6.03
   0   1   9  166.22    9.98
   0   1   9  161.67    8.90
   0   1  -9  154.59   10.51
   0   1 -10   21.84    4.41
   0   1  10   26.48    4.48
   0   1  10   23.87    3.82
   0   1  11   19.68    3.88
   0   1 -11   22.12    4.98
   0   1  12   28.11    4.85
   0   1 -12   14.78    4.29
   0   2   0 3300.15   21.78
   0   2  -1 2071.33   20.37
   0   2   1 2075.26   13.95
   0   2   2 4627.86   17.08
   0   2  -2 4559.59   34.46
   0   2   2 4575.42   28.65
   0   2   3 1017.05   15.94
   0   2   3 1029.26   14.65
   0   2  -3 1051.08   18.33
   0   2   4  555.58   13.10
   0   2  -4  542.49   14.55
   0   2   4  544.08   11.61
   0   2   5   27.82    3.33
   0   2  -5   29.16    3.80
   0   2   5   32.33    3.16
   0   2   6  612.57   16.12
   0   2   6  593.55   14.02
   0   2  -6  593.22   17.66
   0   2  -7   15.64    3.22
   0   2   7   15.05    2.84
   0   2   7   11.95    2.61
   0   2   8  191.93    9.23
   0   2  -8  180.53   10.95
   0   2   8  187.66   10.14
   0   2   9   42.94    4.79
   0   2   9   40.47    5.13
   0   2  -9   47.28    6.10
   0   2  10    2.90    2.37
   0   2  10    3.12    2.11
   0   2 -10    6.59    2.93
   0   2 -11    8.41    3.35
   0   2  11    9.38    2.68
   0   2 -12    5.13    2.90
   0   2  12    2.85    1.99
   0   3   0   -0.16    0.91
   0   3  -1 3898.62   32.46
   0   3   1 3868.49   25.26
   0   3   2 1109.08   11.70
   0   3  -2 1133.28   19.39
   0   3   2 1123.46   16.49
   0   3  -3  399.30   12.49
   0   3   3  395.48   10.32
   0   3   4  195.56    8.44
   0   3  -4  214.01    9.97
   0   3   4  185.37    7.47
   0   3  -5    9.17    2.44
   0   3   5    7.62    1.97
   0   3   5    3.88    1.76
   0   3   6  810.71   17.49
   0   3   6  809.39   19.67
   0   3  -6  765.27   21.31
   0   3   7   83.39    6.78
   0   3   7   79.29    5.90
   0   3  -7   67.93    7.04
   0   3   8  109.88    7.29
   0   3  -8  113.23    9.24
   0   3   8  107.37    8.13
   0   3  -9   18.40    4.22
   0   3   9   14.03    3.15
   0   3   9   17.40    3.71
   0   3  10   17.25    3.52
   0   3  11    5.47    2.48
   0   4   0 1749.68   22.25
   0   4   1  373.53    9.34
   0   4  -1  391.27   11.58
   0   4  -2  110.86    6.72
   0   4   2  112.33    4.49
   0   4   3 2034.28   26.05
   0   4  -3 1973.11   30.11
   0   4   3 1948.72   16.61
   0   4  -4  207.79   10.47
   0   4   4  209.03    8.70
   0   4   5   71.49    6.05
   0   4  -5   68.21    6.54
   0   4   5   69.80    5.40
   0   4   6   63.26    5.95
   0   4   6   69.92    5.50
   0   4  -6   73.97    7.23
   0   4  -7  277.52   14.43
   0   4   7  263.61   11.07
   0   4   7  252.67   12.25
   0   4   8   75.91    6.34
   0   4   8   73.34    7.07
   0   4  -8   73.31    8.01
   0   4   9   53.89    5.63
   0   4  -9   66.00    7.83
   0   4   9   59.13    6.69
   0   4 -10    2.66    2.22
   0   4  10    3.33    2.19
   0   4  11   16.27    3.66
   0   5   0    0.74    1.03
   0   5  -1 1334.39   23.58
   0   5   1 1357.95   20.34
   0   5   2  297.52    8.52
   0   5  -2  299.00   12.03
   0   5   3  228.84    9.67
   0   5   3  237.70    6.77
   0   5  -3  225.24   11.13
   0   5   4   42.33    2.61
   0   5  -4   44.48    5.37
   0   5   4   42.59    4.31
   0   5   5  334.89   12.11
   0   5   5  289.77   12.55
   0   5  -5  295.87   14.27
   0   5   6   58.19    5.46
   0   5   6   51.61    5.71
   0   5  -6   56.27    6.76
   0   5   7  154.95    8.94
   0   5  -7  143.10   11.11
   0   5   7  136.99    9.68
   0   5  -8   23.29    4.95
   0   5   8   27.27    4.17
   0   5   8   30.65    5.04
   0   5   9   60.47    6.19
   0   5  -9   61.58    8.06
   0   5   9   59.83    6.99
   0   5  10   10.29    3.20
   0   5 -10    3.44    2.10
   0   5  11    0.43    1.99
   0   5 -11    2.10    2.61
   0   6   0  123.14    7.36
   0   6  -1   13.77    2.81
   0   6   1   13.26    2.25
   0   6  -2  416.79   15.21
   0   6   2  415.01   11.35
   0   6   3  249.44    8.05
   0   6  -3  257.19   12.60
   0   6   3  238.57   10.55
   0   6   4   32.80    4.25
   0   6  -4   39.02    5.35
   0   6   5   26.84    3.84
   0   6  -5   34.88    5.53
   0   6   6   33.73    5.05
   0   6   6   45.25    5.06
   0   6  -6   39.64    6.15
   0   6  -7   83.68    8.91
   0   6   7   69.93    7.42
   0   6   7   80.54    6.90
   0   6   8   10.95    3.46
   0   6  -8    5.79    2.99
   0   6   8    6.99    2.73
   0   6  -9   25.21    5.56
   0   6   9   24.08    4.27
   0   6  10    0.05    1.56
   0   6 -10    7.10    3.68
   0   7   0   17.16    3.45
   0   7  -1   82.57    6.94
   0   7   1   74.88    5.88
   0   7   2  190.86    8.55
   0   7  -2  190.20   10.94
   0   7   3   41.39    5.01
   0   7  -3   42.70    5.70
   0   7   3   43.03    3.76
   0   7  -4  195.37   12.28
   0   7   4  206.05   10.82
   0   7  -5  206.70   13.34
   0   7   5  223.46   11.43
   0   7   6   40.11    5.93
   0   7  -6   38.23    6.29
   0   7   6   44.84    5.50
   0   7   7   94.73    7.83
   0   7   7  111.04    9.66
   0   7  -7  114.94   11.08
   0   7   8   13.84    4.04
   0   7   8    5.49    2.75
   0   7  -8    6.19    3.36
   0   7   9    2.70    2.34
   0   7  -9    4.37    3.33
   0   7  10    1.68    2.19
   0   7 -10   -0.66    2.21
   0   8   0   54.92    5.65
   0   8  -1   95.87    7.97
   0   8   1   81.01    6.51
   0   8  -2   82.01    7.68
   0   8   2   95.57    6.63
   0   8  -3   26.97    4.84
   0   8   4  121.69    8.88
   0   8  -4  132.76   10.77
   0   8  -5    8.69    4.04
   0   8   5    9.53    3.04
   0   8   6   10.38    3.15
   0   8  -6   12.53    3.93
   0   8   7   22.09    4.87
   0   8  -7   27.27    5.86
   0   8   7   18.58    3.91
   0   8  -8   36.49    7.16
   0   8   8   33.64    5.17
   0   8   8   40.23    6.55
   0   8   9    8.12    3.10
   0   8  -9   14.01    4.85
   0   9   0    0.04    1.78
   0   9  -1   42.48    5.88
   0   9   1   40.74    5.10
   0   9   2   33.92    4.28
   0   9  -2   32.06    5.22
   0   9   3   33.68    5.21
   0   9  -3   40.54    6.12
   0   9  -4   73.00    8.48
   0   9   4   64.57    7.02
   0   9   5   33.59    5.23
   0   9  -5   37.34    6.54
   0   9  -6    5.18    3.25
   0   9   6    6.58    2.94
   0   9  -7    2.50    2.41
   0   9   7   10.69    3.45
   0   9   7    9.01    3.68
   0   9   8    8.79    3.35
   0   9  -8    7.60    4.08
   0  10   0    4.56    2.08
   0  10   1   10.31    2.93
   0  10  -1    4.65    2.03
   0  10  -2   11.57    3.57
   0  10   3   27.01    5.03
   0  10  -3   23.56    4.97
   0  10   4    5.66    2.34
   0  10  -4    3.43    2.26
   0  10  -5   13.93    4.46
   0  10   5   22.96    4.52
   0  10   6   64.46    7.41
   0  10  -6   73.38    9.59
   0  10   7    1.24    2.16
   0  10   7   -0.24    1.49
   0  10  -7    3.40    3.40
   0  11   0    4.37    2.71
   0  11  -1   -1.44    1.63
   0  11  -2   21.12    4.64
   0  11   3   12.18    3.91
   0  11  -3   16.92    4.93
   0  11   4    0.62    1.90
   0  11  -4    4.06    2.50
   0  11   5   27.22    5.18
   0  11  -5   29.47    6.42
   0  12  -1   -0.40    1.79
   0  12  -2   20.20    4.80
   1 -12  -2    1.09    3.23
   1 -12  -1    4.18    3.27
   1 -12   0   20.61    5.64
  -1 -12   0   17.51    5.38
  -1 -12  -1    7.14    3.68
   1 -12   1    2.39    2.64
  -1 -12  -2    4.51    3.02
   1 -11  -5    6.06    3.85
  -1 -11   5   12.17    3.87
   1 -11  -4   21.88    5.93
   1 -11  -3   14.60    5.48
   1 -11  -3   12.58    4.40
   1 -11  -2   11.16    4.83
   1 -11  -1    7.09    3.21
  -1 -11   0   43.15    7.33
   1 -11   0   38.47    6.86
   1 -11   1    4.78    3.36
  -1 -11  -1   15.98    5.03
   1 -11   2   14.90    4.42
  -1 -11  -2    5.17    3.82
  -1 -11  -2    7.71    3.97
  -1 -11  -3    6.81    4.71
   1 -11   3    7.43    3.39
  -1 -11  -3    5.99    3.81
   1 -11   4   42.09    7.09
  -1 -11  -4   50.29    8.55
  -1 -11  -4   34.37    7.93
  -1 -11  -5    1.86    3.70
  -1 -11  -5    4.30    3.42
   1 -11   5    0.85    2.95
   1 -11   5    6.48    3.45
  -1 -10   7    9.21    3.53
   1 -10  -7    4.87    3.27
   1 -10  -6   13.24    5.21
  -1 -10   6    2.28    1.80
   1 -10  -5   10.61    4.50
  -1 -10   5    5.05    2.85
   1 -10  -4   26.84    5.93
   1 -10  -3   12.15    4.54
   1 -10  -2   59.76    8.24
   1 -10  -1   63.04    8.19
  -1 -10   1   64.64    8.17
  -1 -10   0   88.02    9.54
   1 -10   0   74.97    8.80
   1 -10   1   18.21    4.58
   1 -10   1    6.01    2.82
  -1 -10  -1    6.90    3.43
  -1 -10  -1   12.05    3.96
  -1 -10  -2   63.69    8.40
  -1 -10  -2   82.41   10.42
   1 -10   2   74.74    8.18
  -1 -10  -3   75.87    9.41
   1 -10   3   75.35    8.54
  -1 -10  -3   78.01   10.58
   1 -10   4    8.05    3.36
  -1 -10  -4   15.27    4.64
  -1 -10  -4   15.42    5.52
  -1 -10  -5    8.43    4.11
   1 -10   5   14.16    4.25
   1 -10   5   13.92    4.30
  -1 -10  -5   15.25    6.01
  -1 -10  -6    9.80    4.49
   1 -10   6    9.98    4.17
  -1 -10  -6    2.99    5.10
   1 -10   6    6.82    3.82
  -1  -9   8   33.38    5.83
   1  -9  -8   25.16    6.45
   1  -9  -7    1.42    3.11
  -1  -9   7    4.99    2.60
   1  -9  -6   -1.09    2.27
  -1  -9   6    3.45    2.39
  -1  -9   5    6.76    3.04
   1  -9  -5    0.95    1.98
   1  -9  -4   17.67    5.08
   1  -9  -3    6.17    3.23
   1  -9  -2   45.06    6.97
  -1  -9   1   40.25    6.25
   1  -9  -1   41.12    6.52
   1  -9   0  151.38   11.60
   1  -9   0  157.57   10.39
  -1  -9   0  138.31   11.12
  -1  -9   0  171.38   12.47
   1  -9   1  455.07   18.29
  -1  -9  -1  424.39   20.69
  -1  -9  -1  409.99   19.19
   1  -9   1  407.65   18.77
   1  -9   2   82.41    8.17
   1  -9   2   73.54    7.99
  -1  -9  -2   66.57    8.00
  -1  -9  -2   76.56    9.34
   1  -9   3   39.45    6.09
  -1  -9  -3   36.83    7.08
  -1  -9  -3   31.96    5.93
  -1  -9  -4   20.22    5.40
   1  -9   4   20.26    4.46
  -1  -9  -4   26.07    5.78
  -1  -9  -5   27.62    5.80
   1  -9   5   30.00    5.49
   1  -9   5   28.32    5.51
  -1  -9  -5   32.42    7.42
   1  -9   6   26.21    5.48
   1  -9   6   21.53    4.83
  -1  -9  -6   30.64    6.29
  -1  -9  -6   37.46    8.84
   1  -9   7    0.95    1.94
   1  -9   7    9.50    3.60
  -1  -9  -7    9.71    4.07
  -1  -9  -7    7.22    4.60
  -1  -9  -8    6.41    5.26
   1  -9   8   16.42    5.03
   1  -9   8    3.56    2.69
  -1  -9  -8    4.61    3.70
   1  -8  -9    2.58    2.94
  -1  -8   9    0.31    2.25
   1  -8  -8   31.41    6.71
  -1  -8   8   22.48    4.85
   1  -8  -7   27.65    6.31
  -1  -8   7   17.87    4.14
  -1  -8   6   10.02    3.24
   1  -8  -6    9.42    3.64
  -1  -8   5   37.32    5.24
   1  -8  -5   31.57    6.09
   1  -8  -4  126.63   11.37
   1  -8  -3   94.94    9.62
   1  -8  -2   56.38    7.12
   1  -8  -1  286.86   15.25
  -1  -8   1  300.33   14.63
  -1  -8   1  307.61   15.28
   1  -8  -1  320.36   13.25
   1  -8   0    5.87    2.59
  -1  -8   0    8.98    3.44
   1  -8   0    6.62    2.27
  -1  -8   0    5.19    2.62
  -1  -8  -1  184.94   13.10
   1  -8   1  214.48   11.84
   1  -8   1  195.06   12.10
  -1  -8  -1  198.98   12.73
  -1  -8  -2  276.43   16.72
   1  -8   2  261.01   13.54
   1  -8   2  248.14   13.60
  -1  -8  -2  255.35   14.63
  -1  -8  -3   10.15    3.59
   1  -8   3   12.83    3.61
  -1  -8  -3    5.59    3.14
  -1  -8  -4   62.79    7.88
  -1  -8  -4   72.29    9.86
   1  -8   4   58.80    7.04
  -1  -8  -5   17.41    5.52
   1  -8   5   17.22    4.19
  -1  -8  -5   19.70    4.98
   1  -8   5   20.22    4.35
   1  -8   6   82.92    9.04
  -1  -8  -6   68.88   10.94
   1  -8   6   93.17    8.97
  -1  -8  -6   84.75    9.68
  -1  -8  -7   18.23    6.32
  -1  -8  -7   15.69    4.89
   1  -8   7    4.72    2.66
   1  -8   7    7.45    3.31
  -1  -8  -8    3.02    3.78
  -1  -8  -8    1.58    2.13
   1  -8   8    8.14    3.55
   1  -8   8   10.15    3.85
  -1  -8  -9    9.23    6.58
   1  -8   9    5.50    2.90
  -1  -8  -9    4.41    3.09
   1  -7 -10    9.46    5.13
  -1  -7  10    3.94    3.09
   1  -7  -9   10.50    4.21
  -1  -7   9   11.66    3.95
  -1  -7   8   24.91    4.89
   1  -7  -8   29.62    6.40
   1  -7  -7    9.39    3.84
  -1  -7   7   17.08    3.91
  -1  -7   6   97.82    8.08
   1  -7  -6  100.64   10.06
   1  -7  -5   42.61    6.52
  -1  -7   5   44.82    5.29
   1  -7  -4   19.05    4.31
   1  -7  -3    8.27    2.99
   1  -7  -2    2.76    1.50
   1  -7  -2    3.70    2.91
  -1  -7   2    2.50    1.70
   1  -7  -1  223.84   10.25
   1  -7  -1  211.01   12.23
  -1  -7   1  205.43   11.29
  -1  -7   1  218.96   12.11
   1  -7   0  120.12    9.04
  -1  -7   0  119.57    9.02
  -1  -7   0  123.61    9.51
   1  -7   0  109.46    7.59
  -1  -7  -1  533.13   20.51
  -1  -7  -1  550.41   19.49
   1  -7   1  549.50   17.76
   1  -7   1  553.25   16.64
   1  -7   1  563.13   18.99
  -1  -7  -2   15.67    3.92
   1  -7   2   21.98    3.96
   1  -7   2   16.82    3.63
  -1  -7  -2   20.32    4.80
  -1  -7  -3  315.62   15.78
  -1  -7  -3  323.42   17.86
   1  -7   3  323.30   14.59
   1  -7   4  196.01   11.91
  -1  -7  -4  227.59   13.80
  -1  -7  -4  205.08   15.35
   1  -7   5   46.75    5.95
  -1  -7  -5   46.70    6.82
   1  -7   5   44.27    6.02
   1  -7   6   54.22    6.52
  -1  -7  -6   50.33    7.29
   1  -7   6   55.67    7.06
  -1  -7  -7    2.02    2.55
   1  -7   7    3.43    3.19
   1  -7   7    1.90    2.12
  -1  -7  -8   11.26    4.20
   1  -7   8    5.47    2.73
   1  -7   8   10.99    4.10
  -1  -7  -9    6.40    3.96
   1  -7   9    7.82    3.58
   1  -7   9   17.23    4.74
   1  -6 -10    2.24    2.66
  -1  -6  10   11.72    4.04
   1  -6  -9   45.62    7.53
  -1  -6   9   46.79    6.66
   1  -6  -8    4.56    2.77
  -1  -6   8    6.40    2.76
  -1  -6   7  312.80   14.48
   1  -6  -7  302.39   17.18
  -1  -6   6   40.35    5.05
   1  -6  -6   35.96    5.92
  -1  -6   5   35.55    4.43
   1  -6  -5   36.01    5.98
   1  -6  -4   10.88    3.37
  -1  -6   4    7.98    2.41
  -1  -6   3  135.05    6.94
   1  -6  -3  150.16   10.41
  -1  -6   2  369.13   12.60
   1  -6  -2  388.39   15.98
  -1  -6   1  137.04    8.84
   1  -6  -1  123.29    7.11
  -1  -6   1  123.08    8.12
   1  -6  -1  123.58    8.78
  -1  -6   0  218.83   11.66
   1  -6   0  217.97    9.85
  -1  -6   0  204.34   10.69
   1  -6   0  221.47   11.33
   1  -6   1  873.07   20.55
  -1  -6  -1  856.84   24.50
  -1  -6  -1  869.16   22.80
   1  -6   1  875.62   21.83
   1  -6   2  448.14   11.50
  -1  -6  -2  444.37   16.69
   1  -6   2  447.01   15.43
   1  -6   2  445.57   15.56
  -1  -6  -2  450.98   18.71
  -1  -6  -3  550.20   19.24
   1  -6   3  543.67   18.02
  -1  -6  -3  543.34   21.81
  -1  -6  -4  195.86   11.98
   1  -6   4  190.44   11.03
  -1  -6  -5  186.93   12.34
   1  -6   5  213.15   11.64
   1  -6   5  203.07   11.85
   1  -6   6   32.88    5.27
   1  -6   6   36.77    5.38
  -1  -6  -6   19.60    4.41
   1  -6   7   50.39    6.66
  -1  -6  -7   63.43    7.83
   1  -6   7   58.81    6.83
  -1  -6  -8   46.43    7.20
   1  -6   8   39.81    6.39
   1  -6   8   35.28    5.76
  -1  -6  -9   23.66    5.38
   1  -6   9   15.82    4.49
   1  -6   9   23.10    4.97
  -1  -6 -10    4.76    3.58
   1  -6  10    6.10    3.39
  -1  -5  11   16.92    4.84
   1  -5 -11   13.52    4.71
   1  -5 -10   37.51    6.95
  -1  -5  10   43.13    6.69
   1  -5  -9   25.05    5.49
  -1  -5   9   21.18    4.83
  -1  -5   8  132.65    9.97
   1  -5  -8  145.00   12.10
   1  -5  -7   82.89    8.73
  -1  -5   7   84.12    7.43
  -1  -5   6   14.41    3.16
   1  -5  -6   11.70    3.41
   1  -5  -5   28.93    5.05
  -1  -5   5   37.06    4.26
  -1  -5   4   74.37    5.72
  -1  -5   4   79.84    4.27
   1  -5  -4   71.65    6.98
   1  -5  -3  312.80   13.87
  -1  -5   3  317.41    9.45
   1  -5  -2  162.06    9.66
  -1  -5   2  151.25    7.34
  -1  -5   1  267.67   10.95
   1  -5  -1  286.03   12.10
  -1  -5   1  294.93   11.60
  -1  -5   0  201.99    9.74
   1  -5   0  187.42    8.37
  -1  -5   0  215.45   10.66
   1  -5   0  221.79   10.29
   1  -5   1    5.37    2.08
  -1  -5  -1    4.64    2.07
  -1  -5  -1    8.00    3.07
   1  -5   1    6.72    1.95
   1  -5   2  834.52   19.59
  -1  -5  -2  817.97   23.40
   1  -5   2  869.23   13.43
  -1  -5  -2  829.56   20.98
   1  -5   2  862.91   19.63
  -1  -5  -3  279.22   12.73
   1  -5   3  253.88   11.42
   1  -5   4  307.38   13.37
  -1  -5  -4  308.01   13.85
   1  -5   4  326.45   12.85
  -1  -5  -5   32.01    4.75
   1  -5   5   28.22    4.29
   1  -5   5   32.09    4.79
   1  -5   6   22.76    4.03
  -1  -5  -6   15.56    3.98
   1  -5   6   16.73    3.74
  -1  -5  -7  222.73   13.62
   1  -5   7  212.73   12.66
   1  -5   7  214.11   12.32
   1  -5   8   55.43    6.98
   1  -5   8   49.46    6.60
  -1  -5  -8   54.42    7.27
   1  -5   9   33.32    5.88
  -1  -5  -9   21.94    5.08
   1  -5   9   31.59    5.68
  -1  -5 -10    6.81    3.68
   1  -5  10    0.34    2.06
  -1  -5 -11    5.91    3.51
   1  -5  11    9.25    4.19
  -1  -4  11   11.84    4.17
   1  -4 -11   12.43    4.58
   1  -4 -10   16.39    4.61
  -1  -4  10   13.42    4.05
   1  -4  -9   36.17    6.15
  -1  -4   9   39.06    5.77
  -1  -4   8  105.05    8.58
   1  -4  -8   96.78    9.57
   1  -4  -7   43.87    6.05
  -1  -4   7   56.22    6.00
   1  -4  -6  112.47    8.92
  -1  -4   6  117.38    7.85
  -1  -4   5  230.47    7.08
  -1  -4   5  219.48    9.65
   1  -4  -5  219.86   11.72
  -1  -4   4  479.24    9.52
   1  -4  -4  487.15   16.49
  -1  -4   4  491.82   13.43
   1  -4  -3  439.31   14.89
  -1  -4   3  438.65    9.93
  -1  -4   2  615.66   13.34
   1  -4  -2  642.88   17.32
   1  -4  -1 3474.11   37.73
  -1  -4   1 3459.28   35.38
  -1  -4   1 3381.06   34.86
  -1  -4   0 1174.78   22.50
   1  -4   0 1134.56   20.87
  -1  -4   0 1172.94   20.78
  -1  -4  -1  436.01   13.11
   1  -4   1  461.19   12.82
   1  -4   1  423.59   12.07
  -1  -4  -1  447.11   15.08
  -1  -4  -2   40.11    4.34
   1  -4   2   34.73    2.08
   1  -4   2   27.25    3.37
  -1  -4  -2   29.36    4.57
   1  -4   3   30.90    3.75
  -1  -4  -3   31.68    4.01
  -1  -4  -4  117.62    8.00
   1  -4   4  105.57    7.48
   1  -4   4  129.99    7.66
   1  -4   5  210.15   10.84
  -1  -4  -5  221.94   11.39
   1  -4   5  214.05   10.35
  -1  -4  -6  237.98   12.50
   1  -4   6  240.64   12.17
   1  -4   6  267.31   12.41
   1  -4   7  189.18   11.34
   1  -4   7  181.04   11.10
  -1  -4  -7  193.55   12.12
   1  -4   8   98.89    8.61
   1  -4   8   96.03    8.70
  -1  -4  -8   92.03    8.85
  -1  -4  -9  145.36   11.70
   1  -4   9  155.47   11.34
   1  -4   9  157.81   12.01
   1  -4  10   32.45    6.11
  -1  -4 -10   28.98    5.76
   1  -4  11   31.13    6.39
  -1  -4 -11   29.42    6.22
   1  -3 -11    7.50    3.97
  -1  -3  11    4.29    3.36
   1  -3 -10    8.71    3.83
  -1  -3  10   12.27    3.71
   1  -3  -9   35.46    5.99
  -1  -3   9   41.94    5.90
   1  -3  -8   36.90    5.73
  -1  -3   8   49.47    5.98
   1  -3  -7  106.96    8.78
  -1  -3   7  127.94    8.64
   1  -3  -6  107.98    8.19
  -1  -3   6  121.03    7.70
   1  -3  -5  330.14   13.43
  -1  -3   5  338.13   11.59
   1  -3  -4  872.39   20.27
  -1  -3   4  874.73   16.79
  -1  -3   4  864.72   12.62
   1  -3  -3  542.58   14.91
  -1  -3   3  520.32   11.60
  -1  -3   3  520.54    9.68
  -1  -3   2 1578.21   18.55
   1  -3  -2 1585.39   23.88
  -1  -3   1 1615.46   21.07
   1  -3  -1 1649.22   22.98
   1  -3   0 3852.18   33.18
  -1  -3   0 3829.25   32.52
  -1  -3   0 3921.08   37.07
   1  -3   1  239.64    7.98
  -1  -3  -1  233.01    8.38
  -1  -3  -1  240.30   10.02
  -1  -3  -2   29.02    3.24
   1  -3   2   27.36    3.11
  -1  -3  -3  487.46   13.72
   1  -3   3  477.42   13.38
  -1  -3  -4 1088.28   21.81
   1  -3   4 1120.84   22.06
  -1  -3  -5    7.59    2.21
   1  -3   5   10.27    2.62
   1  -3   5    9.52    2.34
  -1  -3  -6   26.26    4.14
   1  -3   6   27.95    4.14
   1  -3   6   18.13    3.29
  -1  -3  -7  123.31    8.98
   1  -3   7  126.71    9.09
   1  -3   7  134.67    8.99
   1  -3   8  100.36    8.62
  -1  -3  -8   85.05    8.12
   1  -3   8   98.45    8.19
  -1  -3  -9   70.13    7.81
   1  -3   9   72.41    8.10
  -1  -3 -10   22.87    4.78
   1  -3  10   28.79    5.64
  -1  -3 -11    5.18    3.33
   1  -3  11   10.52    4.44
   1  -2 -12   14.16    4.79
  -1  -2  11    2.08    1.98
   1  -2 -11    3.22    2.54
  -1  -2  10   57.97    5.89
  -1  -2  10   71.14    8.07
   1  -2 -10   66.18    8.30
   1  -2  -9    9.23    3.54
  -1  -2   9    6.28    2.19
  -1  -2   9   11.83    3.73
   1  -2  -8   19.56    4.08
  -1  -2   8   12.37    3.21
  -1  -2   8   17.55    2.89
  -1  -2   7  107.33    7.68
  -1  -2   7  100.23    6.04
   1  -2  -7  109.62    8.41
  -1  -2   6   72.31    4.67
  -1  -2   6   72.91    5.98
   1  -2  -6   67.08    6.24
   1  -2  -5 1084.57   22.57
  -1  -2   5 1113.04   20.33
   1  -2  -5 1107.41    8.35
  -1  -2   5 1047.18   16.11
  -1  -2   4  300.37    9.41
   1  -2  -4  307.47   11.02
  -1  -2   4  299.65    7.84
  -1  -2   3  570.61    9.63
   1  -2  -3  582.14   13.91
  -1  -2   3  605.79   11.39
  -1  -2   2  941.26   12.48
   1  -2  -2  938.11   15.94
  -1  -2   2  917.58   12.11
   1  -2  -1  829.35   13.70
  -1  -2   1  809.87   12.89
   1  -2   0 2546.59   22.18
  -1  -2   0 2544.04   25.66
  -1  -2   0 2522.18   21.39
   1  -2   1 7012.58   34.58
  -1  -2  -1 7061.01   47.98
  -1  -2  -1 7065.74   37.97
   1  -2   2 4416.26   33.43
  -1  -2  -2 4351.75   32.71
   1  -2   3   75.98    5.00
  -1  -2  -3   84.66    5.07
   1  -2   4  397.54   12.12
  -1  -2  -4  395.68   11.75
  -1  -2  -5  271.25   10.74
   1  -2   5  252.30   10.28
   1  -2   6   22.95    3.39
   1  -2   6   18.01    3.47
  -1  -2  -6   21.90    3.52
   1  -2   7    4.29    1.96
  -1  -2  -7    0.80    1.35
  -1  -2  -7    4.45    1.98
   1  -2   8  129.65    7.95
   1  -2   8  129.32    9.77
  -1  -2  -8  128.94    9.34
   1  -2   8  131.28    8.79
  -1  -2  -9    7.64    2.81
   1  -2   9    8.40    3.27
  -1  -2 -10    4.22    2.69
   1  -2  10   -0.01    2.71
  -1  -2 -11    6.19    3.23
   1  -2  11   12.67    4.43
   1  -2  12    8.35    3.54
  -1  -1  12    8.91    3.00
   1  -1 -12    4.68    3.36
  -1  -1  11   17.31    3.45
   1  -1 -11   13.15    4.18
  -1  -1  10    9.87    2.42
   1  -1 -10   15.08    4.06
  -1  -1   9   43.95    4.71
   1  -1  -9   44.91    6.25
  -1  -1   8    1.08    1.14
  -1  -1   8    0.56    1.68
   1  -1  -8    5.02    2.98
   1  -1  -7   54.29    5.92
  -1  -1   7   46.27    4.01
  -1  -1   7   51.64    5.36
   1  -1  -6  214.74   10.62
   1  -1  -6  221.47    6.93
  -1  -1   6  235.51    8.13
  -1  -1   6  210.20    9.73
   1  -1  -5   80.53    3.60
  -1  -1   5   83.19    5.50
   1  -1  -5   91.68    6.30
  -1  -1   5   79.64    4.27
  -1  -1   4  813.40   11.83
   1  -1  -4  816.98    9.25
  -1  -1   4  821.51   14.88
   1  -1  -4  815.73   16.70
  -1  -1   3  482.24    9.23
   1  -1  -3  517.61   11.80
  -1  -1   3  482.66    9.68
  -1  -1   3  489.53    7.85
  -1  -1   2 2987.05   19.10
  -1  -1   2 3026.69   15.59
   1  -1  -2 3027.59   24.67
  -1  -1   2 3045.74   20.56
  -1  -1   1  341.81    6.99
   1  -1  -1  335.26    6.99
  -1  -1   1  345.73    4.51
   1  -1   0 1523.42   12.39
  -1  -1   0 1545.90   12.04
  -1  -1   0 1537.95   16.55
  -1  -1  -1  758.43   13.55
  -1  -1  -1  745.11    9.23
   1  -1   1  763.92   10.14
  -1  -1  -2 4645.66   26.99
  -1  -1  -2 4434.33   36.84
  -1  -1  -3  400.90    9.34
   1  -1   3  404.96    9.98
   1  -1   3  399.91    8.44
  -1  -1  -4  201.33    7.62
   1  -1   4  224.38    8.23
   1  -1   4  210.45    6.90
   1  -1   4  212.86    8.04
   1  -1   5  202.33    8.57
   1  -1   5  191.57    7.28
   1  -1   5  193.60    8.32
  -1  -1  -5  192.16    8.34
  -1  -1  -6  143.56    7.89
  -1  -1  -6  143.29    8.03
   1  -1   6  131.77    7.63
   1  -1   6  134.86    6.70
   1  -1   6  127.17    8.25
   1  -1   6  139.01    7.56
   1  -1   7   38.98    4.51
   1  -1   7   41.03    5.03
  -1  -1  -7   39.76    4.65
  -1  -1  -7   33.13    4.15
   1  -1   7   39.18    4.30
   1  -1   7   34.94    3.75
  -1  -1  -8  199.28   11.06
   1  -1   8  227.32   10.31
   1  -1   8  209.83   12.34
  -1  -1  -9   92.89    8.29
   1  -1   9   90.84    8.76
   1  -1   9   93.20    7.16
  -1  -1 -10   90.13    8.81
   1  -1  10  119.28   10.63
   1  -1  10  100.91    7.98
   1  -1  11    6.11    2.47
  -1  -1 -11    9.40    3.65
   1  -1  12    6.01    2.74
  -1   0  12   12.42    3.42
   1   0 -12   18.13    5.21
  -1   0  11    6.28    2.58
   1   0 -11    4.10    2.74
   1   0 -10   19.58    4.46
  -1   0  10   23.61    3.81
   1   0  -9    2.04    2.37
  -1   0   9    2.56    1.67
   1   0  -8    7.57    2.85
  -1   0   8    8.09    2.12
   1   0  -7  147.49    9.22
  -1   0   7  145.87    7.07
   1   0  -7  176.05    7.97
  -1   0   6 1350.68   20.35
   1   0  -6 1274.08   20.02
   1   0  -6 1371.06   25.43
  -1   0   6 1356.94   19.28
  -1   0   5 1053.61   15.40
   1   0  -5 1049.59   16.00
  -1   0   5 1036.29   15.84
  -1   0   4  162.16    5.38
  -1   0   4  149.87    5.17
   1   0  -4  161.00    5.47
  -1   0   4  157.84    6.56
  -1   0   3 5257.68   25.08
  -1   0   3 5244.55   26.01
   1   0  -3 5311.96   27.14
  -1   0   2 9890.82   39.00
  -1   0   2 9855.88   28.69
   1   0  -2 9999.00   29.88
   1   0  -1  723.65    6.71
  -1   0   1  713.29    8.91
  -1   0   1  696.48    5.47
   1   0   0   45.65    1.77
  -1   0   0   45.85    2.30
  -1   0  -1  509.31    8.91
   1   0   1  515.05    7.11
   1   0   1  526.53    5.83
  -1   0  -2 8786.68   44.02
   1   0   2 8782.43   30.82
   1   0   2 8756.99   39.06
   1   0   3    7.86    1.23
   1   0   3    6.08    1.22
   1   0   3    6.43    1.47
   1   0   4   10.38    1.63
  -1   0  -4   12.30    1.92
   1   0   4   12.67    1.87
  -1   0  -4   12.81    2.30
   1   0   4   13.13    2.34
  -1   0  -5  826.40   18.56
   1   0   5  839.90   15.41
  -1   0  -5  839.18   16.62
   1   0   5  831.38   14.73
   1   0   5  863.71   17.83
  -1   0  -6    7.83    2.15
   1   0   6    3.91    1.73
   1   0   6    6.15    1.68
  -1   0  -6    3.31    1.78
   1   0   6    3.78    1.34
   1   0   6    2.20    1.67
  -1   0  -7   34.22    4.40
  -1   0  -7   33.50    4.24
   1   0   7   36.79    4.92
   1   0   7   40.28    4.60
   1   0   7   34.17    3.81
  -1   0  -8   92.45    7.46
   1   0   8   94.53    6.56
  -1   0  -8   88.39    7.24
   1   0   8  100.43    8.36
   1   0   8   94.46    7.40
   1   0   9    9.24    2.47
  -1   0  -9   16.00    3.60
   1   0   9   14.64    3.37
   1   0  10   22.89    4.67
  -1   0 -10   10.90    3.47
   1   0  10   14.76    3.43
  -1   0 -11   -0.20    1.79
   1   0  11    5.22    2.35
   1   0  12    4.71    2.31
  -1   1  12    8.21    2.75
   1   1 -12    8.11    3.95
  -1   1  11   14.81    3.15
   1   1 -11   18.88    4.80
   1   1 -10    9.20    3.52
  -1   1  10   10.04    2.79
  -1   1   9   47.14    4.72
   1   1  -9   47.27    6.26
   1   1  -8    2.39    1.44
  -1   1   8    2.79    1.39
  -1   1   8    2.94    1.68
   1   1  -7   50.98    4.82
  -1   1   7   57.65    4.56
  -1   1   7   47.01    4.24
  -1   1   6  227.23    8.22
  -1   1   6  218.71    8.24
   1   1  -6  230.95    9.44
   1   1  -5   75.32    5.10
  -1   1   5   79.74    4.49
  -1   1   5   74.91    4.36
   1   1  -4  813.97   14.65
  -1   1   4  811.57   12.45
  -1   1   4  803.67   12.76
  -1   1   3  489.54    9.00
   1   1  -3  469.02   10.06
  -1   1   3  487.79    8.24
  -1   1   2 3051.02   20.17
  -1   1   2 3088.67   15.79
   1   1  -2 2972.93   22.20
   1   1  -1  323.67    6.37
  -1   1   0 1527.12   11.27
   1   1   0 1543.34   12.45
  -1   1  -1  784.15    7.58
   1   1   1  776.87    7.66
   1   1   2 4378.26   23.01
  -1   1  -2 4442.57   34.02
  -1   1  -2 4555.26   23.89
   1   1   3  392.44   10.56
  -1   1  -3  407.74    9.08
   1   1   3  418.70    7.06
   1   1   3  422.88    8.46
  -1   1  -3  381.15   11.28
   1   1   4  218.91    6.91
  -1   1  -4  205.01    9.10
   1   1   4  201.69    8.43
   1   1   4  215.76    5.92
  -1   1  -5  199.84    9.71
   1   1   5  193.35    7.22
   1   1   5  192.58    6.32
   1   1   5  178.51    8.53
   1   1   6  141.40    6.71
   1   1   6  134.17    7.94
  -1   1  -6  128.55    8.37
   1   1   7   36.92    3.92
   1   1   7   47.22    5.14
  -1   1  -7   31.42    4.37
  -1   1  -8  241.84   12.66
   1   1   8  226.62   11.54
  -1   1  -8  206.68   10.89
   1   1   8  251.38   10.51
   1   1   9   79.52    7.42
   1   1   9   96.79    7.14
  -1   1  -9   87.91    8.05
  -1   1  -9   88.74    7.71
  -1   1 -10   99.68    8.76
   1   1  10  111.77    8.16
   1   1  10  102.58    8.91
  -1   1 -11    6.51    2.94
   1   1  11    3.48    2.67
   1   1  11    5.35    2.28
   1   1  12    8.89    3.24
   1   2 -12    5.26    2.77
  -1   2  12   17.40    3.67
   1   2 -11    0.79    2.28
  -1   2  11    6.72    2.38
  -1   2  10   54.93    5.67
  -1   2   9    8.19    2.22
   1   2  -8   15.21    3.24
  -1   2   8   18.40    3.12
  -1   2   8   21.22    3.40
  -1   2   7  100.53    6.21
   1   2  -7  102.00    7.40
  -1   2   7  107.70    6.60
   1   2  -6   70.80    5.75
  -1   2   6   63.96    4.74
  -1   2   6   68.96    4.85
  -1   2   5 1066.33   17.69
   1   2  -5 1104.03   21.16
  -1   2   5 1115.31   17.85
  -1   2   4  293.79    8.31
  -1   2   4  292.20    8.56
   1   2  -4  312.39   10.39
   1   2  -3  569.15   12.91
  -1   2   3  569.31   10.25
  -1   2   3  583.42   11.46
  -1   2   2  931.58   13.61
   1   2  -2  908.67   14.72
   1   2  -1  816.32   12.60
  -1   2   1  820.89    9.78
   1   2   0 2543.62   20.21
  -1   2   0 2575.02   21.74
   1   2   1 7046.40   30.65
   1   2   1 6907.67   30.47
  -1   2  -1 6949.99   41.48
  -1   2  -2 4432.90   37.29
   1   2   2 4414.83   26.86
   1   2   3   83.74    5.27
  -1   2  -3   89.04    5.94
   1   2   3   83.77    4.16
  -1   2  -3   83.79    2.73
  -1   2  -4  392.88    8.47
   1   2   4  402.66    9.93
  -1   2  -4  394.88   13.43
   1   2   4  408.84   12.60
  -1   2  -5  274.34   12.01
   1   2   5  256.95   10.82
   1   2   5  268.98    8.84
   1   2   6   22.69    3.61
   1   2   6   29.32    3.28
  -1   2  -6   20.57    3.85
   1   2   7    2.41    1.78
  -1   2  -7    3.65    2.39
   1   2   7    6.25    2.16
   1   2   8  114.25    8.58
  -1   2  -8  125.48    9.72
   1   2   8  148.12    8.27
  -1   2  -9   14.51    3.84
   1   2   9   15.18    3.69
   1   2   9   13.84    2.93
  -1   2 -10    5.30    2.44
   1   2  10    0.29    1.65
   1   2  10    1.59    2.25
  -1   2 -11    1.25    1.96
   1   2  11    6.13    2.55
   1   2  12    5.63    2.95
  -1   3  11    8.70    2.62
  -1   3  10    9.04    2.53
  -1   3   9   48.28    5.24
   1   3  -9   44.54    6.02
  -1   3   8   39.95    4.62
  -1   3   8   46.54    4.79
   1   3  -8   42.41    5.60
   1   3  -7  112.48    8.38
  -1   3   7  115.96    7.27
  -1   3   7  122.89    7.22
  -1   3   6  106.77    6.60
   1   3  -6  118.76    8.10
  -1   3   6  112.14    6.49
  -1   3   5  353.57   11.07
  -1   3   5  345.46   10.92
   1   3  -5  379.08   13.47
  -1   3   4  865.33   15.82
   1   3  -4  862.33   19.07
  -1   3   4  882.38   16.57
   1   3  -3  523.88   13.81
  -1   3   3  531.91   12.42
  -1   3   2 1531.65   13.10
   1   3  -2 1570.52   22.23
  -1   3   1 1571.83   17.19
   1   3  -1 1641.38   20.73
   1   3   0 3865.69   29.16
  -1   3   0 3884.99   30.81
  -1   3  -1  214.28    8.21
   1   3   1  233.87    6.63
   1   3   2   32.74    2.36
  -1   3  -2   37.50    3.93
   1   3   2   36.99    2.94
  -1   3  -3  491.30   14.69
   1   3   3  464.59   10.81
   1   3   4 1109.73   17.67
  -1   3  -4 1128.79   24.08
   1   3   4 1079.51   21.49
   1   3   5    7.98    2.29
  -1   3  -5   10.02    2.95
  -1   3  -5    7.43    1.10
   1   3   5    9.43    1.96
   1   3   6   23.31    3.19
   1   3   6   23.02    3.87
  -1   3  -6   33.44    5.03
  -1   3  -7  120.68    9.61
   1   3   7  126.01    7.35
   1   3   7  135.55    9.31
  -1   3  -8   94.98    8.93
   1   3   8   93.69    6.92
   1   3   8   90.17    8.08
   1   3   9   55.25    5.71
  -1   3  -9   65.39    7.76
   1   3   9   66.28    7.21
  -1   3 -10   38.15    6.38
   1   3  10   32.14    5.40
   1   3  10   31.01    4.64
  -1   3 -11    2.70    2.55
   1   3  11    3.78    2.78
   1   3  11    6.50    2.97
  -1   4  11   14.93    3.61
  -1   4  10   12.26    3.13
   1   4 -10   13.79    4.07
   1   4  -9   43.02    6.14
  -1   4   9   47.62    5.33
   1   4  -8  102.08    8.96
  -1   4   8  102.52    7.34
  -1   4   7   54.63    5.51
  -1   4   7   49.85    4.96
   1   4  -7   48.88    5.94
  -1   4   6  109.92    7.17
  -1   4   6  123.72    7.33
   1   4  -6  110.39    8.44
  -1   4   5  216.68    9.31
   1   4  -5  207.68   10.79
  -1   4   5  234.91    9.76
  -1   4   4  518.23   13.99
   1   4  -4  480.86   15.45
  -1   4   3  448.32   12.65
   1   4  -3  456.13   14.01
  -1   4   3  450.88    6.94
   1   4  -2  655.97   15.78
  -1   4   2  651.45   10.91
  -1   4   1 3413.06   28.95
   1   4  -1 3438.02   33.45
  -1   4   0 1143.46   18.90
   1   4   0 1170.32   18.18
   1   4   1  427.71   10.24
  -1   4  -1  438.20   12.79
   1   4   2   35.53    2.78
   1   4   2   31.09    3.14
  -1   4  -2   32.34    3.92
  -1   4  -3   38.94    4.77
   1   4   3   29.55    2.48
   1   4   3   29.55    3.18
   1   4   4  115.44    7.58
  -1   4  -4  108.51    8.17
   1   4   4  109.21    6.18
  -1   4  -5  207.60   11.72
   1   4   5  219.99   10.94
   1   4   5  226.55    9.15
   1   4   6  258.38   10.47
   1   4   6  274.45   12.98
  -1   4  -6  258.36   13.78
   1   4   7  209.07   11.93
  -1   4  -7  191.15   12.57
   1   4   7  188.32    9.52
   1   4   8  101.99    8.81
  -1   4  -8  106.86   10.10
   1   4   8   99.36    7.27
   1   4   9  161.10    9.69
   1   4   9  191.99   12.41
   1   4  10   41.34    6.37
  -1   4 -10   41.05    6.72
   1   4  10   39.51    5.33
   1   4  11   26.20    5.31
   1   4  11   16.53    3.88
  -1   5  11   15.57    4.05
   1   5 -10   45.58    7.02
  -1   5  10   31.69    4.86
   1   5  -9   25.48    5.03
  -1   5   9   27.56    4.37
   1   5  -8  146.78   11.36
  -1   5   8  116.10    8.16
  -1   5   7   90.10    6.92
  -1   5   7   85.90    7.13
   1   5  -7   89.74    8.46
  -1   5   6   12.94    3.04
   1   5  -6   15.06    3.62
  -1   5   6    9.71    2.61
  -1   5   5   35.12    4.16
   1   5  -5   36.05    5.00
  -1   5   4   78.64    6.00
   1   5  -4   76.80    6.90
   1   5  -3  323.61   12.93
  -1   5   3  326.19    7.59
  -1   5   2  159.38    6.31
   1   5  -2  151.56    8.44
  -1   5   1  279.39    9.37
   1   5  -1  278.67   10.69
  -1   5   0  203.66    8.80
   1   5   0  211.84    8.67
  -1   5  -1    7.66    2.32
   1   5   1    6.92    1.59
  -1   5  -2  907.85   21.62
   1   5   2  871.62   15.41
   1   5   3  248.29    9.64
  -1   5  -3  246.27   12.10
   1   5   3  261.81    7.96
   1   5   4  305.24   10.98
  -1   5  -4  322.08   14.64
   1   5   5   27.30    4.29
  -1   5  -5   36.41    5.54
   1   5   5   34.42    4.04
   1   5   6   22.35    4.41
  -1   5  -6   18.70    4.30
   1   5   6   27.29    3.81
   1   5   7  234.00   10.91
   1   5   7  221.34   12.95
  -1   5  -7  251.87   15.18
  -1   5  -8   39.72    6.65
   1   5   8   46.63    6.49
   1   5   8   44.33    5.14
   1   5   9   25.36    4.88
   1   5   9   26.86    4.30
  -1   5  -9   27.38    5.76
   1   5  10   -1.70    2.27
  -1   5 -10    2.68    2.57
   1   5  10    4.07    2.44
  -1   5 -11    3.67    2.87
   1   5  11    6.66    2.97
   1   6 -10   -0.42    2.15
  -1   6  10    3.10    2.02
   1   6  -9   32.23    6.26
  -1   6   9   40.81    5.50
  -1   6   8    9.68    3.07
   1   6  -8    8.85    3.49
  -1   6   7  337.72   14.86
  -1   6   7  347.43   14.32
   1   6  -7  330.47   16.99
  -1   6   6   34.78    4.57
   1   6  -6   35.22    5.37
  -1   6   6   48.89    5.54
   1   6  -5   51.31    6.25
  -1   6   5   39.88    4.74
   1   6  -4   11.02    3.01
  -1   6   4    3.06    1.90
  -1   6   3  141.50    5.84
   1   6  -3  151.28    9.52
  -1   6   2  367.46   10.86
   1   6  -2  373.09   14.11
   1   6  -1  143.34    8.50
  -1   6   1  125.14    6.98
  -1   6   0  233.09   10.22
   1   6   0  213.89    9.59
  -1   6  -1  858.76   21.14
   1   6   1  858.48   17.90
  -1   6  -2  480.40   16.63
   1   6   2  456.91   12.32
   1   6   3  559.60   12.75
   1   6   3  580.49   15.96
  -1   6  -3  565.23   19.26
  -1   6  -4  168.49   11.27
   1   6   4  186.82    9.25
   1   6   4  181.75    6.94
  -1   6  -5  213.71   13.21
   1   6   5  183.88    9.46
   1   6   6   31.20    4.28
  -1   6  -6   36.29    6.01
   1   6   6   27.16    4.53
  -1   6  -7   61.41    8.11
   1   6   7   45.88    6.45
   1   6   7   49.58    5.38
   1   6   8   37.52    4.99
  -1   6  -8   43.95    7.19
   1   6   8   37.82    6.16
  -1   6  -9   23.10    5.74
   1   6   9   24.79    5.26
   1   6   9   23.41    4.25
   1   6  10   -4.89    3.09
   1   6  10   -1.28    1.60
   1   7 -10    2.27    3.01
  -1   7  10    3.19    2.14
   1   7  -9   11.01    4.07
  -1   7   9    5.87    2.43
   1   7  -8   25.40    5.39
  -1   7   8   31.25    4.82
   1   7  -7   13.25    4.02
  -1   7   7   16.43    3.54
   1   7  -6  117.98   10.30
  -1   7   6  111.77    8.54
   1   7  -5   41.28    5.93
  -1   7   5   36.99    5.00
   1   7  -4   26.93    4.91
  -1   7   4   25.32    4.34
   1   7  -3   14.04    3.49
  -1   7   2    2.28    1.14
   1   7  -2    3.85    2.03
   1   7  -1  211.72   10.84
  -1   7   1  214.07    9.94
  -1   7   0  114.92    7.81
   1   7   0  105.98    7.29
  -1   7  -1  572.30   18.36
   1   7   1  550.86   15.59
   1   7   2   20.17    2.91
  -1   7  -2   15.81    3.70
   1   7   3  318.81   12.80
  -1   7  -3  363.40   16.48
   1   7   3  316.87   10.48
  -1   7  -4  211.89   13.11
   1   7   4  220.15   10.76
   1   7   5   42.37    4.97
  -1   7  -5   44.67    6.42
  -1   7  -6   64.37    8.30
   1   7   6   63.25    7.39
   1   7   6   65.71    6.28
   1   7   7   -2.71    2.15
   1   7   7    0.37    1.57
   1   7   8    8.04    3.65
  -1   7  -8    5.44    3.27
   1   7   8    7.27    2.52
  -1   7  -9   15.34    4.95
   1   7   9   10.31    3.77
   1   7   9   18.68    3.78
   1   8  -9    6.45    4.01
  -1   8   9    2.23    1.97
  -1   8   8   18.33    4.21
   1   8  -8   29.27    6.08
   1   8  -7   15.87    4.47
  -1   8   7   14.67    3.54
   1   8  -6   12.67    3.83
  -1   8   6   13.54    3.43
   1   8  -5   48.35    6.89
  -1   8   5   45.01    5.88
  -1   8   4  136.81    9.70
   1   8  -4  143.32   10.85
   1   8  -3   94.46    8.40
  -1   8   2   43.04    4.47
   1   8  -2   44.78    5.69
   1   8  -1  300.80   13.76
  -1   8   1  293.86   12.48
   1   8   0    8.11    2.68
  -1   8   0    8.09    2.77
  -1   8  -1  205.19   11.67
   1   8   1  216.43   10.59
   1   8   2  275.41   11.32
  -1   8  -2  276.42   14.21
  -1   8  -3    7.59    3.17
   1   8   3    8.78    2.09
   1   8   3    7.17    2.35
   1   8   4   72.58    6.78
  -1   8  -4   51.80    6.99
  -1   8  -5   11.84    3.81
   1   8   5   19.01    3.69
  -1   8  -6   97.95   10.38
   1   8   6   76.42    8.68
   1   8   6   83.62    7.47
   1   8   7    7.96    3.62
  -1   8  -7   11.35    4.27
   1   8   7    7.31    2.91
  -1   8  -8   11.33    4.87
   1   8   8    6.06    3.53
   1   8   8    3.17    2.30
  -1   8  -9   10.20    3.69
   1   8   9    5.68    3.67
   1   8   9    6.64    2.84
  -1   9   8   28.63    5.16
   1   9  -8   31.26    6.64
   1   9  -7   59.08    9.62
  -1   9   7    2.03    2.08
  -1   9   6    5.00    2.59
   1   9  -6    2.82    2.03
  -1   9   5    1.11    1.72
   1   9  -5   -0.22    2.03
   1   9  -4   28.27    5.39
  -1   9   4   19.19    4.23
   1   9  -3    4.18    2.44
   1   9  -2   36.62    5.42
  -1   9   1   37.29    4.89
   1   9  -1   36.69    5.29
  -1   9   0  138.68    9.78
   1   9   0  161.98   10.32
   1   9   1  426.16   15.84
  -1   9  -1  416.55   17.62
  -1   9  -2   75.96    8.16
   1   9   2   80.50    6.54
   1   9   3   29.35    4.58
  -1   9  -3   34.50    5.92
  -1   9  -4   30.09    5.72
   1   9   4   16.46    3.71
  -1   9  -5   30.74    6.15
   1   9   5   25.95    4.52
  -1   9  -6   22.35    5.37
   1   9   6   26.07    4.64
  -1   9  -7    3.62    2.57
   1   9   7    6.40    3.25
   1   9   7    6.77    2.88
   1   9   8    7.71    2.96
  -1   9  -8    6.46    4.22
   1   9   8    3.54    3.42
  -1  10   7    5.97    2.89
   1  10  -7    5.23    3.73
   1  10  -6   10.50    4.12
  -1  10   6    3.29    2.43
  -1  10   5    8.40    2.98
   1  10  -5    7.73    3.40
  -1  10   4   15.00    4.09
   1  10  -4   26.74    5.36
   1  10  -3   14.02    4.29
   1  10  -2   55.64    7.00
   1  10  -1   56.96    6.81
  -1  10   0   72.94    7.50
   1  10   0   64.33    6.95
  -1  10  -1    2.34    2.08
   1  10   1    7.13    2.77
  -1  10  -2   77.04    8.40
   1  10   3   79.03    7.91
  -1  10  -3   78.45    8.84
   1  10   4    7.36    2.97
  -1  10  -4    7.26    3.54
  -1  10  -5   15.15    4.88
   1  10   5   14.71    3.79
  -1  10  -6    3.71    3.26
   1  10   6    5.45    2.63
  -1  11   5   18.75    4.59
   1  11  -5   14.88    4.83
   1  11  -4   20.26    5.01
  -1  11   4   17.40    4.36
   1  11  -3    6.83    3.28
   1  11  -2    3.97    3.12
   1  11  -1    7.11    3.14
   1  11   0   43.71    6.13
  -1  11   0   42.35    6.19
   1  11   1    3.62    2.20
  -1  11  -1    4.21    2.59
  -1  11  -2    8.18    3.32
  -1  11  -3    8.73    3.59
   1  11   3    2.73    2.22
  -1  11  -4   48.22    7.83
   1  11   4   47.29    6.65
  -1  11  -5   12.62    5.04
   1  11   5    5.95    3.19
   1  12  -2   -0.34    2.21
   1  12  -1    1.03    1.86
   1  12   0   18.99    4.51
  -1  12  -1    4.24    3.02
  -1  12  -2    9.53    4.23
   1  12   2    3.28    2.56
   2 -12   0    0.92    2.02
   2 -11  -5   13.95    4.91
   2 -11  -4    5.67    4.01
   2 -11  -3   22.45    5.62
   2 -11  -2    3.03    3.34
   2 -11  -1   10.32    4.18
  -2 -11   0    7.92    3.46
   2 -11   0    3.85    2.85
   2 -11   1   12.54    4.67
  -2 -11  -1    3.30    2.89
   2 -11   1    7.08    3.18
  -2 -11  -2    2.35    2.68
   2 -11   2    6.81    3.49
  -2 -11  -2    6.05    3.80
   2 -11   3    7.14    3.74
  -2 -11  -3    1.76    3.77
  -2 -11  -3    4.47    3.84
  -2 -11  -4    6.92    3.99
   2 -11   4    4.46    2.89
  -2 -11  -4    8.84    4.57
   2 -10  -6   11.16    4.32
   2 -10  -5    1.52    2.62
   2 -10  -4    4.09    2.97
   2 -10  -3   32.76    6.65
   2 -10  -2    5.64    3.65
   2 -10  -1   85.88    9.67
  -2 -10   0   60.47    8.01
   2 -10   0   59.36    7.28
  -2 -10   0   54.81    7.84
   2 -10   0   44.90    6.88
   2 -10   1    1.39    2.49
  -2 -10  -1    0.05    1.99
   2 -10   1    1.92    1.98
  -2 -10  -1    3.39    2.73
  -2 -10  -2    7.91    3.58
   2 -10   2    9.59    3.35
  -2 -10  -2   15.06    4.94
   2 -10   2   16.28    4.55
  -2 -10  -3   20.54    5.78
  -2 -10  -3   19.26    4.90
   2 -10   3   11.19    3.73
  -2 -10  -4    1.87    2.30
  -2 -10  -4    1.26    4.03
   2 -10   4    1.98    2.31
   2 -10   5   22.50    5.34
   2 -10   5   13.85    4.49
  -2 -10  -5   22.90    5.87
  -2 -10  -6   28.03    7.82
  -2 -10  -6   36.83    7.31
   2 -10   6   20.04    5.23
   2 -10   6   32.72    6.22
   2  -9  -8    7.19    3.99
   2  -9  -7    9.29    4.05
   2  -9  -6   23.16    6.11
  -2  -9   5    6.89    2.65
   2  -9  -5    7.42    3.90
   2  -9  -4   27.13    6.06
   2  -9  -3   28.36    5.82
   2  -9  -2   24.06    5.20
   2  -9  -1  132.27   11.28
  -2  -9   1  125.37   10.58
   2  -9  -1  161.64   10.68
  -2  -9   0    2.72    2.61
   2  -9   0    3.61    2.30
  -2  -9   0    3.74    2.18
   2  -9   0    1.42    2.65
  -2  -9  -1   34.14    5.81
   2  -9   1   26.08    5.05
  -2  -9  -1   28.29    5.81
   2  -9   1   39.14    5.82
  -2  -9  -2  121.46   10.75
   2  -9   2  140.43   11.01
  -2  -9  -2  132.42   12.71
   2  -9   2  143.23   11.17
  -2  -9  -3   25.87    6.36
  -2  -9  -3   30.47    5.56
   2  -9   3   35.72    5.93
  -2  -9  -4    1.27    2.84
  -2  -9  -4    4.63    3.95
   2  -9   4   -0.04    1.78
   2  -9   5   25.44    4.99
  -2  -9  -5   31.15    6.15
  -2  -9  -5   24.89    6.67
   2  -9   5   30.24    5.99
  -2  -9  -6   13.91    4.61
   2  -9   6   15.23    4.44
   2  -9   6   14.43    4.52
  -2  -9  -6    7.89    4.95
  -2  -9  -7    0.18    4.41
   2  -9   7    6.38    3.67
   2  -9   7    2.59    2.42
  -2  -9  -7    2.84    2.63
   2  -8  -9   20.86    6.38
   2  -8  -8    8.81    4.11
   2  -8  -7   63.22    8.99
  -2  -8   7   42.29    5.79
   2  -8  -6    2.86    2.48
  -2  -8   6    7.07    2.69
  -2  -8   5    8.64    2.80
   2  -8  -5    5.70    3.25
   2  -8  -4   79.14    9.04
   2  -8  -3  111.99   10.39
   2  -8  -2  127.14    8.67
  -2  -8   2  119.32    9.12
   2  -8  -2  133.96   11.04
   2  -8  -1   71.04    7.84
   2  -8  -1   64.04    6.34
  -2  -8   1   78.74    8.05
   2  -8   0  102.17    9.04
  -2  -8   0   81.72    8.08
  -2  -8   0   89.31    9.19
   2  -8   0   86.30    7.66
   2  -8   1   82.18    7.78
  -2  -8  -1   85.24    8.24
  -2  -8  -1   87.76    9.42
   2  -8   1   89.30    8.25
  -2  -8  -2  132.75   12.03
  -2  -8  -2  136.23   10.66
   2  -8   2  131.79    9.94
   2  -8   2  133.95   10.09
  -2  -8  -3   48.52    6.68
  -2  -8  -3   53.63    8.13
   2  -8   3   38.79    5.72
  -2  -8  -4   12.50    4.50
   2  -8   4   17.77    4.30
  -2  -8  -4   23.30    5.07
   2  -8   5    8.44    3.16
  -2  -8  -5   13.61    5.11
   2  -8   5   10.17    3.96
  -2  -8  -5    5.76    2.87
   2  -8   6    9.53    3.45
  -2  -8  -6    4.19    4.29
   2  -8   6   10.69    3.85
  -2  -8  -6   19.58    5.11
   2  -8   7   15.65    4.63
  -2  -8  -7   22.31    5.55
  -2  -8  -7   14.75    6.05
   2  -8   7   17.07    4.80
  -2  -8  -8    0.42    2.40
  -2  -8  -8    1.20    3.93
   2  -8   8    0.60    2.32
   2  -8   8    1.33    1.86
   2  -7  -9    5.52    3.90
   2  -7  -8    8.42    3.54
  -2  -7   8    8.14    2.83
   2  -7  -7   19.44    4.95
  -2  -7   7   27.12    4.54
   2  -7  -6   36.18    6.15
  -2  -7   6   42.40    5.24
  -2  -7   5   44.14    5.05
   2  -7  -5   45.40    6.84
   2  -7  -4   30.23    5.64
   2  -7  -3    4.67    3.29
  -2  -7   3    4.54    2.10
  -2  -7   2   30.16    4.42
   2  -7  -2   32.85    5.36
   2  -7  -1  139.68   10.19
  -2  -7   1  154.86   10.45
   2  -7   0   62.35    6.58
  -2  -7   0   70.93    7.55
  -2  -7   0   62.75    6.59
   2  -7   0   56.92    5.85
  -2  -7  -1   65.83    6.68
   2  -7   1   59.00    6.29
  -2  -7  -1   49.77    6.84
   2  -7   1   60.13    6.28
  -2  -7  -2   13.86    3.48
  -2  -7  -2    9.09    3.55
   2  -7   2   13.76    3.53
   2  -7   2   14.81    3.49
  -2  -7  -3  190.02   12.06
   2  -7   3  197.71   11.96
  -2  -7  -3  179.74   13.85
  -2  -7  -4   11.47    4.22
  -2  -7  -4   14.18    3.81
   2  -7   4   17.60    4.13
  -2  -7  -5   31.56    6.95
  -2  -7  -5   37.30    5.86
   2  -7   5   28.91    5.33
   2  -7   5   28.66    4.84
   2  -7   6   20.63    4.87
  -2  -7  -6   19.10    4.63
  -2  -7  -6   15.94    4.78
   2  -7   6   28.99    4.95
  -2  -7  -7   28.51    5.82
  -2  -7  -7   38.50    8.23
   2  -7   7   25.75    5.28
   2  -7   7   35.10    5.87
  -2  -7  -8   10.35    3.90
  -2  -7  -8   12.87    5.65
   2  -7   8   17.71    4.64
   2  -7   8   13.46    3.86
   2  -7   9    9.15    3.56
  -2  -7  -9    7.47    4.13
  -2  -7  -9   15.70    6.31
   2  -7   9    9.47    3.40
   2  -6 -10    5.55    4.21
   2  -6  -9   24.62    5.84
  -2  -6   9   24.22    4.76
   2  -6  -8   14.19    4.14
  -2  -6   8   17.34    3.89
   2  -6  -7   16.27    4.56
  -2  -6   7   16.82    3.77
   2  -6  -6   92.09    9.32
  -2  -6   6   89.18    7.12
   2  -6  -5   40.67    6.12
  -2  -6   5   41.91    4.64
   2  -6  -4  183.34   11.99
  -2  -6   4  186.44    8.63
  -2  -6   4  186.18    9.23
   2  -6  -3  102.88    8.78
  -2  -6   3   89.64    6.50
   2  -6  -2  181.36   11.08
  -2  -6   2  161.53    9.27
  -2  -6   1  109.74    8.41
   2  -6  -1  111.62    8.53
  -2  -6   0   69.43    6.37
  -2  -6   0   59.04    6.64
   2  -6   0   55.03    5.70
  -2  -6  -1  507.67   20.07
  -2  -6  -1  491.30   16.97
   2  -6   1  470.11   16.17
  -2  -6  -2   36.59    5.99
  -2  -6  -2   41.46    5.21
   2  -6   2   46.55    5.47
   2  -6   2   43.45    5.07
  -2  -6  -3   90.19    9.26
  -2  -6  -3   87.39    7.65
   2  -6   3   75.49    7.08
   2  -6   4    4.03    2.17
   2  -6   4    0.78    1.62
  -2  -6  -4    5.13    3.01
  -2  -6  -4    4.43    2.30
  -2  -6  -5   11.38    3.46
  -2  -6  -5    6.75    3.21
   2  -6   5    7.84    2.99
   2  -6   5    7.58    2.95
  -2  -6  -6   48.31    6.65
  -2  -6  -6   58.14    8.94
   2  -6   6   55.14    6.92
   2  -6   6   42.92    5.84
   2  -6   7   29.36    5.52
  -2  -6  -7   26.67    6.96
  -2  -6  -7   28.73    5.48
   2  -6   7   34.58    5.55
  -2  -6  -8    9.39    3.52
  -2  -6  -8   11.68    5.28
   2  -6   8   10.73    3.86
   2  -6   8    7.82    3.40
  -2  -6  -9    0.57    2.93
  -2  -6  -9    0.74    2.70
   2  -6   9    1.50    2.16
   2  -6   9    1.59    2.86
   2  -6  10   -1.06    2.12
   2  -6  10    0.94    2.62
   2  -5 -11    9.85    4.19
  -2  -5  10   18.25    4.61
   2  -5 -10   13.21    4.46
   2  -5  -9   66.32    9.02
  -2  -5   9   80.88    8.15
   2  -5  -8    7.60    3.67
  -2  -5   8    6.95    2.59
   2  -5  -7    8.61    3.62
  -2  -5   7   10.60    2.92
   2  -5  -6   84.86    8.45
  -2  -5   6   73.06    6.12
  -2  -5   5  148.61    6.93
   2  -5  -5  134.80   10.26
  -2  -5   5  149.16    8.13
  -2  -5   4   24.15    3.53
   2  -5  -4   17.25    3.66
  -2  -5   4   18.28    2.62
   2  -5  -3  187.82   10.86
  -2  -5   3  176.02    8.40
   2  -5  -2  263.62   12.29
  -2  -5   2  244.89   10.61
   2  -5  -1  163.39    9.38
  -2  -5   1  179.00    9.77
  -2  -5   0   67.60    6.68
  -2  -5   0   64.15    5.48
   2  -5   0   66.52    5.71
   2  -5   1 1362.45   24.76
  -2  -5  -1 1366.77   30.69
  -2  -5  -1 1332.17   25.19
  -2  -5  -2  193.89   12.28
  -2  -5  -2  182.69    9.77
   2  -5   2  179.88    8.93
  -2  -5  -3   68.49    7.95
  -2  -5  -3   69.12    6.38
   2  -5   3   72.27    6.50
   2  -5   4   53.58    5.92
  -2  -5  -4   46.62    5.31
  -2  -5  -4   53.76    7.24
   2  -5   4   59.12    5.87
  -2  -5  -5    8.30    4.03
   2  -5   5    5.41    2.28
  -2  -5  -5    6.03    2.51
   2  -5   5    9.02    2.79
  -2  -5  -6   59.00    8.67
  -2  -5  -6   50.25    6.28
   2  -5   6   48.08    5.75
   2  -5   6   42.92    5.81
  -2  -5  -7    5.04    2.55
  -2  -5  -7    5.40    3.80
   2  -5   7    6.97    2.80
   2  -5   7    5.49    2.63
  -2  -5  -8   39.09    8.07
  -2  -5  -8   26.36    5.01
   2  -5   8   27.55    5.12
   2  -5   8   30.78    5.43
  -2  -5  -9   14.81    4.38
  -2  -5  -9   12.97    5.21
   2  -5   9   13.74    4.07
   2  -5   9   11.18    3.98
  -2  -5 -10    9.78    5.24
   2  -5  10    9.93    3.66
   2  -5  10   14.37    4.04
   2  -4 -11   11.64    4.39
  -2  -4  11    6.37    3.41
   2  -4 -10   65.57    8.84
  -2  -4  10   67.61    7.94
   2  -4  -9   60.77    8.32
  -2  -4   9   64.95    7.25
   2  -4  -8   82.24    8.91
  -2  -4   8   79.72    7.38
   2  -4  -7  130.66   10.43
  -2  -4   7  145.32    9.17
   2  -4  -6  284.48   14.62
  -2  -4   6  298.28   11.99
  -2  -4   6  297.77   10.10
   2  -4  -5  100.34    8.24
  -2  -4   5  116.70    6.00
  -2  -4   5  108.62    6.84
   2  -4  -4  354.53   14.49
  -2  -4   4  367.90   10.64
  -2  -4   4  359.39   10.83
   2  -4  -3  196.79   10.19
  -2  -4   3  183.64    8.01
  -2  -4   3  175.76    7.07
   2  -4  -2  308.17   12.06
  -2  -4   2  288.50   10.80
   2  -4  -1  219.54    9.66
  -2  -4   1  233.65   10.35
   2  -4   0  372.37   12.02
  -2  -4   0  401.93   14.43
  -2  -4   0  385.23   11.97
  -2  -4  -1  174.48   10.33
  -2  -4  -1  178.71    8.32
   2  -4   1  185.29    8.15
  -2  -4  -2  174.92   10.88
  -2  -4  -2  154.68    8.16
   2  -4   2  175.64    7.74
  -2  -4  -3 1614.36   34.83
   2  -4   3 1542.01   27.42
   2  -4   3 1575.38   26.18
  -2  -4  -3 1512.64   26.25
  -2  -4  -4    6.90    2.32
  -2  -4  -4    7.56    2.97
   2  -4   4    5.57    2.26
   2  -4   4    8.08    2.37
  -2  -4  -5  198.70   10.84
  -2  -4  -5  194.49   13.61
   2  -4   5  184.93   10.62
   2  -4   5  193.36   10.32
  -2  -4  -6   65.59    6.64
   2  -4   6   62.28    6.33
  -2  -4  -6   44.28    7.16
   2  -4   6   58.58    6.34
  -2  -4  -7    3.05    2.07
   2  -4   7    1.58    1.73
   2  -4   7    4.51    2.44
  -2  -4  -8  173.29   11.90
  -2  -4  -8  175.54   14.91
   2  -4   8  152.28   11.01
   2  -4   8  157.47   11.40
  -2  -4  -9   21.74    5.88
  -2  -4  -9   25.11    5.17
   2  -4   9   20.95    5.00
   2  -4   9   21.17    4.59
   2  -4  10   24.02    5.29
  -2  -4 -10   20.78    6.02
   2  -4  10   33.39    5.67
  -2  -4 -11    8.15    5.12
   2  -4  11    2.74    2.56
   2  -3 -11    9.10    4.21
  -2  -3  11    2.74    2.36
   2  -3 -10   22.40    5.14
  -2  -3  10   19.57    4.39
  -2  -3   9    8.25    2.85
   2  -3  -9   10.24    3.73
   2  -3  -8   74.16    8.01
  -2  -3   8   78.95    7.32
   2  -3  -7  382.81   17.04
  -2  -3   7  421.92   15.11
   2  -3  -6  140.34    9.76
  -2  -3   6  152.03    8.33
   2  -3  -5  440.37   15.88
  -2  -3   5  438.93   11.64
  -2  -3   5  450.20   12.94
  -2  -3   4   54.71    4.01
  -2  -3   4   50.80    3.87
   2  -3  -4   50.32    5.13
  -2  -3   3  122.61    6.07
   2  -3  -3  128.40    7.51
  -2  -3   3  127.41    5.33
   2  -3  -2   76.31    5.45
  -2  -3   2   77.44    5.16
   2  -3  -1  386.24   11.35
  -2  -3   1  367.11   11.79
   2  -3   0  647.05   13.72
  -2  -3   0  671.08   17.25
  -2  -3   0  702.09   13.89
  -2  -3  -1  506.09   12.07
  -2  -3  -1  498.81   15.91
   2  -3   1  513.03   11.59
  -2  -3  -2  246.40    8.97
  -2  -3  -2  285.03   12.92
   2  -3   3 1873.80   26.32
  -2  -3  -3 1863.49   26.19
  -2  -3  -3 1798.08   34.28
  -2  -3  -4   38.42    4.18
  -2  -3  -4   42.51    5.76
   2  -3   4   39.04    4.43
   2  -3   4   37.60    4.19
  -2  -3  -5  161.49    8.83
  -2  -3  -5  192.20   12.70
   2  -3   5  176.26    9.69
   2  -3   5  179.49    9.54
  -2  -3  -6   50.91    7.15
  -2  -3  -6   54.30    5.53
   2  -3   6   52.70    5.67
   2  -3   6   52.68    5.58
  -2  -3  -7   39.48    5.21
   2  -3   7   36.82    4.99
  -2  -3  -7   30.21    5.79
   2  -3   7   31.22    4.92
  -2  -3  -8   13.42    3.64
  -2  -3  -8   10.97    4.48
   2  -3   8   10.76    3.21
   2  -3   8   12.86    3.81
  -2  -3  -9   24.04    5.50
  -2  -3  -9   23.48    4.64
   2  -3   9   21.07    4.35
   2  -3   9   19.12    4.37
  -2  -3 -10   23.80    5.78
   2  -3  10   25.78    4.89
   2  -3  10   23.80    5.35
   2  -3  11   30.51    6.40
   2  -2 -12    3.76    3.00
  -2  -2  11    0.34    1.46
   2  -2 -11    6.21    3.60
   2  -2 -10    9.18    3.70
  -2  -2  10    8.95    2.57
   2  -2  -9    5.86    2.98
  -2  -2   9    9.86    3.03
  -2  -2   9    5.88    2.07
  -2  -2   8   16.39    2.67
   2  -2  -8   19.12    4.48
  -2  -2   8   16.74    3.42
  -2  -2   7   25.46    2.97
  -2  -2   7   31.37    4.21
   2  -2  -7   28.63    4.67
  -2  -2   6    1.88    1.03
  -2  -2   6    2.56    1.50
   2  -2  -6    0.59    1.98
   2  -2  -5 1067.37   23.16
  -2  -2   5 1058.69   18.65
  -2  -2   5 1066.44   19.02
  -2  -2   5 1050.67   15.26
   2  -2  -4  218.57    9.75
  -2  -2   4  186.39    7.27
  -2  -2   4  203.86    7.27
   2  -2  -3 1205.42   20.63
  -2  -2   3 1211.05   17.80
  -2  -2   3 1202.38   14.87
  -2  -2   2  443.00   11.11
  -2  -2   2  449.67    7.28
   2  -2  -2  439.76   11.44
   2  -2  -1  443.21   10.46
  -2  -2   1  456.42   11.94
   2  -2   0 2743.48   23.49
  -2  -2   0 2688.57   30.95
  -2  -2  -1  784.87   12.17
  -2  -2  -1  747.36   17.68
   2  -2   1  737.42   11.26
  -2  -2  -2   31.56    2.80
  -2  -2  -2   26.79    3.73
   2  -2   2   30.79    3.05
  -2  -2  -3  728.75   14.15
  -2  -2  -3  734.64   20.29
   2  -2   3  717.27   15.31
  -2  -2  -4  737.19   15.80
  -2  -2  -4  727.79   21.72
   2  -2   4  770.95   17.30
   2  -2   4  724.91   17.14
  -2  -2  -5  422.84   13.13
  -2  -2  -5  435.37   17.73
   2  -2   5  417.00   14.00
   2  -2   5  438.01   14.57
  -2  -2  -6   10.47    2.52
   2  -2   6    7.15    2.33
  -2  -2  -6    5.73    2.84
   2  -2   6    2.16    1.83
  -2  -2  -7   79.09    6.73
  -2  -2  -7   83.81    8.85
   2  -2   7   70.56    6.59
   2  -2   7   75.11    7.21
  -2  -2  -8  102.98    8.32
  -2  -2  -8  107.40   10.43
   2  -2   8  107.41    8.23
   2  -2   8  111.88    9.29
   2  -2   9   19.01    4.38
  -2  -2  -9   20.84    4.24
   2  -2   9   14.23    3.43
  -2  -2  -9   28.74    5.94
   2  -2  10   65.83    8.40
  -2  -2 -10   61.98    8.74
   2  -2  11   18.57    5.04
  -2  -1  12    2.89    2.38
   2  -1 -12   -0.01    2.47
  -2  -1  11   14.68    3.17
   2  -1 -11   14.17    4.37
  -2  -1  10    3.88    2.03
   2  -1 -10    7.22    3.41
   2  -1  -9   45.71    6.46
  -2  -1   9   39.87    4.42
  -2  -1   8   13.02    2.35
   2  -1  -8   10.03    3.32
   2  -1  -7   32.41    4.79
  -2  -1   7   36.44    3.49
   2  -1  -6   94.50    7.23
   2  -1  -6   92.43    3.75
  -2  -1   6   94.31    4.97
  -2  -1   6   90.10    6.15
   2  -1  -5  194.66    9.55
   2  -1  -5  186.79    4.68
  -2  -1   5  181.50    6.07
  -2  -1   5  193.68    7.87
   2  -1  -4  734.19   16.82
  -2  -1   4  731.44   13.22
   2  -1  -4  715.44    8.07
  -2  -1   4  740.51   14.86
  -2  -1   4  735.64   10.65
   2  -1  -3 1064.27   18.04
  -2  -1   3 1040.63   12.99
  -2  -1   3 1080.26   10.54
  -2  -1   3 1072.24   16.35
   2  -1  -2  351.61    9.08
  -2  -1   2  353.07    9.14
  -2  -1   2  349.17    4.40
  -2  -1   2  344.79    5.46
   2  -1  -1  246.89    6.46
  -2  -1   1  242.35    7.94
   2  -1   0 5254.98   24.45
  -2  -1   0 5175.30   38.57
  -2  -1  -1 1515.20   11.90
   2  -1   1 1502.16   10.18
  -2  -1  -1 1504.89   22.58
   2  -1   1 1507.70   16.04
   2  -1   1 1510.80   16.18
  -2  -1  -2 5140.37   26.41
  -2  -1  -2 5067.89   44.50
   2  -1   2 5038.24   34.72
   2  -1   2 5092.38   33.90
  -2  -1  -3  593.98   10.79
  -2  -1  -3  581.41   16.67
   2  -1   3  569.69   13.16
  -2  -1  -4  827.69   14.86
  -2  -1  -4  809.77   21.10
   2  -1   4  814.09   14.31
   2  -1   4  837.20   17.57
  -2  -1  -5   79.85    5.24
  -2  -1  -5   81.89    7.30
   2  -1   5   80.12    6.13
   2  -1   5   89.47    6.29
   2  -1   5   77.69    5.69
   2  -1   5   73.26    4.82
   2  -1   6  111.45    7.14
  -2  -1  -6   99.89    8.57
   2  -1   6  123.49    7.91
  -2  -1  -6  116.42    6.95
   2  -1   6  122.00    6.68
   2  -1   6  125.59    8.40
   2  -1   7   13.06    2.76
  -2  -1  -7   10.26    2.98
  -2  -1  -7   12.22    2.65
  -2  -1  -7   12.01    3.73
   2  -1   7    7.56    2.79
   2  -1   7   13.14    2.67
   2  -1   7   20.98    4.04
   2  -1   8   16.99    3.10
  -2  -1  -8   15.20    3.22
   2  -1   8   17.19    3.78
  -2  -1  -8   17.86    3.73
   2  -1   8   16.73    3.20
  -2  -1  -8   20.00    4.41
   2  -1   8   20.65    4.19
   2  -1   9   21.68    3.86
  -2  -1  -9   23.48    4.19
  -2  -1  -9   15.79    4.13
   2  -1   9   26.50    5.15
   2  -1  10   22.65    3.99
   2  -1  10   22.96    5.08
   2  -1  11    6.05    2.82
  -2   0  12   17.30    3.67
   2   0 -12   20.18    5.63
   2   0 -11   31.01    6.16
  -2   0  11   37.91    4.87
   2   0 -10    5.88    3.33
  -2   0  10    9.80    2.46
   2   0  -9  122.26   10.06
  -2   0   9  115.64    7.14
  -2   0   8    3.53    1.49
   2   0  -8    4.96    2.69
   2   0  -7   10.92    2.82
  -2   0   7    9.77    1.95
   2   0  -6   50.37    3.58
  -2   0   6   51.08    3.67
   2   0  -6   50.06    5.28
  -2   0   5   46.37    3.19
   2   0  -5   42.96    3.05
   2   0  -4  889.57   12.24
  -2   0   4  863.20   12.11
  -2   0   3 3424.62   30.13
  -2   0   3 3427.33   20.33
   2   0  -3 3377.98   22.07
  -2   0   2  598.46   11.58
   2   0  -2  600.53    8.58
  -2   0   2  600.58    6.96
   2   0  -1 3624.07   16.09
  -2   0   1 3600.61   27.66
  -2   0   0    3.65    1.29
   2   0   0    3.31    0.79
   2   0   0    3.82    0.60
  -2   0  -1 5084.38   36.65
   2   0   1 5119.00   25.91
   2   0   1 5076.85   31.69
  -2   0  -2  225.63    4.03
   2   0   2  213.24    7.46
  -2   0  -2  225.95    8.41
   2   0   2  229.49    5.62
   2   0   2  221.54    6.81
  -2   0  -3  877.90   11.36
  -2   0  -3  873.73   17.99
   2   0   3  926.59   12.93
   2   0   3  872.05   15.71
  -2   0  -4  409.02   13.67
   2   0   4  414.36   12.30
  -2   0  -4  428.13    9.61
   2   0   4  398.32    9.55
  -2   0  -5 1197.49   18.79
  -2   0  -5 1194.45   25.23
   2   0   5 1182.38   18.43
   2   0   5 1170.91   19.66
   2   0   5 1246.46   23.18
   2   0   5 1179.06   22.94
  -2   0  -6   63.80    4.93
  -2   0  -6   64.08    6.25
  -2   0  -6   65.44    6.41
   2   0   6   74.09    5.35
   2   0   6   69.72    4.94
   2   0   6   67.53    6.00
   2   0   6   63.81    5.99
  -2   0  -7  489.24   14.84
  -2   0  -7  450.74   17.55
  -2   0  -7  465.34   17.68
   2   0   7  484.70   16.76
   2   0   7  492.64   14.47
   2   0   7  499.55   14.12
   2   0   7  511.71   17.96
  -2   0  -8  133.81    8.51
  -2   0  -8  129.24    9.86
  -2   0  -8  141.54   10.29
   2   0   8  147.49    9.80
   2   0   8  127.52    9.81
   2   0   8  145.37    8.34
   2   0   9   29.86    4.32
  -2   0  -9   24.47    4.19
  -2   0  -9   30.19    5.09
   2   0   9   43.16    6.05
   2   0   9   27.61    5.26
   2   0  10    5.04    2.85
   2   0  10    4.78    2.27
   2   0  11   50.00    6.29
  -2   1  12    6.50    2.51
   2   1 -12    3.19    2.44
  -2   1  11   11.61    2.89
   2   1 -11    6.63    3.67
   2   1 -10    5.60    3.34
  -2   1  10    1.83    1.49
   2   1  -9   42.79    6.11
  -2   1   9   36.81    4.20
  -2   1   8   10.04    2.26
   2   1  -7   40.44    4.14
  -2   1   7   36.18    3.37
  -2   1   7   37.79    3.60
  -2   1   6   95.69    4.83
   2   1  -6   87.06    5.46
  -2   1   6   84.40    4.92
  -2   1   5  183.17    6.74
  -2   1   5  198.99    5.83
   2   1  -5  193.79    7.59
   2   1  -4  715.03   13.32
  -2   1   4  698.80   11.97
  -2   1   4  744.54    9.03
  -2   1   3 1073.73    7.44
   2   1  -3 1061.05   15.03
  -2   1   3 1051.81   13.49
  -2   1   2  345.40    9.16
   2   1  -2  340.55    7.97
  -2   1   2  341.56    7.21
   2   1  -1  245.44    6.34
  -2   1   1  237.75    6.95
  -2   1   0 5228.73   30.33
   2   1   0 5206.91   28.58
   2   1   1 1466.78   18.34
  -2   1  -1 1489.86   16.50
   2   1   1 1537.13   10.90
   2   1   2 5040.36   38.28
  -2   1  -2 5089.94   33.61
   2   1   2 5037.92   25.27
   2   1   2 5049.96   32.53
  -2   1  -3  575.65   12.66
   2   1   3  593.76   10.22
   2   1   3  583.40   12.97
  -2   1  -4  796.77   16.55
   2   1   4  803.00   13.50
  -2   1  -4  869.96   20.73
   2   1   4  814.38   17.11
  -2   1  -5   70.62    5.60
   2   1   5   73.01    5.80
  -2   1  -5   75.81    6.74
   2   1   5   75.89    4.46
   2   1   5   73.98    4.59
   2   1   5   75.50    6.09
  -2   1  -6  119.02    7.78
  -2   1  -6  123.61    9.15
   2   1   6  117.15    5.98
   2   1   6  131.54    6.68
   2   1   6  122.91    8.21
   2   1   7   14.67    2.65
  -2   1  -7   12.82    2.51
   2   1   7   11.61    3.03
  -2   1  -7   14.00    3.01
  -2   1  -7   16.55    3.89
   2   1   8   18.94    3.28
  -2   1  -8   12.11    2.58
  -2   1  -8   11.35    3.35
   2   1   8   16.52    3.91
   2   1   9   21.86    3.74
  -2   1  -9   21.11    3.79
   2   1   9   32.39    5.20
  -2   1  -9   15.65    4.04
   2   1  10   14.68    3.42
   2   1  10   19.52    4.54
   2   1  11    3.35    2.12
   2   1  11    4.26    2.87
  -2   2  12    4.98    2.60
   2   2 -12    1.82    3.16
   2   2 -11    4.14    3.21
  -2   2  11    4.38    2.14
  -2   2  10    8.92    2.50
  -2   2   9   11.79    2.71
   2   2  -8   22.32    3.67
  -2   2   8   15.56    2.69
  -2   2   7   32.08    3.58
   2   2  -7   28.99    3.92
   2   2  -6    3.84    1.79
  -2   2   6    2.05    1.13
  -2   2   6    0.04    1.02
  -2   2   5 1056.20   17.52
   2   2  -5 1061.50   19.91
  -2   2   5 1093.10   14.85
  -2   2   4  197.90    5.61
   2   2  -4  201.27    8.10
  -2   2   4  186.08    7.05
  -2   2   3 1212.74   17.20
   2   2  -3 1196.27   18.47
   2   2  -2  443.80   10.49
   2   2  -1  462.78   10.11
   2   2   0 2742.15   23.45
  -2   2   0 2721.32   21.88
   2   2   0 2744.75   14.66
   2   2   1  774.13    9.21
   2   2   1  767.98   12.16
  -2   2  -1  747.40   10.24
  -2   2  -2   30.48    2.11
  -2   2  -2   28.91    3.57
   2   2   2   31.53    2.25
  -2   2  -3  725.77   18.50
  -2   2  -3  700.81   10.81
   2   2   3  754.06   12.17
  -2   2  -4  759.52   20.33
  -2   2  -4  730.10   12.88
   2   2   4  747.59   13.53
  -2   2  -5  431.21   11.30
   2   2   5  424.42    8.72
  -2   2  -5  419.56   16.27
   2   2   5  433.42   11.41
   2   2   5  413.30   14.81
   2   2   6    6.33    2.45
  -2   2  -6    7.96    3.11
   2   2   6    7.48    1.93
  -2   2  -7   75.89    7.79
   2   2   7   83.44    6.01
   2   2   7   79.89    7.22
  -2   2  -8  102.30    9.37
   2   2   8  106.99    7.16
   2   2   8  111.86    8.96
   2   2   9   23.82    3.95
  -2   2  -9   19.55    3.65
  -2   2  -9   27.56    5.31
   2   2   9   23.93    4.37
  -2   2 -10   65.50    8.09
   2   2  10   60.31    6.33
   2   2  10   74.60    8.21
   2   2  11   10.76    3.40
   2   2  11   13.06    4.33
  -2   3  11    7.04    2.68
  -2   3  10   16.90    3.39
  -2   3   9    8.18    2.49
  -2   3   8   72.81    5.95
   2   3  -8   78.58    7.21
   2   3  -7  390.99   15.11
  -2   3   7  384.48   12.68
   2   3  -6  142.31    8.59
  -2   3   6  137.59    7.25
  -2   3   6  159.61    7.15
  -2   3   5  442.89   10.86
   2   3  -5  437.84   14.08
  -2   3   5  451.20   12.60
  -2   3   4   53.50    3.50
   2   3  -4   60.81    5.04
  -2   3   4   59.23    4.51
  -2   3   3  118.67    6.10
  -2   3   3  134.99    3.49
   2   3  -3  129.27    6.76
   2   3  -2   90.27    5.34
  -2   3   2   74.02    3.60
   2   3  -1  361.04   10.15
  -2   3   1  358.67    9.42
  -2   3   0  676.10   14.58
   2   3   0  698.35   13.24
   2   3   1  531.17   11.04
  -2   3  -1  488.02   13.72
   2   3   1  514.18    9.28
   2   3   2  261.78    7.70
  -2   3  -2  272.94    5.34
   2   3   2  264.16    7.21
  -2   3  -2  246.30   10.64
  -2   3  -3 1885.75   31.39
   2   3   3 1856.49   20.77
  -2   3  -3 1867.46   11.31
  -2   3  -4   40.24    1.72
  -2   3  -4   40.40    5.25
   2   3   4   40.27    1.80
   2   3   4   44.43    3.51
   2   3   4   36.94    4.56
   2   3   5  170.95    9.86
   2   3   5  174.81    7.51
  -2   3  -5  157.92   10.44
   2   3   6   46.13    4.28
   2   3   6   47.80    5.60
  -2   3  -6   51.18    6.43
  -2   3  -7   42.85    6.27
   2   3   7   37.89    4.16
   2   3   7   34.93    5.13
  -2   3  -8   10.95    3.59
   2   3   8    7.55    3.04
   2   3   8   12.83    2.90
  -2   3  -9   19.04    4.56
   2   3   9   19.91    4.45
   2   3   9   23.71    3.88
   2   3  10   23.98    4.15
  -2   3 -10   25.02    5.41
   2   3  10   28.52    5.26
   2   3  11   17.68    4.06
   2   3  11   13.74    4.17
  -2   4  11    5.02    2.32
  -2   4  10   61.97    6.37
   2   4  -9   64.07    7.34
  -2   4   9   65.90    6.20
   2   4  -8   79.16    7.64
  -2   4   8   82.56    6.67
   2   4  -7  132.63    9.45
  -2   4   7  131.71    8.00
  -2   4   6  279.68   10.40
   2   4  -6  282.16   12.98
  -2   4   6  282.90   11.21
  -2   4   5   99.06    5.79
   2   4  -5  103.76    7.42
  -2   4   5   97.08    6.44
   2   4  -4  366.99   13.34
  -2   4   4  348.16   11.86
   2   4  -3  180.50    8.83
  -2   4   3  183.23    5.04
   2   4  -2  301.38   10.72
  -2   4   2  294.02    8.15
  -2   4   1  225.44    8.16
   2   4  -1  223.66    8.81
  -2   4   0  374.21   11.70
   2   4   0  380.60   10.79
   2   4   1  177.83    6.52
  -2   4  -1  173.95    8.73
   2   4   1  178.23    7.12
  -2   4  -2  170.39    9.34
   2   4   2  167.21    6.60
   2   4   2  156.20    6.42
  -2   4  -3 1618.01   30.24
   2   4   3 1585.14   21.10
   2   4   4    5.08    2.28
  -2   4  -4    8.16    3.04
   2   4   4    3.21    1.32
   2   4   5  184.44   10.77
  -2   4  -5  195.54   12.05
   2   4   5  181.60    8.30
   2   4   6   56.44    6.46
  -2   4  -6   66.33    7.55
   2   4   6   65.01    5.30
  -2   4  -7    5.92    3.01
   2   4   7   10.65    3.56
   2   4   7    4.97    2.11
  -2   4  -8  168.55   12.97
   2   4   8  180.70    9.78
   2   4   8  144.16   11.17
   2   4   9   22.29    5.06
  -2   4  -9   20.86    5.43
   2   4   9   17.92    3.56
  -2   4 -10   28.37    6.01
   2   4  10   30.44    4.77
   2   4  10   39.47    6.81
  -2   4 -11    2.67    2.67
   2   4  11    4.68    3.17
   2   4  11    3.10    1.90
  -2   5  11    8.28    2.75
   2   5 -10   13.45    3.94
  -2   5  10   11.62    2.93
   2   5  -9   62.38    7.60
  -2   5   9   70.29    6.79
   2   5  -8    7.26    2.89
  -2   5   8   10.44    2.91
   2   5  -7   10.18    3.13
  -2   5   7   15.13    3.13
   2   5  -6   86.82    7.80
  -2   5   6   86.60    6.86
   2   5  -5  161.09   10.05
  -2   5   5  158.01    8.85
   2   5  -4   24.35    3.98
  -2   5   4   18.91    3.19
  -2   5   3  186.02    6.11
   2   5  -3  182.07    9.54
  -2   5   2  253.43    8.48
   2   5  -2  267.09   10.99
  -2   5   1  179.34    8.06
   2   5  -1  181.58    8.67
  -2   5   0   73.77    5.67
   2   5   0   71.30    5.27
   2   5   1 1360.43   21.24
  -2   5  -1 1325.91   25.43
  -2   5  -2  186.26   10.32
   2   5   2  172.51    7.48
   2   5   2  170.80    7.28
   2   5   3   66.88    4.84
   2   5   3   71.14    4.66
  -2   5  -3   62.97    6.65
   2   5   4   50.74    4.50
  -2   5  -4   50.85    6.25
   2   5   5   14.30    3.44
   2   5   5   13.24    2.58
  -2   5  -5   10.18    3.48
  -2   5  -6   48.60    6.77
   2   5   6   45.23    6.03
   2   5   6   49.54    5.01
   2   5   7   10.31    3.60
  -2   5  -7   11.30    4.29
   2   5   7    9.23    2.40
  -2   5  -8   36.96    6.76
   2   5   8   32.32    5.76
   2   5   8   24.75    4.00
   2   5   9   16.32    4.60
  -2   5  -9   14.26    5.07
   2   5   9   14.64    3.35
   2   5  10    8.85    3.71
  -2   5 -10   12.47    4.62
   2   5  10   13.66    3.56
   2   6 -10    2.38    2.61
  -2   6  10    6.57    3.09
   2   6  -9   32.47    5.87
  -2   6   9   22.98    4.34
   2   6  -8   12.98    3.93
  -2   6   8   19.79    3.98
   2   6  -7   16.45    4.13
  -2   6   7   20.28    3.81
   2   6  -6   83.47    8.10
  -2   6   6   94.63    7.50
   2   6  -5   39.57    5.56
  -2   6   5   38.81    4.86
  -2   6   4  191.83   10.30
   2   6  -4  187.79   11.02
   2   6  -3  109.30    8.04
  -2   6   2  174.82    7.76
   2   6  -2  173.26    9.64
   2   6  -1  102.70    7.22
  -2   6   1   99.18    6.55
  -2   6   0   58.23    5.39
   2   6   0   49.21    4.75
  -2   6  -1  469.59   16.23
   2   6   1  477.13   13.68
   2   6   2   37.01    3.77
  -2   6  -2   33.84    4.87
   2   6   2   42.03    4.16
  -2   6  -3   95.83    8.41
   2   6   3   93.10    5.63
   2   6   3   79.89    5.72
  -2   6  -4    2.57    2.45
   2   6   4    3.79    1.86
   2   6   5    6.41    2.87
   2   6   5    6.85    2.11
  -2   6  -5    5.35    2.94
   2   6   6   47.58    6.60
   2   6   6   48.85    5.06
  -2   6  -6   49.63    7.19
   2   6   7   37.07    6.37
   2   6   7   26.76    3.95
  -2   6  -7   41.48    6.99
  -2   6  -8   11.01    4.31
   2   6   8   10.07    3.93
   2   6   8    4.74    2.31
  -2   6  -9    4.26    3.83
   2   6   9    4.50    2.99
   2   6   9    0.04    1.77
   2   6  10   -0.49    2.41
  -2   6 -10    0.53    2.62
   2   6  10    3.37    2.24
   2   7  -9    7.07    3.56
  -2   7   9    6.12    2.65
   2   7  -8   12.24    3.94
  -2   7   8   15.78    3.76
   2   7  -7   29.78    5.64
  -2   7   7   22.21    4.12
   2   7  -6   38.46    6.09
  -2   7   6   40.80    5.38
   2   7  -5   52.10    6.58
  -2   7   5   31.74    4.86
   2   7  -4   33.21    5.28
  -2   7   4   25.83    4.24
   2   7  -3    8.14    2.88
  -2   7   2   34.50    3.83
   2   7  -2   33.74    4.60
   2   7  -1  157.11    9.37
  -2   7   1  145.00    8.47
   2   7   0   69.17    6.00
  -2   7   0   61.98    6.06
  -2   7  -1   52.43    5.94
   2   7   1   55.98    5.24
  -2   7  -2   13.12    3.14
   2   7   2   15.68    2.73
   2   7   2   11.14    2.50
  -2   7  -3  196.10   12.56
   2   7   3  190.61    9.46
   2   7   3  189.17    8.57
  -2   7  -4   10.83    3.92
   2   7   4   14.80    2.54
   2   7   4   16.50    3.00
  -2   7  -5   36.62    6.37
   2   7   5   39.09    4.69
  -2   7  -6   37.44    6.60
   2   7   6   31.90    5.77
   2   7   6   24.36    4.24
  -2   7  -7   31.91    6.32
   2   7   7   35.97    6.34
   2   7   7   28.19    4.28
   2   7   8   14.77    4.90
  -2   7  -8   14.45    5.32
   2   7   8    8.94    2.99
  -2   7  -9   10.11    4.12
   2   7   9    6.35    3.45
   2   7   9    6.80    2.65
   2   8  -9   24.85    5.67
  -2   8   9   15.46    3.85
   2   8  -8   12.76    4.27
  -2   8   8   13.15    3.52
  -2   8   7   61.14    7.12
   2   8  -7   44.86    7.05
   2   8  -6    0.02    2.01
  -2   8   6    6.51    2.93
  -2   8   5    4.33    1.70
   2   8  -5    3.20    2.18
  -2   8   4   94.81    8.34
   2   8  -4   89.57    8.49
   2   8  -3  129.55    9.88
   2   8  -2  109.47    8.92
  -2   8   1   58.61    5.86
   2   8  -1   63.64    6.43
   2   8   0   90.92    7.40
  -2   8   0   83.86    7.37
   2   8   1   89.75    7.05
  -2   8  -1   73.95    7.46
  -2   8  -2  123.57    9.90
   2   8   2  121.03    8.07
   2   8   2  131.95    8.00
  -2   8  -3   42.96    6.27
   2   8   3   42.37    4.95
   2   8   3   41.63    4.40
  -2   8  -4   15.81    4.25
   2   8   4   16.53    3.24
   2   8   5    8.63    2.49
  -2   8  -5   21.70    5.27
   2   8   6   15.58    4.79
  -2   8  -6   24.58    5.74
   2   8   6   11.96    3.02
   2   8   7   19.86    5.25
  -2   8  -7   10.97    4.44
   2   8   7   19.16    3.86
   2   8   8    0.18    2.39
  -2   8  -8    1.69    2.96
   2   8   8   -0.82    1.69
   2   9  -8   -0.23    2.46
  -2   9   8    8.37    3.23
   2   9  -7    5.63    2.76
  -2   9   7   10.50    3.60
   2   9  -6   23.00    5.35
  -2   9   6   31.70    5.43
   2   9  -5   17.83    4.57
  -2   9   5   10.99    4.04
   2   9  -4   30.99    5.65
  -2   9   4   34.48    5.56
   2   9  -3   32.13    5.34
   2   9  -2   32.06    5.16
  -2   9   1  128.60    9.01
   2   9  -1  131.57    9.68
  -2   9   0    7.10    2.69
   2   9   0    2.62    1.70
  -2   9  -1   31.32    5.14
   2   9   1   32.04    4.59
  -2   9  -2  122.07   10.34
   2   9   2  130.01    8.48
   2   9   2  105.81    8.25
   2   9   3   34.39    4.29
  -2   9  -3   29.17    5.59
   2   9   3   36.03    4.94
  -2   9  -4    6.02    2.95
   2   9   4    0.00    1.48
  -2   9  -5   34.51    6.43
   2   9   5   35.10    5.01
   2   9   6   12.11    3.30
  -2   9  -6   13.42    4.66
   2   9   6    6.76    3.28
   2   9   7    4.43    3.38
  -2   9  -7    2.43    3.36
   2   9   7    4.28    2.38
   2  10  -6   12.88    4.35
  -2  10   6    9.92    3.40
   2  10  -5    4.14    2.64
  -2  10   5    1.14    2.04
   2  10  -4    1.20    2.03
  -2  10   4   10.48    3.36
   2  10  -3   40.33    6.31
   2  10  -2    2.01    1.93
   2  10  -1   82.96    8.16
  -2  10   0   51.71    6.47
   2  10   0   55.69    6.62
  -2  10  -1    4.80    2.98
   2  10   1    1.63    2.17
   2  10   2    7.35    2.42
  -2  10  -2    7.74    3.20
   2  10   2   10.14    3.01
  -2  10  -3   12.53    4.22
   2  10   3   14.69    3.65
  -2  10  -4    0.54    2.72
   2  10   4    4.05    2.68
  -2  10  -5   31.46    6.44
   2  10   5   18.38    4.02
   2  10   6   28.07    6.26
  -2  10  -6   31.64    6.84
   2  10   6   27.24    4.87
   2  11  -5   21.85    5.65
  -2  11   5   17.74    4.46
  -2  11   4   10.81    3.73
   2  11  -4   12.07    4.07
   2  11  -3   25.02    5.38
   2  11  -2    7.21    3.36
   2  11  -1    7.59    3.24
   2  11   0    5.51    2.73
  -2  11  -1   15.63    4.52
   2  11   1    2.26    1.64
  -2  11  -2    5.79    3.60
   2  11   2    1.87    2.13
  -2  11  -3    4.47    3.42
   2  11   3    0.73    2.22
  -2  11  -4    8.54    3.56
   2  11   4   11.28    3.26
   2  12   0    0.70    2.04
   3 -11  -4   18.13    5.87
   3 -11  -3   30.66    6.57
   3 -11  -2    6.13    4.21
   3 -11  -1    5.45    3.11
   3 -11   0    2.43    2.64
  -3 -11  -1    4.89    3.29
   3 -11   1    1.25    2.29
  -3 -11  -1    2.13    2.93
  -3 -11  -2   19.07    5.87
   3 -11   2   26.68    5.68
  -3 -11  -2   18.60    5.00
  -3 -11  -3    6.58    4.72
   3 -11   3    3.50    2.80
  -3 -11  -3    2.32    2.50
   3 -10  -6   17.82    5.46
   3 -10  -5   11.58    4.67
   3 -10  -4   15.60    4.72
   3 -10  -3   12.10    4.45
   3 -10  -2   37.85    6.56
   3 -10  -1    7.52    3.36
   3 -10   0    9.69    4.03
   3 -10   0    0.59    2.28
  -3 -10   0    3.42    3.13
   3 -10   1   54.10    7.41
  -3 -10  -1   67.29    8.51
   3 -10   1   65.67    8.11
  -3 -10  -1   60.76    9.10
  -3 -10  -2    5.15    3.26
   3 -10   2    3.79    2.73
  -3 -10  -2    6.51    3.57
   3 -10   2    3.51    2.54
  -3 -10  -3    6.36    3.40
  -3 -10  -3    6.75    4.36
   3 -10   3    6.99    3.88
  -3 -10  -4    5.81    3.62
  -3 -10  -4    5.47    4.71
   3 -10   4    3.20    2.89
  -3 -10  -5    3.40    2.62
   3 -10   5    6.58    2.98
  -3 -10  -5    2.53    3.72
   3 -10   5    8.91    3.88
   3  -9  -7   14.10    4.77
   3  -9  -6    9.05    4.01
   3  -9  -5   13.72    4.75
   3  -9  -4   24.18    5.74
   3  -9  -3   27.62    5.78
   3  -9  -2   39.38    6.43
   3  -9  -1   73.03    8.60
   3  -9  -1   64.80    7.22
   3  -9   0   75.05    8.41
  -3  -9   0   74.72    9.22
   3  -9   0   82.33    8.38
  -3  -9  -1   58.99    7.50
  -3  -9  -1   52.02    8.24
   3  -9   1   54.75    7.00
   3  -9   1   53.92    7.01
  -3  -9  -2   84.11   10.44
  -3  -9  -2   79.16    8.66
   3  -9   2   75.77    8.10
   3  -9   2   70.73    8.20
  -3  -9  -3    5.97    3.29
  -3  -9  -3   22.50    6.32
   3  -9   3   19.23    4.85
  -3  -9  -4   10.47    3.73
  -3  -9  -4   15.34    5.73
   3  -9   4   10.92    3.85
   3  -9   5   13.95    4.23
  -3  -9  -5    6.95    3.31
  -3  -9  -5   11.19    5.00
   3  -9   5   10.01    4.02
  -3  -9  -6    5.15    3.49
  -3  -9  -6    3.46    3.94
   3  -9   6    6.39    3.58
   3  -9   6    3.06    2.74
  -3  -9  -7   21.59    7.17
   3  -9   7   24.15    5.81
   3  -9   7   15.12    4.37
   3  -8  -8   -0.21    2.50
   3  -8  -7    6.96    4.04
   3  -8  -6   64.89    9.16
   3  -8  -5   11.47    4.12
   3  -8  -4    2.86    2.47
   3  -8  -3   33.54    6.01
   3  -8  -2   40.74    6.20
  -3  -8   2   41.49    5.95
   3  -8  -1  101.18    9.34
  -3  -8   1  115.77   10.23
   3  -8   0  148.30   10.88
  -3  -8   0  159.80   12.63
  -3  -8   0  156.78   11.11
   3  -8   1  241.59   13.53
  -3  -8  -1  260.98   16.72
  -3  -8  -1  266.74   14.52
   3  -8   1  244.43   13.88
  -3  -8  -2   18.97    4.45
   3  -8   2   12.03    3.32
  -3  -8  -2   13.30    4.64
   3  -8   2   13.03    3.59
  -3  -8  -3  230.31   13.91
   3  -8   3  239.83   14.54
  -3  -8  -4   15.94    5.29
   3  -8   4    8.88    3.87
  -3  -8  -4    9.09    3.25
   3  -8   5   54.37    7.12
  -3  -8  -5   63.61    8.11
  -3  -8  -5   46.80    8.62
   3  -8   5   51.20    7.45
  -3  -8  -6   21.44    6.88
  -3  -8  -6   21.84    5.17
   3  -8   6   21.73    5.18
   3  -8   6   17.88    4.74
  -3  -8  -7   37.13    8.75
   3  -8   7   34.54    6.56
   3  -8   7   37.82    6.64
  -3  -8  -8    6.37    4.51
   3  -8   8    3.91    2.98
   3  -8   8   12.91    4.69
   3  -7  -9    2.27    3.33
   3  -7  -8    9.28    4.28
   3  -7  -7    3.49    3.13
   3  -7  -6    6.56    3.08
   3  -7  -5   24.48    5.29
   3  -7  -4   23.26    4.73
  -3  -7   3   15.77    3.49
   3  -7  -3   15.66    3.86
   3  -7  -2  153.63   11.10
  -3  -7   2  159.94   10.73
   3  -7  -1    0.23    1.89
  -3  -7   1    2.24    2.02
   3  -7   0  102.09    8.51
  -3  -7   0   95.50    9.40
  -3  -7   0  106.87    8.57
   3  -7   1  159.38   10.25
  -3  -7  -1  169.53   12.82
  -3  -7  -1  170.59   10.84
  -3  -7  -2  212.08   14.92
  -3  -7  -2  210.08   12.14
   3  -7   2  193.65   11.11
   3  -7   2  209.84   12.53
  -3  -7  -3  154.13   13.14
  -3  -7  -3  134.12    9.95
   3  -7   3  135.77   10.43
  -3  -7  -4  244.69   17.58
  -3  -7  -4  240.74   13.85
   3  -7   4  233.54   14.12
   3  -7   4  238.95   13.47
  -3  -7  -5    7.65    4.31
   3  -7   5   10.65    3.76
  -3  -7  -5   15.16    3.85
   3  -7   5   14.60    3.85
  -3  -7  -6   74.35    8.37
  -3  -7  -6   90.62   11.93
   3  -7   6   83.14    9.01
   3  -7   6   82.51    8.67
   3  -7   7   15.23    4.60
  -3  -7  -7    6.70    4.74
   3  -7   7    3.59    2.84
  -3  -7  -8    9.41    4.83
   3  -7   8   15.07    5.03
   3  -7   8    5.32    2.91
  -3  -7  -9   22.09    7.06
   3  -7   9   20.89    5.56
   3  -7   9   32.11    6.61
   3  -6 -10   11.10    4.63
   3  -6  -9   21.56    5.42
   3  -6  -8   66.63    8.99
   3  -6  -7    4.18    3.10
   3  -6  -6  175.49   13.03
  -3  -6   5   24.86    3.51
   3  -6  -5   22.10    4.74
   3  -6  -4   18.10    4.19
  -3  -6   4   17.71    3.35
  -3  -6   4   12.85    2.43
  -3  -6   3   13.16    2.99
   3  -6  -3   14.14    3.96
   3  -6  -2  257.52   13.54
  -3  -6   2  274.60   13.32
   3  -6  -1  392.93   15.77
  -3  -6   1  377.06   16.46
   3  -6   0   61.80    6.18
  -3  -6   0   64.32    6.17
  -3  -6   0   53.16    6.89
   3  -6   1  161.97    9.53
  -3  -6  -1  161.01    9.65
  -3  -6  -1  158.31   11.91
  -3  -6  -2   28.66    4.31
   3  -6   2   27.11    3.99
  -3  -6  -2   30.94    6.03
  -3  -6  -3   87.90    7.60
  -3  -6  -3   92.69   10.02
   3  -6   3  105.21    8.83
  -3  -6  -4  121.98    9.19
  -3  -6  -4  115.33   11.49
   3  -6   4  103.16    9.04
   3  -6   4  107.46    8.57
  -3  -6  -5   27.39    6.54
  -3  -6  -5   38.05    5.39
   3  -6   5   40.20    5.54
  -3  -6  -6   50.41    6.58
  -3  -6  -6   53.51    8.89
   3  -6   6   44.12    6.34
   3  -6   6   51.72    6.55
  -3  -6  -7   27.33    7.06
   3  -6   7   14.53    3.87
   3  -6   7   31.38    5.38
  -3  -6  -8   24.49    6.79
   3  -6   8   25.58    5.60
   3  -6   8   33.97    6.01
  -3  -6  -9    8.60    5.38
   3  -6   9    7.48    3.58
   3  -6   9   10.35    3.69
   3  -5 -10   16.12    5.02
   3  -5  -9    8.96    4.12
   3  -5  -8   15.15    4.46
   3  -5  -7   87.81    9.44
   3  -5  -6   25.29    5.01
  -3  -5   6   28.45    3.72
  -3  -5   6   33.29    4.08
   3  -5  -5   67.07    7.48
  -3  -5   5   72.54    5.77
  -3  -5   5   66.87    5.22
  -3  -5   4   29.11    3.75
   3  -5  -4   40.93    5.72
  -3  -5   4   32.82    3.41
   3  -5  -3  326.66   14.59
  -3  -5   3  320.06   12.85
   3  -5  -2    7.15    2.45
  -3  -5   2    9.86    2.77
   3  -5  -1  433.52   15.34
  -3  -5   1  434.31   16.58
   3  -5   0  396.15   13.97
  -3  -5   0  397.36   16.70
   3  -5   1  327.96   12.26
  -3  -5  -1  321.06   12.43
  -3  -5  -1  344.73   16.38
  -3  -5  -2   47.42    4.92
   3  -5   2   48.91    4.71
  -3  -5  -2   53.38    6.93
  -3  -5  -3   38.14    6.24
  -3  -5  -3   36.01    4.59
  -3  -5  -4   41.43    5.03
  -3  -5  -4   38.59    6.81
   3  -5   4   35.47    5.19
   3  -5   4   43.27    5.28
  -3  -5  -5   27.94    4.43
   3  -5   5   40.79    5.67
  -3  -5  -5   45.56    7.47
   3  -5   5   39.57    5.26
  -3  -5  -6   30.15    4.92
  -3  -5  -6   28.15    6.49
   3  -5   6   23.17    4.61
   3  -5   6   22.56    4.31
  -3  -5  -7    5.23    2.94
   3  -5   7   10.34    3.41
   3  -5   7    3.57    2.50
  -3  -5  -8   24.23    6.06
   3  -5   8   23.57    4.93
   3  -5   8   25.01    5.14
  -3  -5  -9   11.59    5.54
   3  -5   9   17.28    4.60
   3  -5   9    6.98    3.39
  -3  -5 -10    6.52    4.37
   3  -5  10    3.96    2.75
   3  -5  10    4.19    3.37
   3  -4 -11   22.04    6.29
   3  -4 -10    6.04    3.87
   3  -4  -9   51.99    8.06
   3  -4  -8  176.26   13.31
   3  -4  -7   79.73    8.53
  -3  -4   7   71.71    6.27
  -3  -4   7   73.69    6.12
   3  -4  -6   57.65    6.97
  -3  -4   6   61.16    5.31
  -3  -4   6   74.79    5.83
   3  -4  -5   96.10    8.29
  -3  -4   5   85.66    6.04
  -3  -4   5   94.81    5.91
   3  -4  -4  374.93   15.38
  -3  -4   4  384.52   12.84
  -3  -4   4  411.51   10.85
   3  -4  -3  976.22   23.12
  -3  -4   3  938.57   20.61
  -3  -4   3  944.90   14.95
   3  -4  -2  200.31   10.00
  -3  -4   2  184.21    9.75
   3  -4  -1   19.51    3.28
  -3  -4   1   12.94    3.12
   3  -4   0   57.47    4.86
  -3  -4   0   53.10    5.97
   3  -4   1  564.12   14.15
  -3  -4  -1  555.05   14.47
  -3  -4  -1  572.99   19.74
  -3  -4  -2  139.75    7.56
  -3  -4  -2  150.44   10.69
   3  -4   2  136.83    6.82
   3  -4   3   32.23    4.27
  -3  -4  -3   30.95    3.80
  -3  -4  -3   30.79    5.61
  -3  -4  -4  404.33   13.99
  -3  -4  -4  397.66   19.18
   3  -4   4  390.76   14.21
  -3  -4  -5   48.11    5.22
  -3  -4  -5   51.91    7.45
   3  -4   5   47.52    5.93
   3  -4   5   51.28    5.81
  -3  -4  -6   81.45    7.26
   3  -4   6   69.03    7.37
  -3  -4  -6   72.41    9.34
   3  -4   6   79.05    7.39
  -3  -4  -7   53.73    8.47
   3  -4   7   56.20    6.77
   3  -4   7   58.48    6.93
   3  -4   8   14.82    3.86
  -3  -4  -8   15.86    5.47
   3  -4   8   16.04    4.10
  -3  -4  -9   29.75    6.96
   3  -4   9   30.79    5.39
   3  -4   9   36.44    6.50
  -3  -4 -10   18.78    5.59
   3  -4  10   15.43    4.24
   3  -4  10   16.09    4.58
   3  -3 -11    6.30    3.40
   3  -3 -10    3.66    3.54
   3  -3  -9   23.22    5.33
   3  -3  -8   55.65    7.25
  -3  -3   8   61.73    6.19
   3  -3  -7   24.02    4.67
  -3  -3   7   16.95    3.07
   3  -3  -6   36.78    5.31
  -3  -3   6   36.51    4.15
  -3  -3   6   35.23    3.91
   3  -3  -5   76.30    6.99
  -3  -3   5   83.89    5.90
  -3  -3   5   87.21    5.37
   3  -3  -4  107.77    7.64
  -3  -3   4  119.53    6.93
  -3  -3   4  121.43    5.48
   3  -3  -3  372.71   13.21
  -3  -3   3  382.33   12.50
  -3  -3   3  385.40    8.34
   3  -3  -2 1119.72   21.27
  -3  -3   2 1134.56   22.45
  -3  -3   2 1132.57   12.22
   3  -3  -1  493.42   13.28
  -3  -3   1  517.26   16.07
   3  -3   0  228.91    8.49
  -3  -3   0  239.25   11.31
   3  -3   1  180.93    6.88
  -3  -3  -1  177.10    7.04
  -3  -3  -1  193.28   10.78
  -3  -3  -2    6.50    1.47
  -3  -3  -2    7.14    2.71
  -3  -3  -3  415.88   11.92
  -3  -3  -3  397.11   17.23
   3  -3   3  401.22   12.87
  -3  -3  -4  154.22    7.80
  -3  -3  -4  170.13   11.97
   3  -3   4  161.84    8.74
  -3  -3  -5  122.23    7.54
  -3  -3  -5  108.01    9.97
   3  -3   5  116.25    8.40
   3  -3   5  115.28    7.99
  -3  -3  -6   21.57    5.50
  -3  -3  -6   18.42    3.37
   3  -3   6   14.21    3.37
   3  -3   6   15.35    3.45
   3  -3   7    4.92    2.16
   3  -3   7    9.28    3.17
  -3  -3  -8   19.26    5.38
   3  -3   8   25.11    4.59
   3  -3   8   22.17    4.70
  -3  -3  -9   20.62    5.44
   3  -3   9   13.68    3.51
   3  -3   9   23.02    4.76
  -3  -3 -10   21.59    6.10
   3  -3  10   13.27    4.38
   3  -3  11    2.64    3.57
   3  -2 -11   12.04    4.85
   3  -2 -10    7.50    3.94
   3  -2  -9   41.57    6.43
  -3  -2   9   41.62    4.38
  -3  -2   8    0.21    0.98
   3  -2  -8    1.67    2.62
   3  -2  -7   26.96    4.79
  -3  -2   7   30.91    3.15
  -3  -2   7   34.03    4.18
   3  -2  -6   61.53    6.54
  -3  -2   6   48.74    3.54
  -3  -2   6   51.04    4.51
  -3  -2   6   45.03    4.79
   3  -2  -5  714.91   19.82
  -3  -2   5  732.27   17.25
  -3  -2   5  728.38   11.88
  -3  -2   5  720.55   14.67
   3  -2  -4   80.32    6.36
  -3  -2   4   82.20    5.63
  -3  -2   4   88.85    4.41
   3  -2  -3   34.24    3.77
  -3  -2   3   30.34    3.47
  -3  -2   3   33.68    2.17
   3  -2  -2   89.93    5.48
  -3  -2   2   96.43    6.17
  -3  -2   2   91.28    2.45
   3  -2  -1   82.08    4.79
  -3  -2   1   84.01    6.18
   3  -2   0  201.53    6.73
  -3  -2   0  209.10   10.05
   3  -2   1  561.93    9.56
  -3  -2  -1  558.24   17.12
  -3  -2  -2  670.44   11.62
  -3  -2  -2  668.10   19.54
   3  -2   2  694.25   14.70
  -3  -2  -3   28.02    2.68
  -3  -2  -3   30.35    4.74
   3  -2   3   27.93    3.31
  -3  -2  -4   42.73    3.73
  -3  -2  -4   42.68    5.76
   3  -2   4   40.54    4.37
  -3  -2  -5  193.52    8.63
  -3  -2  -5  188.14   12.35
   3  -2   5  197.94   10.22
   3  -2   5  198.94   10.21
  -3  -2  -6   59.56    5.34
   3  -2   6   64.89    6.23
  -3  -2  -6   52.05    7.10
   3  -2   6   60.30    6.35
  -3  -2  -7   64.44    8.18
   3  -2   7   53.38    5.85
   3  -2   7   58.66    6.67
  -3  -2  -8    5.15    2.75
   3  -2   8    8.68    2.94
   3  -2   8   12.80    3.55
  -3  -2  -9    8.90    4.05
   3  -2   9    3.23    1.87
   3  -2   9   12.90    3.91
   3  -2  10   14.60    4.30
   3  -2  11   10.23    4.37
  -3  -1  11    5.38    2.10
   3  -1 -11    5.04    3.58
  -3  -1  10    3.59    1.70
   3  -1 -10    2.28    2.54
  -3  -1   9    7.43    2.01
   3  -1  -9    6.61    3.00
   3  -1  -8   30.54    5.24
  -3  -1   8   37.02    3.71
  -3  -1   7    2.52    1.13
   3  -1  -7    0.70    1.64
   3  -1  -6  167.75   10.07
  -3  -1   6  173.00    6.47
   3  -1  -5  159.17    9.10
  -3  -1   5  157.91    8.23
  -3  -1   5  158.46    5.42
   3  -1  -5  156.92    4.60
   3  -1  -4   32.36    3.97
  -3  -1   4   30.54    2.08
  -3  -1   4   35.14    3.80
   3  -1  -3  406.40   11.84
  -3  -1   3  399.02   11.74
  -3  -1   3  410.77    5.86
   3  -1  -2  636.78   13.06
  -3  -1   2  622.98   14.77
   3  -1  -1  528.64   10.27
  -3  -1   1  553.40   14.25
   3  -1   0 1873.89   16.13
  -3  -1   0 1889.97   27.56
   3  -1   0 1901.56   17.80
  -3  -1  -1  177.28    8.94
   3  -1   1  178.56    6.56
   3  -1   1  171.78    5.99
  -3  -1  -2  466.44    6.66
  -3  -1  -2  462.00   15.15
   3  -1   2  499.65   12.26
   3  -1   2  473.74   11.30
  -3  -1  -3  149.15    4.94
  -3  -1  -3  141.03    8.83
   3  -1   3  164.41    7.75
   3  -1   3  146.44    7.13
  -3  -1  -4   32.97    2.89
  -3  -1  -4   32.58    4.83
   3  -1   4   44.30    4.55
   3  -1   4   39.07    4.24
  -3  -1  -5  594.65   13.67
  -3  -1  -5  582.12   20.25
   3  -1   5  589.51   17.03
   3  -1   5  563.89   16.72
  -3  -1  -6   23.96    3.20
  -3  -1  -6   22.75    4.60
   3  -1   6   27.72    4.20
   3  -1   6   26.28    3.67
   3  -1   6   26.29    4.24
   3  -1   7   10.00    2.50
   3  -1   7   15.59    3.43
  -3  -1  -7   11.15    3.71
   3  -1   7    9.54    2.61
   3  -1   7   13.72    3.45
  -3  -1  -8   74.09    8.18
  -3  -1  -8   57.41    7.56
   3  -1   8   76.70    7.65
   3  -1   8   70.89    6.56
   3  -1   8   63.09    5.91
   3  -1   8   66.81    7.56
   3  -1   9   12.00    3.65
   3  -1   9    8.29    3.64
   3  -1  10   35.77    6.40
   3  -1  11   15.21    4.64
  -3   0  11    8.40    2.41
   3   0 -11   16.07    4.90
   3   0 -10   61.41    8.11
  -3   0  10   71.36    5.98
   3   0  -9   62.76    7.48
  -3   0   9   68.02    5.42
   3   0  -8   19.70    4.25
  -3   0   8   19.40    2.77
   3   0  -7   -0.73    1.67
  -3   0   7    0.35    0.91
   3   0  -6  105.81    7.77
   3   0  -6  118.54    5.26
  -3   0   6  114.28    5.40
   3   0  -5  411.14   14.04
   3   0  -5  384.89    9.07
  -3   0   5  400.33    8.97
   3   0  -4   15.24    1.78
  -3   0   4   11.45    2.36
  -3   0   4   11.47    1.38
   3   0  -3   14.76    1.72
  -3   0   3   16.50    1.45
  -3   0   3   16.89    2.69
  -3   0   2  556.44   13.42
  -3   0   2  562.41    7.00
   3   0  -2  566.96    6.36
  -3   0   1 1666.74   23.14
   3   0  -1 1655.18   15.15
   3   0   0  140.57    3.68
  -3   0   0  134.09    6.69
   3   0   0  132.80    3.71
   3   0   0  132.90    5.17
  -3   0  -1  850.46   17.93
   3   0   1  871.15   12.12
   3   0   1  870.21   15.16
  -3   0  -2   89.01    6.22
   3   0   2   82.88    4.55
   3   0   2   81.19    5.25
   3   0   3    1.04    0.97
  -3   0  -3    1.66    0.62
  -3   0  -3    1.86    1.64
   3   0   3    0.09    1.04
   3   0   3    1.76    1.66
  -3   0  -4   98.67    4.31
  -3   0  -4  104.95    7.52
   3   0   4  105.54    5.30
   3   0   4  108.25    7.08
   3   0   4   92.14    6.12
   3   0   5   11.77    2.26
  -3   0  -5   14.04    2.13
  -3   0  -5   14.80    3.24
   3   0   5   12.08    2.74
   3   0   5   17.56    3.15
   3   0   6    6.54    2.05
  -3   0  -6   12.81    2.41
   3   0   6    8.92    2.86
  -3   0  -6   11.55    3.33
   3   0   6   13.31    2.87
   3   0   6    7.76    2.58
   3   0   7    1.62    1.59
  -3   0  -7    1.50    1.88
   3   0   7    5.72    2.54
  -3   0  -7    5.85    2.52
   3   0   7    2.74    1.38
   3   0   7    1.54    2.30
  -3   0  -8  133.89   11.18
   3   0   8   98.38    8.59
   3   0   8  127.59    8.10
   3   0   8  115.68    9.55
   3   0   9   52.20    6.97
  -3   0  -9   66.94    8.29
   3   0   9   55.62    5.90
   3   0   9   53.28    7.09
   3   0  10   13.94    3.44
   3   0  10   12.62    3.91
   3   0  11    4.84    2.39
   3   0  11    6.89    3.21
  -3   1  11    3.91    1.99
   3   1 -11    2.52    2.93
   3   1 -10    1.96    1.90
  -3   1  10    1.68    1.53
   3   1  -9    4.91    3.03
  -3   1   9   10.62    2.33
  -3   1   8   35.20    3.73
   3   1  -7    2.44    1.39
  -3   1   7    1.43    1.10
   3   1  -6  164.64    7.27
  -3   1   6  177.16    7.06
   3   1  -5  168.11    7.03
  -3   1   5  148.39    6.06
  -3   1   4   34.12    2.73
   3   1  -4   33.90    3.07
  -3   1   3  443.61   12.66
  -3   1   3  392.47    8.58
   3   1  -3  411.42    9.99
  -3   1   2  628.02   14.19
   3   1  -2  626.59   11.82
   3   1  -1  540.05   10.95
  -3   1   1  522.76   12.35
   3   1   0 1836.27   21.07
  -3   1   0 1899.43   23.18
   3   1   1  181.33    7.50
  -3   1  -1  176.34    7.22
   3   1   1  183.39    4.37
   3   1   1  191.47    5.52
   3   1   2  478.40   13.16
  -3   1  -2  459.97   12.25
   3   1   2  478.61    8.34
   3   1   2  469.06   10.62
  -3   1  -3  147.36    7.46
   3   1   3  146.74    5.39
   3   1   3  155.68    7.05
   3   1   3  150.14    8.08
  -3   1  -4   37.41    4.09
   3   1   4   36.08    4.35
   3   1   4   40.02    3.24
   3   1   4   44.90    4.45
  -3   1  -5  567.62   11.70
  -3   1  -5  575.57   16.72
   3   1   5  587.81   13.21
   3   1   5  579.10   16.67
   3   1   5  571.11   17.72
  -3   1  -6   28.81    3.14
   3   1   6   25.38    3.12
  -3   1  -6   30.95    5.26
  -3   1  -6   27.03    4.06
   3   1   6   25.02    3.12
   3   1   6   26.33    4.15
   3   1   6   24.67    4.50
   3   1   7   10.54    2.43
   3   1   7    4.37    2.40
  -3   1  -8   86.01    9.24
   3   1   8   63.42    5.79
   3   1   8   76.34    7.72
   3   1   9    5.64    2.82
   3   1   9    9.49    2.83
  -3   1  -9    9.61    3.73
   3   1  10   23.56    4.23
  -3   1 -10   34.34    6.29
   3   1  10   37.67    6.12
   3   1  11   14.72    3.77
   3   1  11   21.40    5.19
   3   2 -11    6.70    3.44
  -3   2  11    5.42    2.11
  -3   2  10    3.44    1.72
  -3   2   9   39.89    4.43
  -3   2   8   -0.37    1.03
   3   2  -7   31.14    3.78
  -3   2   7   28.99    3.37
   3   2  -6   45.59    4.41
  -3   2   6   42.07    3.89
   3   2  -5  703.01   16.00
  -3   2   5  706.01   14.39
   3   2  -4   73.34    4.99
  -3   2   4   80.82    4.78
   3   2  -3   35.89    3.43
  -3   2   3   30.23    2.88
  -3   2   2  101.50    5.94
   3   2  -2   93.61    5.23
   3   2  -1   81.86    4.64
  -3   2   1   86.38    5.10
   3   2   0  209.58    7.29
  -3   2   0  207.73    7.38
   3   2   0  203.69    3.25
   3   2   1  534.10   13.59
  -3   2  -1  549.31   11.53
   3   2   1  529.90    7.38
   3   2   2  676.35   16.57
  -3   2  -2  685.47   12.91
   3   2   2  696.50   10.17
   3   2   3   28.97    3.94
  -3   2  -3   33.33    3.10
   3   2   3   31.32    2.59
  -3   2  -4   39.95    3.53
  -3   2  -4   50.55    6.12
   3   2   4   46.52    3.48
   3   2   4   41.31    4.77
  -3   2  -5  205.58    8.57
  -3   2  -5  198.42   12.31
   3   2   5  201.84    7.87
   3   2   5  205.62   11.05
  -3   2  -6   54.61    7.08
   3   2   6   61.31    4.84
   3   2   6   55.30    6.41
   3   2   7   58.13    6.66
  -3   2  -7   65.41    8.12
   3   2   7   69.47    5.51
   3   2   8   12.04    2.82
  -3   2  -8   13.51    4.10
   3   2   8    4.65    2.35
   3   2   9    8.55    2.90
  -3   2  -9    9.20    3.66
   3   2   9    1.00    2.43
   3   2  10   15.50    3.33
  -3   2 -10   10.34    3.75
   3   2  10   13.17    4.29
   3   2  11   13.75    3.64
   3   2  11   16.57    4.67
  -3   3  11    8.71    2.78
  -3   3  10    3.26    1.76
  -3   3   9   26.11    3.89
   3   3  -8   55.27    5.81
  -3   3   8   58.76    5.32
   3   3  -7   20.76    3.54
  -3   3   7   19.93    2.99
   3   3  -6   35.38    4.43
  -3   3   6   42.18    4.12
   3   3  -5   76.91    5.95
  -3   3   5   77.71    5.37
  -3   3   4  120.89    4.32
   3   3  -4  127.82    7.25
  -3   3   4  125.92    6.68
  -3   3   4  118.01    3.95
  -3   3   3  361.54    8.67
   3   3  -3  405.77   12.21
   3   3  -2 1139.30   19.59
   3   3  -1  514.56   12.64
  -3   3   0  219.55    9.43
   3   3   0  247.42    8.56
  -3   3   0  236.27    8.03
   3   3   0  239.63    5.02
  -3   3  -1  190.19    6.55
  -3   3  -1  178.05    9.35
   3   3   1  200.74    7.67
   3   3   1  182.66    5.07
  -3   3  -2    6.96    1.37
  -3   3  -2    8.03    2.67
   3   3   2    8.61    2.42
   3   3   2    8.44    1.41
   3   3   3  425.48   14.89
  -3   3  -3  423.74    8.66
   3   3   3  416.62    9.67
  -3   3  -3  394.88   15.87
   3   3   4  167.72    9.97
  -3   3  -4  159.25    5.41
  -3   3  -4  147.59   10.48
   3   3   4  162.71    6.77
   3   3   5  109.16    8.61
  -3   3  -5  132.66   10.47
   3   3   5  120.42    6.32
  -3   3  -6   28.25    5.68
   3   3   6   13.09    3.48
   3   3   6   21.82    3.14
   3   3   7    9.49    3.36
  -3   3  -7    7.46    3.42
   3   3   7    9.54    2.32
   3   3   8   19.30    4.68
  -3   3  -8   19.75    5.51
   3   3   8   17.75    3.23
   3   3   9   10.98    2.88
  -3   3  -9    7.15    3.33
   3   3  10   22.34    4.16
   3   3  10   22.68    5.12
  -3   3 -10   17.36    5.11
   3   3  11    3.24    2.49
  -3   3 -11    3.70    3.24
   3   3  11    3.27    3.04
  -3   4  11    7.85    2.60
  -3   4  10    6.90    2.65
  -3   4   9   47.02    5.32
  -3   4   8  169.14    9.44
   3   4  -8  155.29   10.35
   3   4  -7   72.85    6.86
  -3   4   7   78.82    6.26
   3   4  -6   61.50    6.09
  -3   4   6   65.91    5.63
   3   4  -5   88.02    6.84
  -3   4   5   89.51    6.33
   3   4  -4  425.21   14.21
  -3   4   4  414.83   13.42
  -3   4   3  919.48   14.45
   3   4  -3  923.08   19.93
   3   4  -2  209.01    9.17
  -3   4   2  192.73    7.69
  -3   4   1   19.27    2.97
   3   4  -1   20.53    3.20
  -3   4   0   48.99    4.84
   3   4   0   53.04    4.37
   3   4   0   54.04    3.15
  -3   4  -1  550.60   16.93
   3   4   1  550.60   13.35
   3   4   1  544.95   10.44
  -3   4  -2  130.92    8.95
   3   4   2  151.61    7.10
   3   4   2  145.03    5.77
   3   4   3   30.99    4.33
  -3   4  -3   28.41    4.65
   3   4   3   29.78    2.94
   3   4   4  427.65   16.52
   3   4   4  401.90   11.16
  -3   4  -4  416.52   17.88
   3   4   5   61.51    6.88
  -3   4  -5   47.18    6.68
   3   4   5   50.60    4.32
   3   4   6   75.54    7.99
  -3   4  -6   92.91    9.54
   3   4   6   77.68    5.72
  -3   4  -7   46.04    7.20
   3   4   7   59.31    7.46
   3   4   7   64.16    5.63
   3   4   8    9.03    3.39
  -3   4  -8    9.15    3.37
   3   4   8   17.09    3.23
  -3   4  -9   23.10    5.63
   3   4   9   30.50    6.16
   3   4   9   28.65    4.32
   3   4  10   19.58    4.05
  -3   4 -10   15.20    5.40
   3   4  10   19.73    5.14
  -3   5  10   13.39    3.14
   3   5  -9    1.91    2.17
  -3   5   9    5.47    2.24
   3   5  -8   21.91    4.48
  -3   5   8   19.92    3.61
   3   5  -7   91.82    8.09
  -3   5   7   83.83    6.83
   3   5  -6   26.34    4.46
  -3   5   6   20.89    3.52
   3   5  -5   68.45    6.54
  -3   5   5   68.69    6.09
   3   5  -4   33.28    4.47
  -3   5   4   31.94    4.13
   3   5  -3  342.91   13.14
  -3   5   2   13.00    2.37
   3   5  -2   11.03    2.59
  -3   5   1  413.67   13.37
   3   5  -1  429.89   13.68
  -3   5   0  385.17   13.79
   3   5   0  379.93   12.37
   3   5   0  382.61    9.64
  -3   5  -1  306.16   13.30
   3   5   1  330.80   11.14
   3   5   1  318.04    9.09
   3   5   2   44.85    4.15
  -3   5  -2   44.65    5.49
   3   5   2   48.83    3.81
  -3   5  -3   34.09    5.14
   3   5   3   34.77    3.43
   3   5   4   41.57    5.83
   3   5   4   32.78    3.55
  -3   5  -4   39.36    5.86
  -3   5  -5   36.80    6.10
   3   5   5   31.91    3.74
   3   5   5   26.75    4.84
   3   5   6   21.20    4.56
  -3   5  -6   15.17    4.47
   3   5   6   21.80    3.27
  -3   5  -7    6.41    3.42
   3   5   7    7.40    3.72
   3   5   7    5.01    1.95
  -3   5  -8   28.91    6.41
   3   5   8   21.31    4.91
   3   5   8   26.24    4.08
   3   5   9   16.85    5.04
  -3   5  -9    8.25    3.88
   3   5   9   14.99    3.45
   3   5  10    7.26    3.33
  -3   5 -10    5.13    3.67
   3   5  10    1.67    1.94
   3   6 -10    8.23    3.47
  -3   6  10   15.42    3.61
   3   6  -9   22.78    5.13
  -3   6   9   15.45    3.61
   3   6  -8   78.52    8.51
  -3   6   8   83.84    7.53
   3   6  -7    6.48    2.96
  -3   6   7    6.12    2.63
   3   6  -6  167.90   11.26
  -3   6   6  176.66   10.47
   3   6  -5   28.61    4.77
  -3   6   5   20.48    3.94
   3   6  -4   16.06    3.40
  -3   6   4   14.81    3.19
   3   6  -3   15.33    3.27
  -3   6   2  302.82   11.03
   3   6  -2  290.29   12.55
  -3   6   1  372.33   13.38
   3   6  -1  412.40   14.20
  -3   6   0   65.08    6.13
   3   6   0   60.21    5.43
  -3   6  -1  157.83    9.96
   3   6   1  150.89    7.05
   3   6   1  159.49    8.43
  -3   6  -2   25.54    4.48
   3   6   2   25.10    3.27
   3   6   2   23.85    2.94
  -3   6  -3   97.90    8.81
   3   6   3   93.67    6.23
   3   6   3  104.29    6.26
   3   6   4  103.78    9.02
  -3   6  -4  105.58    9.70
   3   6   4   98.57    6.41
  -3   6  -5   36.17    6.29
   3   6   5   35.86    5.93
   3   6   5   38.84    4.29
  -3   6  -6   42.32    6.86
   3   6   6   45.93    4.84
   3   6   6   46.94    6.92
   3   6   7   18.21    4.73
  -3   6  -7   23.01    5.68
   3   6   7   22.53    3.74
  -3   6  -8   28.84    6.74
   3   6   8   18.85    5.01
   3   6   8   19.11    3.73
   3   6   9   10.42    4.26
  -3   6  -9   10.31    4.95
   3   6   9   10.26    3.13
   3   7  -9    1.87    2.46
  -3   7   9    9.21    3.36
   3   7  -8    6.50    2.85
  -3   7   8    4.01    2.41
   3   7  -7   17.84    4.25
  -3   7   7   14.26    3.75
   3   7  -6   15.66    4.03
  -3   7   6    7.34    3.09
   3   7  -5   34.13    5.36
  -3   7   5   24.12    4.22
   3   7  -4   30.38    4.79
   3   7  -3    9.75    2.78
   3   7  -2  155.23    9.79
  -3   7   1    4.92    2.09
   3   7  -1   -0.20    1.23
  -3   7   0   92.02    7.74
   3   7   0   91.14    6.93
  -3   7  -1  184.92   11.33
   3   7   1  170.00    9.17
   3   7   1  165.25    8.21
  -3   7  -2  207.86   12.67
   3   7   2  206.02    9.73
   3   7   2  197.47    9.08
  -3   7  -3  142.75   11.11
   3   7   3  127.01    7.75
   3   7   3  134.64    7.73
  -3   7  -4  235.03   14.78
   3   7   4  231.05   10.35
  -3   7  -5   12.34    4.29
   3   7   5   10.16    3.67
   3   7   6   74.72    8.94
  -3   7  -6   76.05    9.37
   3   7   6   73.17    6.39
   3   7   7    6.02    3.92
  -3   7  -7    7.26    3.60
   3   7   7    6.28    2.49
  -3   7  -8   12.43    5.25
   3   7   8    5.77    2.58
   3   7   8    3.11    3.63
  -3   7  -9   14.51    4.99
   3   7   9   19.39    5.51
   3   7   9   17.61    3.85
   3   8  -8    4.81    2.90
  -3   8   8    3.39    2.44
   3   8  -7   16.22    4.51
  -3   8   7   16.51    3.92
   3   8  -6   74.49    8.38
  -3   8   6   67.13    7.47
   3   8  -5    6.73    3.23
  -3   8   5   11.35    3.22
   3   8  -4    4.91    2.76
   3   8  -3   36.84    5.35
   3   8  -2   35.12    5.23
  -3   8   1  104.17    8.05
   3   8  -1  107.26    8.38
  -3   8   0  159.59   10.61
   3   8   0  164.02   10.00
   3   8   1  274.43   12.34
   3   8   1  264.27   11.25
  -3   8  -1  260.17   14.15
  -3   8  -2    9.91    3.22
   3   8   2   13.36    2.82
   3   8   2   11.15    2.64
  -3   8  -3  240.88   14.98
   3   8   3  264.74   11.44
   3   8   3  252.80   11.26
  -3   8  -4    6.19    3.44
   3   8   4   12.76    2.86
   3   8   5   53.53    7.60
  -3   8  -5   49.10    7.69
   3   8   5   44.98    5.02
  -3   8  -6   26.83    6.34
   3   8   6   18.68    3.59
  -3   8  -7   29.53    6.61
   3   8   7   24.96    5.68
   3   8   7   40.04    5.15
   3   8   8    1.42    3.04
   3   8   8    6.06    2.52
   3   9  -7   13.90    4.41
  -3   9   7   11.95    3.74
   3   9  -6   11.47    4.05
  -3   9   6   10.89    3.73
   3   9  -5   12.22    4.07
  -3   9   5   20.79    4.66
   3   9  -4   19.88    4.47
   3   9  -3   18.46    4.27
   3   9  -2   26.82    4.67
   3   9  -1   51.68    6.33
  -3   9   0   84.69    8.20
   3   9   0   91.13    7.98
  -3   9  -1   57.74    7.16
   3   9   1   49.92    5.81
  -3   9  -2   80.30    8.73
   3   9   2   76.45    6.76
   3   9   2   65.74    6.19
  -3   9  -3   18.82    4.57
   3   9   3   10.44    2.60
   3   9   3   15.59    3.08
  -3   9  -4    7.40    3.69
   3   9   4    7.97    2.51
  -3   9  -5   12.82    4.53
   3   9   5   14.19    3.21
   3   9   6    5.94    3.80
  -3   9  -6    4.20    3.73
   3   9   6    9.11    2.76
  -3   9  -7   17.04    5.39
   3   9   7   22.34    4.30
   3  10  -6   17.97    4.74
  -3  10   6    6.35    3.30
   3  10  -5    2.57    2.39
  -3  10   5    3.91    2.61
   3  10  -4   18.96    4.72
   3  10  -3   19.99    4.64
   3  10  -2   46.03    6.34
   3  10  -1    6.88    2.68
   3  10   0   -2.44    2.40
  -3  10  -1   69.53    8.18
   3  10   1   77.07    7.41
  -3  10  -2    1.87    2.55
   3  10   2    4.11    2.12
  -3  10  -3    9.47    3.93
  -3  10  -4    4.32    2.91
   3  10   4    4.94    2.34
  -3  10  -5   -0.45    2.58
   3  10   5    0.40    1.44
  -3  11   4    5.24    3.08
   3  11  -4   15.46    4.56
   3  11  -3   27.27    5.68
   3  11  -2    4.36    2.87
   3  11  -1    5.37    2.76
   3  11   0    4.60    2.67
   3  11   1   -1.11    1.87
  -3  11  -2   20.89    5.05
   3  11   2   24.29    4.35
  -3  11  -3    2.26    2.81
   4 -11  -2   12.27    4.47
   4 -11  -1   10.21    3.96
   4 -11   0   16.04    4.65
   4 -11   0   23.40    5.26
   4 -11   1    5.10    3.26
   4 -11   1    0.06    2.04
  -4 -11  -1    1.24    3.05
   4 -10  -5    7.23    4.24
   4 -10  -4   22.61    5.78
   4 -10  -3   28.88    6.08
   4 -10  -2   -1.01    2.27
   4 -10  -1    1.79    2.45
   4 -10  -1    4.45    2.78
  -4 -10   1   -1.35    2.20
   4 -10   0   15.35    4.17
   4 -10   0    9.24    3.58
  -4 -10   0    4.09    3.37
   4 -10   1   14.73    4.26
   4 -10   1    6.31    2.84
  -4 -10  -1   15.49    5.15
  -4 -10  -2    3.43    2.61
   4 -10   2   11.27    3.88
   4 -10   2   -1.05    1.91
  -4 -10  -2    6.29    5.03
  -4 -10  -3    9.84    3.71
   4 -10   3   13.97    4.71
  -4 -10  -3   20.54    6.37
   4 -10   4    4.15    2.80
  -4 -10  -4    7.25    4.44
   4 -10   4   12.27    4.58
   4  -9  -6    3.20    2.62
   4  -9  -5    7.57    3.70
   4  -9  -4   16.62    4.89
   4  -9  -3   14.88    4.37
   4  -9  -2    4.32    2.80
  -4  -9   2    9.56    3.94
  -4  -9   1   77.43    9.42
   4  -9  -1   65.26    8.02
   4  -9   0   15.40    4.14
  -4  -9   0   10.38    3.84
   4  -9   1   37.36    5.87
   4  -9   1   36.00    6.06
  -4  -9  -1   32.54    6.99
  -4  -9  -2   13.30    3.89
   4  -9   2   20.79    4.50
   4  -9   2   20.35    4.66
  -4  -9  -2   19.92    6.08
  -4  -9  -3   30.22    5.54
   4  -9   3   24.76    5.32
  -4  -9  -3   24.46    6.59
   4  -9   4    2.47    3.02
  -4  -9  -4   -0.94    2.67
   4  -9   4    2.77    2.59
  -4  -9  -5    5.52    3.91
   4  -9   5    8.33    4.00
   4  -9   5   13.99    4.39
  -4  -9  -6    4.27    3.80
   4  -9   6   11.96    4.66
   4  -9   6    5.84    3.17
   4  -8  -8    5.35    3.70
   4  -8  -7   17.02    5.15
   4  -8  -6   23.66    5.72
   4  -8  -5    1.75    2.39
   4  -8  -4    3.97    3.08
  -4  -8   3   13.04    3.89
   4  -8  -3    7.12    3.17
   4  -8  -2   19.27    4.44
  -4  -8   2   19.80    4.65
   4  -8  -1   65.80    7.66
  -4  -8   1   56.22    7.79
   4  -8   0   27.70    5.06
  -4  -8   0   10.48    3.97
   4  -8   1  147.19   10.66
  -4  -8  -1  128.03   12.43
  -4  -8  -2   42.07    6.05
   4  -8   2   42.66    5.81
  -4  -8  -2   37.62    7.38
  -4  -8  -3   79.69    8.17
   4  -8   3   78.40    8.92
  -4  -8  -3   89.81   11.18
   4  -8   4   49.16    7.03
  -4  -8  -4   54.85    9.42
   4  -8   4   54.06    7.70
  -4  -8  -5   18.70    5.81
   4  -8   5   22.64    5.31
   4  -8   5   16.63    4.44
  -4  -8  -6   16.07    6.25
   4  -8   6   17.76    5.01
   4  -8   6   19.61    4.98
  -4  -8  -7   10.84    5.45
   4  -8   7   11.99    4.63
   4  -8   7   11.67    4.49
   4  -7  -9   15.21    5.02
   4  -7  -8   16.59    5.47
   4  -7  -7    6.34    3.16
   4  -7  -6   28.41    5.85
   4  -7  -5   13.48    4.37
   4  -7  -4  105.63   10.22
  -4  -7   4  100.79    8.49
  -4  -7   3   20.65    4.25
   4  -7  -3   16.88    4.17
   4  -7  -2   17.98    4.25
  -4  -7   2   13.00    3.73
   4  -7  -1    3.60    2.08
  -4  -7   1    0.70    1.74
   4  -7   0    5.00    2.43
  -4  -7   0    3.84    3.05
   4  -7   1  141.69    9.70
  -4  -7  -1  134.54    9.76
  -4  -7  -1  148.47   12.77
  -4  -7  -2   61.61    6.61
   4  -7   2   55.89    5.97
  -4  -7  -2   47.04    7.57
  -4  -7  -3   33.01    4.97
  -4  -7  -3   26.26    6.50
   4  -7   4   11.53    3.71
  -4  -7  -4   18.00    5.76
   4  -7   4   16.02    4.64
  -4  -7  -5   14.25    5.42
   4  -7   5   12.41    4.17
   4  -7   5   14.15    3.79
  -4  -7  -6    9.67    5.26
   4  -7   6    5.13    3.27
   4  -7   6    7.12    3.14
  -4  -7  -7    0.93    3.94
   4  -7   7    3.40    3.49
   4  -7   7    1.04    2.46
  -4  -7  -8   16.29    6.33
   4  -7   8   28.08    6.15
   4  -7   8   27.19    5.75
   4  -6  -9    3.98    3.28
   4  -6  -8   20.59    5.35
   4  -6  -7   21.21    5.46
   4  -6  -6   -1.34    2.49
  -4  -6   5    5.72    2.27
   4  -6  -5    0.81    2.11
   4  -6  -4   64.91    7.48
  -4  -6   4   61.23    6.36
   4  -6  -3   91.99    8.55
  -4  -6   3   78.54    7.42
   4  -6  -2   19.45    4.02
  -4  -6   2   15.25    3.78
   4  -6  -1  121.57    9.01
  -4  -6   1  126.95   10.41
   4  -6   0   74.72    6.77
  -4  -6   0   75.33    8.69
   4  -6   1    1.37    1.50
  -4  -6  -1    2.44    2.94
  -4  -6  -1    2.95    1.86
  -4  -6  -2  110.64    8.10
  -4  -6  -2   92.24   10.01
  -4  -6  -3   15.26    3.43
  -4  -6  -3   17.55    5.40
  -4  -6  -4    3.86    3.21
   4  -6   4    3.90    2.51
  -4  -6  -5   18.23    5.67
   4  -6   5   15.55    4.11
   4  -6   5   14.38    3.44
  -4  -6  -6   24.32    6.73
   4  -6   6   10.26    3.86
   4  -6   6   16.91    4.16
  -4  -6  -7   15.13    5.52
   4  -6   7    9.77    3.66
   4  -6   7   12.72    4.06
  -4  -6  -8   10.11    5.28
   4  -6   8    6.96    3.85
   4  -6   8    3.04    2.99
  -4  -6  -9   20.81    7.28
   4  -6   9   18.68    5.18
   4  -6   9    8.13    3.40
   4  -5 -10   11.11    4.35
   4  -5  -9    4.39    3.61
   4  -5  -8   37.24    6.60
   4  -5  -7   37.92    6.64
   4  -5  -6  101.26    9.65
  -4  -5   6  102.87    7.66
   4  -5  -5   83.90    8.43
  -4  -5   5   77.14    6.66
  -4  -5   4   22.16    3.76
   4  -5  -4   21.90    4.35
   4  -5  -3   75.30    7.36
  -4  -5   3   87.21    7.64
   4  -5  -2  280.26   13.18
  -4  -5   2  297.25   14.31
   4  -5  -1    7.94    2.39
  -4  -5   1   15.90    4.30
   4  -5   0   34.28    4.23
  -4  -5   0   35.49    5.68
   4  -5   1   25.34    3.52
  -4  -5  -1   22.72    5.25
  -4  -5  -2  242.68   10.76
   4  -5   2  231.15    9.90
  -4  -5  -2  232.58   15.02
  -4  -5  -3   79.88    6.40
  -4  -5  -3   76.44    9.25
   4  -5   3   80.32    7.01
  -4  -5  -4   31.14    6.05
   4  -5   4   25.14    4.14
  -4  -5  -5   15.93    4.84
   4  -5   5   15.62    3.98
   4  -5   5   17.59    3.84
  -4  -5  -6    4.99    4.12
   4  -5   6    5.43    2.91
   4  -5   6    2.25    2.16
  -4  -5  -7   27.55    6.64
   4  -5   7   23.94    5.03
   4  -5   7   27.26    5.19
  -4  -5  -8   13.94    5.68
   4  -5   8   25.26    5.47
   4  -5   8   14.90    4.55
  -4  -5  -9   28.98    7.34
   4  -5   9   21.56    5.23
   4  -5   9   12.23    3.87
   4  -4 -10    4.79    3.11
   4  -4  -9    7.26    3.96
   4  -4  -8   11.10    4.42
   4  -4  -7    5.93    3.01
  -4  -4   7    5.04    2.39
   4  -4  -6  327.28   16.49
  -4  -4   6  304.47   13.06
   4  -4  -5   12.50    3.57
  -4  -4   5   21.80    3.60
   4  -4  -4   76.54    7.21
  -4  -4   4   64.81    5.97
   4  -4  -3  394.42   15.24
  -4  -4   3  384.42   15.02
   4  -4  -2  103.72    7.43
  -4  -4   2  103.91    8.10
   4  -4  -1  688.55   17.89
  -4  -4   1  667.46   21.14
   4  -4   0  321.62   11.51
  -4  -4   0  335.12   15.71
   4  -4   1   47.38    4.19
  -4  -4  -1   50.83    6.60
  -4  -4  -2  197.00    8.68
   4  -4   2  188.22    7.74
  -4  -4  -2  197.62   12.99
  -4  -4  -3   62.03    5.04
  -4  -4  -3   69.25    8.36
   4  -4   3   66.88    5.96
  -4  -4  -4  176.44   13.58
   4  -4   4  158.55    9.57
  -4  -4  -5    6.52    4.43
   4  -4   5    7.07    2.40
   4  -4   6   44.80    6.22
   4  -4   6   39.73    5.73
  -4  -4  -7   88.20   10.99
   4  -4   7   67.88    7.79
   4  -4   7   90.26    8.67
   4  -4   8   41.18    6.48
   4  -4   8   33.58    5.81
  -4  -4  -9    1.98    2.94
   4  -4   9    6.74    3.00
  -4  -4 -10    6.11    3.75
   4  -4  10    7.13    3.24
   4  -4  10   15.25    4.86
   4  -3 -11    5.80    3.76
   4  -3 -10   13.11    4.44
   4  -3  -9   16.78    5.05
   4  -3  -8   37.09    6.38
  -4  -3   7  161.81    9.88
   4  -3  -7  147.34   11.27
   4  -3  -6  127.02    9.89
  -4  -3   6  126.52    8.40
   4  -3  -5   46.02    5.77
  -4  -3   5   48.53    5.14
   4  -3  -4   97.11    7.55
  -4  -3   4   92.00    6.88
   4  -3  -3   38.95    4.54
  -4  -3   3   41.02    4.82
   4  -3  -2  191.51    9.27
  -4  -3   2  195.06   10.46
   4  -3  -1   94.90    6.09
  -4  -3   1   90.07    7.55
   4  -3   0  166.30    7.30
  -4  -3   0  164.13   10.46
   4  -3   1  420.95   10.31
  -4  -3  -1  402.11   16.89
  -4  -3  -2  208.12    7.48
  -4  -3  -2  205.77   12.55
   4  -3   2  187.07    8.76
  -4  -3  -3  146.35    6.58
  -4  -3  -3  145.21   11.10
   4  -3   3  140.23    8.05
  -4  -3  -4   76.89    8.61
   4  -3   4   54.33    5.45
  -4  -3  -5   90.00    9.60
   4  -3   5   90.66    7.47
  -4  -3  -6   38.29    6.94
   4  -3   6   33.49    5.10
   4  -3   6   26.96    4.61
  -4  -3  -7   37.09    6.90
   4  -3   7   45.31    6.13
   4  -3   7   38.03    5.71
  -4  -3  -8   47.83    8.01
   4  -3   8   58.37    7.18
   4  -3   8   47.06    6.81
  -4  -3  -9    8.06    3.96
   4  -3   9   13.02    3.74
   4  -3   9    9.52    4.05
   4  -3  10   13.17    4.29
   4  -2 -11    3.92    3.41
   4  -2 -10    0.47    2.74
   4  -2  -9    4.71    2.92
   4  -2  -8   32.66    5.77
   4  -2  -7    1.28    2.05
   4  -2  -6  246.38   13.07
  -4  -2   6  248.98   11.68
   4  -2  -5   19.86    3.60
  -4  -2   5   25.57    3.82
   4  -2  -4  228.75   10.81
  -4  -2   4  222.41   10.31
   4  -2  -3  183.03    9.05
  -4  -2   3  187.10    9.48
   4  -2  -2   44.00    4.15
  -4  -2   2   37.77    4.50
   4  -2  -1   66.66    4.53
  -4  -2   1   77.44    6.64
   4  -2   0  380.91    9.51
  -4  -2   0  430.71   15.70
   4  -2   1   50.69    2.83
  -4  -2  -1   54.13    5.95
   4  -2   1   49.19    3.94
  -4  -2  -2   97.49    8.30
   4  -2   2  111.83    6.28
   4  -2   3   19.88    3.18
  -4  -2  -3   19.49    4.07
   4  -2   3   22.94    3.27
   4  -2   4   47.55    5.05
  -4  -2  -4   40.52    5.94
   4  -2   4   49.57    5.00
  -4  -2  -5  220.17   14.17
   4  -2   5  261.13   12.17
   4  -2   5  241.98   11.85
  -4  -2  -6   45.14    6.97
   4  -2   6   37.75    5.18
   4  -2   6   45.00    5.60
  -4  -2  -7   12.16    4.30
   4  -2   7   10.10    3.06
   4  -2   7   15.75    3.81
   4  -2   8   73.81    7.65
  -4  -2  -8   54.79    8.02
   4  -2   8   66.93    7.87
   4  -2   9   24.49    5.37
   4  -2  10    0.47    2.79
   4  -1 -11    4.61    3.57
   4  -1 -10    4.08    3.55
   4  -1  -9    2.95    3.37
   4  -1  -8    8.35    3.32
   4  -1  -7   14.66    3.76
   4  -1  -6   45.10    5.58
  -4  -1   6   39.54    4.94
   4  -1  -5  140.57    8.82
  -4  -1   5  134.97    8.38
  -4  -1   5  139.86    4.83
   4  -1  -4   39.14    4.50
  -4  -1   4   45.78    4.75
  -4  -1   4   40.05    2.16
   4  -1  -3  150.93    7.72
  -4  -1   3  148.37    8.23
  -4  -1   3  157.00    3.04
   4  -1  -2  226.33    8.43
  -4  -1   2  241.60   10.53
   4  -1  -1  522.21   11.13
  -4  -1   1  509.32   15.54
   4  -1  -1  499.16    8.90
   4  -1   0  793.18   11.36
  -4  -1   0  805.45   20.21
   4  -1   0  814.99   13.58
   4  -1   0  782.96   12.46
  -4  -1  -1  509.47   16.79
   4  -1   1  478.75   11.92
   4  -1   1  472.97   10.75
  -4  -1  -2  564.46   18.52
   4  -1   2  559.38   14.17
   4  -1   2  547.98   12.98
  -4  -1  -3  174.24   10.75
   4  -1   3  174.29    8.70
   4  -1   3  162.24    7.87
   4  -1   4   32.11    4.33
  -4  -1  -4   34.09    5.19
   4  -1   4   36.29    4.24
   4  -1   5   18.23    3.58
  -4  -1  -5   17.53    4.25
   4  -1   5   13.77    3.10
   4  -1   6   43.86    5.49
  -4  -1  -6   39.73    6.02
   4  -1   6   42.83    5.47
   4  -1   7   43.08    5.84
   4  -1   7   56.85    6.05
   4  -1   7   51.75    6.39
   4  -1   8   20.55    4.33
   4  -1   8   12.60    3.59
   4  -1   9   35.84    5.94
  -4  -1  -9   25.05    5.66
   4  -1   9   31.90    5.85
   4  -1  10   22.02    5.45
   4   0 -11    0.67    2.33
   4   0 -10    8.93    3.93
   4   0  -9   51.91    7.06
   4   0  -8   12.82    3.61
   4   0  -7   -1.53    1.68
  -4   0   7   -0.99    0.92
   4   0  -6   32.57    4.65
  -4   0   6   35.56    2.95
   4   0  -5  163.71    9.38
   4   0  -5  171.92    6.44
  -4   0   5  167.87    9.62
  -4   0   5  174.55    5.80
   4   0  -4   88.27    6.28
  -4   0   4   83.97    6.39
   4   0  -4   85.90    4.61
  -4   0   4   87.12    3.60
   4   0  -3  468.53   13.08
  -4   0   3  479.38   14.50
  -4   0   3  452.63    7.12
   4   0  -2   67.22    4.48
  -4   0   2   58.41    5.23
  -4   0   2   65.83    2.52
   4   0  -2   62.82    2.76
   4   0  -1 1954.02   19.97
  -4   0   1 1912.66   28.41
   4   0  -1 1943.64   12.75
   4   0  -1 1913.56   19.04
   4   0   0   64.61    2.86
  -4   0   0   69.69    5.76
   4   0   0   63.07    2.95
   4   0   0   62.63    4.13
   4   0   1   17.71    2.87
  -4   0  -1    9.20    2.98
   4   0   1   11.20    1.97
  -4   0  -2  704.43   19.14
   4   0   2  672.69   13.68
   4   0   2  708.40   16.55
  -4   0  -3 1230.65   26.15
   4   0   3 1217.22   20.85
   4   0   3 1243.82   23.69
   4   0   4   11.76    2.97
  -4   0  -4   12.09    3.14
   4   0   4   13.88    2.71
   4   0   5    2.58    1.25
   4   0   5    3.88    2.25
  -4   0  -5    3.09    2.23
   4   0   5    1.36    1.20
   4   0   6   -0.33    1.03
   4   0   6   -0.25    1.65
  -4   0  -6    2.17    1.97
   4   0   6    1.27    2.05
   4   0   7   46.84    6.13
   4   0   7   45.68    4.83
   4   0   7   44.54    5.85
  -4   0  -8  157.72   13.34
   4   0   8  159.81   11.43
   4   0   8  140.59    8.80
   4   0   8  172.47   12.01
   4   0   9    3.02    1.86
   4   0   9    5.79    3.31
  -4   0  -9    7.09    3.70
   4   0   9   10.86    3.98
   4   0  10    4.27    2.97
   4   1 -11    7.31    4.03
   4   1 -10    6.79    3.43
   4   1  -9    5.27    3.19
  -4   1   9    7.22    2.07
   4   1  -8   17.57    4.19
  -4   1   8   14.25    2.53
  -4   1   7   14.90    2.35
   4   1  -6   52.71    4.20
  -4   1   6   55.30    3.96
   4   1  -5  140.39    6.66
  -4   1   5  140.85    5.81
   4   1  -4   31.17    3.12
  -4   1   4   38.53    4.57
  -4   1   4   37.68    2.82
   4   1  -3  152.32    6.59
  -4   1   3  160.07    8.44
  -4   1   3  153.50    5.41
   4   1  -2  214.00    6.54
  -4   1   2  209.72    9.41
   4   1  -2  225.82    8.08
   4   1  -1  490.73   11.13
  -4   1   1  511.40   14.21
   4   1   0  784.80   15.73
  -4   1   0  814.68   17.65
   4   1   1  474.49   13.32
  -4   1  -1  498.21   14.25
   4   1   1  500.82    9.74
  -4   1  -2  541.99   15.27
   4   1   2  555.95   10.07
   4   1   2  581.33   12.50
   4   1   2  564.12   15.75
  -4   1  -3  163.25    8.85
   4   1   3  155.86    6.10
   4   1   3  163.43    7.58
   4   1   3  157.33    8.96
   4   1   4   30.41    4.36
   4   1   4   26.92    2.74
   4   1   4   34.25    3.96
  -4   1  -4   35.07    4.42
   4   1   5   13.82    3.28
   4   1   5   12.78    2.23
  -4   1  -5   12.07    2.88
   4   1   5   19.92    3.42
   4   1   6   41.97    4.21
   4   1   6   55.66    6.31
   4   1   6   38.86    5.15
  -4   1  -7   45.08    7.05
   4   1   7   53.30    5.08
   4   1   7   63.93    7.01
   4   1   8   24.70    3.83
  -4   1  -8   21.81    5.21
   4   1   8   21.30    4.56
   4   1   9   30.23    4.51
   4   1   9   28.24    5.59
   4   1  10   19.03    3.94
  -4   1 -10   10.62    4.33
   4   1  10   16.67    4.82
   4   2 -11    4.42    3.45
   4   2 -10    4.56    3.25
  -4   2  10    4.60    1.89
  -4   2   9    6.98    2.31
  -4   2   8   27.31    3.50
   4   2  -7    8.94    2.29
  -4   2   7    5.34    1.53
   4   2  -6  246.80   10.04
  -4   2   6  238.48    8.90
   4   2  -5   24.37    3.14
  -4   2   5   22.59    2.68
   4   2  -4  216.98    8.80
  -4   2   4  201.00    7.63
   4   2  -3  177.52    7.76
  -4   2   3  179.48    9.32
  -4   2   3  181.47    7.13
  -4   2   2   47.62    4.60
   4   2  -2   40.48    3.70
  -4   2   1   72.03    5.32
   4   2  -1   62.58    4.61
   4   2   0  394.63   11.99
  -4   2   0  391.56   11.79
   4   2   1   44.88    4.50
  -4   2  -1   49.32    4.23
   4   2   1   49.30    2.41
   4   2   2   95.03    6.87
  -4   2  -2  101.48    5.97
   4   2   2   99.82    4.04
  -4   2  -3   21.43    2.87
   4   2   3   21.50    2.24
   4   2   3   28.59    4.36
  -4   2  -4   41.56    4.13
   4   2   4   42.09    5.35
   4   2   4   41.61    3.39
  -4   2  -5  247.55   14.83
   4   2   5  233.35    8.75
   4   2   5  254.26   13.24
  -4   2  -6   56.37    7.73
   4   2   6   45.17    4.24
   4   2   6   56.48    6.72
   4   2   7   10.73    3.30
   4   2   7   15.69    2.96
  -4   2  -7   14.55    4.71
  -4   2  -8   66.04    9.06
   4   2   8   61.49    5.81
   4   2   8   58.03    7.45
   4   2   9   19.51    3.72
  -4   2  -9   26.08    6.37
   4   2   9   28.77    5.71
   4   2  10    0.14    1.54
  -4   2 -10    3.72    3.63
   4   2  10    2.27    2.68
  -4   3  11    3.46    1.94
  -4   3  10   10.02    2.68
  -4   3   9   15.78    2.99
  -4   3   8   39.11    4.33
   4   3  -7  166.58    9.41
  -4   3   7  164.01    8.33
   4   3  -6  129.69    8.03
  -4   3   6  121.32    6.97
   4   3  -5   49.77    4.87
  -4   3   5   50.38    4.46
   4   3  -4   96.63    6.49
  -4   3   4   90.20    5.85
   4   3  -3   28.87    3.58
   4   3  -2  196.90    8.56
   4   3  -1   79.81    5.53
  -4   3   1   97.65    6.43
  -4   3   0  154.03    7.44
   4   3   0  163.47    7.74
   4   3   0  161.64    3.32
   4   3   1  429.15   14.37
  -4   3  -1  443.56   11.90
   4   3   1  425.77    7.14
   4   3   2  222.04   11.01
  -4   3  -2  195.40    7.65
   4   3   2  199.49    5.80
   4   3   3  158.15    9.86
  -4   3  -3  146.45   10.62
  -4   3  -3  144.50    6.39
   4   3   3  149.35    5.81
   4   3   4   58.09    6.48
  -4   3  -4   67.62    8.00
   4   3   4   62.11    4.18
   4   3   5   91.45    8.35
  -4   3  -5   84.77    9.19
   4   3   5   83.17    5.36
   4   3   6   39.86    5.88
  -4   3  -6   37.24    6.65
   4   3   6   32.71    3.72
   4   3   7   43.11    6.35
  -4   3  -7   40.08    7.17
   4   3   7   37.80    4.25
   4   3   8   55.05    7.51
  -4   3  -8   64.59    9.17
   4   3   8   52.81    5.43
   4   3   9    7.04    2.44
  -4   3  -9   16.39    5.41
   4   3   9   14.18    4.34
   4   3  10    8.92    2.76
  -4   3 -10   14.68    5.12
   4   3  10   10.46    3.99
  -4   4  10   18.51    3.63
  -4   4   9    8.52    2.53
   4   4  -8   10.60    3.14
  -4   4   8    5.18    2.30
   4   4  -7    7.31    2.63
  -4   4   7    7.94    2.33
   4   4  -6  332.38   13.81
  -4   4   6  309.40   12.19
   4   4  -5   20.58    3.43
  -4   4   5   17.35    3.02
   4   4  -4   68.76    5.89
  -4   4   4   74.79    5.91
  -4   4   3  390.84   11.62
   4   4  -3  426.46   13.94
  -4   4   2  104.01    6.65
   4   4  -2  110.17    6.95
  -4   4   1  694.21   18.29
   4   4  -1  691.07   16.79
  -4   4   0  332.90   13.71
   4   4   0  336.72   11.67
  -4   4  -1   51.80    6.11
   4   4   1   45.54    4.49
  -4   4  -1   48.24    4.10
   4   4   1   49.99    2.86
   4   4   2  195.84   10.89
  -4   4  -2  197.60   11.97
  -4   4  -2  194.48    7.48
   4   4   2  191.14    6.31
   4   4   3   58.38    6.60
  -4   4  -3   71.61    7.84
   4   4   3   66.43    4.15
   4   4   4  163.65   11.14
  -4   4  -4  170.74   12.42
   4   4   4  159.19    7.01
   4   4   5    5.45    2.94
  -4   4  -5    8.84    3.67
   4   4   5    4.57    1.62
  -4   4  -6   36.50    6.55
   4   4   6   37.41    4.14
   4   4   7   82.83    6.40
   4   4   7   79.88    8.92
   4   4   8   46.88    7.18
  -4   4  -8   37.55    7.53
   4   4   8   36.28    4.71
   4   4   9    9.16    2.72
   4   4   9    5.59    3.31
  -4   4  -9    8.90    4.69
   4   4  10    5.82    2.41
   4   4  10    3.78    3.62
  -4   5  10    9.43    3.06
  -4   5   9    0.65    1.49
   4   5  -8   43.72    6.01
  -4   5   8   43.50    5.17
   4   5  -7   35.48    5.38
  -4   5   7   33.93    4.62
   4   5  -6   86.33    7.67
  -4   5   6   86.49    6.95
   4   5  -5   75.62    6.89
  -4   5   5   81.00    6.80
   4   5  -4   20.28    3.73
  -4   5   4   20.62    3.56
   4   5  -3   98.69    7.33
  -4   5   2  264.31   10.93
   4   5  -2  269.66   11.61
  -4   5   1   11.31    2.84
   4   5  -1    8.16    2.38
  -4   5   0   32.95    4.66
   4   5   0   31.83    3.95
  -4   5  -1   26.10    4.61
   4   5   1   25.06    3.45
  -4   5  -2  231.74   13.35
   4   5   2  242.39    7.85
   4   5   3   70.02    7.15
  -4   5  -3   76.75    8.25
   4   5   3   74.63    4.74
   4   5   4   21.43    4.51
  -4   5  -4   27.36    5.48
   4   5   4   26.42    3.10
   4   5   5   20.32    4.55
  -4   5  -5   20.08    4.85
   4   5   5   20.55    3.03
   4   5   6    6.50    3.86
  -4   5  -6   11.88    4.58
   4   5   6    2.98    1.53
  -4   5  -7   29.23    6.42
   4   5   7   28.17    5.83
   4   5   7   24.67    3.83
   4   5   8    9.35    3.72
   4   5   8   15.78    3.16
   4   5   9   18.91    5.24
  -4   5  -9   14.76    5.65
   4   5   9   20.02    3.92
   4   6  -9   12.41    3.71
  -4   6   9   16.60    3.85
   4   6  -8   22.59    4.62
  -4   6   8   26.58    4.43
   4   6  -7   21.70    4.53
  -4   6   7   18.93    3.71
   4   6  -6    4.90    2.54
  -4   6   6    1.78    1.86
   4   6  -5    3.54    2.28
  -4   6   5    4.99    2.19
   4   6  -4   68.25    6.79
   4   6  -3   94.26    7.51
   4   6  -2   18.48    3.52
  -4   6   1  115.05    8.16
   4   6  -1  109.94    7.59
  -4   6   0   65.62    6.52
   4   6   0   64.83    5.77
  -4   6  -1   -0.47    1.55
   4   6   1    1.48    1.40
  -4   6  -2  101.07    9.08
   4   6   2  110.99    7.39
  -4   6  -3   13.56    4.11
   4   6   3   10.26    2.07
  -4   6  -4    9.18    3.12
   4   6   4    5.58    1.72
   4   6   4    3.41    2.43
  -4   6  -5   19.24    4.99
   4   6   5   14.34    4.18
   4   6   5   19.47    3.09
   4   6   6   15.69    4.48
  -4   6  -6   11.75    4.19
   4   6   6   19.22    3.21
  -4   6  -7    8.85    4.23
   4   6   7   21.06    5.75
   4   6   7   12.14    2.97
  -4   6  -8    4.26    3.39
   4   6   8    5.52    3.59
   4   6   8    3.46    1.97
   4   6   9   10.25    4.26
  -4   6  -9   16.01    5.81
   4   6   9    9.03    2.72
   4   7  -9    1.17    2.33
  -4   7   9    7.20    2.76
   4   7  -8   11.64    3.68
  -4   7   8   14.64    3.89
   4   7  -7    0.48    2.40
  -4   7   7    2.18    1.70
   4   7  -6   28.24    5.06
  -4   7   6   24.98    4.59
   4   7  -5    7.46    2.93
  -4   7   5    5.55    2.80
   4   7  -4   95.17    8.41
   4   7  -3   15.01    3.54
   4   7  -2   11.37    2.83
  -4   7   1    1.89    1.86
   4   7  -1    2.53    2.03
  -4   7   0    0.64    1.76
   4   7   0    6.19    2.33
  -4   7  -1  134.79   10.36
   4   7   1  146.94    8.88
  -4   7  -2   58.05    7.40
   4   7   2   53.14    5.30
  -4   7  -3   24.27    5.13
   4   7   4   14.14    4.38
  -4   7  -4   15.03    4.80
   4   7   4    9.89    2.26
   4   7   5   15.58    4.57
  -4   7  -5   14.27    4.63
   4   7   5   16.56    3.04
  -4   7  -6    9.73    4.26
   4   7   6    8.87    3.76
   4   7   6    9.92    2.64
   4   7   7   -0.56    2.99
  -4   7  -7    1.35    2.78
   4   7   7   -0.64    1.39
  -4   7  -8   31.07    7.64
   4   7   8   21.21    5.65
   4   7   8   16.79    3.53
   4   8  -8    7.36    3.40
  -4   8   8    6.10    2.91
   4   8  -7   16.75    4.62
  -4   8   7   21.40    4.52
   4   8  -6   22.70    4.81
  -4   8   6   22.79    4.61
   4   8  -5    1.03    1.79
  -4   8   5    2.76    2.56
   4   8  -4    6.42    2.96
   4   8  -3   11.52    3.40
   4   8  -2   19.83    4.04
   4   8  -1   70.29    6.89
  -4   8   0   25.84    4.81
   4   8   0   19.75    3.86
  -4   8  -1  141.13   11.08
   4   8   1  141.34    9.20
  -4   8  -2   35.47    6.08
   4   8   2   34.67    4.54
  -4   8  -3   81.07    9.18
   4   8   3   76.86    6.63
  -4   8  -4   49.97    7.72
   4   8   4   52.89    7.66
  -4   8  -5   26.59    5.95
   4   8   5   13.94    4.54
  -4   8  -6   13.32    4.72
   4   8   6   22.46    5.47
  -4   8  -7    4.65    3.21
   4   8   7    3.53    2.17
   4   9  -6    4.80    3.40
  -4   9   6    5.31    2.49
   4   9  -5    5.43    3.26
  -4   9   5   10.92    4.09
   4   9  -4   24.73    4.98
   4   9  -3    9.93    3.46
   4   9  -2    0.08    2.24
   4   9  -1   60.54    6.79
   4   9   0    6.87    2.77
  -4   9  -1   37.74    6.16
   4   9   1   37.34    5.08
  -4   9  -2   23.83    5.17
   4   9   2   12.44    3.18
  -4   9  -3   29.35    5.91
   4   9   3   29.25    4.54
  -4   9  -4    1.81    2.36
   4   9   5    7.31    4.18
  -4   9  -5   11.62    4.95
   4   9   6   11.68    4.27
  -4   9  -6   18.47    5.64
   4  10  -5    7.43    3.32
  -4  10   5    7.85    3.34
   4  10  -4   14.78    4.49
   4  10  -3   49.73    7.02
   4  10  -2    4.63    2.85
   4  10  -1   -1.33    2.03
   4  10   0    6.64    2.55
  -4  10  -1   12.48    3.98
   4  10   1   11.20    3.24
  -4  10  -2    2.20    2.69
   4  10   2    2.63    2.14
  -4  10  -3   15.85    4.65
   4  10   3    9.05    2.69
  -4  10  -4    5.40    4.07
   4  11  -2    9.02    3.61
   4  11  -1    9.72    3.21
   4  11   0   19.10    4.33
   4  11   1    5.96    2.68
   5 -10  -3    4.34    3.48
   5 -10  -2    7.34    3.94
   5 -10  -1   -0.56    2.32
  -5 -10   1    0.98    3.14
  -5 -10   0    8.40    3.57
   5 -10   1    1.96    2.69
  -5 -10  -1    3.15    3.68
   5 -10   2   25.45    6.21
  -5 -10  -2   16.71    5.92
   5  -9  -5    2.49    2.67
   5  -9  -4   20.73    5.26
   5  -9  -3   26.07    5.98
  -5  -9   2   16.74    4.93
   5  -9  -2   20.86    5.16
   5  -9  -1    1.19    1.96
  -5  -9   1    4.32    2.95
  -5  -9   0   34.55    7.28
  -5  -9  -1   30.44    6.91
   5  -9   2   15.90    4.64
  -5  -9  -2   13.97    5.05
   5  -9   3   13.50    4.42
  -5  -9  -3   25.84    7.00
   5  -9   4    8.80    3.45
   5  -9   4   13.21    4.69
  -5  -9  -4    2.37    2.92
   5  -8  -7    8.36    4.04
   5  -8  -6    0.20    2.55
   5  -8  -5   13.99    4.73
   5  -8  -4   11.66    4.30
  -5  -8   3    8.82    3.54
   5  -8  -3    3.14    2.52
  -5  -8   2    9.83    3.79
   5  -8  -2    1.84    2.00
   5  -8  -1    5.17    3.00
  -5  -8   1    5.46    3.06
  -5  -8   0   19.89    5.58
  -5  -8  -1   21.02    5.90
  -5  -8  -2   -1.93    3.96
  -5  -8  -3   13.17    5.51
   5  -8   4   19.36    4.62
   5  -8   4   16.03    4.60
  -5  -8  -4   13.67    5.58
   5  -8   5   12.91    4.26
  -5  -8  -5   21.22    7.24
   5  -8   5   21.50    5.11
   5  -8   6   11.65    4.30
  -5  -8  -6    9.25    4.60
   5  -8   6    7.80    3.88
   5  -7  -8   14.46    4.85
   5  -7  -7    6.92    3.91
   5  -7  -6    9.63    3.85
  -5  -7   5    5.63    2.58
   5  -7  -5    9.53    3.97
  -5  -7   4    3.20    2.45
   5  -7  -4    5.24    3.03
  -5  -7   3    6.46    2.74
   5  -7  -3    9.16    3.48
  -5  -7   2   47.03    7.04
   5  -7  -2   48.04    6.41
   5  -7  -1    7.58    3.01
  -5  -7   1   18.25    4.71
  -5  -7   0    9.94    3.90
  -5  -7  -1   57.92    8.65
  -5  -7  -2   44.06    7.62
  -5  -7  -3   68.85    9.77
   5  -7   3   68.86    7.62
  -5  -7  -4   32.06    7.29
   5  -7   4   21.84    4.63
   5  -7   5    8.89    3.99
  -5  -7  -5    8.80    4.88
   5  -7   5    8.54    3.94
   5  -7   6    7.39    3.23
  -5  -7  -6    4.08    4.35
   5  -7   6   11.39    4.07
  -5  -7  -7   13.21    6.30
   5  -7   7    6.78    3.86
   5  -7   7    3.29    2.57
   5  -6  -8    6.31    3.91
   5  -6  -7   17.98    4.87
   5  -6  -6   12.90    4.08
  -5  -6   6   13.18    3.45
  -5  -6   5   13.19    3.63
   5  -6  -5   32.12    6.01
  -5  -6   4   23.14    4.56
   5  -6  -4   26.57    5.14
  -5  -6   3   47.73    6.44
   5  -6  -3   53.56    6.74
  -5  -6   2    3.95    2.69
   5  -6  -2    5.00    2.61
   5  -6  -1   78.79    7.29
  -5  -6   1   81.92    8.99
  -5  -6   0   32.03    6.21
  -5  -6  -1  111.37   11.10
  -5  -6  -2   94.62   10.73
   5  -6   3   10.47    3.17
  -5  -6  -3   17.03    5.28
  -5  -6  -4   49.43    8.72
   5  -6   4   45.31    6.05
   5  -6   5   13.98    4.37
  -5  -6  -5    9.49    4.85
   5  -6   5    9.37    3.52
   5  -6   6    6.97    3.27
  -5  -6  -6   13.04    5.33
   5  -6   6    7.42    3.03
   5  -6   7    3.23    2.55
   5  -6   7    5.03    2.91
  -5  -6  -8    3.51    4.37
   5  -6   8    2.89    2.43
   5  -6   8    1.56    3.02
   5  -5  -9    0.70    3.58
   5  -5  -8    1.72    3.03
   5  -5  -7    3.49    2.90
  -5  -5   7    3.67    2.35
   5  -5  -6    8.02    3.58
  -5  -5   6   15.48    3.63
   5  -5  -5   71.95    8.18
  -5  -5   5   83.52    7.68
   5  -5  -4   56.13    6.81
  -5  -5   4   45.83    5.94
  -5  -5   3    6.12    2.81
   5  -5  -3    0.06    1.51
   5  -5  -2   69.50    6.90
  -5  -5   2   64.60    7.44
   5  -5  -1   42.41    5.02
  -5  -5   1   59.39    7.49
   5  -5   0  115.08    7.62
  -5  -5   0  125.34   10.84
  -5  -5  -1   15.04    4.33
  -5  -5  -2   64.81    8.55
  -5  -5  -3    7.78    3.86
   5  -5   3    6.04    2.61
  -5  -5  -4   25.73    6.49
   5  -5   4   24.58    4.41
  -5  -5  -5   29.90    6.79
   5  -5   5   25.50    4.73
   5  -5   6   20.21    4.97
  -5  -5  -6   26.74    6.81
   5  -5   6   21.91    4.40
   5  -5   7    4.19    2.73
  -5  -5  -7    3.54    3.03
   5  -5   7    2.51    2.79
  -5  -5  -8   11.73    4.91
   5  -5   8   10.49    3.89
   5  -5   8    5.36    3.43
   5  -4 -10    2.66    3.41
   5  -4  -9   23.21    5.73
   5  -4  -8    2.73    2.93
  -5  -4   8    4.86    2.38
   5  -4  -7   93.30    9.76
  -5  -4   7  110.38    8.91
   5  -4  -6   21.54    4.68
  -5  -4   6   22.16    3.97
   5  -4  -5   71.56    7.72
  -5  -4   5   75.11    7.18
   5  -4  -4  204.79   12.06
  -5  -4   4  198.68   11.58
  -5  -4   3   19.81    4.15
   5  -4  -3   19.91    3.75
   5  -4  -2  284.85   12.58
  -5  -4   2  311.70   15.17
   5  -4  -1  233.48   10.66
  -5  -4   1  221.22   13.31
  -5  -4   0   40.58    6.12
  -5  -4  -1   33.71    5.93
  -5  -4  -2   46.66    7.02
   5  -4   2   55.10    5.37
  -5  -4  -3  144.94   12.24
   5  -4   3  120.89    8.27
  -5  -4  -4   49.25    7.66
   5  -4   4   62.98    6.34
  -5  -4  -5   11.58    4.66
   5  -4   5    7.31    2.80
   5  -4   6    2.26    2.06
  -5  -4  -6    0.12    2.94
   5  -4   6    0.23    2.05
   5  -4   7   23.03    5.00
  -5  -4  -7   24.95    6.11
   5  -4   7   21.82    4.76
  -5  -4  -8   20.25    5.85
   5  -4   8   18.04    4.76
   5  -4   8    3.44    2.34
  -5  -4  -9   13.09    5.51
   5  -4   9   11.16    4.06
   5  -4   9   13.55    4.30
   5  -3 -10    0.38    2.46
   5  -3  -9    8.64    3.87
   5  -3  -8    4.80    3.09
   5  -3  -7   34.76    5.93
  -5  -3   7   31.32    5.03
   5  -3  -6  126.57   10.23
  -5  -3   6  106.58    8.52
   5  -3  -5  330.86   15.48
  -5  -3   5  339.46   14.47
  -5  -3   4   18.84    3.64
   5  -3  -4   10.36    2.92
   5  -3  -3   73.01    6.42
  -5  -3   3   83.45    7.46
   5  -3  -2   78.49    6.25
  -5  -3   2   81.78    7.64
  -5  -3   1   25.72    4.61
   5  -3  -1   29.64    3.51
  -5  -3   0   45.62    6.19
  -5  -3  -1  159.42   11.61
   5  -3   1  141.80    7.63
   5  -3   2   37.71    4.21
  -5  -3  -2   27.63    5.46
  -5  -3  -3   75.25    8.73
   5  -3   3   75.27    6.24
  -5  -3  -4   93.66   10.08
   5  -3   4   97.32    7.55
  -5  -3  -5   12.08    4.38
   5  -3   5   19.99    3.99
  -5  -3  -6   40.80    7.13
   5  -3   6   31.29    5.19
   5  -3   7   10.41    3.33
  -5  -3  -7   13.81    4.94
   5  -3   7    4.53    2.41
   5  -3   8   23.39    5.04
  -5  -3  -8   36.80    7.42
   5  -3   8   30.56    5.65
  -5  -3  -9   13.36    4.87
   5  -3   9   21.84    5.17
   5  -2 -10    6.30    3.57
   5  -2  -9    1.15    2.77
   5  -2  -8   67.53    8.19
   5  -2  -7    3.73    2.26
  -5  -2   7    5.77    2.50
   5  -2  -6   52.00    6.44
  -5  -2   6   39.28    5.33
   5  -2  -5  107.70    8.56
  -5  -2   5  103.81    7.99
   5  -2  -4   93.06    7.33
  -5  -2   4   94.20    7.59
  -5  -2   3   10.94    3.03
   5  -2  -3   11.82    2.54
   5  -2  -2   98.41    6.38
  -5  -2   2   84.20    7.27
   5  -2  -1   86.56    5.37
  -5  -2   1   77.77    7.45
  -5  -2   0  472.28   18.14
  -5  -2  -1   82.81    8.16
   5  -2   1   79.13    5.18
  -5  -2  -2  336.08   16.32
   5  -2   2  317.53   11.12
  -5  -2  -3  242.51   14.41
   5  -2   3  233.63   10.82
   5  -2   3  227.19   10.21
   5  -2   4   42.31    5.15
   5  -2   4   44.74    5.04
  -5  -2  -4   53.74    7.33
  -5  -2  -5   86.62    9.28
   5  -2   5   91.28    7.84
   5  -2   5   86.54    7.49
  -5  -2  -6   57.22    7.98
   5  -2   6   52.99    6.31
   5  -2   7   10.48    3.22
  -5  -2  -7   17.26    4.87
   5  -2   7   13.28    3.82
   5  -2   8    4.68    2.24
  -5  -2  -8    2.12    2.52
   5  -2   8    1.63    2.26
   5  -2   9    8.72    3.80
   5  -1 -10   14.56    4.36
   5  -1  -9    6.36    3.51
   5  -1  -8   56.39    7.28
   5  -1  -7   80.43    8.22
   5  -1  -6  143.99   10.13
  -5  -1   6  122.38    9.15
   5  -1  -5  108.65    8.25
  -5  -1   5  119.91    8.77
   5  -1  -4  143.00    8.71
  -5  -1   4  126.38    8.67
   5  -1  -3   99.79    6.67
  -5  -1   3  107.48    7.90
   5  -1  -2   40.84    3.87
  -5  -1   2   41.15    5.36
   5  -1  -1  255.76    8.40
  -5  -1   1  261.56   12.42
   5  -1  -1  251.52    7.33
  -5  -1   0   22.81    4.21
   5  -1   0   16.90    2.27
   5  -1   0   23.32    2.35
  -5  -1  -1  186.34   11.29
   5  -1   1  212.50    8.70
   5  -1   1  221.61    7.81
  -5  -1  -2  390.33   16.72
   5  -1   2  391.27   12.96
   5  -1   2  382.13   11.54
  -5  -1  -3   97.43    8.75
   5  -1   3   79.53    6.39
   5  -1   3   89.45    6.20
   5  -1   4   62.84    6.09
   5  -1   4   49.12    5.09
  -5  -1  -4   54.77    6.96
   5  -1   5   37.94    5.26
  -5  -1  -5   33.02    5.67
   5  -1   5   34.01    4.72
   5  -1   6   28.83    4.93
  -5  -1  -6   26.20    5.17
   5  -1   6   24.70    4.53
   5  -1   7   67.67    7.60
   5  -1   7   53.97    6.31
  -5  -1  -7   59.31    7.92
   5  -1   7   58.69    7.08
   5  -1   8   12.29    3.96
   5  -1   8    9.89    3.61
   5  -1   9   45.46    6.80
  -5  -1  -9   55.32    8.92
   5  -1   9   42.58    6.83
   5  -1  10    4.04    2.96
   5   0 -10   13.96    4.73
   5   0  -9    1.54    1.99
   5   0  -8    4.11    3.05
   5   0  -7   41.69    5.82
   5   0  -6   -0.31    1.66
  -5   0   6    4.65    2.49
   5   0  -5    3.13    1.95
  -5   0   5    2.90    1.83
   5   0  -4  264.25   11.42
  -5   0   4  237.52   11.80
   5   0  -3  305.84   11.15
  -5   0   3  307.27   13.15
   5   0  -2   92.26    5.50
  -5   0   2   88.58    7.22
   5   0  -2   89.88    3.88
   5   0  -1  553.83   11.67
  -5   0   1  559.29   17.26
   5   0  -1  548.43   11.54
  -5   0   0  920.34   22.65
   5   0   0  907.31   12.14
   5   0   0  928.82   17.19
  -5   0  -1   59.09    6.07
   5   0   1   61.15    3.87
   5   0   1   66.94    5.20
  -5   0  -2  236.44   12.16
   5   0   2  225.47   10.14
   5   0   2  233.52    8.57
   5   0   3   27.82    4.03
   5   0   3   28.81    3.48
  -5   0  -3   34.30    5.07
  -5   0  -4  146.60   10.42
   5   0   4  152.95    9.55
   5   0   4  155.27    8.76
  -5   0  -5   74.53    7.77
   5   0   5   81.11    7.55
   5   0   5   59.43    5.96
   5   0   6   30.54    5.04
  -5   0  -6   15.83    4.11
   5   0   6   22.43    4.12
   5   0   7   44.96    6.23
   5   0   7   68.24    7.41
   5   0   8   -0.06    1.88
   5   0   8    3.28    2.40
   5   0   9    1.74    2.62
  -5   0  -9    5.93    4.13
   5   0  10    8.34    4.06
  -5   0 -10    9.26    4.27
   5   1 -10   14.80    4.43
   5   1  -9    4.61    3.08
   5   1  -8   30.64    5.50
   5   1  -7   86.23    8.28
   5   1  -5  118.63    6.50
  -5   1   5  128.02    9.40
   5   1  -4  137.12    6.99
  -5   1   4  138.14    9.08
  -5   1   3  106.73    7.75
   5   1  -2   39.80    3.17
  -5   1   2   36.84    4.57
   5   1  -1  261.90    9.08
  -5   1   1  249.01   11.02
  -5   1   0   24.34    3.78
   5   1   0   19.97    2.84
  -5   1  -1  191.00    9.91
   5   1   1  185.43    9.04
  -5   1  -2  380.88   14.41
   5   1   2  409.01   11.02
   5   1   2  400.94   14.19
  -5   1  -3   88.55    7.21
   5   1   3   99.84    6.23
   5   1   3   77.27    6.77
   5   1   4   52.71    5.87
  -5   1  -4   55.90    5.95
   5   1   4   55.30    5.25
   5   1   5   30.56    3.48
   5   1   5   25.89    3.90
   5   1   5   38.11    5.47
  -5   1  -5   30.96    4.77
   5   1   6   26.00    3.46
   5   1   6   20.50    4.49
  -5   1  -7   58.23    8.59
   5   1   7   59.80    7.29
   5   1   7   42.29    4.68
   5   1   8    7.14    2.34
  -5   1  -8    8.26    4.08
   5   1   8    9.31    3.52
   5   1   9   43.60    5.50
  -5   1  -9   43.87    8.48
   5   1   9   37.85    6.53
   5   1  10    3.79    2.18
   5   1  10    8.01    3.60
   5   2 -10    6.58    3.73
   5   2  -9    0.90    2.92
   5   2  -6   46.18    4.51
   5   2  -5  107.85    6.66
   5   2  -4   92.23    6.06
  -5   2   4  106.23    8.34
  -5   2   4   96.13    5.34
  -5   2   3    8.80    2.57
   5   2  -3    9.14    2.11
  -5   2   3    8.20    1.73
   5   2  -2  130.56    6.63
  -5   2   2  113.54    7.74
   5   2  -2  103.30    6.43
   5   2  -1   81.38    5.67
  -5   2   1   82.92    6.38
   5   2   0  423.63   13.72
  -5   2   0  448.41   14.41
   5   2   1   81.26    6.51
  -5   2  -1   90.80    6.44
   5   2   2  315.90   13.33
  -5   2  -2  305.41   11.73
  -5   2  -3  230.87   10.40
   5   2   3  236.99    7.67
   5   2   3  254.31   12.71
  -5   2  -4   55.85    5.27
   5   2   4   50.46    6.10
   5   2   4   46.35    3.80
   5   2   5   86.84    5.62
   5   2   5   81.95    7.99
   5   2   6   57.79    7.20
  -5   2  -6   47.01    7.66
   5   2   6   54.08    4.82
   5   2   7   13.95    2.85
  -5   2  -7    7.31    3.83
   5   2   8    3.01    1.66
  -5   2  -8   -1.29    2.58
   5   2   8    3.08    2.78
   5   2   9    8.26    2.58
  -5   2  -9   14.57    5.42
   5   2   9   12.12    4.37
   5   3  -7   39.52    4.64
   5   3  -6  118.60    7.72
  -5   3   6  125.66    7.13
   5   3  -5  317.11   12.32
  -5   3   5  349.09   11.57
   5   3  -4    9.74    2.48
  -5   3   4   18.85    2.83
   5   3  -3   79.15    5.91
   5   3  -2   71.56    5.63
  -5   3   2   75.17    6.64
  -5   3   1   24.65    3.61
   5   3  -1   26.02    3.54
   5   3   0   45.29    4.95
  -5   3   0   46.45    4.71
   5   3   1  140.02    8.93
  -5   3  -1  154.08    8.04
   5   3   2   34.45    4.92
  -5   3  -2   34.02    3.77
   5   3   3   82.99    7.66
  -5   3  -3   77.62    5.55
   5   3   4  101.23    8.84
  -5   3  -4  113.03   11.01
   5   3   4  108.04    5.66
   5   3   5   18.02    2.67
   5   3   5   17.72    4.27
  -5   3  -5   10.94    4.19
   5   3   6   27.63    3.48
   5   3   6   34.23    5.85
  -5   3  -6   40.43    7.35
   5   3   7    5.19    1.88
   5   3   7    9.53    3.74
  -5   3  -7    7.03    3.81
   5   3   8   22.44    3.86
  -5   3  -8   31.79    7.14
   5   3   8   19.53    4.92
   5   3   9   17.46    3.76
  -5   3  -9   18.09    6.25
   5   3   9   22.26    5.17
   5   4  -7  100.02    7.96
  -5   4   7  122.47    7.85
   5   4  -6   19.30    3.65
  -5   4   6   20.39    3.31
   5   4  -5   82.35    6.82
  -5   4   5   66.96    5.68
   5   4  -4  200.03   10.21
  -5   4   4  197.06    9.69
   5   4  -3   17.57    3.32
   5   4  -2  292.41   11.86
   5   4  -1  216.56   10.10
   5   4   0   37.44    4.53
  -5   4   0   39.70    4.48
   5   4   1   41.88    5.31
  -5   4  -1   39.84    4.21
  -5   4  -1   41.74    5.99
   5   4   2   59.34    6.59
  -5   4  -2   54.98    4.71
  -5   4  -2   48.87    6.55
   5   4   3  125.25    9.96
  -5   4  -3  132.93   11.34
   5   4   4   54.24    6.94
  -5   4  -4   67.01    8.53
   5   4   5    6.83    1.89
  -5   4  -5   12.90    4.55
   5   4   5    8.03    3.13
   5   4   6    2.69    1.76
  -5   4  -6    1.78    2.75
   5   4   6    5.04    3.47
   5   4   7   33.91    4.28
   5   4   7   32.41    6.38
  -5   4  -7   36.08    7.54
   5   4   8   16.42    3.42
   5   4   8   12.53    4.09
  -5   4  -8   12.12    5.72
   5   4   9   13.64    3.35
  -5   4  -9   10.66    4.66
   5   4   9   13.56    5.08
   5   5  -8   -2.05    1.63
  -5   5   8    1.28    1.64
   5   5  -7    1.85    1.90
  -5   5   7    1.73    1.72
   5   5  -6   15.03    3.54
  -5   5   6   10.00    2.59
   5   5  -5   67.22    6.56
  -5   5   5   80.99    6.99
   5   5  -4   48.08    5.46
  -5   5   4   47.89    5.35
   5   5  -3    2.42    1.50
  -5   5   2   73.89    6.62
   5   5  -2   73.03    6.41
  -5   5   1   49.39    5.82
   5   5  -1   47.40    5.11
  -5   5   0  109.91    9.05
   5   5   0  132.33    8.19
  -5   5  -1   14.62    3.83
   5   5   2   78.08    7.96
  -5   5  -2   73.79    8.19
   5   5   3    9.56    3.54
  -5   5  -3    6.55    3.80
   5   5   4   24.22    5.18
  -5   5  -4   15.86    4.71
   5   5   5   28.06    5.64
  -5   5  -5   29.10    6.38
  -5   5  -6   27.54    6.44
   5   5   6   19.55    5.02
   5   5   7    7.01    4.21
  -5   5  -7    5.05    3.77
   5   5   8    7.96    2.52
   5   5   8    4.38    2.76
   5   6  -8    9.52    3.33
  -5   6   8    3.13    2.23
   5   6  -7   15.61    3.84
  -5   6   7   12.15    3.22
   5   6  -6   19.02    4.10
  -5   6   6   16.88    3.92
   5   6  -5   22.73    4.31
  -5   6   5   28.62    4.54
   5   6  -4   20.04    3.85
   5   6  -3   57.28    6.03
   5   6  -2    5.00    2.35
  -5   6   1   77.23    7.27
   5   6  -1   77.87    6.74
   5   6   0   41.88    5.08
  -5   6   0   39.05    5.72
  -5   6  -1  122.70   10.22
   5   6   1  135.69    8.72
   5   6   2  116.00    9.87
  -5   6  -2   96.75    9.60
  -5   6  -3   11.83    4.24
   5   6   3   15.91    4.41
  -5   6  -4   44.80    7.26
   5   6   4   61.15    7.85
   5   6   5   16.84    4.68
  -5   6  -5    8.75    3.99
   5   6   6   13.00    4.10
  -5   6  -6   13.23    4.97
  -5   6  -7    3.55    3.40
   5   6   7    1.57    3.36
   5   6   8   -0.18    2.93
  -5   6  -8    4.03    3.52
   5   7  -8   19.91    4.74
  -5   7   8   17.71    3.91
   5   7  -7    6.27    2.99
  -5   7   7    3.57    2.38
   5   7  -6   11.02    3.41
  -5   7   6    9.60    3.13
   5   7  -5    2.55    2.15
  -5   7   5   11.42    3.43
   5   7  -4    2.95    2.03
   5   7  -3    1.44    1.88
   5   7  -2   46.74    5.66
   5   7  -1    5.65    2.22
  -5   7   0    3.15    2.75
   5   7   0    8.59    2.68
   5   7   1   48.63    5.56
  -5   7  -1   36.98    5.80
  -5   7  -2   36.84    6.34
   5   7   3   70.24    8.54
  -5   7  -3   52.91    7.58
   5   7   4   26.78    5.51
  -5   7  -4   34.08    6.80
  -5   7  -5    6.58    4.05
   5   7   5   10.24    4.17
   5   7   6    4.21    3.88
  -5   7  -6    1.57    3.26
  -5   7  -7    8.67    4.69
   5   7   7    6.42    4.02
   5   8  -7    1.48    2.11
  -5   8   7    3.07    2.41
   5   8  -6    8.27    3.18
  -5   8   6    4.85    2.85
   5   8  -5   12.82    3.94
  -5   8   5   19.14    4.59
   5   8  -4    2.42    2.54
   5   8  -3    3.99    2.60
   5   8  -2    2.18    2.27
   5   8  -1    4.36    2.40
  -5   8   0   10.87    3.49
   5   8   0    8.29    2.92
  -5   8  -1   22.25    4.97
   5   8   1   22.61    4.22
  -5   8  -2    5.86    3.38
   5   8   2    1.92    2.02
   5   8   3   13.49    4.17
  -5   8  -3    6.18    3.21
   5   8   4   19.11    4.95
  -5   8  -4   21.04    5.52
   5   8   5   18.43    5.16
  -5   8  -5   13.93    5.01
   5   8   6    0.45    2.63
  -5   8  -6    2.88    3.12
   5   9  -5    3.57    2.82
  -5   9   5    5.73    3.20
   5   9  -4   16.90    4.23
   5   9  -3   24.53    4.86
   5   9  -2   14.51    3.90
   5   9  -1    3.77    2.61
   5   9   0   26.96    4.80
  -5   9  -1   28.32    5.69
   5   9   1   26.39    4.58
  -5   9  -2    6.51    3.68
   5   9   2    7.80    2.79
  -5   9  -3   16.85    4.87
  -5   9  -4   -0.05    2.19
   5   9   4    9.38    4.02
   5  10  -3    1.12    1.44
   5  10  -2    2.37    2.22
   5  10  -1   -2.33    2.20
   5  10   0   17.28    4.04
   5  10   1   -0.04    1.52
  -5  10  -2   18.03    5.05
   5  10   2   20.34    4.27
  -6  -9   3    0.35    2.63
  -6  -9   2   18.60    5.35
  -6  -9   1    2.06    3.55
  -6  -9   0   20.03    5.91
  -6  -9  -1   12.57    5.11
  -6  -9  -2    6.03    4.62
   6  -8  -5    9.06    3.74
  -6  -8   4    2.81    2.76
   6  -8  -4    3.70    2.97
  -6  -8   3    3.66    2.84
  -6  -8   2   -2.30    2.05
  -6  -8   1   11.12    4.16
  -6  -8   0   12.19    4.86
  -6  -8  -1   22.80    6.48
  -6  -8  -2    6.29    4.63
   6  -8   3    7.48    3.57
  -6  -8  -3    5.01    3.90
   6  -8   4    1.28    2.80
  -6  -8  -4    4.78    4.31
   6  -8   4    0.47    2.22
   6  -7  -6   15.50    4.82
  -6  -7   5    7.73    3.24
   6  -7  -5   14.98    4.59
  -6  -7   4   -0.66    1.81
   6  -7  -4    0.17    2.07
  -6  -7   3   13.84    4.23
  -6  -7   2    6.66    3.34
  -6  -7   1    8.01    3.98
  -6  -7   0   12.99    4.18
  -6  -7  -1   10.31    4.38
  -6  -7  -2   11.40    5.07
   6  -7   3   20.69    4.53
  -6  -7  -3   27.16    7.31
  -6  -7  -4   -2.96    3.45
   6  -7   4    3.30    2.77
   6  -7   5   21.26    5.23
  -6  -7  -5   15.64    5.90
   6  -7   5   11.89    3.82
   6  -6  -7    8.33    4.15
   6  -6  -6   11.86    4.35
  -6  -6   6    7.27    3.20
  -6  -6   5    5.46    2.72
   6  -6  -5    6.27    2.98
  -6  -6   4   47.86    6.68
   6  -6  -4   38.70    6.28
  -6  -6   3   11.77    3.81
  -6  -6   2    7.15    3.02
  -6  -6   1   41.72    6.86
  -6  -6   0    6.56    4.06
  -6  -6  -1    5.04    3.62
   6  -6   2   56.43    6.56
  -6  -6  -2   57.63    9.02
  -6  -6  -3   -1.23    2.48
   6  -6   3    6.08    2.75
  -6  -6  -4    7.50    4.63
   6  -6   4    6.79    2.89
  -6  -6  -5    8.93    4.87
   6  -6   5    6.25    2.92
   6  -6   6    3.73    3.60
  -6  -6  -6    6.18    4.03
   6  -6   6    5.24    2.78
   6  -5  -8    0.46    2.83
   6  -5  -7    3.00    3.14
  -6  -5   7    0.13    1.80
   6  -5  -6    3.21    2.72
  -6  -5   6    3.70    2.64
  -6  -5   5   11.58    3.36
   6  -5  -5   15.56    4.11
  -6  -5   4   31.15    5.34
   6  -5  -4   31.91    5.39
  -6  -5   3   39.12    5.99
  -6  -5   2   13.51    4.15
  -6  -5   1  190.11   13.79
  -6  -5   0   77.33    9.19
  -6  -5  -1   47.10    7.70
   6  -5   2    2.86    2.09
  -6  -5  -2    6.85    3.40
  -6  -5  -3   39.70    7.58
   6  -5   3   25.04    4.17
  -6  -5  -4   35.56    7.41
   6  -5   4   21.27    4.11
  -6  -5  -5   18.16    5.80
   6  -5   5    6.69    2.70
  -6  -5  -6   37.60    8.09
   6  -5   6   37.27    5.97
   6  -5   7    2.51    2.63
  -6  -5  -7    4.16    3.79
   6  -5   7    6.41    3.49
   6  -4  -9    1.78    2.36
   6  -4  -8    6.29    3.82
  -6  -4   8    0.42    1.67
   6  -4  -7    6.61    2.87
  -6  -4   7   19.01    4.29
   6  -4  -6   21.09    5.06
  -6  -4   6   33.38    5.48
   6  -4  -5  117.42   10.00
  -6  -4   5  136.20   10.34
   6  -4  -4   83.28    8.11
  -6  -4   4   98.24    8.89
   6  -4  -3  178.36   10.98
  -6  -4   3  181.37   12.19
  -6  -4   2   21.65    4.63
  -6  -4   1    5.74    3.19
  -6  -4   0   63.64    8.13
   6  -4   1    4.89    1.95
  -6  -4  -1    9.11    3.85
  -6  -4  -2   24.37    5.71
   6  -4   2   22.74    3.71
  -6  -4  -3   36.51    6.92
   6  -4   3   31.74    4.47
   6  -4   4   83.05    7.57
  -6  -4  -4   45.50    7.77
  -6  -4  -5   68.94    9.84
   6  -4   5   59.40    6.87
  -6  -4  -6   20.45    5.86
   6  -4   6   20.20    4.41
   6  -4   7    7.14    3.45
  -6  -4  -7   11.96    5.27
   6  -4   7    2.76    2.80
   6  -4   8   -3.00    2.61
  -6  -4  -8   -2.25    2.97
   6  -4   8    3.83    3.33
   6  -3  -9    2.55    2.55
   6  -3  -8    5.82    3.03
  -6  -3   8    7.31    2.98
   6  -3  -7    4.13    2.83
  -6  -3   7    1.72    2.14
   6  -3  -6   55.32    7.30
  -6  -3   6   43.27    6.03
   6  -3  -5   67.89    7.45
  -6  -3   5   80.37    7.89
   6  -3  -4  112.70    8.90
  -6  -3   4  124.69    9.78
   6  -3  -3   80.07    7.02
  -6  -3   3   83.98    8.23
  -6  -3   2   36.50    5.58
  -6  -3   1   28.64    5.42
  -6  -3   0  131.98   10.89
  -6  -3  -1  132.22   11.42
   6  -3   1  130.48    7.57
  -6  -3  -2  311.06   17.48
   6  -3   2  310.23   12.22
   6  -3   3   43.34    5.00
  -6  -3  -3   34.76    6.36
  -6  -3  -4   48.09    7.64
   6  -3   4   36.70    5.00
  -6  -3  -5    1.97    2.63
   6  -3   5    4.52    2.44
  -6  -3  -6   10.25    4.49
   6  -3   6   14.36    3.82
   6  -3   7    7.29    2.85
  -6  -3  -7   12.23    4.54
   6  -3   7    6.95    3.30
   6  -3   8    6.75    3.26
  -6  -3  -8   10.17    4.62
   6  -3   8    5.42    2.91
   6  -2  -9   16.99    5.06
   6  -2  -8   16.14    4.39
   6  -2  -7   16.41    4.32
  -6  -2   7    9.15    3.31
   6  -2  -6   35.99    5.63
  -6  -2   6   35.95    5.45
   6  -2  -5   11.96    3.56
  -6  -2   5   18.41    4.11
   6  -2  -4    4.10    1.54
  -6  -2   4    7.02    2.67
  -6  -2   3   18.32    4.05
   6  -2  -3   16.98    3.18
  -6  -2   2   26.28    4.88
  -6  -2   1    4.16    2.30
  -6  -2   0    3.70    2.40
  -6  -2  -1   37.99    5.89
  -6  -2  -2   48.50    6.78
  -6  -2  -3  132.41   11.46
   6  -2   3  131.73    8.23
  -6  -2  -4   17.08    4.93
   6  -2   4    9.30    2.76
   6  -2   5   54.86    6.21
  -6  -2  -5   50.34    7.59
  -6  -2  -6   12.65    4.11
   6  -2   6    5.21    2.81
  -6  -2  -7   16.46    5.08
   6  -2   7   15.32    3.87
   6  -2   8    3.52    2.52
   6  -1  -9   -0.10    2.77
   6  -1  -8    8.73    3.46
   6  -1  -7    7.86    3.21
  -6  -1   7    4.23    2.27
   6  -1  -6   38.87    5.48
  -6  -1   6   57.35    6.88
   6  -1  -5   79.50    7.35
  -6  -1   5   88.67    8.24
   6  -1  -4  193.19   10.61
  -6  -1   4  214.14   12.17
   6  -1  -3   47.43    4.89
  -6  -1   3   50.60    6.15
  -6  -1   2   30.52    4.74
  -6  -1   1   59.86    6.76
  -6  -1   0  178.96   11.61
   6  -1   0  187.31    8.00
  -6  -1  -1   44.60    6.31
   6  -1   1   42.01    4.35
  -6  -1  -2   21.32    4.82
   6  -1   2   11.81    2.71
  -6  -1  -3  139.94   11.21
   6  -1   3  135.94    8.88
  -6  -1  -4   93.07    9.51
   6  -1   4   68.67    6.77
   6  -1   4   81.49    6.82
   6  -1   5   22.33    4.28
   6  -1   5   25.20    4.22
  -6  -1  -5   20.29    5.10
   6  -1   6    7.71    2.93
  -6  -1  -6   10.18    3.69
   6  -1   6   10.30    3.36
   6  -1   7    2.06    2.56
   6  -1   7   14.77    4.10
   6  -1   8    4.45    2.73
   6  -1   8    7.72    3.58
   6  -1   9   14.81    4.17
   6  -1   9   17.23    4.56
   6   0 -10    4.29    3.43
   6   0  -9   12.83    4.42
   6   0  -8    6.99    2.95
   6   0  -7   20.17    4.47
   6   0  -6    2.71    2.39
  -6   0   6    0.52    2.36
   6   0  -5   12.51    3.17
  -6   0   5   16.49    3.84
   6   0  -4    3.62    1.91
  -6   0   4    0.96    1.98
   6   0  -3   58.49    5.19
  -6   0   3   48.84    5.87
  -6   0   2    2.17    2.03
  -6   0   1   80.24    7.37
  -6   0   0   93.94    8.00
   6   0   0   88.08    5.76
  -6   0  -1   52.58    6.23
   6   0   1   54.49    5.06
  -6   0  -2  775.69   23.79
   6   0   2  730.61   19.43
  -6   0  -3   40.85    5.96
   6   0   3   40.43    5.47
  -6   0  -4  332.69   16.52
   6   0   4  355.25   15.38
   6   0   5   76.68    7.75
   6   0   5   76.10    7.00
  -6   0  -5   61.10    7.32
   6   0   6   84.64    8.57
   6   0   6   90.73    8.24
   6   0   7    6.63    2.73
   6   0   7   10.43    3.30
   6   0   8    6.86    3.17
   6   0   8    6.53    2.98
   6   0   9   -0.27    2.24
  -6   0  -9    2.67    3.54
   6   1  -9    7.65    3.37
   6   1  -8    4.52    3.22
   6   1  -7    7.67    2.89
   6   1  -6   60.23    6.87
   6   1  -5   85.87    7.47
  -6   1   5   80.23    7.99
   6   1  -4  208.80   10.68
  -6   1   4  202.31   11.97
   6   1  -3   51.59    4.94
  -6   1   3   52.67    6.02
  -6   1   2   31.80    4.74
  -6   1   1   53.93    5.91
  -6   1   0  189.66   10.73
   6   1   0  188.97    9.08
   6   1   1   32.97    4.26
  -6   1  -1   38.79    5.12
   6   1   2   11.88    2.95
  -6   1  -2   11.29    2.96
  -6   1  -3  139.82    9.84
   6   1   3  144.83    9.70
  -6   1  -4   84.39    7.82
   6   1   4   92.72    8.22
   6   1   5   19.79    4.34
   6   1   6   15.44    4.23
   6   1   7    7.76    3.35
  -6   1  -8   10.37    5.11
   6   1   8    9.55    3.64
  -6   1  -9   14.09    5.56
   6   1   9   15.62    4.23
   6   2  -9   22.29    5.23
   6   2  -8   27.47    5.59
   6   2  -6   33.82    4.10
   6   2  -5    7.32    2.23
  -6   2   4    6.39    2.99
  -6   2   3   17.35    3.82
  -6   2   2   25.14    4.18
  -6   2   1    3.04    1.98
   6   2  -1    6.13    2.06
  -6   2   0    6.12    2.56
   6   2   0    1.50    1.73
  -6   2  -1   34.24    4.52
   6   2   1   30.76    4.34
  -6   2  -2   42.39    4.96
   6   2   2   37.90    5.07
  -6   2  -3  113.27    8.08
   6   2   3  129.53    9.56
   6   2   4    5.46    2.92
   6   2   5   36.52    5.83
   6   2   6    8.28    3.47
  -6   2  -7   13.98    5.42
   6   2   7    7.29    3.14
  -6   2  -8    2.13    3.84
   6   2   8    2.35    2.63
   6   3  -6   44.52    5.07
   6   3  -5   84.52    6.68
   6   3  -4  121.95    7.99
   6   3  -3   73.40    6.24
  -6   3   3   80.45    7.81
  -6   3   2   34.25    4.82
  -6   3   1   18.00    3.63
   6   3  -1   21.91    3.69
   6   3   0  130.09    8.77
  -6   3   0  117.13    8.09
   6   3   1  155.79   10.04
  -6   3  -1  146.53    8.77
   6   3   2  298.13   14.53
  -6   3  -2  320.89   12.64
   6   3   3   58.19    7.02
   6   3   4   48.86    6.83
   6   3   5    6.01    2.76
  -6   3  -5    3.09    3.04
   6   3   6   19.81    4.81
  -6   3  -6   25.55    6.33
   6   3   7   11.87    4.55
  -6   3  -7   11.78    5.00
  -6   3  -8   11.56    4.82
   6   3   8    8.94    4.08
   6   4  -7   19.65    3.67
   6   4  -6   23.76    4.02
   6   4  -5  116.82    8.34
   6   4  -4   93.18    7.40
   6   4  -3  178.52   10.03
   6   4  -2   17.81    3.48
  -6   4   1   11.15    3.12
   6   4  -1    8.73    2.62
   6   4   0   54.21    5.98
  -6   4   0   52.32    5.57
  -6   4  -1    4.43    2.01
   6   4   1    7.81    2.91
   6   4   2   24.51    4.73
  -6   4  -2   26.14    5.69
  -6   4  -3   35.52    6.67
   6   4   3   42.37    6.41
  -6   4  -4   64.54    8.89
   6   4   4   64.32    7.79
  -6   4  -5   74.26   10.18
   6   4   5   58.14    8.01
   6   4   6   29.85    5.91
  -6   4  -6   25.61    6.73
   6   4   7    3.96    3.55
  -6   4  -7    6.09    4.40
   6   4   8    5.17    3.80
  -6   4  -8   10.04    5.42
   6   5  -7    1.01    1.82
   6   5  -6    8.90    2.95
   6   5  -5   12.49    3.43
   6   5  -4   27.63    4.31
   6   5  -3   39.34    5.11
   6   5  -2   14.52    3.34
  -6   5   1  188.25   12.36
   6   5  -1  191.77   10.66
   6   5   0   74.42    7.57
  -6   5   0   75.20    8.32
  -6   5  -1   46.79    7.01
   6   5   1   41.15    5.95
  -6   5  -2    6.65    3.44
   6   5   2    4.00    2.36
   6   5   3   21.49    5.04
  -6   5  -3   23.04    5.86
   6   5   4   40.17    6.78
  -6   5  -4   42.36    7.73
  -6   5  -5   17.42    5.84
   6   5   5   20.69    5.55
  -6   5  -6   44.42    8.59
   6   5   6   35.49    6.75
   6   5   7    6.20    3.74
  -6   5  -7    5.27    3.60
   6   6  -7    2.80    2.45
   6   6  -6    7.57    2.76
   6   6  -5    7.38    3.06
  -6   6   5    7.27    2.81
   6   6  -4   36.60    5.23
   6   6  -3   10.86    3.14
   6   6  -2    5.06    2.40
   6   6  -1   50.52    5.80
  -6   6   0    6.66    3.10
   6   6   0    7.91    2.83
   6   6   1   20.62    4.73
  -6   6  -1   15.53    4.44
   6   6   2   63.20    7.89
  -6   6  -2   65.06    8.50
  -6   6  -3    5.48    3.44
   6   6   3    1.47    3.04
   6   6   4   17.59    5.16
  -6   6  -4   14.22    5.01
   6   6   5    9.35    3.83
  -6   6  -5    9.67    4.36
  -6   6  -6    2.10    3.97
   6   6   6   11.67    4.37
   6   7  -6    9.73    3.32
  -6   7   6    6.53    2.48
   6   7  -5    7.16    3.15
  -6   7   5    6.42    2.85
   6   7  -4   -0.51    1.89
   6   7  -3   17.58    3.86
   6   7  -2    8.17    3.00
   6   7  -1   11.11    3.18
  -6   7   0   17.30    4.48
   6   7   0   14.10    3.54
  -6   7  -1    7.18    3.53
   6   7   2   14.36    4.34
  -6   7  -2   14.14    4.25
   6   7   3   31.70    6.13
  -6   7  -3   22.61    5.73
  -6   7  -4    2.58    3.36
   6   7   4    6.68    3.38
   6   7   5   19.87    5.61
  -6   7  -5   14.46    4.81
   6   8  -5   13.97    4.20
  -6   8   5    5.48    2.72
   6   8  -4   -0.09    1.96
   6   8  -3   -4.52    2.48
   6   8  -2   -0.05    1.89
   6   8  -1   11.04    3.28
   6   8   0    2.62    1.81
  -6   8  -1   25.75    5.60
   6   8   1   27.56    4.77
  -6   8  -2    7.61    3.90
   6   8   2   10.42    4.23
  -6   8  -3    5.44    3.45
   6   8   3    6.68    4.03
   6   8   4    9.60    4.61
  -6   8  -4    7.22    4.02
   6   9  -3    4.01    2.57
   6   9  -2   28.97    5.23
   6   9  -1    3.91    2.70
   6   9   0   23.19    4.71
   6   9   1    7.79    3.08
   6   9   2   14.42    5.02
  -6   9  -2    8.42    3.87
  -7  -8   2   12.40    4.80
  -7  -8   1   -3.78    3.62
  -7  -8   0   12.33    4.76
  -7  -8  -1    6.19    3.63
  -7  -7   5    5.29    2.88
  -7  -7   4    2.48    2.82
  -7  -7   3    0.90    2.51
  -7  -7   2    0.32    2.86
  -7  -7   1    6.33    4.19
  -7  -7   0   12.72    4.83
  -7  -7  -1   10.31    4.69
  -7  -7  -2    5.21    4.25
  -7  -7  -3   18.36    6.14
   7  -7   3   20.43    4.74
  -7  -6   6   17.98    4.57
  -7  -6   5    7.92    3.51
  -7  -6   4    3.83    2.85
  -7  -6   3   23.98    5.35
  -7  -6   2    7.33    3.92
  -7  -6   1   14.08    4.72
  -7  -6   0   31.48    6.81
  -7  -6  -1    3.70    3.92
  -7  -6  -2    2.20    3.21
  -7  -6  -3    1.79    3.69
  -7  -6  -4   40.26    8.29
   7  -6   4   22.22    4.93
  -7  -6  -5    5.26    4.84
   7  -6   5    4.49    2.94
   7  -5  -7    1.28    2.37
  -7  -5   7    2.27    2.76
  -7  -5   6    0.82    1.86
  -7  -5   5    3.24    2.64
  -7  -5   4    8.30    3.61
  -7  -5   3   31.32    5.97
  -7  -5   2   30.52    6.12
  -7  -5   1    9.32    3.30
  -7  -5   0   -0.83    2.36
  -7  -5  -1    3.44    3.86
  -7  -5  -2    1.73    3.55
  -7  -5  -3    7.01    4.14
  -7  -5  -4   13.50    5.05
  -7  -5  -5    3.87    3.97
  -7  -5  -6   12.05    5.42
   7  -5   6    8.43    3.71
   7  -4  -7    2.14    2.74
  -7  -4   7    4.78    3.29
  -7  -4   6    4.89    2.83
  -7  -4   5    3.57    2.84
  -7  -4   4   43.86    6.75
  -7  -4   3    5.76    3.48
  -7  -4   2   23.84    5.26
  -7  -4   1    3.96    3.27
  -7  -4   0   70.32    9.01
  -7  -4  -1   28.67    6.28
  -7  -4  -2   19.63    5.59
  -7  -4  -3    5.38    3.93
  -7  -4  -4   51.85    8.62
  -7  -4  -5    2.51    2.90
  -7  -4  -6    9.28    4.90
   7  -3  -8    1.57    2.74
  -7  -3   8    7.91    3.61
   7  -3  -7    5.74    3.54
  -7  -3   7    1.86    2.24
  -7  -3   6   20.89    5.01
  -7  -3   5   30.21    5.51
  -7  -3   4   38.11    6.25
  -7  -3   3   27.58    5.38
  -7  -3   2   80.57    8.94
  -7  -3   1   50.40    7.36
  -7  -3   0   33.44    6.21
  -7  -3  -1   36.31    6.58
  -7  -3  -2   56.62    8.19
  -7  -3  -3   27.45    6.21
  -7  -3  -4   18.90    5.49
  -7  -3  -5   16.35    4.81
  -7  -3  -6    5.22    3.55
  -7  -3  -7    7.19    4.18
   7  -2  -8   -2.29    2.74
  -7  -2   8    4.19    2.86
   7  -2  -7   12.86    3.90
  -7  -2   7   10.92    4.08
  -7  -2   6   19.40    4.57
  -7  -2   5   10.45    3.86
  -7  -2   4    0.54    1.97
  -7  -2   3   12.94    3.93
  -7  -2   2    2.55    2.22
  -7  -2   1   29.39    5.48
  -7  -2   0    8.62    3.44
  -7  -2  -1   31.42    5.96
  -7  -2  -2   28.29    5.86
  -7  -2  -3   57.72    8.27
  -7  -2  -4   37.88    6.93
  -7  -2  -5   35.26    6.75
  -7  -2  -6   17.69    5.30
   7  -1  -8    8.76    3.45
   7  -1  -7    4.52    2.97
  -7  -1   7    6.72    3.47
   7  -1  -6   17.00    4.04
  -7  -1   6   14.86    4.36
  -7  -1   5    8.57    3.21
  -7  -1   4   65.42    7.46
  -7  -1   3   20.37    4.45
  -7  -1   2   16.64    4.27
  -7  -1   1    6.39    2.88
  -7  -1   0   31.08    5.42
  -7  -1  -1   28.88    5.43
  -7  -1  -2   12.76    4.26
   7  -1   2   15.84    3.40
  -7  -1  -3   13.36    4.16
   7  -1   3    8.80    2.88
  -7  -1  -4   79.84    9.31
   7  -1   4   80.51    7.74
   7  -1   5   16.33    3.87
  -7  -1  -5   19.74    5.03
   7  -1   6    1.62    2.00
   7  -1   7    2.99    2.73
   7   0  -8    3.41    3.14
   7   0  -7   25.05    5.05
   7   0  -6    3.36    2.23
  -7   0   6    6.39    3.30
  -7   0   5    6.27    3.24
  -7   0   4   12.37    4.15
  -7   0   3   21.61    4.38
  -7   0   2   -1.33    1.62
  -7   0   1    9.49    3.21
  -7   0   0   39.73    5.91
  -7   0  -1   23.45    4.97
  -7   0  -2   69.81    7.93
   7   0   2   64.38    6.31
  -7   0  -3  103.73    9.90
   7   0   3  122.58    9.08
  -7   0  -4   58.30    7.49
   7   0   4   85.04    8.15
   7   0   5   24.59    4.74
   7   0   6   25.55    5.31
   7   0   7   11.46    4.04
   7   1  -8   14.43    4.03
   7   1  -7   11.13    3.41
   7   1  -6   19.09    4.10
  -7   1   5   11.13    3.37
  -7   1   4   60.56    7.39
  -7   1   3   24.16    4.63
  -7   1   2   14.77    3.62
  -7   1   1   14.50    3.47
  -7   1   0   24.06    4.55
  -7   1  -1   15.76    3.59
   7   1   1   21.54    3.77
  -7   1  -2    9.83    3.32
   7   1   2    7.28    2.49
  -7   1  -3   12.64    3.47
   7   1   3   14.06    3.46
   7   1   4   96.38    8.80
   7   1   5   14.84    4.09
   7   1   6    3.27    2.49
   7   1   7    5.71    2.93
   7   2  -8    3.19    2.96
   7   2  -7    8.28    3.00
   7   2  -6   21.15    4.46
  -7   2   4    5.82    3.06
  -7   2   3   16.96    3.97
  -7   2   2    5.22    2.63
  -7   2   1   33.35    5.03
  -7   2   0    8.61    2.76
   7   2   1   30.82    4.56
  -7   2  -1   30.88    4.68
   7   2   2   33.99    5.11
  -7   2  -2   30.66    4.70
   7   2   3   53.06    6.67
   7   2   4   34.97    5.94
   7   2   5   38.14    6.39
   7   2   6   10.90    3.82
  -7   2  -7    3.18    4.12
   7   2   7   12.26    4.78
   7   3  -8    5.40    2.87
   7   3  -6   13.48    3.13
  -7   3   3   28.32    5.08
  -7   3   2   85.57    8.16
  -7   3   1   41.19    5.51
  -7   3   0   35.56    5.00
  -7   3  -1   35.92    4.89
   7   3   1   36.16    5.30
   7   3   2   59.03    6.99
   7   3   3   15.07    4.15
   7   3   4   15.50    4.26
   7   3   5   19.49    4.81
  -7   3  -5   12.86    5.04
   7   3   6    5.67    3.61
  -7   3  -6    4.90    4.20
  -7   3  -7    5.64    4.08
   7   3   7   -0.78    3.22
   7   4  -6    5.95    2.42
   7   4  -5    0.92    1.70
   7   4  -4   30.22    4.61
  -7   4   1    0.96    2.11
  -7   4   0   67.59    6.97
   7   4   1   26.87    4.97
   7   4   2   10.91    3.65
  -7   4  -3    9.48    4.60
   7   4   3    9.97    3.91
   7   4   4   36.75    6.32
  -7   4  -4   42.63    8.45
   7   4   5    4.21    3.49
  -7   4  -5   11.81    4.65
   7   4   6    0.42    2.45
  -7   4  -6   11.53    5.90
   7   5  -7   -1.56    1.62
   7   5  -6    6.24    2.73
   7   5  -5    4.04    2.03
   7   5  -4   14.67    3.41
   7   5  -3   35.66    5.29
  -7   5   0   -0.25    2.47
   7   5   0    4.29    2.56
  -7   5  -1    0.81    2.14
   7   5   1    1.60    2.55
   7   5   2    7.36    3.09
  -7   5  -2    9.10    4.45
  -7   5  -3    9.26    4.42
   7   5   3    6.85    3.61
  -7   5  -4   14.98    5.17
   7   5   4   21.88    5.41
  -7   5  -5    4.35    3.58
   7   5   5   12.43    4.84
   7   5   6   13.54    4.67
  -7   5  -6    7.83    4.43
   7   6  -6   13.28    3.50
   7   6  -5    6.08    2.82
   7   6  -4    3.92    2.47
   7   6  -3   37.44    5.55
   7   6  -2    4.83    2.65
  -7   6   0   31.16    6.08
   7   6   0   32.45    5.49
   7   6   1    1.83    2.20
  -7   6  -1    7.04    4.01
  -7   6  -2    7.83    4.22
   7   6   2    5.78    3.40
   7   6   3   -1.08    2.35
  -7   6  -3    4.44    3.90
  -7   6  -4   29.24    7.17
   7   6   4   22.56    5.71
  -7   6  -5    3.52    3.13
   7   6   5    8.69    4.40
   7   7  -5    3.55    2.17
   7   7  -4    6.17    3.08
   7   7  -3    2.47    1.92
   7   7  -2    6.44    2.91
   7   7  -1    8.74    3.19
   7   7   0    4.56    2.62
  -7   7  -1   17.71    5.37
   7   7   1   14.47    4.28
   7   7   2   13.55    4.68
  -7   7  -2    5.82    3.60
  -7   7  -3   26.56    6.93
   7   7   3   15.30    4.67
   7   8  -2    8.70    3.53
   7   8  -1    0.61    1.97
   7   8   0   10.66    3.86
   7   8   1    3.18    2.75
  -8  -6   3    3.11    2.90
  -8  -6   2   14.74    5.10
  -8  -6   1   12.35    4.84
  -8  -6   0    7.92    3.94
  -8  -6  -1    3.65    3.87
  -8  -6  -2   14.74    6.09
  -8  -5   5    3.53    2.46
  -8  -5   4   24.62    5.62
  -8  -5   3   36.70    7.00
  -8  -5   2    6.67    4.00
  -8  -5   1   17.16    5.45
  -8  -5   0    5.05    3.87
  -8  -5  -1   -1.23    2.67
  -8  -5  -2    3.20    3.36
  -8  -5  -3    3.83    3.95
  -8  -4   5   13.06    4.34
  -8  -4   4   18.29    4.99
  -8  -4   3   10.73    4.08
  -8  -4   2   16.50    5.30
  -8  -4   1   23.66    5.94
  -8  -4   0   10.24    4.28
  -8  -4  -1    7.58    4.13
  -8  -4  -2   26.99    6.76
  -8  -4  -3    6.45    3.55
  -8  -4  -4   12.07    4.88
  -8  -3   6    3.40    2.77
  -8  -3   5   18.80    4.84
  -8  -3   4   13.17    3.94
  -8  -3   3   11.04    4.19
  -8  -3   2   12.62    4.71
  -8  -3   1    8.35    3.61
  -8  -3   0   22.55    5.57
  -8  -3  -1   16.66    5.15
  -8  -3  -2    2.65    3.26
  -8  -3  -3   10.74    4.51
  -8  -3  -4   18.95    5.90
  -8  -3  -5    3.85    3.16
  -8  -2   6    3.12    2.65
  -8  -2   5    5.40    3.47
  -8  -2   4    6.17    2.67
  -8  -2   3    5.30    3.02
  -8  -2   2   26.86    5.64
  -8  -2   1   28.99    5.98
  -8  -2   0   11.74    4.13
  -8  -2  -1   25.49    5.55
  -8  -2  -2   61.34    8.53
  -8  -2  -3   18.10    5.08
  -8  -2  -4    6.82    4.12
  -8  -2  -5    7.83    3.74
  -8  -1   7    6.06    3.55
  -8  -1   6    1.69    2.01
  -8  -1   5    1.97    2.85
  -8  -1   4    5.74    3.65
  -8  -1   3    4.56    2.85
  -8  -1   2   22.71    4.88
  -8  -1   1   28.73    5.55
  -8  -1   0   23.85    5.18
  -8  -1  -1    3.81    2.85
  -8  -1  -2    5.92    3.69
  -8  -1  -3    3.58    2.61
  -8  -1  -4    8.54    3.59
   8  -1   4    5.90    2.83
  -8  -1  -5   10.46    4.27
   8  -1   5    6.88    3.04
  -8   0   6    1.42    2.59
  -8   0   5   10.09    3.50
  -8   0   4    2.75    2.32
  -8   0   3   39.29    6.15
  -8   0   2    4.52    2.63
  -8   0   1    1.07    2.29
  -8   0   0   70.11    8.35
  -8   0  -1   13.41    3.99
  -8   0  -2    1.94    2.99
  -8   0  -3    5.11    2.95
  -8   0  -4    5.51    3.05
   8   0   4    5.46    2.71
   8   0   5    1.49    2.08
  -8   1   6   -0.21    2.44
  -8   1   5    0.38    1.98
  -8   1   4    8.03    3.37
  -8   1   3    7.48    3.26
  -8   1   2   25.64    5.19
  -8   1   1   17.45    4.45
  -8   1   0   32.60    5.35
  -8   1  -1    5.13    2.94
  -8   1  -2   10.32    3.42
  -8   1  -3    2.13    2.08
   8   1   4    6.00    2.79
   8   1   5   12.09    4.10
  -8   2   5    6.49    2.97
  -8   2   4   10.36    3.86
  -8   2   3    6.34    2.80
  -8   2   2   34.86    6.04
  -8   2   1   21.62    4.52
  -8   2   0    6.02    2.89
  -8   2  -1   27.08    4.97
  -8   2  -2   58.78    6.98
   8   2   3   16.44    4.07
   8   2   4   10.28    3.67
   8   2   5    0.59    2.37
  -8   3   3   13.34    3.99
  -8   3   2   16.18    4.28
  -8   3   1   14.81    4.01
  -8   3   0   23.48    4.61
  -8   3  -1   17.40    3.90
   8   3   3   12.63    3.94
   8   3   4   11.88    4.09
  -8   3  -5    6.25    3.94
   8   3   5    3.33    3.05
  -8   4   1   25.98    4.82
   8   4   3    4.42    2.87
  -8   4  -3    7.17    4.67
   8   4   4   12.58    4.29
  -8   4  -4   15.56    5.61
  -8   5   0    2.55    2.75
  -8   5  -1    5.60    3.76
  -8   5  -2    6.78    4.07
  -8   5  -3   15.31    5.77
   8   5   3    3.51    3.08
  -8   6  -1    5.31    3.90
  -8   6  -2    1.74    2.50
   8   6   2    3.10    3.18
  -9  -3   3    0.84    2.96
  -9  -3   2    7.07    4.22
  -9  -3   1   12.92    4.53
  -9  -3   0    8.86    4.51
  -9  -3  -1    7.72    4.47
  -9  -2   4    3.81    3.11
  -9  -2   3    3.89    2.97
  -9  -2   2    9.14    4.12
  -9  -2   1    5.28    3.58
  -9  -2   0   11.52    4.52
  -9  -2  -1    5.84    3.76
  -9  -2  -2    8.55    4.34
  -9  -1   4   -1.23    2.10
  -9  -1   3   10.34    3.96
  -9  -1   2    6.15    3.54
  -9  -1   1    8.03    3.90
  -9  -1   0    5.20    3.36
  -9  -1  -1    3.94    3.10
  -9  -1  -2   14.08    4.53
  -9  -1  -3    7.25    3.76
  -9   0   4    4.88    2.82
  -9   0   3    0.43    2.58
  -9   0   2    4.84    2.89
  -9   0   1    1.15    2.38
  -9   0   0   11.67    4.30
  -9   0  -1    1.43    2.42
  -9   0  -2    5.32    3.24
  -9   0  -3    5.24    3.49
  -9   1   4   -2.09    2.18
  -9   1   3   15.14    4.61
  -9   1   2    4.28    2.37
  -9   1   1    5.61    2.59
  -9   1   0    4.96    3.25
  -9   1  -1    5.09    2.79
  -9   1  -2    6.94    3.58
  -9   2   4    4.66    2.84
  -9   2   3    8.99    3.99
  -9   2   2   -0.06    2.64
  -9   2   1    3.53    3.04
  -9   2   0   16.92    4.32
  -9   2  -1    4.59    2.56
  -9   3   3    1.95    2.49
  -9   3   2    5.72    3.24
  -9   3   1    7.89    3.53
  -9   3   0    3.20    2.43
   0   0   0    0.00    0.00


TITL ARL-SATM-C11 in P2(1)
REM P2(1) (#4 in standard setting)
CELL 0.71073   7.602748   9.831191   9.878340  90.0000  93.5806  90.0000
ZERR    3.00   0.000446   0.000440   0.000439   0.0000   0.0047   0.0000
LATT -1
SYMM -x, y+1/2,-z
SFAC C H N O
UNIT 33.00 30.00 3.00 3.00
TREF
HKLF 4
END
_computing_structure_solution     'SHELXT 2014/5 (Sheldrick, 2014)'
;
_shelx_hkl_checksum              93402
_shelx_shelxl_version_number     2016/4
_olex2_submission_special_instructions 'No special instructions were received'
_oxdiff_exptl_absorpt_empirical_details
;
Empirical correction (ABSPACK) includes:
- Absorption correction using spherical harmonics
- Frame scaling
;
_oxdiff_exptl_absorpt_empirical_full_max 1.667
_oxdiff_exptl_absorpt_empirical_full_min 0.569
loop_
_space_group_symop_operation_xyz
'x, y, z'
'-x, y+1/2, -z'
loop_
_atom_site_label
_atom_site_type_symbol
_atom_site_fract_x
_atom_site_fract_y
_atom_site_fract_z
_atom_site_U_iso_or_equiv
_atom_site_adp_type
_atom_site_occupancy
_atom_site_site_symmetry_order
_atom_site_calc_flag
_atom_site_refinement_flags_posn
O1 O 0.6350(4) 0.6329(3) 0.1561(3) 0.0580(7) Uani 1 1 d .
O2 O 0.6114(5) 0.8510(3) 0.1580(4) 0.0867(10) Uani 1 1 d .
O3 O 0.5505(4) 0.7410(3) 0.3386(3) 0.0737(8) Uani 1 1 d .
O4 O 0.2297(3) 0.7007(2) 0.1382(2) 0.0459(6) Uani 1 1 d .
O5 O 0.1991(4) 0.8992(3) 0.0462(3) 0.0872(10) Uani 1 1 d .
O6 O -0.0227(4) 0.7612(3) 0.0309(3) 0.0785(10) Uani 1 1 d .
O7 O -0.0170(3) 0.3841(3) 0.4275(2) 0.0582(7) Uani 1 1 d .
O8 O -0.2234(4) 0.4383(4) 0.5591(3) 0.0986(12) Uani 1 1 d .
O9 O -0.0099(5) 0.3111(4) 0.6408(3) 0.0921(11) Uani 1 1 d .
O10 O 0.6261(4) 0.1581(2) 0.1662(3) 0.0618(7) Uani 1 1 d .
O11 O 0.6848(5) 0.0947(4) 0.3789(4) 0.0929(12) Uani 1 1 d .
O12 O 0.8898(5) 0.1026(4) 0.2384(5) 0.1126(14) Uani 1 1 d .
N1 N 0.5965(4) 0.7513(3) 0.2248(4) 0.0569(9) Uani 1 1 d .
N2 N 0.1246(5) 0.7936(4) 0.0654(3) 0.0577(8) Uani 1 1 d .
N3 N -0.0882(5) 0.3756(4) 0.5541(3) 0.0673(10) Uani 1 1 d .
N4 N 0.7403(6) 0.1152(4) 0.2712(5) 0.0723(10) Uani 1 1 d .
C1 C 0.4424(4) 0.4388(3) 0.1963(3) 0.0401(8) Uani 1 1 d .
H1 H 0.424410 0.425476 0.098056 0.048 Uiso 1 1 calc R
C2 C 0.2720(4) 0.4945(3) 0.2543(3) 0.0372(7) Uani 1 1 d .
H2 H 0.300557 0.545707 0.337911 0.045 Uiso 1 1 calc R
C3 C 0.2196(4) 0.3467(3) 0.2881(3) 0.0409(8) Uani 1 1 d .
H3 H 0.140647 0.308166 0.215784 0.049 Uiso 1 1 calc R
C4 C 0.4136(5) 0.3034(4) 0.2715(3) 0.0437(8) Uani 1 1 d .
H4 H 0.479753 0.304044 0.359903 0.052 Uiso 1 1 calc R
C5 C 0.6170(5) 0.5065(4) 0.2299(4) 0.0538(9) Uani 1 1 d .
H5A H 0.629121 0.524890 0.326532 0.065 Uiso 1 1 calc R
H5B H 0.711063 0.445022 0.208295 0.065 Uiso 1 1 calc R
C6 C 0.1438(5) 0.5721(4) 0.1631(3) 0.0454(9) Uani 1 1 d .
H6A H 0.118173 0.523399 0.078791 0.054 Uiso 1 1 calc R
H6B H 0.034431 0.586778 0.206605 0.054 Uiso 1 1 calc R
C7 C 0.1535(5) 0.3177(4) 0.4251(3) 0.0497(9) Uani 1 1 d .
H7A H 0.141723 0.220519 0.438662 0.060 Uiso 1 1 calc R
H7B H 0.234301 0.353783 0.496118 0.060 Uiso 1 1 calc R
C8 C 0.4436(5) 0.1712(4) 0.1996(4) 0.0523(9) Uani 1 1 d .
H8A H 0.413041 0.095998 0.257215 0.063 Uiso 1 1 calc R
H8B H 0.367623 0.167133 0.117105 0.063 Uiso 1 1 calc R
loop_
_atom_site_aniso_label
_atom_site_aniso_U_11
_atom_site_aniso_U_22
_atom_site_aniso_U_33
_atom_site_aniso_U_23
_atom_site_aniso_U_13
_atom_site_aniso_U_12
O1 0.0674(19) 0.0429(15) 0.0654(15) -0.0019(13) 0.0169(13) -0.0063(13)
O2 0.107(3) 0.0421(17) 0.110(2) 0.0130(17) -0.0024(19) -0.0140(17)
O3 0.081(2) 0.075(2) 0.0633(18) -0.0216(16) -0.0045(15) -0.0048(17)
O4 0.0452(14) 0.0391(13) 0.0528(13) 0.0127(10) -0.0023(11) 0.0024(11)
O5 0.100(2) 0.0538(18) 0.109(2) 0.0379(19) 0.0100(18) 0.0014(19)
O6 0.0635(19) 0.089(2) 0.0798(19) 0.0280(17) -0.0220(16) 0.0081(17)
O7 0.0552(16) 0.0744(19) 0.0453(13) 0.0157(13) 0.0061(11) 0.0046(15)
O8 0.073(2) 0.137(3) 0.087(2) 0.011(2) 0.0249(18) 0.020(2)
O9 0.108(3) 0.110(3) 0.0609(17) 0.039(2) 0.0244(18) 0.012(2)
O10 0.082(2) 0.0403(16) 0.0642(16) 0.0025(12) 0.0166(15) 0.0091(14)
O11 0.129(3) 0.081(2) 0.067(2) 0.0078(17) -0.006(2) 0.027(2)
O12 0.070(3) 0.092(3) 0.177(4) -0.023(3) 0.012(3) 0.003(2)
N1 0.052(2) 0.049(2) 0.068(2) -0.0061(19) -0.0080(17) -0.0084(17)
N2 0.066(2) 0.055(2) 0.0523(18) 0.0153(16) 0.0031(16) 0.0138(19)
N3 0.070(3) 0.077(3) 0.056(2) 0.0092(19) 0.0173(19) -0.005(2)
N4 0.081(3) 0.044(2) 0.091(3) -0.009(2) -0.002(3) 0.005(2)
C1 0.047(2) 0.0360(18) 0.0366(16) 0.0003(14) 0.0021(14) 0.0016(16)
C2 0.042(2) 0.0353(17) 0.0335(16) -0.0005(13) -0.0042(13) -0.0036(16)
C3 0.049(2) 0.0378(18) 0.0356(16) 0.0001(14) -0.0042(14) -0.0045(16)
C4 0.055(2) 0.0329(17) 0.0420(17) -0.0013(15) -0.0020(15) 0.0013(17)
C5 0.048(2) 0.044(2) 0.070(2) 0.0029(19) 0.0046(17) 0.0050(19)
C6 0.046(2) 0.0421(19) 0.0469(19) 0.0020(15) -0.0069(16) -0.0034(17)
C7 0.057(2) 0.048(2) 0.0443(18) 0.0107(16) 0.0015(16) -0.0018(19)
C8 0.062(3) 0.040(2) 0.054(2) -0.0010(16) -0.0022(18) 0.0026(19)
loop_
_atom_type_symbol
_atom_type_description
_atom_type_scat_dispersion_real
_atom_type_scat_dispersion_imag
_atom_type_scat_source
C C 0.0033 0.0016 'International Tables Vol C Tables 4.2.6.8 and 6.1.1.4'
H H 0.0000 0.0000 'International Tables Vol C Tables 4.2.6.8 and 6.1.1.4'
N N 0.0061 0.0033 'International Tables Vol C Tables 4.2.6.8 and 6.1.1.4'
O O 0.0106 0.0060 'International Tables Vol C Tables 4.2.6.8 and 6.1.1.4'
loop_
_geom_angle_atom_site_label_1
_geom_angle_atom_site_label_2
_geom_angle_atom_site_label_3
_geom_angle
N1 O1 C5 116.3(3)
N2 O4 C6 114.3(3)
N3 O7 C7 112.6(3)
N4 O10 C8 115.0(3)
O2 N1 O1 112.9(3)
O2 N1 O3 129.1(4)
O3 N1 O1 118.0(3)
O5 N2 O4 112.9(3)
O6 N2 O4 118.2(3)
O6 N2 O5 128.9(3)
O8 N3 O7 112.7(3)
O9 N3 O7 118.1(4)
O9 N3 O8 129.2(4)
O11 N4 O10 119.0(4)
O11 N4 O12 128.1(5)
O12 N4 O10 112.9(5)
C2 C1 H1 110.2
C4 C1 H1 110.2
C4 C1 C2 88.8(2)
C5 C1 H1 110.2
C5 C1 C2 120.6(3)
C5 C1 C4 115.1(3)
C1 C2 H2 110.3
C3 C2 C1 88.9(2)
C3 C2 H2 110.3
C6 C2 C1 119.1(3)
C6 C2 H2 110.3
C6 C2 C3 116.2(3)
C2 C3 H3 111.1
C2 C3 C4 88.6(2)
C4 C3 H3 111.1
C7 C3 C2 118.5(3)
C7 C3 H3 111.1
C7 C3 C4 114.6(3)
C1 C4 C3 88.8(2)
C1 C4 H4 110.0
C3 C4 H4 110.0
C8 C4 C1 119.1(3)
C8 C4 C3 117.3(3)
C8 C4 H4 110.0
O1 C5 C1 112.2(3)
O1 C5 H5A 109.2
O1 C5 H5B 109.2
C1 C5 H5A 109.2
C1 C5 H5B 109.2
H5A C5 H5B 107.9
O4 C6 C2 105.3(2)
O4 C6 H6A 110.7
O4 C6 H6B 110.7
C2 C6 H6A 110.7
C2 C6 H6B 110.7
H6A C6 H6B 108.8
O7 C7 C3 106.2(3)
O7 C7 H7A 110.5
O7 C7 H7B 110.5
C3 C7 H7A 110.5
C3 C7 H7B 110.5
H7A C7 H7B 108.7
O10 C8 C4 111.1(3)
O10 C8 H8A 109.4
O10 C8 H8B 109.4
C4 C8 H8A 109.4
C4 C8 H8B 109.4
H8A C8 H8B 108.0
loop_
_geom_bond_atom_site_label_1
_geom_bond_atom_site_label_2
_geom_bond_distance
O1 N1 1.389(4)
O1 C5 1.452(4)
O2 N1 1.191(4)
O3 N1 1.202(4)
O4 N2 1.386(3)
O4 C6 1.450(4)
O5 N2 1.203(4)
O6 N2 1.193(4)
O7 N3 1.395(4)
O7 C7 1.453(4)
O8 N3 1.203(4)
O9 N3 1.194(4)
O10 N4 1.376(5)
O10 C8 1.452(4)
O11 N4 1.185(5)
O12 N4 1.208(5)
C1 H1 0.9800
C1 C2 1.549(5)
C1 C4 1.547(5)
C1 C5 1.503(5)
C2 H2 0.9800
C2 C3 1.548(4)
C2 C6 1.495(4)
C3 H3 0.9800
C3 C4 1.554(5)
C3 C7 1.501(4)
C4 H4 0.9800
C4 C8 1.505(5)
C5 H5A 0.9700
C5 H5B 0.9700
C6 H6A 0.9700
C6 H6B 0.9700
C7 H7A 0.9700
C7 H7B 0.9700
C8 H8A 0.9700
C8 H8B 0.9700
loop_
_geom_torsion_atom_site_label_1
_geom_torsion_atom_site_label_2
_geom_torsion_atom_site_label_3
_geom_torsion_atom_site_label_4
_geom_torsion
N1 O1 C5 C1 97.1(3)
N2 O4 C6 C2 -174.1(3)
N3 O7 C7 C3 -174.8(3)
N4 O10 C8 C4 80.7(4)
C1 C2 C3 C4 16.6(2)
C1 C2 C3 C7 134.1(3)
C1 C2 C6 O4 -70.7(3)
C1 C4 C8 O10 62.8(4)
C2 C1 C4 C3 16.6(2)
C2 C1 C4 C8 137.5(3)
C2 C1 C5 O1 -75.4(4)
C2 C3 C4 C1 -16.6(2)
C2 C3 C4 C8 -139.1(3)
C2 C3 C7 O7 68.5(4)
C3 C2 C6 O4 -175.1(3)
C3 C4 C8 O10 167.8(3)
C4 C1 C2 C3 -16.7(2)
C4 C1 C2 C6 -136.4(3)
C4 C1 C5 O1 -179.9(3)
C4 C3 C7 O7 171.2(3)
C5 O1 N1 O2 -179.0(3)
C5 O1 N1 O3 -0.5(4)
C5 C1 C2 C3 -135.4(3)
C5 C1 C2 C6 104.9(3)
C5 C1 C4 C3 140.2(3)
C5 C1 C4 C8 -98.9(4)
C6 O4 N2 O5 -180.0(3)
C6 O4 N2 O6 0.2(4)
C6 C2 C3 C4 138.8(3)
C6 C2 C3 C7 -103.7(4)
C7 O7 N3 O8 175.2(4)
C7 O7 N3 O9 -4.1(5)
C7 C3 C4 C1 -137.6(3)
C7 C3 C4 C8 100.0(4)
C8 O10 N4 O11 -1.2(5)
C8 O10 N4 O12 178.4(3)
