#------------------------------------------------------------------------------
#$Date: 2019-11-02 06:13:42 +0200 (Sat, 02 Nov 2019) $
#$Revision: 220783 $
#$URL: file:///home/coder/svn-repositories/cod/cif/4/12/75/4127570.cif $
#------------------------------------------------------------------------------
#
# This file is available in the Crystallography Open Database (COD),
# http://www.crystallography.net/
#
# All data on this site have been placed in the public domain by the
# contributors.
#
data_4127570
loop_
_publ_author_name
'Zheng, Hao'
'Ye, Hebo'
'Yu, Xiaoxia'
'You, Lei'
_publ_section_title
;
 Interplay between n\\rightarrow \p* Interactions and Dynamic Covalent
 Bonds: Quantification and Modulation by Solvent Effects.
;
_journal_issue                   22
_journal_name_full               'Journal of the American Chemical Society'
_journal_page_first              8825
_journal_page_last               8833
_journal_paper_doi               10.1021/jacs.9b01006
_journal_volume                  141
_journal_year                    2019
_chemical_absolute_configuration unk
_chemical_formula_moiety         'C14 H12 O2'
_chemical_formula_sum            'C14 H12 O2'
_chemical_formula_weight         212.24
_space_group_crystal_system      monoclinic
_space_group_IT_number           4
_space_group_name_Hall           'P 2yb'
_space_group_name_H-M_alt        'P 1 21 1'
_symmetry_space_group_name_Hall  'P 2yb'
_symmetry_space_group_name_H-M   'P 1 21 1'
_atom_sites_solution_hydrogens   geom
_atom_sites_solution_primary     direct
_atom_sites_solution_secondary   difmap
_audit_creation_date             2018-07-14
_audit_creation_method
;
Olex2 1.2
(compiled 2018.05.29 svn.r3508 for OlexSys, GUI svn.r5506)
;
_cell_angle_alpha                90.00
_cell_angle_beta                 108.663(2)
_cell_angle_gamma                90.00
_cell_formula_units_Z            2
_cell_length_a                   7.6256(4)
_cell_length_b                   7.4766(3)
_cell_length_c                   9.9777(5)
_cell_measurement_reflns_used    5121
_cell_measurement_temperature    100(2)
_cell_measurement_theta_max      25.414
_cell_measurement_theta_min      2.950
_cell_volume                     538.95(5)
_computing_cell_refinement       'SAINT V8.38A (?, 2016)'
_computing_data_reduction        'SAINT V8.38A (?, 2016)'
_computing_molecular_graphics    'Olex2 (Dolomanov et al., 2009)'
_computing_publication_material  'Olex2 (Dolomanov et al., 2009)'
_computing_structure_refinement  'XL (Sheldrick, 2008)'
_computing_structure_solution    'SHELXS-97 (Sheldrick, 1990)'
_diffrn_ambient_temperature      100.15
_diffrn_measured_fraction_theta_full 0.977
_diffrn_measured_fraction_theta_max 0.977
_diffrn_measurement_device_type  'CCD area detector'
_diffrn_measurement_method       'phi and omega scans'
_diffrn_radiation_monochromator  graphite
_diffrn_radiation_type           MoK\a
_diffrn_radiation_wavelength     0.71073
_diffrn_reflns_av_R_equivalents  0.0254
_diffrn_reflns_av_unetI/netI     0.0250
_diffrn_reflns_limit_h_max       9
_diffrn_reflns_limit_h_min       -9
_diffrn_reflns_limit_k_max       8
_diffrn_reflns_limit_k_min       -9
_diffrn_reflns_limit_l_max       12
_diffrn_reflns_limit_l_min       -12
_diffrn_reflns_number            6130
_diffrn_reflns_theta_full        25.41
_diffrn_reflns_theta_max         25.41
_diffrn_reflns_theta_min         2.82
_diffrn_source                   'fine-focus sealed tube'
_exptl_absorpt_coefficient_mu    0.087
_exptl_absorpt_correction_T_max  0.7452
_exptl_absorpt_correction_T_min  0.6893
_exptl_absorpt_correction_type   multi-scan
_exptl_absorpt_process_details
;
SADABS-2016/2 (Bruker,2016/2) was used for absorption correction.
wR2(int) was 0.1173 before and 0.0416 after correction.
The Ratio of minimum to maximum transmission is 0.9250.
The \l/2 correction factor is Not present.
;
_exptl_crystal_density_diffrn    1.308
_exptl_crystal_density_method    'not measured'
_exptl_crystal_description       Prism
_exptl_crystal_F_000             224
_refine_diff_density_max         0.244
_refine_diff_density_min         -0.256
_refine_diff_density_rms         0.101
_refine_ls_abs_structure_details 'Flack H D (1983), Acta Cryst. A39, 876-881'
_refine_ls_abs_structure_Flack   -0.1(10)
_refine_ls_extinction_method     none
_refine_ls_goodness_of_fit_ref   1.294
_refine_ls_hydrogen_treatment    constr
_refine_ls_matrix_type           full
_refine_ls_number_parameters     146
_refine_ls_number_reflns         1925
_refine_ls_number_restraints     1
_refine_ls_restrained_S_all      1.294
_refine_ls_R_factor_all          0.0294
_refine_ls_R_factor_gt           0.0269
_refine_ls_shift/su_max          0.000
_refine_ls_shift/su_mean         0.000
_refine_ls_structure_factor_coef Fsqd
_refine_ls_weighting_details
'calc w=1/[\s^2^(Fo^2^)+(0.0607P)^2^+0.0279P] where P=(Fo^2^+2Fc^2^)/3'
_refine_ls_weighting_scheme      calc
_refine_ls_wR_factor_gt          0.0861
_refine_ls_wR_factor_ref         0.0970
_reflns_number_gt                1906
_reflns_number_total             1925
_reflns_threshold_expression     >2sigma(I)
_iucr_refine_instructions_details
;
TITL a in P2(1)
CELL 0.71073 7.6256 7.4766 9.9777 90 108.663 90
ZERR 2 0.0004 0.0003 0.0005 0 0.002 0
LATT -1
SYMM -X,0.5+Y,-Z
SFAC C H O
UNIT 28 24 4
 
L.S. 4
PLAN  20
TEMP -173
GRID
BOND
fmap 2
acta
MERG 2
REM <olex2.extras>
REM <HklSrc "%.\\a.hkl">
REM </olex2.extras>
 
WGHT    0.060700    0.027900
FVAR       3.03189
O1    3   -0.794928   -0.032127   -0.393925    11.00000    0.01442    0.01964 =
         0.01988    0.00563    0.00562    0.00215
C2    1   -0.511885    0.096280   -0.416635    11.00000    0.02081    0.01538 =
         0.01464   -0.00008    0.00687    0.00208
AFIX  43
H2    2   -0.578399    0.187508   -0.478429    11.00000   -1.20000
AFIX   0
O3    3   -0.822888   -0.012331   -0.016452    11.00000    0.02215    0.02355 =
         0.02542   -0.00512    0.01080    0.00213
C4    1   -0.221596   -0.046882   -0.291291    11.00000    0.01509    0.02626 =
         0.01736   -0.00237    0.00501   -0.00133
AFIX  43
H4    2   -0.090849   -0.053569   -0.268130    11.00000   -1.20000
AFIX   0
C5    1   -0.316096   -0.171706   -0.236562    11.00000    0.01948    0.01932 =
         0.01213   -0.00105    0.00419    0.00187
AFIX  43
H5    2   -0.248781   -0.263921   -0.176339    11.00000   -1.20000
AFIX   0
C6    1   -0.713406   -0.253730   -0.123137    11.00000    0.01458    0.01534 =
         0.01292    0.00148    0.00164    0.00148
C7    1   -0.605240   -0.029394   -0.362082    11.00000    0.01545    0.01520 =
         0.01393   -0.00338    0.00608    0.00061
C8    1   -0.713718   -0.068203   -0.072075    11.00000    0.01606    0.01883 =
         0.01373    0.00025    0.00368    0.00117
AFIX  43
H8    2   -0.622991    0.012089   -0.083503    11.00000   -1.20000
AFIX   0
C9    1   -0.608107   -0.299942   -0.210988    11.00000    0.01437    0.01675 =
         0.01153    0.00165    0.00204    0.00031
C10   1   -0.319605    0.086974   -0.379674    11.00000    0.02065    0.02055 =
         0.01842   -0.00251    0.00998   -0.00585
AFIX  43
H10   2   -0.255088    0.173566   -0.415595    11.00000   -1.20000
AFIX   0
C11   1   -0.507753   -0.163588   -0.268671    11.00000    0.01881    0.01304 =
         0.01137   -0.00206    0.00542   -0.00037
C12   1   -0.600644   -0.479684   -0.247154    11.00000    0.02304    0.01668 =
         0.01437    0.00067    0.00644    0.00396
AFIX  43
H12   2   -0.527327   -0.514085   -0.303940    11.00000   -1.20000
AFIX   0
C13   1   -0.813131   -0.384481   -0.077929    11.00000    0.01821    0.02169 =
         0.01627    0.00190    0.00647    0.00024
AFIX  43
H13   2   -0.884894   -0.351668   -0.019580    11.00000   -1.20000
AFIX   0
C14   1   -0.699278   -0.608550   -0.200954    11.00000    0.02912    0.01432 =
         0.01720   -0.00057    0.00423   -0.00034
AFIX  43
H14   2   -0.692571   -0.730179   -0.226431    11.00000   -1.20000
AFIX   0
C15   1   -0.899093    0.078713   -0.508706    11.00000    0.01777    0.02279 =
         0.02016    0.00622    0.00415    0.00417
AFIX 137
H15A  2   -0.865029    0.050927   -0.593139    11.00000   -1.50000
H15B  2   -0.872027    0.204709   -0.483401    11.00000   -1.50000
H15C  2   -1.031570    0.056422   -0.528196    11.00000   -1.50000
AFIX   0
C16   1   -0.808007   -0.561558   -0.117643    11.00000    0.02381    0.02119 =
         0.01726    0.00487    0.00492   -0.00400
AFIX  43
H16   2   -0.877752   -0.649826   -0.088436    11.00000   -1.20000
HKLF 4
 
REM  a in P2(1)
REM R1 =  0.0269 for   1906 Fo > 4sig(Fo)  and  0.0294 for all   1925 data
REM    146 parameters refined using      1 restraints
 
END  
     
WGHT      0.0607      0.0279 
REM Highest difference peak  0.244,  deepest hole -0.256,  1-sigma level  0.101
Q1    1  -0.9926 -0.3037 -0.0088  11.00000  0.05    0.24
Q2    1  -0.9430  0.0615  0.0317  11.00000  0.05    0.24
Q3    1  -0.9503 -0.0335 -0.0381  11.00000  0.05    0.23
Q4    1  -0.9702 -0.1262 -0.1014  11.00000  0.05    0.22
Q5    1  -0.9765 -0.1776 -0.0038  11.00000  0.05    0.22
Q6    1  -1.0047 -0.5605 -0.0741  11.00000  0.05    0.22
Q7    1  -0.0529 -0.2687 -0.1753  11.00000  0.05    0.22
Q8    1  -0.9957  0.0296 -0.1249  11.00000  0.05    0.21
Q9    1  -1.0597 -0.4010 -0.1544  11.00000  0.05    0.21
Q10   1  -0.1185 -0.3207 -0.1251  11.00000  0.05    0.20
Q11   1  -0.0818 -0.3422 -0.2392  11.00000  0.05    0.20
Q12   1  -0.9909 -0.3858  0.0717  11.00000  0.05    0.20
Q13   1  -1.0427 -0.0588 -0.0395  11.00000  0.05    0.20
Q14   1  -1.0205 -0.7668 -0.1409  11.00000  0.05    0.20
Q15   1  -0.0690 -0.0400 -0.1959  11.00000  0.05    0.20
Q16   1  -0.1014 -0.2049 -0.0914  11.00000  0.05    0.20
Q17   1  -1.0895 -0.6510 -0.1454  11.00000  0.05    0.19
Q18   1  -0.0468 -0.1680 -0.2540  11.00000  0.05    0.18
Q19   1  -0.1239 -0.2315 -0.2975  11.00000  0.05    0.18
Q20   1  -0.0629 -0.0858 -0.3263  11.00000  0.05    0.17

  REM The information below was added by Olex2.
  REM
  REM R1 = 0.0269 for 1906 Fo > 4sig(Fo) and 0.0294 for all 6140 data
  REM n/a parameters refined using n/a restraints
  REM Highest difference peak 0.24, deepest hole -0.26
  REM Mean Shift 0, Max Shift 0.000.

  REM +++ Tabular Listing of Refinement Information +++
  REM R1_all = 0.0294
  REM R1_gt = 0.0269
  REM wR_ref = 0.0970
  REM GOOF = 1.294
  REM Shift_max = 0.000
  REM Shift_mean = 0
  REM Reflections_all = 6140
  REM Reflections_gt = 1906
  REM Parameters = n/a
  REM Hole = -0.26
  REM Peak = 0.24
  REM Flack = -0.1(10)

  
;
_cod_data_source_file            ja9b01006_si_003.cif
_cod_data_source_block           1(OMe)
_cod_depositor_comments
;
The following automatic conversions were performed:

'_exptl_absorpt_correction_type' value 'Multi-scan' changed to
'multi-scan' according to
/home/data/users/saulius/crontab/automatic-downloads/current/ACS/lib/dictionaries/cif_core.dic
dictionary named 'cif_core.dic' version 2.4.2 from 2011-04-26.

Automatic conversion script
Id: cif_fix_values 4973 2017-02-22 13:04:09Z antanas 
;
_cod_original_cell_volume        538.95(4)
_cod_database_code               4127570
_olex2_refinement_description
;
1. Fixed Uiso
 At 1.2 times of:
  All C(H) groups
 At 1.5 times of:
  All C(H,H,H) groups
2.a Aromatic/amide H refined with riding coordinates:
 C2(H2), C4(H4), C5(H5), C8(H8), C10(H10), C12(H12), C13(H13), C14(H14),
 C16(H16)
2.b Idealised Me refined as rotating group:
 C15(H15A,H15B,H15C)
;
_olex2_submission_special_instructions 'No special instructions were received'
loop_
_space_group_symop_id
_space_group_symop_operation_xyz
1 'x, y, z'
2 '-x, y+1/2, -z'
loop_
_atom_site_label
_atom_site_type_symbol
_atom_site_fract_x
_atom_site_fract_y
_atom_site_fract_z
_atom_site_U_iso_or_equiv
_atom_site_adp_type
_atom_site_occupancy
_atom_site_calc_flag
_atom_site_refinement_flags_posn
O1 O -0.79493(12) -0.03213(15) -0.39393(10) 0.0179(3) Uani 1 d .
C2 C -0.5119(2) 0.0963(2) -0.41664(15) 0.0167(3) Uani 1 d .
H2 H -0.5784 0.1875 -0.4784 0.020 Uiso 1 calc R
O3 O -0.82289(14) -0.01233(16) -0.01645(11) 0.0230(3) Uani 1 d .
C4 C -0.22160(19) -0.0469(2) -0.29129(15) 0.0196(3) Uani 1 d .
H4 H -0.0908 -0.0536 -0.2681 0.024 Uiso 1 calc R
C5 C -0.31610(19) -0.1717(2) -0.23656(15) 0.0172(3) Uani 1 d .
H5 H -0.2488 -0.2639 -0.1763 0.021 Uiso 1 calc R
C6 C -0.71341(19) -0.2537(2) -0.12314(15) 0.0149(3) Uani 1 d .
C7 C -0.60524(18) -0.0294(2) -0.36208(14) 0.0145(3) Uani 1 d .
C8 C -0.71372(19) -0.0682(2) -0.07208(14) 0.0165(3) Uani 1 d .
H8 H -0.6230 0.0121 -0.0835 0.020 Uiso 1 calc R
C9 C -0.60811(19) -0.29994(19) -0.21099(15) 0.0147(3) Uani 1 d .
C10 C -0.3196(2) 0.0870(2) -0.37967(15) 0.0190(3) Uani 1 d .
H10 H -0.2551 0.1736 -0.4156 0.023 Uiso 1 calc R
C11 C -0.50775(19) -0.1636(2) -0.26867(14) 0.0143(3) Uani 1 d .
C12 C -0.6006(2) -0.47968(19) -0.24715(16) 0.0179(3) Uani 1 d .
H12 H -0.5273 -0.5141 -0.3039 0.022 Uiso 1 calc R
C13 C -0.81313(19) -0.3845(2) -0.07793(16) 0.0185(3) Uani 1 d .
H13 H -0.8849 -0.3517 -0.0196 0.022 Uiso 1 calc R
C14 C -0.6993(2) -0.6086(2) -0.20095(16) 0.0210(4) Uani 1 d .
H14 H -0.6926 -0.7302 -0.2264 0.025 Uiso 1 calc R
C15 C -0.8991(2) 0.0787(2) -0.50871(16) 0.0207(3) Uani 1 d .
H15A H -0.8650 0.0509 -0.5931 0.031 Uiso 1 calc GR
H15B H -0.8720 0.2047 -0.4834 0.031 Uiso 1 calc GR
H15C H -1.0316 0.0564 -0.5282 0.031 Uiso 1 calc GR
C16 C -0.8080(2) -0.5616(2) -0.11764(15) 0.0211(4) Uani 1 d .
H16 H -0.8778 -0.6498 -0.0884 0.025 Uiso 1 calc R
loop_
_atom_site_aniso_label
_atom_site_aniso_U_11
_atom_site_aniso_U_22
_atom_site_aniso_U_33
_atom_site_aniso_U_23
_atom_site_aniso_U_13
_atom_site_aniso_U_12
O1 0.0144(5) 0.0196(6) 0.0199(5) 0.0056(4) 0.0056(4) 0.0022(4)
C2 0.0208(7) 0.0154(7) 0.0146(6) -0.0001(5) 0.0069(5) 0.0021(6)
O3 0.0222(5) 0.0236(6) 0.0254(6) -0.0051(5) 0.0108(4) 0.0021(4)
C4 0.0151(6) 0.0263(9) 0.0174(7) -0.0024(7) 0.0050(5) -0.0013(6)
C5 0.0195(7) 0.0193(8) 0.0121(7) -0.0011(6) 0.0042(5) 0.0019(6)
C6 0.0146(7) 0.0153(8) 0.0129(6) 0.0015(6) 0.0016(5) 0.0015(5)
C7 0.0155(6) 0.0152(7) 0.0139(6) -0.0034(6) 0.0061(5) 0.0006(5)
C8 0.0161(6) 0.0188(8) 0.0137(6) 0.0003(6) 0.0037(5) 0.0012(5)
C9 0.0144(7) 0.0167(8) 0.0115(6) 0.0017(6) 0.0020(5) 0.0003(6)
C10 0.0206(7) 0.0205(8) 0.0184(7) -0.0025(6) 0.0100(6) -0.0058(6)
C11 0.0188(7) 0.0130(7) 0.0114(6) -0.0021(6) 0.0054(5) -0.0004(6)
C12 0.0230(7) 0.0167(8) 0.0144(7) 0.0007(5) 0.0064(6) 0.0040(6)
C13 0.0182(7) 0.0217(8) 0.0163(7) 0.0019(6) 0.0065(5) 0.0002(6)
C14 0.0291(8) 0.0143(8) 0.0172(7) -0.0006(5) 0.0042(6) -0.0003(6)
C15 0.0178(7) 0.0228(8) 0.0202(7) 0.0062(7) 0.0042(5) 0.0042(6)
C16 0.0238(7) 0.0212(8) 0.0173(7) 0.0049(6) 0.0049(6) -0.0040(6)
loop_
_atom_type_symbol
_atom_type_description
_atom_type_scat_dispersion_real
_atom_type_scat_dispersion_imag
_atom_type_scat_source
C C 0.0033 0.0016 'International Tables Vol C Tables 4.2.6.8 and 6.1.1.4'
H H 0.0000 0.0000 'International Tables Vol C Tables 4.2.6.8 and 6.1.1.4'
O O 0.0106 0.0060 'International Tables Vol C Tables 4.2.6.8 and 6.1.1.4'
loop_
_geom_angle_atom_site_label_1
_geom_angle_atom_site_label_2
_geom_angle_atom_site_label_3
_geom_angle
C7 O1 C15 116.67(11)
C7 C2 C10 119.30(13)
C10 C4 C5 119.51(13)
C4 C5 C11 121.11(14)
C9 C6 C8 120.60(14)
C13 C6 C8 118.93(13)
C13 C6 C9 120.42(14)
O1 C7 C2 123.42(13)
O1 C7 C11 115.76(12)
C2 C7 C11 120.82(12)
O3 C8 C6 123.92(14)
C6 C9 C11 122.42(13)
C12 C9 C6 118.37(14)
C12 C9 C11 119.20(13)
C4 C10 C2 120.81(14)
C5 C11 C7 118.40(13)
C5 C11 C9 120.65(13)
C7 C11 C9 120.88(12)
C14 C12 C9 120.69(14)
C16 C13 C6 120.49(13)
C12 C14 C16 120.78(15)
C13 C16 C14 119.20(15)
loop_
_geom_bond_atom_site_label_1
_geom_bond_atom_site_label_2
_geom_bond_distance
O1 C7 1.3782(16)
O1 C15 1.4308(18)
C2 C7 1.391(2)
C2 C10 1.395(2)
O3 C8 1.2130(18)
C4 C5 1.393(2)
C4 C10 1.384(2)
C5 C11 1.3938(19)
C6 C8 1.478(2)
C6 C9 1.408(2)
C6 C13 1.399(2)
C7 C11 1.409(2)
C9 C11 1.4960(19)
C9 C12 1.397(2)
C12 C14 1.389(2)
C13 C16 1.386(2)
C14 C16 1.394(2)
loop_
_refln_index_h
_refln_index_k
_refln_index_l
_refln_F_squared_meas
_refln_F_squared_sigma
-1 0 0 0 0.3
-3 0 0 2591.04 71.39
3 0 0 2233.98 69.69
-3 0 0 2274.47 71.59
3 0 0 2397.06 72.29
-4 0 0 115.69 8.1
-4 0 0 101.49 6.9
4 0 0 128.59 9
4 0 0 123.99 7
5 0 0 102.99 8.9
-5 0 0 95.39 7.2
5 0 0 88.59 6.5
-5 0 0 97.49 8.1
6 0 0 448.16 23.3
-6 0 0 479.65 22.3
-6 0 0 521.85 21.7
6 0 0 460.45 19.6
7 0 0 117.89 10.6
7 0 0 128.19 12.6
-7 0 0 141.89 11.7
8 0 0 329.47 22.2
8 0 0 368.96 17.7
-8 0 0 368.26 21.1
-8 0 0 288.57 18.6
0 -1 0 -0.4 0.2
0 1 0 0.2 0.5
-1 -1 0 1010.8 27.7
1 -1 0 981.1 28.5
-1 -1 0 963.4 28.6
-1 1 0 900.21 28.5
1 1 0 872.01 29.6
-2 -1 0 3906.21 115.89
2 -1 0 4165.28 115.79
-2 1 0 3926.51 115.29
2 1 0 4053.69 116.19
-3 -1 0 398.76 16.4
3 -1 0 423.86 16.7
-3 1 0 405.26 15.7
3 1 0 408.36 14.5
-3 1 0 404.56 16.1
4 -1 0 1112.09 38.3
-4 -1 0 1082.99 35.7
-4 -1 0 1083.99 38.5
4 -1 0 1123.09 36
4 1 0 1048.7 38.3
-4 1 0 1152.08 37.5
4 1 0 1042.8 34.7
-4 1 0 1093.09 36.6
-5 -1 0 16.2 3.5
-5 -1 0 17.5 4.2
5 -1 0 18.8 4.5
5 -1 0 17.8 3.5
5 1 0 21.5 3.5
-5 1 0 19.7 4.1
5 1 0 17.8 4.4
-5 1 0 17.6 3.9
-6 -1 0 102.59 8.4
6 -1 0 121.09 10.7
6 -1 0 109.39 8.1
-6 -1 0 101.49 9.2
6 1 0 119.99 10.9
-6 1 0 117.39 9.6
6 1 0 120.09 8
-7 -1 0 69.69 7.5
7 -1 0 61.39 6.7
7 -1 0 74.49 8.7
-7 -1 0 71.69 8.3
7 1 0 58.89 8.1
7 1 0 77.99 11.1
-7 1 0 58.69 8.4
8 -1 0 307.67 20.8
8 -1 0 312.17 16.7
-8 -1 0 315.67 18.7
-8 -1 0 322.57 19.8
8 1 0 322.47 21.6
8 1 0 312.07 16.3
-8 1 0 318.37 19.3
-8 1 0 316.17 19.1
1 -2 0 1043.4 34
1 -2 0 1041 32.2
1 -2 0 1049.89 30.6
-1 -2 0 1024.6 31.5
-1 2 0 1029.5 30.2
1 2 0 1042.5 33.1
1 2 0 1080.99 31.8
-1 2 0 1035.6 32.2
2 -2 0 5559.24 157.28
2 -2 0 5410.16 159.58
2 2 0 5568.04 158.38
-3 -2 0 3833.72 109.49
-3 -2 0 3959.2 112.29
3 -2 0 3888.21 111.49
-3 2 0 3494.15 111.19
3 2 0 3779.12 112.49
-4 -2 0 1285.47 40.5
4 -2 0 1183.98 42.3
-4 -2 0 1251.97 42.8
4 -2 0 1290.47 41.5
4 2 0 1336.07 39.9
-4 2 0 1321.47 42.6
-4 2 0 1196.28 41.3
4 2 0 1226.68 43.6
5 -2 0 2738.63 87.29
5 -2 0 2752.02 84.79
-5 -2 0 2779.02 84.39
-5 -2 0 2883.91 87.49
5 2 0 2773.22 88.59
5 2 0 2828.42 83.19
-5 2 0 2658.33 86.59
-5 2 0 2778.52 85.69
6 -2 0 50.59 5.8
6 -2 0 45 7.4
-6 -2 0 51.69 5.7
-6 -2 0 52.69 7.9
6 2 0 48.3 8.1
6 2 0 47.4 4.9
-6 2 0 29.8 5.2
7 -2 0 332.77 16.8
-7 -2 0 331.57 17.5
-7 -2 0 298.77 18.2
7 -2 0 309.17 21.9
-7 2 0 330.27 18.2
7 2 0 309.77 20.1
7 2 0 319.67 19.1
8 -2 0 237.68 15.6
-8 -2 0 225.78 17
8 -2 0 244.88 14.6
-8 -2 0 228.18 15.5
8 -2 0 260.07 18.3
8 2 0 252.77 17.2
-8 2 0 211.18 15.3
8 2 0 261.17 14.2
-8 2 0 206.78 15.7
8 2 0 278.57 20
0 -3 0 1.1 1.4
0 3 0 0.7 1.1
1 -3 0 7346.87 227.38
1 3 0 7840.12 222.88
1 3 0 7790.92 219.08
-1 3 0 8041.9 223.68
-2 -3 0 276.87 11.6
2 -3 0 287.17 10.8
2 -3 0 280.97 12.1
2 3 0 282.87 12.1
-2 3 0 251.27 12.3
2 3 0 291.97 13
3 -3 0 284.97 12.6
-3 -3 0 308.97 11.7
3 -3 0 289.97 15
3 -3 0 298.27 13.2
-3 -3 0 286.07 13.2
-3 3 0 266.87 13.2
-3 3 0 283.37 11.7
3 3 0 313.27 14.2
-4 -3 0 178.68 8.8
-4 -3 0 154.28 9.9
4 -3 0 158.28 9.7
4 -3 0 164.78 11.1
4 -3 0 146.99 9.2
4 3 0 149.88 10.4
-4 3 0 163.88 10.2
5 -3 0 775.62 31.1
5 -3 0 736.33 28.3
-5 -3 0 726.23 29.5
5 -3 0 710.73 29.3
-5 -3 0 795.02 30.5
5 3 0 752.62 31.2
-5 3 0 754.22 28
-5 3 0 740.23 29.8
6 -3 0 237.28 15.4
6 -3 0 258.27 14.2
-6 -3 0 240.58 15.3
-6 -3 0 252.27 13.7
-6 3 0 252.67 14.1
6 3 0 264.37 17.1
7 -3 0 302.67 18.8
7 -3 0 289.17 17.8
7 -3 0 294.37 16.2
-7 -3 0 318.17 18.7
-7 -3 0 284.67 16.1
7 3 0 283.57 18.9
7 3 0 288.37 17.6
-7 3 0 312.47 18.5
-7 3 0 276.47 16.4
8 -3 0 209.98 13.6
-8 -3 0 171.08 13.6
-8 -3 0 189.38 15.2
8 3 0 200.98 15
8 3 0 186.18 17.3
-8 3 0 223.58 15
0 -4 0 1742.43 56.99
0 4 0 1748.43 57.49
-1 -4 0 315.57 10.9
1 -4 0 279.77 13.2
1 -4 0 294.27 15.5
-1 4 0 320.57 15.9
1 4 0 290.87 11
1 4 0 318.57 15.5
1 4 0 304.47 10.3
2 -4 0 4505.75 123.09
2 -4 0 3894.41 129.79
2 -4 0 4449.35 126.79
-2 -4 0 4263.57 124.79
2 4 0 4218.58 125.29
2 4 0 4231.38 128.59
2 4 0 4590.24 124.29
-3 -4 0 115.59 7.5
3 -4 0 110.09 9.4
3 -4 0 107.09 6.6
3 -4 0 115.29 7.7
-3 -4 0 105.99 6.2
-3 4 0 102.29 7.8
3 4 0 102.09 8.1
-3 4 0 116.19 5.7
3 4 0 105.79 7.8
4 -4 0 243.28 13.1
4 -4 0 265.97 13
4 -4 0 253.37 16.5
-4 -4 0 279.37 12
-4 -4 0 250.87 13.5
-4 4 0 226.78 15.8
4 4 0 267.37 14
4 4 0 255.17 13
4 4 0 278.97 14.8
5 -4 0 5473.75 158.48
-5 -4 0 5208.98 158.78
5 -4 0 5209.28 162.18
-5 -4 0 5323.47 155.68
5 -4 0 5359.06 157.98
5 4 0 5279.97 157.88
5 4 0 5480.75 158.18
5 4 0 5193.28 160.58
-5 4 0 5464.45 159.98
-5 4 0 5259.17 155.48
6 -4 0 911.71 38.1
6 -4 0 895.31 35.9
-6 -4 0 893.41 35.8
-6 -4 0 845.12 32.8
6 -4 0 852.71 35
6 4 0 939.31 35.3
6 4 0 882.01 37.4
7 -4 0 36.4 6.4
-7 -4 0 31.3 5.9
-7 -4 0 25.6 5.8
7 -4 0 42 7.5
-7 4 0 24.3 8.6
-7 4 0 35.2 7.3
7 4 0 40 7
0 -5 0 6.9 2.8
0 5 0 11.7 3.6
1 -5 0 1722.83 55.79
1 -5 0 1750.42 60.29
1 5 0 1770.22 59.99
-1 5 0 1831.22 60.59
1 5 0 1780.32 51.69
1 5 0 1740.73 50.79
2 -5 0 2415.96 72.69
-2 -5 0 2264.57 69.29
2 -5 0 2278.97 67.29
2 5 0 2425.46 76.19
2 5 0 2313.87 68.49
2 5 0 2316.17 70.29
3 -5 0 906.01 37.3
-3 -5 0 903.11 31.3
3 -5 0 898.91 32.9
3 -5 0 921.51 29.5
-3 -5 0 891.51 30
3 5 0 932.81 35.5
3 5 0 897.91 32.3
3 5 0 912.51 30.5
4 -5 0 698.83 26.1
4 -5 0 673.23 27.8
-4 -5 0 744.83 27.8
4 -5 0 698.13 32.2
-4 5 0 765.62 29.7
4 5 0 718.03 29.6
-4 5 0 731.53 23.8
-5 -5 0 169.88 10.1
5 -5 0 153.28 13.1
5 -5 0 182.38 11.8
-5 -5 0 186.38 12.1
5 -5 0 169.98 11
5 5 0 174.28 11.2
-5 5 0 129.59 11
-5 5 0 165.68 9.1
5 5 0 188.98 12.5
-6 -5 0 247.68 15.7
6 -5 0 256.97 15.4
-6 -5 0 261.67 14.2
6 -5 0 267.47 15.6
-6 5 0 278.17 17.3
6 5 0 307.17 25.7
6 5 0 275.97 16
-6 5 0 268.77 13.4
6 5 0 248.08 15.3
-7 -5 0 696.03 29.7
7 -5 0 707.53 30.5
-7 -5 0 730.63 32
7 -5 0 694.93 31.6
-7 5 0 791.22 34.6
7 5 0 732.13 30.4
7 5 0 646.14 35.3
7 5 0 708.53 31.4
0 -6 0 1284.67 48.5
0 6 0 1331.87 49.3
1 -6 0 294.77 14.9
1 -6 0 317.47 18.7
1 6 0 325.57 18.7
2 -6 0 1248.48 42.4
2 6 0 1222.48 38.6
2 6 0 1178.08 36.9
2 6 0 1223.08 46.2
3 -6 0 1327.27 46.4
3 -6 0 1399.46 40.4
-3 -6 0 1316.87 43.3
3 -6 0 1365.46 40
-3 -6 0 1373.86 43.7
3 6 0 1326.47 42.4
3 6 0 1346.27 49.99
3 6 0 1302.67 44.5
4 -6 0 407.26 15.5
-4 -6 0 378.16 20.1
4 -6 0 434.06 21.2
-4 -6 0 436.76 17.4
4 -6 0 412.76 19.7
4 6 0 424.86 17.7
4 6 0 392.26 21.4
-5 -6 0 1240.98 46.9
5 -6 0 1355.56 44.1
5 -6 0 1347.57 48.6
-5 -6 0 1338.57 45.5
5 -6 0 1425.06 55.09
5 -6 0 1420.56 46.1
5 6 0 1423.06 50.99
-6 -6 0 241.58 13.7
6 -6 0 256.77 15.5
-6 -6 0 257.27 15.5
6 -6 0 219.28 18
6 -6 0 234.98 14.2
6 -6 0 251.47 13.1
6 6 0 226.18 14.3
6 6 0 221.78 16.5
6 6 0 258.97 16.4
-6 6 0 227.08 16.3
0 -7 0 22.6 4.3
0 -7 0 17 5.6
0 7 0 21.3 5.9
1 -7 0 142.09 10.1
1 7 0 146.89 13.1
2 -7 0 87.79 8
2 7 0 82.59 10.1
2 7 0 84.29 4.3
2 7 0 83.49 4.7
3 -7 0 551.54 24
-3 -7 0 518.45 20.5
3 7 0 525.65 27.3
3 7 0 535.95 19
-4 -7 0 606.14 23.3
4 -7 0 606.24 20.1
4 -7 0 659.33 34
4 7 0 620.44 30
4 7 0 489.15 30.9
4 7 0 619.54 22.9
5 -7 0 47.9 7.2
5 -7 0 50.89 5.3
-5 -7 0 51.79 6
-5 -7 0 44.7 6.7
5 -7 0 57.29 4.6
5 -7 0 49.6 9
5 7 0 54.89 9
5 7 0 34.7 7.5
0 -8 0 2407.16 77.79
1 -8 0 126.09 10
1 -8 0 126.69 14.3
1 8 0 119.09 12.8
2 -8 0 7.8 5.1
2 -8 0 11.6 3.4
2 8 0 10.3 4.9
-3 -8 0 379.06 16.6
3 -8 0 388.56 20.2
3 -8 0 356.76 24.5
3 8 0 372.16 23.4
3 8 0 383.86 14.9
-4 -8 0 21.4 4.2
4 -8 0 18.1 4.7
4 8 0 19.1 3.2
4 8 0 16.3 6
4 8 0 15.1 4.5
0 -9 0 -3 2.4
-8 0 1 2101.99 72.29
8 0 -1 2145.49 67.39
8 0 -1 1930.21 73.79
7 0 -1 1223.68 48.3
-7 0 1 1363.26 45.8
-7 0 1 1161.18 46
7 0 -1 1186.98 42.2
-6 0 1 16.1 4.5
6 0 -1 9.2 2.5
6 0 -1 17.9 5.1
-6 0 1 8.6 2.7
5 0 -1 128.09 9.9
5 0 -1 122.89 7.7
-5 0 1 137.99 9.8
-5 0 1 137.19 8.7
4 0 -1 2855.81 83.39
-4 0 1 2654.63 80.69
-4 0 1 2785.62 82.69
4 0 -1 2471.45 79.59
3 0 -1 1401.56 43.6
-3 0 1 1334.87 41.6
3 0 -1 1305.47 41.1
2 0 -1 2046.1 58.69
-2 0 1 2002.9 58.79
-2 0 1 1917.21 59.79
2 0 -1 2076.29 60.19
-1 0 1 417.76 13
3 0 1 900.31 29.4
-3 0 -1 927.91 29.7
-3 0 -1 889.21 30.6
4 0 1 1861.31 56.49
4 0 1 1859.41 60.09
-4 0 -1 1822.32 58.69
-5 0 -1 268.57 14.6
5 0 1 274.37 12.7
-5 0 -1 271.27 15.1
5 0 1 285.37 16
-6 0 -1 739.93 30.2
6 0 1 734.63 32.2
6 0 1 722.83 27.2
-7 0 -1 269.57 16.4
7 0 1 272.27 16.4
7 0 1 257.17 13.9
7 0 1 235.98 17.4
8 0 1 21.3 5.1
-8 0 -1 17.1 5.4
8 0 1 25.4 6.8
-8 0 -1 19.8 5.6
8 0 1 7.7 4.2
-8 -1 1 442.26 27.4
8 -1 -1 430.16 25
-8 -1 1 419.56 23.3
8 -1 -1 444.06 20.9
8 -1 -1 461.15 21.1
-8 1 1 396.56 22.3
8 1 -1 432.16 20
8 1 -1 447.46 25.7
-8 1 1 480.65 24.3
-7 -1 1 79.19 8.1
7 -1 -1 82.59 7.4
-7 -1 1 83.59 9.4
7 -1 -1 78.49 9.4
7 1 -1 83.29 7
-7 1 1 89.49 9
7 1 -1 94.39 12.4
6 -1 -1 296.07 14.4
-6 -1 1 257.17 14.1
6 -1 -1 271.17 19.4
-6 -1 1 297.17 16.6
-6 1 1 290.07 16.1
-6 1 1 267.07 15
6 1 -1 255.57 16.4
6 1 -1 300.17 13.5
5 -1 -1 369.86 15.8
-5 -1 1 369.96 17.8
-5 -1 1 353.26 15.6
5 -1 -1 360.66 18
5 1 -1 351.26 14.7
-5 1 1 350.76 17.1
5 1 -1 353.46 18.1
-5 1 1 343.37 16.3
-4 -1 1 4197.58 116.49
-4 -1 1 3978.8 118.89
4 -1 -1 4024.6 116.79
4 -1 -1 3867.31 118.59
4 1 -1 4067.29 115.39
-4 1 1 3786.02 117.19
-4 1 1 3945.31 118.09
4 1 -1 3956.2 119.29
-3 -1 1 1904.81 61.49
-3 -1 1 2026.4 59.49
3 -1 -1 2096.59 60.59
3 -1 -1 1957.2 61.39
3 1 -1 2031.8 61.99
-3 1 1 2053.59 63.19
3 1 -1 1938.41 58.79
-3 1 1 2017.5 61.29
2 -1 -1 2496.45 80.09
-2 -1 1 2788.32 80.89
2 -1 -1 2759.62 80.39
2 -1 -1 2708.13 79.99
-2 1 1 2736.33 80.29
2 1 -1 2817.92 80.89
-2 1 1 2930.21 80.59
1 -1 -1 1799.62 52.79
1 -1 -1 1834.92 53.59
1 -1 -1 1756.72 53.19
-1 -1 1 1892.21 52.49
-1 -1 1 1878.01 53.19
1 1 -1 1843.22 52.49
1 1 -1 1778.62 56.69
-1 1 1 1797.02 53.59
-2 -1 -1 399.86 14.7
2 -1 1 480.35 15.4
2 -1 1 423.06 15.8
-2 1 -1 498.05 15.8
-2 1 -1 426.26 15.3
2 1 1 445.26 16.5
2 1 1 401.56 14.6
3 -1 1 270.37 11.3
3 -1 1 266.67 12.5
-3 1 -1 261.07 11.8
3 1 1 285.27 11
3 1 1 288.37 13.3
-3 1 -1 261.37 11.7
-4 -1 -1 6.8 2.1
4 -1 1 10 2.5
-4 -1 -1 11 2.9
4 -1 1 5.2 2.6
-4 1 -1 7.4 2.4
4 1 1 3.7 2.3
4 1 1 7.1 1.6
-4 1 -1 5.6 1.9
5 -1 1 23.3 5
5 -1 1 20.1 3.7
-5 -1 -1 21.4 3.9
-5 -1 -1 30.1 5.4
-5 1 -1 20.2 4.1
-5 1 -1 20.8 4.3
5 1 1 21.2 3.5
5 1 1 18.7 4.5
6 -1 1 531.05 21.9
6 -1 1 511.45 25.5
-6 -1 -1 536.65 24.4
6 1 1 540.35 24.2
6 1 1 530.65 26.2
-6 1 -1 554.64 24.1
6 1 1 549.95 21.6
7 -1 1 614.04 27.6
-7 -1 -1 603.34 28
7 -1 1 666.43 25.7
-7 -1 -1 615.54 27.1
7 -1 1 608.64 30.1
7 1 1 604.34 24.9
7 1 1 603.84 27.7
7 1 1 660.93 31.2
-7 1 -1 588.14 27.2
-8 -1 -1 157.18 12.7
8 -1 1 152.78 11
8 -1 1 146.09 12.4
8 -1 1 131.99 13.9
-8 -1 -1 158.78 13.4
8 1 1 163.98 15.4
8 1 1 143.99 13
-8 1 -1 165.98 13.5
-8 1 -1 151.58 13
8 1 1 152.18 10.8
8 -2 -1 200.18 13.1
8 -2 -1 189.98 13.4
-8 -2 1 202.08 15.3
8 -2 -1 214.68 16.4
8 2 -1 190.08 16.3
-8 2 1 187.38 14.7
8 2 -1 190.58 11.8
-8 2 1 187.08 14.3
7 -2 -1 10.7 3.7
-7 -2 1 10.6 4
7 -2 -1 14.2 4.1
-7 -2 1 15 4.3
7 2 -1 11.8 5.1
-7 2 1 9 3.7
7 2 -1 18.7 4
6 -2 -1 359.16 17.1
-6 -2 1 362.76 19.2
6 -2 -1 343.57 19
-6 -2 1 357.06 16.8
6 -2 -1 362.46 17.7
6 2 -1 355.76 20.1
-6 2 1 339.07 17.9
6 2 -1 366.96 15.5
5 -2 -1 2265.47 71.79
5 -2 -1 2299.17 72.69
-5 -2 1 2455.45 74.79
5 -2 -1 2284.37 73.99
-5 -2 1 2404.66 71.19
-5 2 1 2249.07 72.69
-5 2 1 2317.07 75.09
5 2 -1 2255.67 69.39
5 2 -1 2214.28 74.59
-4 -2 1 478.45 17.4
-4 -2 1 452.65 19.6
4 -2 -1 478.45 18.7
4 -2 -1 443.06 19
4 -2 -1 439.66 19.1
-4 2 1 475.65 19.4
4 2 -1 440.86 16.4
4 2 -1 484.25 20.3
-4 2 1 453.45 18.8
3 -2 -1 2145.89 67.79
3 -2 -1 2170.38 66.89
3 -2 -1 2197.18 66.79
-3 -2 1 2183.58 64.79
-3 -2 1 2166.68 74.99
3 2 -1 2292.67 68.09
-3 2 1 2237.28 67.49
3 2 -1 2241.98 64.49
2 -2 -1 25.7 2.9
2 -2 -1 24.5 2.7
-2 -2 1 20.1 3
-2 -2 1 26.9 2
2 2 -1 26.8 2.7
-2 2 1 27.7 3.4
2 2 -1 22.9 3
-1 -2 1 717.03 22.3
1 -2 -1 721.23 23.3
1 -2 -1 706.83 21.7
1 -2 -1 708.93 24.4
-1 -2 1 707.43 23.5
1 2 -1 711.23 23.5
1 2 -1 706.73 22.1
-1 2 1 709.53 24.6
-1 2 1 708.23 21.8
0 -2 1 4819.52 139.89
0 2 1 4890.01 140.09
1 -2 1 2163.38 61.69
1 -2 1 2060.69 60.49
-1 -2 -1 2065.19 61.79
-1 -2 -1 2162.48 61.79
1 -2 1 2125.89 60.79
-1 2 -1 2082.19 61.89
1 2 1 2149.28 62.09
-2 -2 -1 451.65 15.6
-2 -2 -1 451.95 16.7
2 -2 1 460.85 16.2
2 -2 1 458.05 16.2
-2 2 -1 446.56 16.6
2 2 1 454.15 17.3
3 -2 1 152.88 8.1
-3 -2 -1 160.78 7.7
-3 -2 -1 179.18 9.4
3 -2 1 147.99 8.6
3 2 1 149.69 9.2
-3 2 -1 156.58 8.6
3 2 1 139.99 8.3
4 -2 1 925.81 31.5
-4 -2 -1 923.91 33.2
4 -2 1 959.9 33.5
-4 -2 -1 881.71 30.9
4 2 1 913.81 32.6
-4 2 -1 848.22 32.1
4 2 1 955.5 34.5
-4 2 -1 955.5 31.9
-5 -2 -1 1630.04 50.99
-5 -2 -1 1595.54 52.99
5 -2 1 1587.44 50.59
5 -2 1 1482.85 53.09
5 2 1 1514.75 51.99
5 2 1 1520.25 54.29
-5 2 -1 1534.75 51.09
-5 2 -1 1572.04 52.29
5 2 1 1508.05 49.3
-6 -2 -1 757.72 29.9
6 -2 1 804.52 33.3
6 -2 1 731.93 29
-6 -2 -1 827.72 32.4
6 2 1 778.82 31.4
6 2 1 817.02 34.6
-6 2 -1 761.52 30.3
-6 2 -1 676.23 30.4
6 2 1 814.72 28.9
-7 -2 -1 333.37 19.2
-7 -2 -1 314.77 17.4
7 -2 1 309.27 17.6
7 -2 1 332.07 16.7
7 -2 1 314.67 19.8
7 2 1 318.07 15.9
-7 2 -1 298.57 17.2
-7 2 -1 335.27 18.9
7 2 1 292.37 19.9
7 2 1 312.87 18.2
8 -2 1 12.4 5.6
-8 -2 -1 15.1 6
-8 -2 -1 12.7 5.2
8 -2 1 26.7 5.8
8 -2 1 17.4 4.5
-8 2 -1 19.1 5.4
8 2 1 19.3 5.9
8 2 1 29.7 7.9
8 -3 -1 35.9 8.2
-8 -3 1 40.3 7.1
8 -3 -1 28.7 5.7
8 -3 -1 35.9 7.1
-8 -3 1 36.5 7.4
-8 3 1 27.9 6.3
8 3 -1 47 14.4
-8 3 1 23.3 5.5
7 -3 -1 329.87 19.1
-7 -3 1 352.06 20
7 -3 -1 367.06 18.4
-7 -3 1 336.27 17.5
7 -3 -1 346.47 20.1
-7 3 1 308.37 17.8
7 3 -1 362.46 21.5
6 -3 -1 1428.16 48.7
6 -3 -1 1327.67 55.09
-6 -3 1 1470.95 51.09
-6 -3 1 1436.46 47.5
6 -3 -1 1371.16 50.29
-6 3 1 1425.06 48.8
6 3 -1 1369.86 51.69
-5 -3 1 1612.24 52.39
5 -3 -1 1684.73 54.59
5 -3 -1 1711.53 56.89
-5 -3 1 1664.73 56.09
5 -3 -1 1611.74 55.29
5 3 -1 1656.33 56.99
-5 3 1 1662.83 55.99
-5 3 1 1611.04 54.09
5 3 -1 1695.53 52.29
-4 -3 1 240.98 10.6
4 -3 -1 239.08 12.3
4 -3 -1 233.18 13.5
4 -3 -1 236.38 12.2
-4 -3 1 224.78 12.6
4 3 -1 242.98 11.2
4 3 -1 232.88 13.1
-4 3 1 222.48 12.5
3 -3 -1 122.69 9.1
3 -3 -1 160.48 8.9
-3 -3 1 130.49 7.4
3 -3 -1 140.19 7.9
-3 -3 1 152.58 8.7
3 3 -1 143.49 8.7
3 3 -1 146.99 8.1
-3 3 1 134.89 7.4
-3 3 1 133.79 8.5
-2 -3 1 2085.19 61.79
-2 -3 1 1983.1 59.49
2 -3 -1 2095.99 64.99
2 -3 -1 2058.59 60.59
2 3 -1 2053.89 61.79
-2 3 1 2005.5 68.99
2 3 -1 2138.39 63.19
-2 3 1 2006.3 60.29
-1 -3 1 2989 88.59
1 -3 -1 3070.69 84.39
1 -3 -1 2754.12 92.99
-1 -3 1 3036.8 85.29
1 -3 -1 2996.3 87.49
-1 3 1 2895.81 84.59
1 3 -1 2967.8 84.89
1 3 -1 3043.7 88.89
-1 3 1 2893.91 89.69
0 -3 1 390.66 17
0 -3 1 412.26 12.3
0 -3 -1 438.36 13.3
0 -3 1 409.26 14.3
0 3 1 392.06 17.2
0 3 1 409.76 13.3
0 3 1 417.86 13.2
1 -3 1 1357.36 41.9
1 -3 1 1391.36 39.7
1 -3 1 1359.66 39.3
1 -3 1 1374.96 45.4
1 3 1 1369.46 41.7
1 3 1 1372.26 44.8
-1 3 -1 1354.96 42
2 -3 1 3691.13 104.09
2 -3 1 3780.02 105.39
2 -3 1 3653.93 103.29
2 -3 1 3651.63 108.99
-2 -3 -1 3423.46 104.79
2 3 1 3434.36 104.99
2 3 1 3584.84 105.99
-3 -3 -1 1360.96 43.4
-3 -3 -1 1334.97 41.6
3 -3 1 1310.77 42.5
3 -3 1 1344.17 42.7
3 3 1 1279.37 44.1
-3 3 -1 1306.57 41
3 3 1 1329.87 42.9
-3 3 -1 1362.36 43.8
-4 -3 -1 20.1 4
-4 -3 -1 13.2 2.8
4 -3 1 18.8 3.7
4 -3 1 19 4.1
4 3 1 22.5 4.6
-4 3 -1 24.6 4.6
4 3 1 18.6 3.8
5 -3 1 1934.91 62.59
-5 -3 -1 1976 62.19
5 -3 1 2037.5 65.19
-5 -3 -1 1905.91 64.29
-5 3 -1 1834.92 64.19
5 3 1 1954.4 66.59
-5 3 -1 1998.3 62.29
5 3 1 2068.49 64.39
6 -3 1 60.99 6.5
6 -3 1 87.89 9.5
-6 -3 -1 80.39 7.4
-6 -3 -1 67.49 8.1
6 3 1 80.09 9.7
-6 3 -1 88.59 7.6
6 3 1 71.89 7.8
-7 -3 -1 145.19 12.2
7 -3 1 181.88 12.4
7 -3 1 172.38 11.6
7 -3 1 167.28 13.9
7 3 1 152.78 12.4
-7 3 -1 154.58 11.3
-7 3 -1 141.59 15.6
7 3 1 173.78 15.4
-8 -4 1 244.28 17.5
8 -4 -1 253.27 18.2
8 -4 -1 210.78 14.7
-8 -4 1 238.78 15.3
8 4 -1 241.68 16.9
8 4 -1 237.08 18.8
-8 4 1 232.18 15.3
8 4 -1 225.68 12.9
7 -4 -1 225.68 14.4
7 -4 -1 226.68 15.9
-7 -4 1 249.28 16.1
-7 -4 1 236.08 13.9
7 -4 -1 221.28 16.1
-7 4 1 229.88 16.8
-7 4 1 231.78 15.7
7 4 -1 234.58 17.3
7 4 -1 222.58 12.6
-6 -4 1 65.69 9.1
6 -4 -1 65.59 10.1
-6 -4 1 77.69 6.9
6 -4 -1 63.09 7.1
6 -4 -1 69.69 7.9
6 4 -1 70.99 10
6 4 -1 64.09 6.5
5 -4 -1 409.76 19.2
-5 -4 1 409.46 17.3
5 -4 -1 424.86 21.8
5 -4 -1 413.56 19.4
-5 -4 1 404.86 19.8
5 4 -1 414.46 20.7
5 4 -1 433.56 18.6
-5 4 1 422.56 20.5
-5 4 1 419.86 18
4 -4 -1 184.88 10.4
4 -4 -1 190.08 11.2
4 -4 -1 165.28 12.3
-4 -4 1 194.78 11.3
-4 -4 1 188.98 9.1
4 4 -1 179.08 11.3
4 4 -1 190.88 10.9
-4 4 1 173.98 9.4
3 -4 -1 344.67 18.2
-3 -4 1 373.06 15.9
3 -4 -1 354.96 16.4
-3 -4 1 378.36 13.8
3 -4 -1 396.06 14.9
3 4 -1 363.16 16.7
3 4 -1 376.36 16.2
-3 4 1 356.56 13.8
2 -4 -1 2067.99 67.89
-2 -4 1 2058.49 62.89
2 -4 -1 2213.68 61.39
2 -4 -1 2200.18 65.39
-2 4 1 2031.9 60.49
-2 4 1 2021.4 67.79
2 4 -1 2065.89 62.89
2 4 -1 2074.89 66.19
1 -4 -1 2891.81 90.79
1 -4 -1 2884.21 87.99
-1 -4 1 2880.81 89.79
-1 -4 1 2981.1 84.59
1 -4 -1 3009.2 83.39
-1 4 1 3089.49 92.19
1 4 -1 2861.01 83.29
1 4 -1 2886.71 83.79
1 4 -1 2957.4 90.29
0 -4 1 1799.02 54.39
0 -4 -1 1810.22 52.29
0 -4 1 1667.73 63.39
0 4 1 1910.61 59.59
0 4 1 1763.72 51.89
0 4 1 1818.12 52.19
1 -4 1 2169.88 65.39
1 -4 1 2225.58 70.29
1 4 1 2060.39 63.09
1 4 1 2117.99 64.29
1 4 1 2295.57 69.99
-2 -4 -1 1072.49 34.4
2 -4 1 1055.59 31.9
2 -4 1 1019.8 39.2
2 -4 1 1095.19 32.9
2 -4 1 1053.79 35.1
2 4 1 1075.29 38.1
-2 4 -1 1091.09 35.8
2 4 1 1047.7 35.3
3 -4 1 158.28 9.2
-3 -4 -1 152.58 8.2
3 -4 1 166.18 7.8
-3 -4 -1 163.28 9.2
3 -4 1 158.58 8.6
3 -4 1 159.98 11.6
3 4 1 149.88 9.7
3 4 1 161.28 8.8
-3 4 -1 161.18 9.8
3 4 1 159.78 10.6
4 -4 1 192.88 10.2
4 -4 1 208.88 11.4
-4 -4 -1 227.68 12.5
4 -4 1 199.58 11.4
-4 -4 -1 190.08 11.4
4 -4 1 205.68 14
4 4 1 210.18 12.9
4 4 1 222.08 11.8
5 -4 1 2575.34 78.99
5 -4 1 2517.65 77.49
5 -4 1 2406.86 79.49
5 -4 1 2482.05 83.79
-5 -4 -1 2548.15 80.09
-5 -4 -1 2358.86 77.19
5 4 1 2423.96 79.19
5 4 1 2615.64 83.09
-5 4 -1 2589.34 81.29
-5 4 -1 2544.05 76.69
-6 -4 -1 353.06 17.1
6 -4 1 328.97 17.5
6 -4 1 331.07 18.6
6 -4 1 308.47 16.2
6 4 1 358.56 20.8
6 4 1 323.67 20.9
-7 -4 -1 151.48 11.6
-7 -4 -1 170.68 13.2
7 -4 1 157.48 11.5
7 -4 1 148.39 11.1
7 -4 1 163.48 14.2
7 -4 1 168.48 13.6
7 4 1 134.59 14.3
-7 4 -1 167.28 13.6
7 4 1 158.38 12.6
-7 -5 1 44.6 6.9
7 -5 -1 28.7 5.5
7 -5 -1 44.4 9
-7 -5 1 40.5 7.8
7 -5 -1 50.89 8.3
7 5 -1 42.7 6.4
-7 5 1 36.3 7.9
7 5 -1 49.7 7.9
7 5 -1 32.3 6.9
-7 5 1 41.6 8.4
6 -5 -1 2771.12 86.49
-6 -5 1 2623.04 83.19
6 -5 -1 2720.63 85.89
-6 -5 1 2693.23 86.89
6 5 -1 2702.73 84.79
6 5 -1 2612.04 88.39
6 5 -1 2735.53 85.89
-6 5 1 2626.04 88.39
-6 5 1 2597.34 82.59
-5 -5 1 735.93 27.2
5 -5 -1 711.83 33.2
-5 -5 1 776.02 30.4
5 -5 -1 744.33 30.3
5 -5 -1 760.62 29
5 5 -1 787.02 30.3
-5 5 1 735.73 26.8
5 5 -1 758.32 29.3
4 -5 -1 532.75 20.8
-4 -5 1 561.34 22.5
4 -5 -1 543.05 23.3
4 -5 -1 505.05 25.8
-4 -5 1 544.95 19.8
4 5 -1 561.44 23.9
-4 5 1 517.75 19
3 -5 -1 76.49 8.6
3 -5 -1 95.59 5.7
3 -5 -1 91.39 7.6
-3 -5 1 97.29 6.8
-3 -5 1 87.49 5.5
3 5 -1 94.99 6.2
3 5 -1 86.69 8
3 5 -1 82.29 6.7
2 -5 -1 701.13 22
-2 -5 1 722.13 24.2
2 -5 -1 738.13 31.4
2 -5 -1 693.03 27.1
-2 5 1 719.83 30.5
2 5 -1 725.03 29.2
2 5 -1 707.03 23
2 5 -1 727.83 24.2
1 -5 -1 700.73 29.4
-1 -5 1 694.03 28.5
1 -5 -1 727.23 26.7
1 -5 -1 680.53 21.1
-1 -5 1 692.73 21.9
-1 5 1 760.12 30.7
1 5 -1 715.43 29.1
0 -5 1 410.26 18.1
0 -5 1 392.26 19.6
0 5 1 375.16 19.7
1 -5 1 86.39 6.2
1 -5 1 77.59 8.1
1 5 1 93.99 8.8
1 5 1 86.69 4.5
1 5 1 87.99 5.3
2 -5 1 3091.69 87.89
2 -5 1 3302.57 93.69
2 -5 1 3299.87 100.19
2 5 1 2738.93 90.19
2 5 1 3137.09 98.09
2 5 1 3065.99 101.19
-3 -5 -1 226.38 11.6
-3 -5 -1 231.58 11
3 -5 1 218.78 10.2
3 -5 1 228.88 9.3
3 -5 1 213.48 15.3
3 -5 1 237.38 12.3
3 5 1 233.68 12.8
-3 5 -1 232.88 12.8
3 5 1 238.28 14.6
4 -5 1 1510.25 47.5
4 -5 1 1556.54 50.79
-4 -5 -1 1562.74 50.69
4 -5 1 1466.75 56.29
4 -5 1 1462.75 49.1
-4 -5 -1 1517.65 48.9
4 5 1 1492.65 49.6
4 5 1 1528.05 53.49
-4 5 -1 1566.74 52.59
-5 -5 -1 147.29 11.1
5 -5 1 139.99 9.2
5 -5 1 149.88 10.5
5 -5 1 129.49 9.9
-5 -5 -1 144.99 9.5
5 5 1 134.39 9.9
5 5 1 161.48 12.2
5 5 1 159.88 12.2
-6 -5 -1 114.89 9.2
6 -5 1 115.99 10
6 -5 1 121.99 9
6 -5 1 113.49 12.3
6 -5 1 102.99 9.1
-6 -5 -1 105.89 9.9
6 5 1 134.49 10.4
6 5 1 120.09 10.7
-6 5 -1 102.09 10.4
6 5 1 112.19 11.6
-6 -6 1 82.29 7.3
6 -6 -1 74.59 15.3
6 -6 -1 80.49 7.9
-6 -6 1 79.89 8.5
6 -6 -1 75.49 8.6
-6 6 1 66.89 6
6 6 -1 92.99 9.1
6 6 -1 65.59 9.5
6 6 -1 73.69 8.1
5 -6 -1 27 5.3
-5 -6 1 22.6 4.9
5 -6 -1 40.6 5.5
-5 -6 1 33.3 4.7
5 6 -1 37.2 6.9
-5 6 1 31.4 3.4
4 -6 -1 115.99 9.4
-4 -6 1 85.09 7.2
-4 -6 1 99.99 8.2
4 -6 -1 93.69 6.8
4 6 -1 82.49 8.9
4 6 -1 85.79 8.7
3 -6 -1 1221.08 44
3 -6 -1 1200.08 48.1
3 -6 -1 1218.88 37.5
-3 -6 1 1211.18 39.2
-3 -6 1 1277.77 40.7
3 6 -1 1249.97 39.2
3 6 -1 1264.87 41.1
3 6 -1 1248.08 46.3
2 -6 -1 1072.79 38.6
-2 -6 1 1105.19 33.9
2 6 -1 1008.2 32.9
2 6 -1 1099.59 32.2
2 6 -1 1050.49 41.2
1 -6 -1 557.94 27.9
1 -6 -1 645.74 25.7
-1 -6 1 651.63 28.5
-1 6 1 661.13 29.9
1 6 -1 654.03 28.9
0 -6 1 40.4 7.5
0 -6 1 35.8 5
0 6 1 26.3 5.5
1 -6 1 121.09 11.4
1 -6 1 148.49 9.1
1 6 1 133.59 8.2
1 6 1 143.29 6.1
1 6 1 157.48 12.6
2 -6 1 426.76 18.5
2 6 1 425.26 17.2
2 6 1 441.46 15.7
2 6 1 399.16 22.1
-3 -6 -1 237.98 12
3 -6 1 249.88 9.9
3 -6 1 247.08 9
3 -6 1 255.97 13.5
3 6 1 252.27 16.6
-4 -6 -1 1039.7 36.7
4 -6 1 1094.69 34.1
4 -6 1 1061.89 36
4 -6 1 1091.19 38.9
4 6 1 1059.29 42.5
5 -6 1 86.49 6.5
5 -6 1 94.59 7.8
5 -6 1 99.49 14.9
5 -6 1 85.99 8.2
-5 -6 -1 96.09 7.8
5 6 1 92.59 9.7
5 6 1 97.19 8.1
5 6 1 84.09 9.6
-6 -6 -1 667.83 27.8
6 -6 1 690.33 26.1
6 -6 1 645.74 34.4
6 -6 1 710.33 28.9
6 -6 1 679.53 29
-6 6 -1 621.64 30.7
6 6 1 673.63 28.5
6 6 1 674.33 31.2
5 -7 -1 11 2.8
5 -7 -1 3.7 5.3
-5 -7 1 9.1 3.2
-5 -7 1 10 3
5 -7 -1 9.1 3.7
5 7 -1 9 4.7
5 7 -1 5.2 3.2
5 7 -1 14.2 3.6
4 -7 -1 329.57 18.3
4 -7 -1 357.66 27.9
-4 -7 1 350.76 15.9
4 -7 -1 351.06 12.8
-4 -7 1 324.07 14.6
4 7 -1 332.07 16.3
4 7 -1 328.67 20
4 7 -1 328.87 14.4
-3 -7 1 69.19 5.8
3 -7 -1 67.49 10.7
3 -7 -1 75.49 7.9
3 7 -1 74.69 4.8
3 7 -1 80.99 9.4
2 -7 -1 510.35 23.4
2 7 -1 536.75 26.8
1 -7 -1 1483.05 53.29
-1 -7 1 1629.54 57.99
-1 7 1 1589.64 59.79
0 -7 1 2112.89 76.29
0 -7 1 2347.77 70.39
0 7 1 2170.38 77.79
1 -7 1 215.28 12.4
1 -7 1 243.28 17.3
1 7 1 250.57 17.6
2 -7 1 179.98 11.2
2 7 1 179.78 8.2
2 7 1 202.38 15.6
-3 -7 -1 273.97 13.6
3 -7 1 309.17 15.6
3 7 1 274.97 14.1
3 7 1 270.87 12.3
3 7 1 290.67 19.3
4 -7 1 232.58 14.3
-4 -7 -1 245.38 12.9
4 -7 1 243.88 19
4 -7 1 241.28 10.1
4 -7 1 242.18 9.2
4 7 1 222.78 14.2
4 7 1 257.77 12.6
4 7 1 246.58 20.6
-5 -7 -1 90.09 9
5 -7 1 83.89 8.5
5 -7 1 84.29 5.8
5 -7 1 92.39 7.2
5 7 1 103.49 11.4
5 7 1 94.79 8.2
-4 -8 1 304.67 14.4
4 -8 -1 331.57 18.8
4 8 -1 337.37 13.4
4 8 -1 300.87 14.5
4 8 -1 332.67 21.1
-3 -8 1 75.79 6
3 -8 -1 71.29 8.1
3 -8 -1 92.19 13.9
3 8 -1 74.69 3.7
3 8 -1 69.19 11
2 -8 -1 80.99 11.8
2 -8 -1 76.49 8.5
1 -8 -1 266.17 16.1
-1 -8 1 304.67 15.5
0 -8 -1 617.94 27.1
0 -8 1 608.74 25.2
0 -8 1 605.44 31.6
0 8 1 612.24 32.1
1 -8 1 495.65 21.9
1 -8 1 464.65 27
1 8 1 504.25 28.3
2 -8 1 123.59 9.6
2 -8 1 103.89 12.6
2 8 1 126.69 13
3 -8 1 284.07 16.2
-3 -8 -1 272.37 14.1
3 8 1 286.57 13.6
3 8 1 290.17 12
3 8 1 275.17 20.1
9 0 -2 333.57 15.4
9 0 -2 333.07 22.4
9 0 -2 324.47 17.4
-9 0 2 349.57 21.7
8 0 -2 802.22 30.7
8 0 -2 739.63 35.7
-8 0 2 769.92 34.7
-8 0 2 789.82 33.4
8 0 -2 776.32 28.1
7 0 -2 130.79 9.2
7 0 -2 139.49 8.2
7 0 -2 134.09 12.2
-7 0 2 128.19 10.3
-7 0 2 131.79 11.6
-6 0 2 1341.07 48
6 0 -2 1311.97 43.9
6 0 -2 1301.17 48.4
-6 0 2 1344.57 45.8
-5 0 2 257.77 14.4
5 0 -2 258.47 14.7
5 0 -2 269.77 12.4
-5 0 2 258.47 12.9
-4 0 2 2420.36 76.19
4 0 -2 2492.75 76.59
4 0 -2 2457.65 71.09
4 0 -2 2374.56 73.19
-4 0 2 2517.55 74.19
-3 0 2 680.23 24
3 0 -2 612.54 21.7
-3 0 2 667.73 22.4
3 0 -2 648.84 19.9
3 0 -2 687.83 24.1
-2 0 2 282.27 9.1
2 0 -2 285.07 10.4
2 0 -2 281.77 12.1
-2 0 2 291.17 10.6
-2 0 2 284.17 11.7
1 0 -2 106.19 5.2
0 0 2 493.45 15.8
2 0 2 253.47 9.6
2 0 2 247.68 10.9
2 0 2 228.28 10.2
-2 0 -2 257.97 9.9
4 0 2 671.73 26.4
4 0 2 659.53 24.7
-4 0 -2 633.64 24
-4 0 -2 653.53 24.8
4 0 2 623.94 22.9
5 0 2 97.79 9.2
5 0 2 99.99 8.2
-5 0 -2 112.09 8.7
-5 0 -2 93.29 7.6
5 0 2 98.59 7
-6 0 -2 77.59 7.9
6 0 2 86.59 9.3
6 0 2 79.59 8.1
6 0 2 71.99 6.6
7 0 2 201.78 20.8
-7 0 -2 229.18 15.2
7 0 2 230.08 13.2
7 0 2 235.78 15.2
8 0 2 15.1 4.9
8 0 2 13.3 4.1
-8 0 -2 14.5 5.3
8 0 2 17.3 6
9 -1 -2 632.84 26.5
9 -1 -2 648.54 28
-9 -1 2 737.33 44.1
-9 -1 2 646.14 32.5
9 -1 -2 635.54 33.7
9 1 -2 603.54 26.7
9 1 -2 663.63 23.1
9 1 -2 659.43 34.6
-9 1 2 640.24 31.7
8 -1 -2 143.39 9.9
8 -1 -2 150.78 10.9
-8 -1 2 151.88 12
8 -1 -2 142.19 13.2
-8 -1 2 138.19 12.7
-8 1 2 136.89 13.8
8 1 -2 143.19 9.9
8 1 -2 167.18 14.6
-8 1 2 145.19 12.8
-7 -1 2 1494.75 53.89
-7 -1 2 1308.07 49.8
7 -1 -2 1512.05 48.6
7 -1 -2 1511.95 49.99
7 -1 -2 1434.66 54.29
-7 1 2 1460.05 53.09
-7 1 2 1532.85 52.49
7 1 -2 1391.66 47.8
7 1 -2 1477.65 55.09
6 -1 -2 180.78 10.7
6 -1 -2 153.28 13.8
6 -1 -2 179.48 13.4
-6 -1 2 176.28 10.8
-6 -1 2 169.48 12.4
-6 1 2 172.08 12.2
6 1 -2 170.88 9.6
-6 1 2 165.68 11.2
6 1 -2 182.88 12.9
5 -1 -2 2008.7 65.19
5 -1 -2 2048.5 68.19
-5 -1 2 2023.8 67.99
-5 -1 2 1994.7 64.89
5 -1 -2 2096.19 64.29
5 1 -2 2257.47 64.29
5 1 -2 2145.69 68.79
-5 1 2 2256.37 68.39
-5 1 2 2064.09 66.49
4 -1 -2 1689.13 55.89
-4 -1 2 2037.9 55.99
4 -1 -2 1803.52 58.19
-4 -1 2 1832.32 59.59
4 -1 -2 1701.23 54.89
-4 1 2 1710.63 57.69
4 1 -2 1861.71 58.79
-4 1 2 1928.81 57.39
4 1 -2 1739.03 54.69
-3 -1 2 3058.29 95.29
3 -1 -2 3176.08 95.29
3 -1 -2 3072.39 92.99
-3 -1 2 3545.05 93.09
3 -1 -2 3169.78 93.99
3 1 -2 3274.87 95.69
3 1 -2 3178.88 92.29
-3 1 2 3086.39 94.89
-3 1 2 3262.67 95.29
2 -1 -2 2654.73 77.19
2 -1 -2 2532.55 77.29
-2 -1 2 2451.05 75.39
-2 -1 2 2679.43 74.39
-2 1 2 2659.73 77.29
-2 1 2 2731.33 76.79
-2 1 2 2632.84 77.69
2 1 -2 2678.13 77.69
2 1 -2 2651.73 75.09
2 -1 2 1902.21 55.89
2 -1 2 1804.02 55.09
2 -1 2 1817.72 54.39
2 1 2 1900.71 56.59
2 1 2 1758.82 55.49
-2 1 -2 1854.81 55.09
3 -1 2 5480.55 157.08
3 -1 2 5170.48 151.88
3 -1 2 5227.08 150.78
-3 -1 -2 5273.67 151.08
-3 -1 -2 5345.67 152.68
-3 1 -2 5009.7 151.58
-3 1 -2 5107.79 151.58
3 1 2 5392.36 152.68
4 -1 2 146.09 8.3
-4 -1 -2 155.88 8.8
4 -1 2 137.49 8.8
4 -1 2 155.98 10.4
-4 -1 -2 145.99 9.4
-4 1 -2 171.18 9.6
-4 1 -2 149.79 9.2
4 1 2 146.19 10.3
4 1 2 153.28 9.5
-5 -1 -2 939.81 35
5 -1 2 945.11 34.4
-5 -1 -2 945.01 33.9
5 -1 2 946.31 32.6
5 -1 2 947.51 36.7
-5 1 -2 974.8 34.7
5 1 2 932.91 32.4
5 1 2 925.91 34.8
5 1 2 922.71 36.7
-5 1 -2 944.81 34.4
-6 -1 -2 167.58 12.1
6 -1 2 187.58 11
6 -1 2 196.18 12.4
6 -1 2 194.08 14.3
6 1 2 203.58 11.2
6 1 2 183.78 12.5
6 1 2 186.98 14.4
-6 1 -2 184.68 12.8
7 -1 2 730.93 28.5
7 -1 2 676.43 30.3
7 -1 2 700.73 33.7
-7 -1 -2 676.83 30.8
-7 1 -2 735.63 30.8
7 1 2 670.83 33.7
7 1 2 727.63 31.5
-7 1 -2 763.72 44.5
7 1 2 769.32 28.8
8 -1 2 72.39 10.2
8 -1 2 66.19 11.2
-8 -1 -2 81.19 9.3
8 -1 2 69.99 7.6
8 1 2 56.19 9.3
8 1 2 73.79 12
8 1 2 72.79 7.6
-8 1 -2 57.49 8.9
8 -2 -2 0.8 2.4
-8 -2 2 1.8 3.7
-8 -2 2 2.2 2.8
8 -2 -2 9.5 4.6
8 -2 -2 3.3 2.9
-8 2 2 6 3.5
8 2 -2 0.2 1.7
8 2 -2 -0.8 3.4
-8 2 2 2.3 2.4
-7 -2 2 409.36 22.2
7 -2 -2 384.76 33
7 -2 -2 391.06 20.1
-7 -2 2 382.56 19.2
7 -2 -2 415.76 19.5
-7 2 2 431.96 21.8
7 2 -2 448.56 18.3
7 2 -2 417.26 23.1
-6 -2 2 1204.98 44.8
6 -2 -2 1198.18 44.6
-6 -2 2 1231.18 42
6 -2 -2 1196.08 41.8
6 -2 -2 1176.48 41.9
-6 2 2 1174.88 43.4
6 2 -2 1271.77 47
6 2 -2 1153.08 39.2
5 -2 -2 511.85 20.9
5 -2 -2 553.24 21.3
-5 -2 2 514.95 19.7
-5 -2 2 519.65 22.7
5 -2 -2 481.75 22
5 2 -2 500.75 16.8
5 2 -2 462.45 22.1
-5 2 2 500.65 21.7
-5 2 2 463.25 21.2
5 2 -2 496.65 18.3
-4 -2 2 904.11 32.9
4 -2 -2 951.1 31.9
4 -2 -2 882.91 32.3
-4 -2 2 896.21 29.7
4 -2 -2 892.61 31.6
4 2 -2 924.61 30.7
4 2 -2 879.11 32.9
-4 2 2 913.31 32.3
-4 2 2 868.01 32
4 2 -2 930.81 27.9
3 -2 -2 1084.89 36.5
3 -2 -2 1098.29 36.6
-3 -2 2 1142.79 37.5
3 -2 -2 1074.39 36.6
-3 -2 2 1093.59 34.1
3 2 -2 1156.88 37.4
3 2 -2 1121.99 33.7
-3 2 2 1132.89 36.6
-3 2 2 1106.49 37
3 2 -2 1133.69 33.6
2 -2 -2 2056.39 61.69
-2 -2 2 2008.6 61.39
2 -2 -2 2023.6 60.69
2 -2 -2 2127.79 62.29
-2 -2 2 1940.81 58.29
2 2 -2 1987.7 60.99
-2 2 2 2102.09 62.59
1 -2 -2 963.4 29.6
-1 -2 2 960.6 27.4
-1 -2 2 963.5 29.9
-1 -2 2 974.1 30.9
1 2 -2 953.2 29.4
-1 2 2 974.9 32
1 -2 2 59.19 3.5
1 -2 2 62.39 3.4
-1 -2 -2 55.49 4
-1 2 -2 63.29 3.6
-1 2 -2 58.69 3.7
1 2 2 64.19 4.2
1 2 2 56.99 3.8
2 -2 2 78.39 4.9
2 -2 2 80.79 5.2
2 -2 2 85.59 5
-2 -2 -2 80.29 4.9
2 2 2 82.09 5.4
-2 2 -2 91.59 5.5
2 2 2 82.19 5.9
-3 -2 -2 738.33 25.4
3 -2 2 724.93 26.7
-3 -2 -2 719.73 26.6
3 -2 2 742.33 25.5
3 -2 2 745.73 25.8
3 2 2 770.12 28.2
3 2 2 801.62 27
-3 2 -2 757.72 26.5
-4 -2 -2 132.49 8.1
4 -2 2 122.79 9.1
-4 -2 -2 145.09 9.4
4 -2 2 133.29 8.1
4 -2 2 147.29 8.7
-4 2 -2 143.99 8.6
4 2 2 159.58 10.7
4 2 2 128.69 8.8
-4 2 -2 136.39 8.9
5 -2 2 2154.88 68.39
5 -2 2 2184.68 69.49
-5 -2 -2 2150.68 68.99
-5 -2 -2 2193.98 70.89
5 -2 2 2157.58 71.89
5 2 2 2197.48 73.49
-5 2 -2 2295.77 69.69
5 2 2 2332.27 71.39
-5 2 -2 2076.59 70.09
-6 -2 -2 880.11 34.2
-6 -2 -2 705.93 31.2
6 -2 2 900.11 31.8
6 -2 2 848.52 32.8
6 -2 2 841.12 35.4
6 2 2 834.12 36.2
-6 2 -2 847.82 32.5
6 2 2 872.61 34.1
7 -2 2 225.08 16.8
7 -2 2 205.88 12.8
-7 -2 -2 215.68 14.2
-7 -2 -2 233.38 15.6
7 -2 2 240.98 14.9
-7 2 -2 239.88 14.9
-7 2 -2 225.18 15.8
7 2 2 220.38 16.9
7 2 2 213.78 15
-8 -3 2 97.29 10.8
8 -3 -2 99.59 9.3
-8 -3 2 92.09 9.1
8 -3 -2 95.09 9.7
8 -3 -2 90.99 14.2
-8 3 2 84.19 10
8 3 -2 74.89 12.3
8 3 -2 86.69 7.5
-8 3 2 98.39 10
7 -3 -2 297.77 25.5
7 -3 -2 261.47 17.6
-7 -3 2 306.47 15.8
7 -3 -2 297.47 16.4
-7 -3 2 299.37 18.3
7 3 -2 278.87 12
7 3 -2 277.47 13.7
7 3 -2 263.67 18.3
-7 3 2 287.87 17
6 -3 -2 1229.18 45.2
6 -3 -2 1244.58 44.3
6 -3 -2 1264.87 51.19
-6 -3 2 1219.68 46.3
-6 -3 2 1254.37 42.7
6 3 -2 1324.57 41.3
6 3 -2 1194.98 46.9
-6 3 2 1294.67 45.2
6 3 -2 1264.07 39.7
5 -3 -2 1214.08 43.6
5 -3 -2 1309.17 44.8
-5 -3 2 1246.28 45.1
5 -3 -2 1281.47 44.8
-5 -3 2 1289.77 41.5
-5 3 2 1274.77 43.7
5 3 -2 1301.97 40.1
5 3 -2 1265.37 45.8
5 3 -2 1282.07 40.3
-5 3 2 1237.78 44.8
4 -3 -2 2057.69 63.59
-4 -3 2 2032.4 64.19
-4 -3 2 1956 59.89
4 -3 -2 1907.51 62.59
4 -3 -2 2083.59 64.89
4 3 -2 1970.9 60.19
4 3 -2 1945.51 63.99
3 -3 -2 907.61 30.7
3 -3 -2 952.3 32.3
-3 -3 2 898.91 31.6
-3 -3 2 933.31 28.5
3 -3 -2 903.01 33
3 3 -2 950.5 30.4
3 3 -2 891.31 31.6
-3 3 2 868.11 32.8
2 -3 -2 4604.94 143.29
-2 -3 2 4907.91 141.49
2 -3 -2 4959.3 139.99
-2 -3 2 5003.7 141.19
2 -3 -2 4939.21 142.49
-2 3 2 4882.61 144.49
2 3 -2 4965.5 140.69
-2 3 2 4803.62 140.19
-1 -3 2 920.61 31.6
1 -3 -2 919.01 28.3
-1 -3 2 940.41 29
1 3 -2 947.01 31.6
-1 3 2 894.51 28.7
0 -3 -2 988.7 29.2
0 -3 2 979 28.3
0 -3 2 949.51 28.6
0 -3 2 862.91 35.1
0 3 -2 951.6 27.5
0 3 2 904.11 29
1 -3 2 3918.31 109.39
-1 -3 -2 3875.81 111.29
1 -3 2 3725.93 110.19
1 3 2 3791.22 111.29
-1 3 -2 3887.81 110.89
2 -3 2 1802.52 54.79
2 -3 2 1808.62 53.89
2 -3 2 1814.92 55.09
2 3 2 1817.72 56.79
2 3 2 1877.81 55.59
-2 3 -2 1789.82 56.39
3 -3 2 1118.09 36.7
-3 -3 -2 1098.09 37.8
3 -3 2 1142.19 36.1
-3 -3 -2 1126.09 36.4
3 -3 2 1088.29 37.2
-3 3 -2 1145.29 38
3 3 2 1116.89 37.4
3 3 2 1166.48 39.4
4 -3 2 1363.36 45.7
-4 -3 -2 1411.66 47.3
4 -3 2 1406.46 47.4
-4 -3 -2 1539.95 45.9
4 -3 2 1385.86 45.5
4 3 2 1303.07 60.79
-4 3 -2 1405.06 47.4
4 3 2 1401.66 46.9
5 -3 2 1212.68 43.9
5 -3 2 1216.88 41.3
-5 -3 -2 1259.07 43.6
5 -3 2 1187.58 41.4
-5 -3 -2 1159.48 41.1
5 3 2 1236.98 46.7
-5 3 -2 1176.28 43.2
5 3 2 1215.88 45.5
-6 -3 -2 95.99 8.4
-6 -3 -2 77.59 8.3
6 -3 2 80.09 9.1
6 -3 2 92.69 8.3
6 3 2 76.59 10.6
6 3 2 89.09 8.5
-7 -3 -2 79.99 9.5
7 -3 2 82.89 8.6
7 -3 2 95.29 10.6
-7 -3 -2 101.59 9.5
7 -3 2 93.49 8.4
-7 3 -2 104.59 10.3
7 3 2 93.39 9.6
7 3 2 111.29 12.2
8 -4 -2 400.16 21.5
-8 -4 2 395.16 22.7
-8 -4 2 409.26 23.4
8 -4 -2 391.76 23.3
8 4 -2 420.46 25.4
-8 4 2 409.46 21.5
8 4 -2 400.16 15.9
-7 -4 2 104.09 10.5
7 -4 -2 94.99 10.1
-7 -4 2 100.59 8.6
7 -4 -2 99.29 9.2
7 -4 -2 76.89 9.5
7 4 -2 93.79 11.1
7 4 -2 90.39 6.8
-7 4 2 100.49 9.3
6 -4 -2 2096.79 70.99
-6 -4 2 2189.18 72.99
-6 -4 2 2153.88 68.29
6 -4 -2 2060.29 71.29
6 -4 -2 2150.48 73.39
6 4 -2 2245.58 74.29
6 4 -2 2283.07 67.39
-5 -4 2 724.33 26.4
5 -4 -2 728.43 28.9
-5 -4 2 759.42 30.3
5 -4 -2 734.53 35.8
5 -4 -2 700.23 29.1
5 4 -2 783.72 27.3
5 4 -2 739.33 30.6
-5 4 2 769.42 31
-5 4 2 776.22 28.4
-4 -4 2 124.99 6.8
4 -4 -2 117.59 8.1
-4 -4 2 114.79 8.7
4 -4 -2 128.89 10.2
4 -4 -2 121.89 9
-4 4 2 126.79 8
4 4 -2 126.79 9.2
4 4 -2 119.29 8.1
3 -4 -2 278.67 13.7
-3 -4 2 251.87 9.8
3 -4 -2 258.97 14.7
-3 -4 2 253.67 12.5
3 -4 -2 239.38 11.1
-3 4 2 250.57 14.6
-3 4 2 238.18 14.8
3 4 -2 255.97 12.4
3 4 -2 258.77 12.7
-2 -4 2 297.67 12.2
2 -4 -2 272.97 10.9
2 -4 -2 260.07 14.7
2 -4 -2 266.37 13.5
-2 -4 2 291.27 13.8
-2 -4 2 282.37 10
2 4 -2 282.97 11.5
-2 4 2 279.27 11.1
-2 4 2 292.17 15.8
1 -4 -2 1676.33 50.29
-1 -4 2 1759.92 50.99
-1 -4 2 1710.43 55.89
-1 4 2 1756.62 50.99
1 4 -2 1658.53 49.5
-1 4 2 1717.63 57.29
0 -4 2 17.4 1.7
0 -4 2 18.8 2.5
0 -4 2 17.4 4.1
0 -4 -2 16.7 2.2
0 4 2 9.9 3
0 4 2 15.8 2.2
1 -4 2 409.66 14.6
1 -4 2 382.96 18.6
1 -4 2 380.96 12.5
1 -4 2 388.26 12.3
-1 -4 -2 376.96 14.6
1 4 2 373.76 14.7
1 4 2 349.17 17.8
1 4 2 368.16 13.8
2 -4 2 430.46 20.4
2 -4 2 398.36 14.8
2 -4 2 400.66 15.8
2 -4 2 414.76 13.9
-2 4 -2 408.86 16.6
2 4 2 373.16 16.6
3 -4 2 90.09 5.7
-3 -4 -2 95.29 6.5
3 -4 2 103.39 6.9
3 -4 2 95.09 6.6
3 4 2 89.69 6.6
-3 4 -2 110.69 7.8
3 4 2 104.49 8.1
-4 -4 -2 597.74 22.6
4 -4 2 595.84 23.1
4 -4 2 562.54 23.4
4 -4 2 585.34 21.9
4 4 2 581.14 25.7
4 4 2 593.84 23.6
-4 4 -2 611.24 24.9
5 -4 2 15 3.6
5 -4 2 15.6 3.9
-5 -4 -2 13.7 3.4
5 -4 2 14.7 4.2
-5 -4 -2 16.8 4.4
5 4 2 17.1 5.1
5 4 2 17.1 4.3
-5 4 -2 13.3 3.7
6 -4 2 130.99 11
-6 -4 -2 119.19 9.5
-6 -4 -2 132.49 10.9
6 -4 2 129.89 9.7
6 -4 2 126.19 9.3
6 4 2 128.09 10.6
6 4 2 118.39 12.2
-6 4 -2 101.29 10.2
-7 -4 -2 76.89 8.9
7 -4 2 94.49 11.7
7 -4 2 97.69 11
7 -4 2 85.29 8.3
7 -4 2 83.49 8.4
-7 -4 -2 86.49 8.9
7 4 2 87.19 12.6
7 4 2 94.29 9.8
-7 4 -2 102.69 10.5
-7 -5 2 708.33 31.8
-7 -5 2 661.63 27.9
7 -5 -2 684.53 30.5
7 -5 -2 669.23 30.4
7 5 -2 704.83 33.2
-7 5 2 693.13 32.9
7 5 -2 744.43 27.1
-7 5 2 695.13 28.5
-6 -5 2 2424.86 81.39
6 -5 -2 2480.65 84.39
6 -5 -2 2496.75 80.09
6 -5 -2 2340.07 80.49
-6 -5 2 2496.85 77.19
-6 5 2 2400.66 82.59
6 5 -2 2638.64 78.39
-6 5 2 2575.04 80.79
6 5 -2 2436.26 82.49
-5 -5 2 2347.86 72.19
5 -5 -2 2295.17 79.79
5 -5 -2 2367.16 74.49
-5 -5 2 2329.47 76.29
5 -5 -2 2591.24 77.69
-5 5 2 2273.77 72.89
5 5 -2 2356.16 74.79
-4 -5 2 420.36 15.7
-4 -5 2 427.66 18.9
4 -5 -2 409.46 21.7
4 -5 -2 397.06 16.9
4 -5 -2 434.96 20
4 5 -2 416.76 19
4 5 -2 351.16 17.8
-4 5 2 402.96 16.2
-3 -5 2 82.39 5
3 -5 -2 97.49 8.2
-3 -5 2 93.39 6.8
3 -5 -2 91.19 9.1
3 -5 -2 84.79 5.6
3 5 -2 87.49 7.9
-3 5 2 85.49 5.4
-3 5 2 92.09 9.4
3 5 -2 93.69 6.8
-2 -5 2 506.25 21.7
2 -5 -2 465.95 28.3
2 -5 -2 481.35 16.2
-2 -5 2 471.05 17.7
2 -5 -2 491.85 21
-2 5 2 471.25 16.1
-2 5 2 474.95 23.5
2 5 -2 477.45 16.8
-1 -5 2 512.75 16.3
-1 -5 2 492.05 22.3
1 -5 -2 443.56 15.9
-1 5 2 489.25 16.2
-1 5 2 483.25 15.6
-1 5 2 509.35 24
0 -5 2 414.36 20.8
0 -5 -2 428.46 15.2
0 -5 2 425.16 16
0 5 2 433.36 15
0 5 2 394.06 20.9
0 5 2 432.56 14.9
1 -5 2 940.01 44.1
1 -5 2 852.91 29.8
1 5 2 880.81 28.2
1 5 2 862.61 29.3
1 5 2 875.71 35.1
2 -5 2 70.79 8.1
2 -5 2 57.09 5.2
2 -5 2 62.49 3.4
2 -5 2 58.49 4.1
2 5 2 62.39 4.9
2 5 2 67.89 9.3
2 5 2 51.89 5.4
3 -5 2 2115.79 65.29
3 -5 2 2179.38 66.89
3 -5 2 2155.18 74.09
-3 -5 -2 2065.99 65.99
3 -5 2 2194.68 63.49
-3 5 -2 2148.89 68.29
3 5 2 2142.59 71.99
4 -5 2 1525.05 49.8
-4 -5 -2 1521.55 49
4 -5 2 1465.55 49.2
4 -5 2 1543.55 47.1
4 5 2 1454.15 53.39
4 5 2 1508.05 49.5
-4 5 -2 1431.16 51.29
5 -5 2 2213.28 71.19
5 -5 2 2153.88 67.99
-5 -5 -2 2143.19 69.69
5 -5 2 2176.88 80.59
5 -5 2 2200.38 70.29
5 5 2 2226.38 70.79
5 5 2 2210.58 74.89
6 -5 2 15.9 3.9
6 -5 2 16.4 6.2
6 -5 2 11.2 4.5
-6 -5 -2 15.5 4.6
6 -5 2 12.6 3.4
-6 5 -2 19.7 6.3
6 5 2 15.5 6
6 5 2 16.8 4.9
6 -6 -2 100.79 11.6
6 -6 -2 110.29 9.1
6 -6 -2 97.49 9.7
-6 -6 2 104.09 7.9
-6 -6 2 95.99 9.5
6 6 -2 111.39 9.4
-6 6 2 92.79 7.4
6 6 -2 91.99 10.1
6 6 -2 98.69 9.2
5 -6 -2 518.85 24
-5 -6 2 460.65 22
-5 -6 2 516.35 20.2
5 -6 -2 483.85 20.5
5 6 -2 492.25 22.9
-5 6 2 486.85 18.6
5 6 -2 512.85 21.5
4 -6 -2 209.68 13.4
4 -6 -2 178.38 9.5
-4 -6 2 178.78 9.2
-4 -6 2 208.68 11.8
4 6 -2 194.78 13
-4 6 2 178.28 8.2
4 6 -2 188.78 10.4
3 -6 -2 700.83 31.4
-3 -6 2 671.13 24.5
3 -6 -2 655.83 22.2
-3 -6 2 694.33 22.7
3 -6 -2 633.44 27.7
3 6 -2 661.53 28.6
3 6 -2 657.43 23.9
3 6 -2 664.93 23
2 -6 -2 1371.56 48.5
-2 -6 2 1387.16 42.9
2 -6 -2 1355.06 51.59
-2 -6 2 1321.77 60.29
-2 6 2 1386.76 52.69
2 6 -2 1439.36 40.8
2 6 -2 1422.76 41.2
1 -6 -2 3729.33 107.79
-1 -6 2 3703.13 106.79
1 -6 -2 3741.93 114.89
-1 -6 2 3693.73 117.69
-1 -6 2 3909.41 113.59
-1 6 2 3848.72 120.79
0 -6 2 1361.86 44.3
0 -6 2 1388.36 51.69
0 6 2 1361.96 41.4
0 6 2 1445.36 52.89
1 -6 2 554.74 27.2
1 -6 2 531.55 20.7
1 6 2 552.34 18.9
1 6 2 538.05 19.8
1 6 2 548.05 27
2 -6 2 185.98 10.2
2 6 2 169.98 8.7
2 6 2 163.38 10
2 6 2 191.88 14.3
3 -6 2 324.67 11.3
-3 -6 -2 300.67 14.4
3 -6 2 312.97 12.5
3 -6 2 283.07 14.5
3 6 2 317.77 19.2
3 6 2 301.87 13.8
4 -6 2 192.78 9.2
4 -6 2 208.38 16.8
4 -6 2 197.28 14.9
-4 -6 -2 192.08 11.1
4 -6 2 186.48 11.6
-4 6 -2 179.88 12.4
4 6 2 170.38 14.1
5 -6 2 388.26 18.7
5 -6 2 376.76 18.1
5 -6 2 389.66 16.1
5 -6 2 377.86 24.4
-5 -6 -2 354.56 17.8
5 6 2 377.86 21.3
5 6 2 414.26 22.7
5 6 2 385.86 18.5
-5 6 -2 366.16 23.5
-5 -7 2 123.49 9.9
-5 -7 2 131.09 8.2
5 -7 -2 115.29 13
5 -7 -2 110.49 10.5
5 -7 -2 128.89 8
5 7 -2 113.99 9.9
5 7 -2 125.49 11.2
5 7 -2 119.79 8.8
-4 -7 2 100.19 6.6
4 -7 -2 124.79 10.6
4 -7 -2 114.89 12.5
4 -7 -2 99.99 5.9
-4 -7 2 100.09 7.9
4 7 -2 98.69 7.8
-3 -7 2 67.89 6.7
-3 -7 2 91.39 5.6
3 -7 -2 81.89 4.2
3 -7 -2 74.49 8.1
3 -7 -2 63.49 9.5
3 7 -2 87.89 4.9
2 -7 -2 742.33 31.4
-2 -7 2 768.92 24.6
2 -7 -2 765.82 23.2
-2 7 2 784.82 36.6
1 -7 -2 172.18 12
-1 -7 2 161.28 13.5
-1 -7 2 151.38 9.1
-1 7 2 132.69 14.9
0 -7 2 1607.84 59.99
0 -7 2 1602.24 51.69
0 7 2 1615.84 61.29
1 -7 2 10.1 4.3
1 -7 2 18.4 3.6
1 7 2 19.4 2.7
1 7 2 15.4 5.3
1 7 2 22.4 3
2 -7 2 11.8 3.1
2 7 2 16.5 6.4
-3 -7 -2 638.94 24.8
3 -7 2 559.84 35.6
3 -7 2 661.43 25.6
3 7 2 612.34 27
3 7 2 651.13 23.4
3 7 2 591.44 30.9
-4 -7 -2 156.18 10.2
4 -7 2 144.39 10.4
4 -7 2 140.89 14.7
4 -7 2 159.58 8
4 -7 2 143.59 6.8
4 7 2 161.78 14.5
4 7 2 150.88 11.6
4 -8 -2 276.67 17.8
-4 -8 2 292.97 14
-4 -8 2 311.47 13.4
4 8 -2 276.67 12.9
4 8 -2 302.87 12.5
3 -8 -2 102.39 10.1
-3 -8 2 104.29 7.7
-2 -8 2 56.19 5.7
2 -8 -2 47.1 8
-1 -8 2 172.68 15.1
-1 -8 2 191.18 10.9
1 -8 -2 189.58 17.5
-1 8 2 169.68 16
0 -8 2 79.99 6.8
0 -8 2 52.79 10.8
0 8 2 60.89 9.9
1 -8 2 29.2 5.1
1 -8 2 26.6 8
1 8 2 33.2 8.6
2 -8 2 7.5 4.2
2 -8 2 6.8 2.8
2 8 2 7 2.3
2 8 2 13.7 5.4
2 8 2 11.2 2.3
3 -8 2 226.08 13.1
3 8 2 230.08 18.4
3 8 2 214.78 10.9
3 8 2 207.48 12.3
9 0 -3 228.28 14.1
-9 0 3 221.18 17.4
-9 0 3 226.48 16.4
9 0 -3 243.98 18.9
8 0 -3 13.8 5.7
-8 0 3 8.3 4
-8 0 3 9.5 3.5
8 0 -3 4 2.4
-7 0 3 1988.9 68.19
7 0 -3 1945.41 62.99
-7 0 3 1915.61 65.19
7 0 -3 1973.1 58.29
7 0 -3 1984.7 69.19
-6 0 3 31.5 5.5
6 0 -3 26.9 5.7
6 0 -3 29.9 4.3
-6 0 3 23.3 5.1
6 0 -3 28 3.1
-5 0 3 900.01 35.7
5 0 -3 880.31 31.4
5 0 -3 969.5 35.5
-5 0 3 943.21 32.8
4 0 -3 2428.56 74.39
-4 0 3 2291.57 71.69
-4 0 3 2236.28 73.89
4 0 -3 2521.75 71.49
-3 0 3 701.03 23.2
3 0 -3 647.64 24.6
3 0 -3 764.92 23.2
-3 0 3 645.04 24.9
-3 0 3 650.43 20.6
0 0 -3 197.98 8.4
0 0 3 217.88 8.7
-2 0 -3 1843.22 56.29
2 0 3 1998.3 58.19
2 0 3 1913.71 57.29
-2 0 -3 1774.12 60.29
3 0 3 8630.14 248.18
4 0 3 310.77 16.1
4 0 3 288.57 14.4
4 0 3 300.97 13.1
-4 0 -3 290.57 13.8
5 0 3 1283.67 41.4
5 0 3 1183.48 43
-5 0 -3 1249.28 43
5 0 3 1208.78 45.5
6 0 3 452.65 24.6
6 0 3 509.35 24.8
6 0 3 477.55 22.4
-7 0 -3 83.79 9.1
7 0 3 85.79 9.2
7 0 3 76.69 7.3
7 0 3 68.79 10.7
9 -1 -3 521.95 29.7
9 -1 -3 516.85 21.2
9 -1 -3 549.25 25
-9 -1 3 534.05 29.1
-9 -1 3 541.75 27.2
9 1 -3 555.54 23.9
-9 1 3 590.34 29.8
9 1 -3 553.34 31
8 -1 -3 870.21 33.9
8 -1 -3 904.31 31.1
-8 -1 3 898.31 38.6
-8 -1 3 840.42 35.1
8 -1 -3 858.51 38.7
8 1 -3 874.91 32.5
8 1 -3 835.92 39
-8 1 3 903.11 38.1
-8 1 3 853.71 36.4
-7 -1 3 1299.77 46.4
7 -1 -3 1297.67 45.5
7 -1 -3 1297.57 49.99
-7 -1 3 1285.07 49.5
7 -1 -3 1296.87 42.7
-7 1 3 1309.87 49.1
7 1 -3 1421.46 44.5
-7 1 3 1271.77 47.5
7 1 -3 1338.67 50.79
-6 -1 3 567.94 22.9
6 -1 -3 516.75 22.3
-6 -1 3 534.05 25.2
6 -1 -3 583.24 25.9
6 -1 -3 575.34 20.7
-6 1 3 507.55 24.6
-6 1 3 552.04 23.9
6 1 -3 586.44 21.5
6 1 -3 568.14 26
-5 -1 3 80.19 8
-5 -1 3 85.69 6.4
5 -1 -3 80.39 7.9
5 -1 -3 76.49 6.4
5 -1 -3 76.29 5.4
-5 1 3 88.69 7.2
-5 1 3 93.39 8.2
5 1 -3 88.29 5.9
5 1 -3 79.59 7.7
4 -1 -3 2454.65 69.89
4 -1 -3 2215.28 67.39
4 -1 -3 2316.67 71.49
-4 -1 3 2146.59 68.59
-4 -1 3 2235.48 71.79
4 1 -3 2335.97 71.89
4 1 -3 2263.67 67.49
-4 1 3 2208.08 69.89
-4 1 3 2299.07 71.59
3 -1 -3 542.75 21.1
-3 -1 3 645.34 20.2
-3 -1 3 541.25 22.3
3 -1 -3 605.04 22.3
-3 1 3 613.84 22.7
3 1 -3 614.74 22.7
3 1 -3 613.44 19.6
-3 1 3 600.74 20.5
2 -1 -3 1333.47 41.8
-2 -1 3 1415.56 42.5
2 -1 -3 1190.58 41
-2 -1 3 1344.47 39.3
-2 1 3 1342.97 42.1
2 1 -3 1353.46 39.1
2 1 -3 1359.66 41.9
-2 -1 -3 2753.92 82.69
-2 -1 -3 2818.82 80.99
2 -1 3 2728.13 81.39
2 -1 3 2739.23 80.29
2 -1 3 2862.71 82.19
2 1 3 2798.72 81.99
-2 1 -3 2776.02 82.19
-2 1 -3 2501.05 82.59
2 1 3 2838.12 82.89
3 -1 3 987.8 34.1
-3 -1 -3 886.81 32
3 -1 3 1017.5 31.8
3 -1 3 1006.6 33.1
-3 1 -3 963.3 32.7
3 1 3 1054.79 35.2
3 1 3 949.31 33.4
4 -1 3 557.84 22.3
4 -1 3 582.04 24.3
-4 -1 -3 537.05 23.8
4 -1 3 562.84 21
-4 1 -3 576.94 22.5
4 1 3 565.84 22.8
4 1 3 578.24 24.7
5 -1 3 194.88 12
5 -1 3 204.88 11.1
5 1 3 217.78 14.5
5 1 3 207.58 12.6
-5 1 -3 222.98 12.7
6 -1 3 366.66 21.1
6 -1 3 381.36 19.1
6 1 3 375.86 19.3
6 1 3 366.66 21.5
-7 -1 -3 31.8 6.1
7 -1 3 50.29 7.1
7 -1 3 46.6 8.7
7 -1 3 41.4 7.1
-7 1 -3 47.9 8.4
7 1 3 39.2 7
7 1 3 44.1 8.3
-8 -2 3 156.08 11.7
8 -2 -3 156.98 11.5
8 -2 -3 149.88 13.4
-8 -2 3 134.59 13.1
8 -2 -3 142.09 10.2
8 2 -3 164.08 14.6
-8 2 3 159.18 13.4
8 2 -3 153.18 10
-8 2 3 130.39 12.6
7 -2 -3 0.1 2.7
7 -2 -3 -0.8 2.1
-7 -2 3 -1.1 1.4
-7 -2 3 3.3 2.8
7 -2 -3 1.3 1.8
-7 2 3 0.5 2.7
7 2 -3 4.3 3.5
-7 2 3 2.7 2.9
7 2 -3 -1.3 1.2
-6 -2 3 1424.16 48
-6 -2 3 1393.56 51.89
6 -2 -3 1440.46 48.1
6 -2 -3 1471.75 52.09
6 -2 -3 1537.55 49.8
6 2 -3 1434.96 46.1
6 2 -3 1443.86 52.59
-6 2 3 1429.96 51.19
-6 2 3 1498.65 51.09
5 -2 -3 767.32 30.4
-5 -2 3 794.92 31.2
5 -2 -3 741.63 28.8
5 -2 -3 760.02 28.1
-5 -2 3 796.92 27.4
-5 2 3 786.52 30.5
5 2 -3 795.22 31.2
5 2 -3 760.22 25.8
-5 2 3 776.72 29.9
-4 -2 3 2832.32 87.29
-4 -2 3 3114.19 92.19
4 -2 -3 2917.41 90.79
4 -2 -3 2885.71 89.19
4 -2 -3 3122.29 90.59
-4 2 3 2939.71 90.99
4 2 -3 2881.51 91.29
4 2 -3 3125.09 86.49
-4 2 3 2992.3 90.89
-3 -2 3 518.35 20.2
3 -2 -3 476.75 19.3
3 -2 -3 502.55 19.3
-3 -2 3 503.15 16.6
-3 -2 3 495.75 16.1
3 2 -3 484.45 15.9
-3 2 3 494.45 19.4
3 2 -3 494.75 19.6
-3 2 3 509.95 19.7
-1 -2 3 6713.63 190.98
1 -2 3 3479.05 98.19
-1 -2 -3 3088.99 99.59
1 -2 3 3450.55 97.29
-1 2 -3 3544.15 98.59
-1 2 -3 3395.26 97.99
1 2 3 3376.56 99.09
1 2 3 3490.95 99.69
2 -2 3 159.78 8.3
2 -2 3 172.18 8
2 -2 3 159.48 7.4
-2 -2 -3 164.98 9.1
-2 -2 -3 159.78 7.9
-2 2 -3 152.18 9.1
2 2 3 157.28 8.4
2 2 3 153.58 8.9
-3 -2 -3 1126.29 35.9
3 -2 3 1061.99 35.9
3 -2 3 1031.2 36.9
3 -2 3 1125.89 35.4
-3 2 -3 1091.99 36.6
3 2 3 1102.19 37
3 2 3 1142.69 38.8
4 -2 3 1495.15 49.8
4 -2 3 1571.84 49.1
-4 -2 -3 1545.55 49.7
4 -2 3 1466.65 51.69
4 2 3 1502.65 52.99
-4 2 -3 1661.73 51.19
4 2 3 1528.95 50.79
5 -2 3 739.13 27.6
5 -2 3 716.23 29.7
5 -2 3 671.13 25.7
-5 2 -3 669.73 27.7
5 2 3 688.23 28
5 2 3 656.83 30.1
6 -2 3 591.34 29
6 -2 3 668.33 25.6
6 -2 3 670.73 27.2
6 2 3 593.34 27
6 2 3 620.94 30.4
-7 -2 -3 192.08 13.8
7 -2 3 205.58 13.9
7 -2 3 231.08 17
7 -2 3 195.58 12.5
7 2 3 197.78 14.2
7 2 3 160.08 15.1
-7 2 -3 228.38 15.4
-8 -3 3 9.5 3.4
8 -3 -3 2.7 2.3
-8 -3 3 -0.7 3.2
8 -3 -3 8.6 3.5
8 -3 -3 10.3 5.1
-8 3 3 8.2 3.9
8 3 -3 6.5 2.6
-8 3 3 7.7 3.6
8 3 -3 6.4 4.4
-7 -3 3 131.39 9.6
7 -3 -3 127.09 10.2
7 -3 -3 117.09 9.9
-7 -3 3 129.49 12.1
7 -3 -3 113.59 11
7 3 -3 137.69 12.4
7 3 -3 121.09 7.9
-7 3 3 109.29 10.3
6 -3 -3 1067.29 39.1
-6 -3 3 1088.39 37
6 -3 -3 998.4 39.8
-6 -3 3 1067.19 41.2
6 -3 -3 1085.99 39.4
6 3 -3 1037 41.2
6 3 -3 1055.99 34.9
-6 3 3 1095.89 40.1
-5 -3 3 80.29 8
-5 -3 3 60.59 5.2
5 -3 -3 69.69 7.1
5 -3 -3 69.19 7
5 -3 -3 66.69 6.6
5 3 -3 60.29 7.1
-5 3 3 72.39 7.2
5 3 -3 73.49 4.9
-5 3 3 59.79 6.7
4 -3 -3 953.3 33.8
-4 -3 3 929.51 34.1
4 -3 -3 895.81 33.3
4 -3 -3 910.31 32.7
-4 -3 3 888.01 29.6
-4 3 3 947.51 33.9
-4 3 3 914.21 33
4 3 -3 943.01 33.8
3 -3 -3 214.68 10.7
-3 -3 3 234.78 11.8
-3 -3 3 223.38 8.5
3 -3 -3 238.68 12.1
-3 -3 3 218.98 9.9
3 3 -3 215.08 11.1
-3 3 3 210.88 12.3
2 -3 -3 1295.27 42.8
-2 -3 3 1312.57 41.9
-2 -3 3 1356.96 41.9
-2 -3 3 1294.67 37.5
2 -3 -3 1234.98 40.5
2 3 -3 1313.97 40.8
-2 3 3 1300.17 44.2
-1 -3 3 6710.93 187.78
1 -3 -3 6505.65 187.18
-1 -3 3 6488.75 190.48
1 3 -3 6431.06 186.38
-1 3 3 6812.92 192.18
0 -3 3 3891.41 113.29
0 -3 3 3903.31 114.79
0 -3 -3 4371.86 115.89
0 3 -3 3869.91 113.89
1 -3 3 3057.79 86.89
1 -3 3 3087.09 87.09
-1 -3 -3 2911.81 88.89
-1 3 -3 2913.11 87.69
-1 3 -3 2989.1 87.19
1 3 3 3065.99 88.49
1 3 3 3060.09 89.09
-2 -3 -3 914.61 33.8
2 -3 3 1011.4 31.3
2 -3 3 1011.3 32.2
2 3 3 969.9 33.7
-2 3 -3 998.9 32.5
2 3 3 969.5 32.6
-3 -3 -3 184.88 10
3 -3 3 196.58 9.7
3 -3 3 218.98 10.1
3 -3 3 205.58 10.9
3 3 3 201.68 11.9
-3 3 -3 201.18 10.8
3 3 3 191.38 10.5
-4 -3 -3 1079.09 36.7
4 -3 3 1045.9 36
4 -3 3 1065.39 36.4
4 -3 3 1036.1 38.3
4 3 3 1078.39 40.3
4 3 3 1133.59 38.1
-5 -3 -3 417.66 20
5 -3 3 482.45 20
5 -3 3 475.05 22.7
5 -3 3 518.65 20.9
5 3 3 478.85 23.9
5 3 3 468.05 21.5
-5 3 -3 488.05 22.2
6 -3 3 19.9 5.3
6 -3 3 12.8 3.7
6 -3 3 17.4 4.2
6 3 3 5.5 4.5
-6 3 -3 10.8 4.3
6 3 3 13.4 4.2
7 -3 3 100.99 8.8
7 -3 3 108.09 11.8
7 -3 3 98.09 9.2
7 3 3 103.59 10.4
-7 3 -3 84.69 9.4
7 3 3 98.69 16.2
8 -4 -3 38.5 7.9
-8 -4 3 27.6 6.5
8 -4 -3 44.4 7.6
8 -4 -3 22.9 4.9
-8 -4 3 41.9 6.9
8 4 -3 38.8 8.2
-8 4 3 36.3 7
7 -4 -3 94.09 10
-7 -4 3 80.09 7.4
7 -4 -3 83.69 9
7 -4 -3 64.99 7.9
-7 -4 3 89.39 10
7 4 -3 86.49 10.2
-7 4 3 82.59 8.7
6 -4 -3 426.46 21.5
-6 -4 3 460.25 18.9
-6 -4 3 412.66 22
6 -4 -3 452.25 22.3
6 -4 -3 474.25 22
6 4 -3 432.26 22.7
5 -4 -3 250.47 15
-5 -4 3 223.68 10.9
5 -4 -3 249.58 13.6
-5 -4 3 233.28 14.3
5 -4 -3 230.58 13.9
5 4 -3 230.98 14.2
4 -4 -3 457.75 21.5
4 -4 -3 434.86 20.4
-4 -4 3 447.66 20.2
-4 -4 3 461.95 18.1
4 -4 -3 480.35 19.3
-4 4 3 454.35 19.2
4 4 -3 457.25 20
3 -4 -3 77.19 6.9
3 -4 -3 67.89 5.4
-3 -4 3 69.19 6.1
-3 -4 3 65.29 3.8
3 -4 -3 71.49 7.1
3 4 -3 67.19 5.6
-3 4 3 76.39 7.6
-3 4 3 62.69 5.4
2 -4 -3 692.93 23.6
-2 -4 3 736.13 25
-2 -4 3 699.53 26.6
2 -4 -3 686.53 26.8
-2 4 3 684.93 28.6
2 4 -3 724.53 23.8
-2 4 3 695.93 24.4
-1 -4 3 373.06 14
1 -4 -3 368.86 13.6
-1 -4 3 340.17 17
-1 -4 3 368.76 12.1
-1 4 3 370.86 14.3
1 4 -3 373.86 12.4
-1 4 3 374.36 18.5
0 -4 3 872.91 27.1
0 -4 3 875.01 33.3
0 -4 3 919.41 27.7
0 -4 -3 890.41 28.6
0 4 3 818.92 33.3
0 4 3 885.21 28.7
0 4 -3 886.21 26.4
1 -4 3 3747.02 106.49
1 -4 3 3887.31 106.49
-1 -4 -3 3598.44 108.99
1 -4 3 3705.33 107.09
-1 4 -3 3576.04 107.79
1 4 3 3742.53 109.19
2 -4 3 221.38 9.3
2 -4 3 235.18 10.3
2 -4 3 228.58 10.3
2 4 3 226.88 10.8
-2 4 -3 210.78 10.8
2 4 3 227.98 13.8
3 -4 3 1722.93 55.79
-3 -4 -3 1743.33 55.59
3 -4 3 1747.23 54.09
3 -4 3 1860.61 55.49
3 4 3 1715.33 58.39
3 4 3 1754.92 56.19
-3 4 -3 1827.82 57.19
4 -4 3 285.57 13.5
4 -4 3 275.97 14.5
4 -4 3 281.67 12.9
-4 -4 -3 285.97 13.8
-4 4 -3 254.87 14.5
4 4 3 254.77 15.7
4 4 3 284.27 14.4
5 -4 3 331.07 17.9
5 -4 3 314.67 15.4
-5 -4 -3 318.37 16.2
5 -4 3 335.47 15.8
5 4 3 338.27 17.9
-5 4 -3 330.17 17.7
5 4 3 320.27 19.2
6 -4 3 16.4 4.1
6 -4 3 24.1 6.1
-6 -4 -3 21.8 4.7
6 -4 3 13.4 3.5
6 4 3 14.6 4.4
-6 4 -3 15.9 4
-7 -5 3 47.4 8.2
7 -5 -3 64.29 8.8
-7 -5 3 63.59 6.6
7 -5 -3 39.5 6.6
7 5 -3 49 8.2
-7 5 3 51.19 7.6
6 -5 -3 297.87 18.7
6 -5 -3 285.67 17.2
6 -5 -3 292.87 16.4
-6 -5 3 319.17 15
-6 -5 3 315.17 18.1
6 5 -3 321.37 18.3
-6 5 3 286.07 15.6
-5 -5 3 3138.89 95.69
-5 -5 3 2955.5 89.89
5 -5 -3 3105.89 98.49
5 -5 -3 2883.31 95.49
5 -5 -3 3066.19 93.19
-5 5 3 2991.2 92.39
4 -5 -3 1597.74 50.99
-4 -5 3 1562.14 48.4
4 -5 -3 1561.94 56.69
-4 -5 3 1663.03 53.39
4 -5 -3 1570.64 54.69
4 5 -3 1556.54 52.39
-4 5 3 1598.44 50.99
3 -5 -3 409.26 16
-3 -5 3 422.96 17.8
-3 -5 3 404.46 14.2
3 -5 -3 402.06 19.4
-3 -5 3 401.56 18.7
-3 5 3 412.76 16.4
-3 5 3 432.56 22.2
3 5 -3 413.76 16.8
-2 -5 3 17.1 3.1
2 -5 -3 16.2 4
-2 -5 3 21 1.9
2 -5 -3 17.5 2.6
-2 -5 3 23.1 4.8
-2 5 3 10.5 3.4
2 5 -3 21.7 2.5
-2 5 3 12.7 2.7
-1 -5 3 1597.54 55.39
-1 -5 3 1588.04 47.9
-1 -5 3 1613.14 48.5
1 -5 -3 1599.14 48.5
-1 5 3 1631.84 49.3
1 5 -3 1667.23 46.1
-1 5 3 1512.75 56.39
0 -5 3 592.54 20.3
0 -5 3 587.24 26.9
0 -5 3 624.84 19.8
0 -5 -3 619.34 21.4
0 5 3 626.34 21.7
0 5 3 621.04 27.8
0 5 3 601.14 22.7
1 -5 3 455.25 16.6
-1 -5 -3 457.45 17.9
1 -5 3 413.66 22.1
1 -5 3 448.56 15.1
1 -5 3 456.55 15.1
1 5 3 457.55 17
1 5 3 463.95 22.6
1 5 3 419.96 17.5
2 -5 3 307.17 12.2
2 -5 3 295.97 11.1
2 -5 3 309.07 13
2 5 3 245.18 13.7
2 5 3 296.07 17.6
-2 5 -3 313.37 14
3 -5 3 856.21 28
3 -5 3 819.52 29.7
3 -5 3 886.61 30.3
-3 -5 -3 807.92 30.2
3 5 3 876.51 30.7
-3 5 -3 878.71 31.9
4 -5 3 639.94 24.9
4 -5 3 640.34 25.5
-4 -5 -3 610.14 24.9
4 5 3 646.54 25.6
-4 5 -3 662.93 27.1
4 5 3 639.74 28.3
5 -5 3 3134.19 112.69
5 -5 3 3334.67 99.29
5 -5 3 3321.17 102.99
5 -5 3 3272.67 100.69
-5 -5 -3 3394.46 101.59
5 5 3 3260.27 102.19
6 -5 3 583.24 25.3
6 -5 3 611.94 28.1
6 -5 3 550.04 31.5
-6 -5 -3 588.64 26.7
6 -5 3 620.74 25
6 5 3 632.64 27.5
-6 5 -3 604.64 28.8
6 5 3 615.34 36.3
6 -6 -3 595.84 29.6
6 -6 -3 553.44 24.2
6 -6 -3 616.14 27.7
-6 -6 3 567.24 26.5
-6 -6 3 544.75 22.2
-6 6 3 540.15 23.8
6 6 -3 548.65 26.3
5 -6 -3 327.27 18.7
-5 -6 3 330.07 14.2
5 -6 -3 338.07 15.7
-5 -6 3 325.37 17.6
5 6 -3 318.57 18.2
-5 6 3 337.57 17.6
4 -6 -3 470.55 18.7
-4 -6 3 506.45 23.8
4 -6 -3 439.66 22.6
-4 -6 3 494.55 17.5
-4 6 3 474.35 18.2
3 -6 -3 377.16 19.7
-3 -6 3 371.56 17.5
3 -6 -3 400.16 15.1
-3 -6 3 395.56 16.9
-3 6 3 399.96 22.7
3 6 -3 407.16 15.8
-3 6 3 399.06 15
-2 -6 3 200.98 14
-2 -6 3 198.78 9.1
2 -6 -3 219.58 13.5
-2 -6 3 198.88 9.5
-2 -6 3 186.68 7.8
2 -6 -3 190.98 8.5
-2 6 3 187.18 8.6
2 6 -3 199.28 7.5
2 6 -3 200.18 7.6
-1 -6 3 2989.8 85.09
-1 -6 3 2960.5 95.59
-1 -6 3 2955.3 86.49
1 -6 -3 2800.12 85.99
-1 6 3 2954.2 85.59
-1 6 3 2954 87.09
-1 6 3 3033.7 98.09
0 -6 3 2331.77 79.09
0 -6 -3 2293.87 69.89
0 -6 3 2303.47 69.49
0 6 3 2348.27 69.59
0 6 3 2374.56 80.19
0 6 3 2320.27 69.59
1 -6 3 1565.44 48.6
1 6 3 1606.04 49.9
1 6 3 1516.85 48.5
1 6 3 1529.75 57.49
2 -6 3 202.28 10.6
2 -6 3 216.38 8.9
2 -6 3 213.48 8.3
2 6 3 224.78 16
2 6 3 198.68 10.4
3 -6 3 251.67 12.6
-3 -6 -3 237.38 12.9
3 -6 3 253.07 11.6
3 -6 3 246.08 10.1
3 6 3 244.78 16.9
4 -6 3 779.12 36.7
4 -6 3 837.22 30.2
-4 -6 -3 798.82 30.4
4 -6 3 780.62 38.9
4 -6 3 798.42 27.1
4 6 3 796.12 41.5
-4 6 -3 787.52 32.1
4 6 3 778.52 30.1
4 6 3 808.32 33.6
5 -6 3 299.87 15.7
5 -6 3 227.88 19.2
5 -6 3 273.07 14.7
-5 -6 -3 262.07 15
5 -6 3 271.87 12.9
5 6 3 276.37 18.9
-5 6 -3 266.87 16.8
5 6 3 247.68 14.8
5 -7 -3 353.26 22.7
5 -7 -3 357.06 20.4
-5 -7 3 356.96 18
-5 -7 3 336.07 14.9
5 -7 -3 352.86 15.4
5 7 -3 364.36 17.8
5 7 -3 336.57 16.3
-4 -7 3 120.89 7
-4 -7 3 127.99 9.1
4 -7 -3 129.49 11.3
4 -7 -3 113.49 6.9
4 7 -3 128.79 8.5
-4 7 3 125.19 6.5
4 7 -3 129.79 7.9
-3 -7 3 82.89 5
3 -7 -3 80.59 5
-3 -7 3 75.99 6.1
3 7 -3 83.89 4.8
-3 7 3 95.49 11.4
-2 -7 3 220.58 15.2
-2 -7 3 189.28 8.6
2 -7 -3 197.28 13.8
-2 -7 3 219.58 11.7
2 -7 -3 202.88 8.6
-2 7 3 173.08 15.6
-1 -7 3 659.03 23.4
-1 -7 3 631.44 30.3
1 -7 -3 615.14 21.5
-1 7 3 608.24 31.6
0 -7 3 462.85 17.9
0 -7 3 460.85 25.6
0 7 3 463.45 16.7
0 7 3 417.46 25.6
0 7 3 481.35 16.7
1 -7 3 32.3 4.5
1 -7 3 19.8 5.4
1 7 3 34 7.5
1 7 3 29.5 4.1
2 -7 3 243.58 18.8
2 -7 3 249.18 12.4
2 7 3 231.08 11.7
2 7 3 260.77 18.7
2 7 3 241.18 13.2
3 -7 3 134.09 14.1
3 -7 3 144.89 9.5
3 -7 3 149.19 6.8
-3 -7 -3 152.48 10.1
3 7 3 144.19 14
3 7 3 140.29 9.2
3 7 3 152.08 11.3
-4 -7 -3 148.19 10.7
4 -7 3 164.08 10.6
4 -7 3 156.78 9.1
4 -7 3 176.78 8.1
4 7 3 171.78 10.8
4 7 3 179.28 15.6
4 -8 -3 363.76 13.5
4 -8 -3 372.36 21.6
-4 -8 3 392.26 16.9
-4 -8 3 379.36 15.2
4 8 -3 381.16 14.8
-3 -8 3 425.96 17.7
-3 -8 3 411.46 15.7
-3 -8 3 437.06 16.3
3 -8 -3 437.56 14.4
3 -8 -3 419.36 23
-2 -8 3 84.89 10.5
-2 -8 3 85.89 6.4
2 -8 -3 100.59 10.1
-2 -8 3 89.19 5.3
-2 8 3 104.49 12.6
-1 -8 3 844.92 29.8
-1 -8 3 877.01 39.2
1 -8 -3 845.82 36.1
-1 8 3 887.81 41.8
0 -8 3 300.17 13.8
0 -8 3 304.97 21.6
0 8 3 321.97 22.6
1 -8 3 129.69 8.5
1 -8 3 158.48 15.1
1 8 3 133.59 14.3
1 8 3 128.49 7.4
2 -8 3 187.38 10.7
2 8 3 171.18 10.7
2 8 3 196.78 17
2 8 3 188.88 10
9 0 -4 75.79 7.7
9 0 -4 42.7 9.3
-9 0 4 53.69 8.4
-9 0 4 46.8 9.6
-8 0 4 2.7 2.3
8 0 -4 1.2 3.3
8 0 -4 4.9 2.7
-8 0 4 4.9 4
-7 0 4 126.59 11.7
-7 0 4 128.59 10.2
7 0 -4 124.09 9
7 0 -4 116.49 11.2
-6 0 4 71.59 8.6
6 0 -4 79.59 6.6
-6 0 4 82.19 8.6
6 0 -4 77.99 8.6
5 0 -4 2.4 2.1
5 0 -4 1.3 1.4
-5 0 4 2.7 1.5
-5 0 4 8.8 3.4
4 0 -4 1219.88 39.4
-4 0 4 1217.78 40
-4 0 4 1252.97 42.9
3 0 -4 7 2.4
3 0 -4 15.5 2.6
-3 0 4 13.2 3.2
-3 0 4 13.6 2.5
2 0 -4 999.3 32.4
-2 0 4 979.2 32.9
2 0 -4 950.1 30.7
1 0 -4 140.99 7.3
-1 0 4 147.89 7.8
0 0 -4 126.69 6.6
-1 0 -4 132.79 8.3
-1 0 -4 134.49 6.5
2 0 4 3605.14 104.89
-2 0 -4 3423.66 105.49
-2 0 -4 3511.75 103.49
2 0 4 3681.13 105.69
3 0 4 48.3 5
-3 0 -4 49.1 4.6
3 0 4 58.49 7.1
4 0 4 289.37 16.2
-4 0 -4 295.77 14.4
4 0 4 303.17 14.8
5 0 4 415.26 17.6
-5 0 -4 350.86 18
5 0 4 371.96 20.7
5 0 4 414.76 19.1
6 0 4 229.88 13
-6 0 -4 233.88 14.5
6 0 4 228.58 16.7
6 0 4 216.18 14.2
7 0 4 63.69 9.8
7 0 4 41 7.1
9 -1 -4 149.49 15.1
9 -1 -4 160.78 11.8
-9 -1 4 142.09 14.5
-9 -1 4 146.59 12.5
9 1 -4 131.39 14.7
-9 1 4 145.99 13.6
9 1 -4 159.88 10.8
-9 1 4 151.18 14.6
8 -1 -4 49.99 7.4
8 -1 -4 44.3 8.2
-8 -1 4 31.3 7
-8 -1 4 55.49 8.7
8 1 -4 30.9 7.2
8 1 -4 66.69 10.3
-8 1 4 34.3 7.5
-8 1 4 62.09 9.7
-7 -1 4 1795.22 63.29
7 -1 -4 1707.23 58.29
7 -1 -4 1746.23 62.89
-7 -1 4 1813.82 59.39
7 1 -4 1755.82 63.49
-7 1 4 1790.22 62.79
-7 1 4 1673.03 59.99
7 1 -4 1817.22 56.79
-6 -1 4 2249.87 71.39
-6 -1 4 2349.67 76.19
6 -1 -4 2225.38 71.29
6 -1 -4 2213.28 74.79
-6 1 4 2265.27 72.89
6 1 -4 2220.58 69.39
-6 1 4 2145.49 80.49
6 1 -4 2419.36 76.19
5 -1 -4 1106.09 39.9
5 -1 -4 1102.19 37.4
-5 -1 4 1039.3 40
-5 -1 4 1115.89 36.8
-5 1 4 1066.59 39.9
5 1 -4 1052.79 39.7
-5 1 4 1059.19 38
5 1 -4 1134.99 35.6
4 -1 -4 133.29 9.1
-4 -1 4 128.49 7.5
-4 -1 4 137.09 9.6
4 -1 -4 125.19 7.9
-4 1 4 127.69 8.2
4 1 -4 118.69 8.7
-4 1 4 130.59 7
4 1 -4 127.39 6.7
-4 1 4 130.89 9.4
3 -1 -4 648.84 24
-3 -1 4 660.53 21.3
-3 -1 4 644.44 27.8
-3 1 4 641.74 22.1
3 1 -4 616.74 20.7
3 1 -4 656.73 24.1
-3 1 4 614.24 24.2
2 -1 -4 1645.74 51.29
-2 -1 4 1630.34 51.79
2 -1 -4 1662.03 50.89
2 1 -4 1696.33 48.4
-2 1 4 1671.03 51.99
2 1 -4 1609.84 51.79
-1 -1 4 3995 116.89
1 -1 -4 3922.61 116.29
-1 1 4 4024.8 117.09
1 1 -4 4130.29 116.29
0 -1 -4 1953.5 56.09
0 -1 4 1857.31 55.89
0 1 4 1816.52 55.99
0 1 -4 1839.82 53.39
0 1 -4 1771.02 57.29
-1 -1 -4 1530.35 48.5
1 -1 4 1557.44 47.9
-1 1 -4 1508.45 46.5
1 1 4 1606.44 48.5
-1 1 -4 1596.34 48.2
2 -1 4 4942.61 147.69
2 -1 4 5128.99 147.09
2 -1 4 5195.58 145.59
-2 -1 -4 5105.39 149.29
-2 -1 -4 5008.4 146.29
2 1 4 5256.07 148.59
-2 1 -4 4787.22 146.09
2 1 4 5210.98 147.79
-2 1 -4 5106.69 147.99
3 -1 4 2074.49 63.09
-3 -1 -4 1977.6 62.09
3 -1 4 1983.8 64.29
3 -1 4 1953.7 61.09
3 1 4 2037.7 64.99
-3 1 -4 2030.5 62.49
3 1 4 2089.89 63.59
4 -1 4 2411.46 74.49
4 -1 4 2486.45 78.89
4 -1 4 2460.95 76.39
-4 -1 -4 2399.46 75.79
-4 1 -4 2498.25 76.59
4 1 4 2442.86 79.39
4 1 4 2477.75 76.99
5 -1 4 308.57 18.1
5 -1 4 317.07 14.9
5 -1 4 301.47 15.8
-5 1 -4 325.97 16.6
5 1 4 334.67 19.1
5 1 4 303.77 16.2
6 -1 4 28.9 5.8
6 -1 4 32.3 7.6
-6 -1 -4 25 5.8
6 -1 4 21.9 4
6 1 4 20.1 5.8
6 1 4 23.7 5.3
-6 1 -4 30.4 5.9
7 -1 4 60.59 8.5
7 -1 4 69.39 11.4
7 -1 4 69.59 7.1
-7 1 -4 92.59 15.3
7 1 4 73.99 8.5
7 1 4 67.89 10.7
-8 -2 4 493.75 26.4
8 -2 -4 477.45 22.5
-8 -2 4 429.66 21.6
8 -2 -4 449.66 25.2
-8 2 4 467.85 24.9
8 2 -4 471.15 26.2
8 2 -4 466.35 19.6
-8 2 4 372.76 27.4
7 -2 -4 521.05 21
-7 -2 4 539.25 26.5
-7 -2 4 503.25 22.4
7 -2 -4 506.35 23.2
7 -2 -4 532.85 26
-7 2 4 547.85 26
7 2 -4 527.85 26.6
7 2 -4 507.05 20.3
-7 2 4 494.25 24.4
-6 -2 4 2174.78 66.89
6 -2 -4 1990 67.99
6 -2 -4 2159.98 71.19
-6 -2 4 2068.79 71.49
-6 2 4 2136.89 69.99
6 2 -4 2096.79 71.39
6 2 -4 2131.79 64.69
-6 2 4 2192.28 71.39
5 -2 -4 1765.92 55.59
-5 -2 4 1640.34 55.99
-5 -2 4 1552.84 50.79
5 -2 -4 1546.35 53.09
-5 2 4 1648.44 55.29
5 2 -4 1576.04 55.09
-5 2 4 1574.94 54.79
5 2 -4 1677.53 49.7
4 -2 -4 586.04 24.1
4 -2 -4 621.04 24.1
-4 -2 4 634.84 25.5
-4 -2 4 615.54 21.2
-4 2 4 605.94 23.2
4 2 -4 637.64 20.3
4 2 -4 615.84 24.7
-4 2 4 602.44 24.7
3 -2 -4 891.51 31.3
3 -2 -4 924.71 31.6
-3 -2 4 907.01 32.2
-3 -2 4 882.61 27.7
3 2 -4 920.51 27
-3 2 4 882.81 31.8
-3 2 4 889.41 31.4
3 2 -4 900.01 31.4
2 -2 -4 733.63 25.6
-2 -2 4 735.63 26.3
-2 2 4 744.83 26.3
2 2 -4 746.83 25.6
-1 -2 4 789.52 26.5
1 -2 -4 766.72 26
1 2 -4 790.62 25.7
-1 2 4 787.82 26.8
0 -2 4 492.35 17.4
0 2 -4 491.85 16.9
0 2 4 466.75 17.8
1 -2 4 3466.45 98.79
-1 -2 -4 3366.56 101.69
1 -2 4 3420.76 100.39
-1 2 -4 3501.65 100.79
-1 2 -4 3367.66 99.49
1 2 4 3572.64 101.59
-2 -2 -4 813.32 28.6
2 -2 4 856.71 27.6
-2 -2 -4 944.91 31.2
2 -2 4 894.01 29.7
2 -2 4 836.82 28.7
-2 2 -4 839.32 28.6
2 2 4 866.11 30.6
-2 2 -4 865.51 29.7
2 2 4 826.12 29.6
3 -2 4 923.71 33.6
3 -2 4 976.3 31.3
3 -2 4 951.6 32.5
-3 -2 -4 914.91 35.8
-3 2 -4 938.81 32.7
3 2 4 980.4 34.4
3 2 4 950.6 34.9
4 -2 4 732.13 27.2
4 -2 4 710.33 25.9
4 -2 4 714.53 29.1
4 2 4 740.73 28.3
-4 2 -4 725.43 27.9
4 2 4 723.93 31.1
5 -2 4 774.82 33.1
5 -2 4 820.22 29.4
5 -2 4 771.92 30.3
5 2 4 769.22 34.1
-5 2 -4 902.91 32.4
5 2 4 734.83 30.9
6 -2 4 440.86 20.1
6 -2 4 436.36 24.1
-6 -2 -4 490.05 22.8
6 -2 4 448.16 21.3
-6 2 -4 474.35 23
6 2 4 461.65 22.6
6 2 4 442.76 25
7 -2 4 88.99 8.2
7 -2 4 89.39 9.1
7 2 4 90.99 9.8
-8 -3 4 164.78 14.1
8 -3 -4 128.59 13
-8 -3 4 144.99 11.2
8 -3 -4 140.59 11.8
8 -3 -4 149.09 11
8 3 -4 159.78 15.1
-8 3 4 149.88 13.2
8 3 -4 161.58 9.7
-8 3 4 164.48 13.8
7 -3 -4 604.34 25.4
-7 -3 4 656.93 29.7
-7 -3 4 596.74 24.5
7 -3 -4 604.24 28.3
7 -3 -4 539.85 25.6
7 3 -4 577.94 22.2
-7 3 4 588.44 27.7
7 3 -4 580.04 28.7
-7 3 4 583.34 27.6
6 -3 -4 170.98 12.3
6 -3 -4 172.78 11.2
6 -3 -4 178.38 11.9
-6 -3 4 167.08 12.9
-6 -3 4 181.28 10.1
6 3 -4 177.98 13.1
-6 3 4 175.18 12.6
6 3 -4 164.18 8.6
5 -3 -4 185.78 12.6
-5 -3 4 222.98 13.9
-5 -3 4 179.78 9.5
5 -3 -4 205.48 12.4
-5 3 4 190.18 12.4
5 3 -4 210.08 8.9
5 3 -4 205.58 13
4 -3 -4 295.17 15.1
-4 -3 4 292.27 15.5
-4 -3 4 305.17 11.7
4 -3 -4 288.77 14.5
-4 3 4 275.97 14.6
4 3 -4 287.27 14.8
4 3 -4 323.17 10.9
-4 3 4 308.07 15.6
-3 -3 4 503.55 16.4
-3 -3 4 517.55 21.2
-3 -3 4 503.75 19
3 -3 -4 537.85 21.7
3 -3 -4 500.45 20
-3 3 4 555.84 22.5
3 3 -4 510.05 20.2
-3 3 4 508.15 20.7
-2 -3 4 349.37 15
2 -3 -4 345.97 14.2
-2 -3 4 357.96 15.2
2 3 -4 337.47 13.9
-2 3 4 350.66 16.7
-2 3 4 348.57 15
-1 -3 4 2134.79 63.79
1 -3 -4 2100.99 63.29
-1 3 4 2063.59 64.19
1 3 -4 2133.29 62.39
0 -3 4 3339.27 91.89
0 -3 4 3236.58 88.59
0 -3 -4 2645.24 91.49
0 3 -4 3239.28 89.49
0 3 4 3181.38 92.69
0 3 -4 3130.59 90.59
-1 -3 -4 371.56 17.8
1 -3 4 378.86 13
1 -3 4 368.96 14.2
-1 3 -4 356.76 13.9
-1 3 -4 390.36 14.6
1 3 4 380.66 15.4
1 3 4 401.56 15.9
2 -3 4 957.6 30.9
-2 -3 -4 944.71 33.3
2 -3 4 923.31 31.5
2 -3 4 962.1 30.1
2 3 4 961.8 33.6
-2 3 -4 891.01 31.2
2 3 4 924.31 32.2
3 -3 4 138.29 8.3
3 -3 4 155.88 9.6
-3 -3 -4 164.78 9.1
3 -3 4 135.39 7.8
3 3 4 136.89 9.1
-3 3 -4 146.39 9
3 3 4 136.09 10.1
4 -3 4 621.14 23.5
4 -3 4 583.54 22.4
4 -3 4 584.54 25.3
-4 3 -4 599.04 24.5
4 3 4 624.34 24.9
4 3 4 580.94 26.7
5 -3 4 328.47 18.8
5 -3 4 354.26 16.2
5 -3 4 354.66 17
5 3 4 352.06 20.5
5 3 4 377.46 18.6
6 -3 4 269.07 14.4
6 -3 4 278.67 15.5
-6 -3 -4 266.17 15.8
6 -3 4 279.27 18.3
6 3 4 276.67 18.9
6 3 4 295.77 17.1
-6 3 -4 250.37 17
8 -4 -4 183.88 13.3
-8 -4 4 167.78 15.1
-8 -4 4 186.98 12.4
8 -4 -4 190.68 13.9
8 -4 -4 181.68 15
8 4 -4 146.49 14.4
-8 4 4 161.18 13.9
7 -4 -4 44.4 7.3
-7 -4 4 21.8 5.8
7 -4 -4 38.9 7.3
-7 -4 4 45.6 6.5
7 -4 -4 27 5.5
-7 4 4 35.9 9.4
7 4 -4 41.9 8.2
-7 4 4 42.7 7.4
6 -4 -4 766.12 37.8
6 -4 -4 876.61 34.2
-6 -4 4 852.51 30.2
-6 -4 4 886.31 35.8
6 -4 -4 864.01 34.3
6 4 -4 840.92 35
-6 4 4 832.92 33.7
5 -4 -4 418.16 19.6
-5 -4 4 452.35 16.8
-5 -4 4 448.76 21.5
5 -4 -4 400.16 20.4
-4 -4 4 703.53 22.9
-4 -4 4 703.53 28.1
4 -4 -4 692.83 28.4
4 -4 -4 663.53 26.2
4 4 -4 712.93 27.3
-4 4 4 728.13 29.9
-3 -4 4 442.36 18.1
3 -4 -4 437.16 17.3
-3 -4 4 428.56 13.6
3 -4 -4 422.76 19.5
-3 -4 4 423.26 18.5
-3 4 4 455.55 21.4
-3 4 4 347.57 17
-2 -4 4 334.87 16.5
2 -4 -4 355.76 14.4
-2 -4 4 375.06 15.6
-2 4 4 348.87 15.1
-2 4 4 359.66 18.6
2 4 -4 362.96 14.1
1 -4 -4 391.16 15.5
-1 -4 4 404.26 19
-1 -4 4 433.96 16.2
1 4 -4 417.16 14.4
-1 4 4 394.36 19.8
0 -4 4 1115.29 33.4
0 -4 4 1052.49 30.7
0 -4 -4 894.51 33.3
0 4 -4 1074.09 31.9
1 -4 4 232.38 9.3
1 -4 4 242.58 10.2
-1 -4 -4 217.88 11.4
1 4 4 245.08 11.3
-1 4 -4 238.08 10.3
1 4 4 224.58 15.7
-2 -4 -4 14 3.5
2 -4 4 11.6 2.4
2 -4 4 11.1 2.3
2 -4 4 9.2 2.5
2 4 4 16.5 3.5
-2 4 -4 11 2.7
2 4 4 10 3
3 -4 4 101.59 7.7
3 -4 4 93.19 6.4
3 -4 4 99.79 6.5
-3 -4 -4 99.49 7.2
3 4 4 87.49 7.3
3 4 4 98.09 8.5
-3 4 -4 91.79 7.4
4 -4 4 57.69 5.5
-4 -4 -4 62.39 6
4 -4 4 55.29 6.5
4 -4 4 65.39 6.2
4 4 4 62.59 6.7
4 4 4 61.29 8.7
-4 4 -4 45.4 7
5 -4 4 280.67 16.4
5 -4 4 243.38 13.2
5 -4 4 258.67 13.8
-5 -4 -4 236.08 16.4
5 4 4 283.47 18.1
5 4 4 275.67 15.6
6 -4 4 132.59 10.1
6 -4 4 138.09 9.8
6 -4 4 133.89 12.5
6 4 4 142.39 11.5
6 4 4 145.99 14.4
-6 4 -4 123.59 11.6
7 -5 -4 332.27 19.1
-7 -5 4 345.27 20.5
-7 -5 4 330.67 16.2
7 -5 -4 337.47 19.6
7 5 -4 325.67 20.2
6 -5 -4 20.4 4.8
-6 -5 4 32 4.9
6 -5 -4 28.4 6
-6 -5 4 41.1 7.4
6 5 -4 28.2 6.2
-6 5 4 27.3 5.4
-5 -5 4 903.41 36.3
-5 -5 4 919.21 30.2
5 -5 -4 911.61 36.5
5 -5 -4 906.31 33.7
-5 5 4 890.81 33.9
-4 -5 4 208.78 8.9
4 -5 -4 212.08 11.5
-4 -5 4 211.78 12.8
4 -5 -4 223.68 14.1
-4 5 4 214.78 15
-3 -5 4 1842.52 53.09
-3 -5 4 1842.42 58.89
-3 -5 4 1862.81 60.19
3 -5 -4 1706.33 61.09
3 -5 -4 1826.02 56.69
3 5 -4 1835.22 56.99
-3 5 4 1852.71 58.19
-3 5 4 1864.21 64.49
2 -5 -4 1341.27 48.8
2 -5 -4 1452.05 44.4
-2 -5 4 1418.86 45.7
-2 -5 4 1428.86 49.5
2 5 -4 1423.76 43.2
-2 5 4 1366.26 47.3
-2 5 4 1473.05 52.49
1 -5 -4 1570.54 48.9
-1 -5 4 1568.34 49.1
-1 -5 4 1551.94 55.19
1 5 -4 1601.54 46.5
-1 5 4 1602.24 49.99
-1 5 4 1585.74 56.79
0 -5 4 212.98 9.6
0 -5 4 204.58 14
0 -5 4 215.38 8.3
0 -5 -4 219.78 10.7
0 5 4 227.28 11
0 5 4 219.58 14.8
0 5 4 214.48 10.5
0 5 -4 215.18 8
1 -5 4 303.47 11.6
-1 -5 -4 305.07 14.2
1 -5 4 320.17 11.8
1 -5 4 293.47 11.8
1 -5 4 258.27 16.9
1 5 4 302.87 18
1 5 4 259.97 13.4
2 -5 4 97.19 6.3
2 -5 4 102.99 6.1
2 -5 4 109.89 6.8
2 5 4 112.39 7.7
-2 5 -4 107.09 7.3
3 -5 4 100.89 6.4
-3 -5 -4 84.89 7.2
3 -5 4 94.09 6.6
3 -5 4 98.19 7.4
3 5 4 103.79 7.9
-3 5 -4 93.89 7.7
4 -5 4 87.39 6.9
4 -5 4 87.89 6.6
4 -5 4 90.09 8
-4 -5 -4 83.89 7.4
4 5 4 94.49 8.2
4 5 4 86.29 9.3
-4 5 -4 95.79 8.6
5 -5 4 142.09 11.4
5 -5 4 137.59 9.3
5 -5 4 143.09 10.1
-5 -5 -4 153.48 10.8
5 5 4 133.79 10.7
5 5 4 132.29 12.5
6 -6 -4 880.81 37.2
6 -6 -4 913.91 34.3
-6 -6 4 872.71 36.3
-6 -6 4 821.42 30.5
-6 6 4 930.91 33.8
6 6 -4 865.01 35.7
-5 -6 4 180.78 9
5 -6 -4 191.88 13.9
5 -6 -4 174.78 10.9
-5 -6 4 179.28 12.5
5 6 -4 163.08 11.9
-5 6 4 183.48 11
-4 -6 4 224.38 13.3
-4 -6 4 216.28 9.2
4 -6 -4 216.18 17.2
4 -6 -4 232.58 11.5
-4 6 4 242.78 17.1
-4 6 4 207.68 11.5
3 -6 -4 11.2 2.5
-3 -6 4 8.7 3
-3 -6 4 16.2 4.7
-3 -6 4 12.4 1.8
3 -6 -4 5.8 3.3
-3 6 4 17.6 5.9
-3 6 4 12.3 3.1
3 6 -4 13.7 2.5
-2 -6 4 372.46 19.9
-2 -6 4 350.36 15.2
-2 -6 4 347.27 12.3
2 -6 -4 380.06 14.6
-2 -6 4 372.56 13.7
2 -6 -4 389.46 19.7
-2 6 4 340.87 21.3
-2 6 4 371.96 15.5
2 6 -4 364.46 12.6
-1 -6 4 599.74 19.1
-1 -6 4 595.14 28.2
1 -6 -4 602.44 21.6
-1 -6 4 626.74 21.1
-1 6 4 576.34 22.1
-1 6 4 597.04 29.6
-1 6 4 602.84 21.1
0 -6 4 2775.32 79.29
0 -6 -4 2685.63 81.89
0 -6 4 2768.42 90.89
0 -6 4 2673.63 78.89
0 6 4 2763.72 81.79
0 6 4 2673.73 91.19
0 6 4 2651.14 81.79
1 -6 4 1206.98 48.5
1 -6 4 1229.38 37.3
1 -6 4 1221.28 38.2
1 -6 4 1221.48 37
-1 -6 -4 1130.99 40.8
1 6 4 1273.57 40.5
1 6 4 1181.48 47.9
2 -6 4 333.47 12.6
2 -6 4 306.27 13
2 -6 4 322.97 13.6
2 6 4 297.17 20.3
2 6 4 308.87 14.6
-3 -6 -4 40.1 5.7
3 -6 4 58.09 7.1
3 -6 4 63.59 5.6
3 -6 4 50.39 4.5
3 6 4 48.5 6.5
3 6 4 56.19 9.9
-3 6 -4 47.4 6.5
4 -6 4 230.28 18.7
4 -6 4 240.88 13.3
4 -6 4 230.18 12.3
-4 -6 -4 215.08 13.1
4 -6 4 223.38 11.1
4 6 4 226.48 13.4
-4 6 -4 232.08 14.3
4 6 4 216.28 16.8
4 6 4 245.88 16.1
5 -7 -4 0 2.5
-5 -7 4 1 1.5
-5 -7 4 -2.7 2.3
5 -7 -4 -1.2 1.9
5 7 -4 2.9 2.5
-5 7 4 4.7 2.3
-4 -7 4 60.99 6.5
4 -7 -4 52.29 9
-4 -7 4 51.79 5
4 7 -4 52.69 5.4
-4 7 4 66.99 11.4
-4 7 4 63.79 4.9
3 -7 -4 234.38 15.7
-3 -7 4 220.68 9.4
-3 -7 4 236.38 11.8
-3 -7 4 242.78 15.8
-3 -7 4 213.38 8.5
3 7 -4 219.08 9.3
-3 7 4 240.18 18.3
-3 7 4 216.08 10
-2 -7 4 258.17 9.2
-2 -7 4 260.87 10.1
-2 -7 4 241.08 16.9
2 -7 -4 248.48 11.2
-2 -7 4 273.87 11.5
2 -7 -4 254.17 16.5
-2 7 4 248.78 19
-2 7 4 268.97 11.2
-1 -7 4 283.97 10.3
-1 -7 4 266.27 18.6
-1 -7 4 297.57 11.1
1 -7 -4 320.27 13.1
-1 7 4 268.57 19.8
-1 7 4 285.57 12.6
0 -7 4 416.66 15.2
0 -7 -4 412.06 17.3
0 -7 4 399.86 24
0 7 4 409.36 24.8
0 7 4 421.46 16.9
1 -7 4 97.49 14.4
1 -7 4 85.19 5.8
1 7 4 93.99 7.5
1 7 4 86.19 6.8
1 7 4 104.59 11.9
2 -7 4 91.19 6.3
2 -7 4 66.39 10.8
2 7 4 85.19 7.3
2 7 4 77.99 7.9
2 7 4 72.19 10.6
3 -7 4 24.6 8.1
3 -7 4 25.3 3.8
-3 -7 -4 25.9 5
3 -7 4 28.5 3.4
3 -7 4 24.4 4.4
3 7 4 35 8.3
3 7 4 30.9 6
3 7 4 31.4 5.2
3 -8 -4 261.27 11.2
-3 -8 4 257.87 10.1
-3 -8 4 278.77 12.1
-3 -8 4 265.77 11.1
3 -8 -4 266.97 17.9
-3 8 4 287.27 21.3
-2 -8 4 187.98 7.7
2 -8 -4 232.78 16.2
-2 -8 4 181.98 15.3
2 -8 -4 193.98 9.2
-2 -8 4 200.68 8.7
-2 8 4 206.38 18.1
-1 -8 4 83.49 5.1
1 -8 -4 87.59 9.9
-1 8 4 60.49 10.6
0 -8 4 132.19 13.7
0 -8 4 124.89 7
0 8 4 122.89 7.4
0 8 4 133.49 14.6
1 -8 4 137.89 7.9
1 -8 4 148.79 15.3
1 8 4 155.58 15.6
1 8 4 128.69 8.4
1 8 4 121.69 8.6
9 0 -5 114.19 9.7
9 0 -5 111.79 13.1
-9 0 5 130.09 11.7
-9 0 5 139.99 14.3
8 0 -5 220.38 16.5
-8 0 5 224.18 16.8
-8 0 5 217.88 14.6
8 0 -5 228.28 15.4
-7 0 5 102.69 11.1
7 0 -5 105.79 11
7 0 -5 117.49 8.6
-7 0 5 106.69 9.2
-6 0 5 645.34 28.6
6 0 -5 603.74 23.9
6 0 -5 631.64 27.9
-6 0 5 588.84 25
5 0 -5 426.56 17.4
5 0 -5 409.76 20
-5 0 5 440.16 21
-5 0 5 399.46 17.8
4 0 -5 -0.4 1.6
4 0 -5 0 1
-4 0 5 0.1 1.6
-4 0 5 0.8 1
-4 0 5 0.5 0.9
3 0 -5 28.7 3.3
-3 0 5 32.4 5.3
3 0 -5 20.1 4.6
2 0 -5 43.7 4.5
-2 0 5 46.2 5
-1 0 5 2001.9 60.89
1 0 -5 1929.71 60.29
0 0 -5 737.03 25.1
0 0 5 708.43 25.5
-1 0 -5 744.83 25.9
1 0 5 703.23 25.4
-1 0 -5 715.43 23.8
-2 0 -5 65.29 6.1
-2 0 -5 71.79 5.2
2 0 5 72.99 6
2 0 5 62.49 6.1
3 0 5 438.96 18.8
3 0 5 439.76 20.1
-3 0 -5 441.56 18.4
4 0 5 559.74 23.8
-4 0 -5 597.04 23.8
4 0 5 577.44 25.8
5 0 5 96.69 10.4
5 0 5 112.49 9.3
6 0 5 130.69 12.7
6 0 5 133.69 10.9
-6 0 -5 150.68 11.7
9 -1 -5 12.7 3.8
-9 -1 5 26.4 6.4
9 -1 -5 34.8 7.7
-9 1 5 18.6 6.1
9 1 -5 16.5 6.4
-9 1 5 23.2 6.7
9 1 -5 21 4.3
-8 -1 5 458.35 25.3
8 -1 -5 421.46 24.4
8 -1 -5 427.26 20.7
-8 -1 5 397.06 21
8 1 -5 433.26 25.1
-8 1 5 445.26 22.9
-8 1 5 448.86 24.8
8 1 -5 425.36 19.2
7 -1 -5 895.01 34.2
-7 -1 5 971.9 39.7
-7 -1 5 877.11 34.4
7 -1 -5 859.71 37.7
-7 1 5 914.11 38.7
7 1 -5 962.6 39.1
-7 1 5 880.91 35.8
7 1 -5 930.01 32.6
-6 -1 5 6518.35 197.68
-6 -1 5 6534.15 192.38
6 -1 -5 6228.38 192.58
6 -1 -5 6484.05 196.58
6 1 -5 6619.14 190.58
-6 1 5 6610.54 197.58
6 1 -5 6556.84 197.18
-6 1 5 7268.77 195.48
-5 -1 5 828.52 33.4
-5 -1 5 845.82 29.3
5 -1 -5 805.32 30
5 -1 -5 839.12 32.6
-5 1 5 819.22 33
-5 1 5 817.82 30.8
5 1 -5 851.81 32.9
5 1 -5 833.22 28.2
-4 -1 5 3118.69 98.99
4 -1 -5 3183.88 98.09
-4 -1 5 3141.89 94.29
4 -1 -5 3284.07 96.59
-4 1 5 3367.26 99.59
4 1 -5 3302.87 93.79
4 1 -5 3059.59 97.79
-4 1 5 3181.08 94.59
3 -1 -5 4349.86 124.59
3 -1 -5 4141.69 125.49
-3 -1 5 4339.57 126.79
-3 1 5 4057.19 126.19
3 1 -5 4220.68 121.59
3 1 -5 4328.27 125.69
-2 -1 5 2521.65 80.09
2 -1 -5 2728.43 79.59
2 1 -5 2552.04 79.19
-2 1 5 2586.64 80.29
2 1 -5 2771.82 76.49
-1 -1 5 2228.58 68.79
1 -1 -5 2261.87 68.09
-1 1 5 2215.28 68.99
1 1 -5 2306.87 67.89
0 -1 -5 1018 32.7
0 -1 5 990.7 32.8
0 1 -5 982.4 32.1
0 1 -5 945.51 29.8
0 1 5 971.6 32.9
1 -1 5 565.14 20.6
-1 -1 -5 567.44 21.2
-1 1 -5 539.55 18.8
-1 1 -5 566.54 20.7
1 1 5 513.25 20.5
-2 -1 -5 3068.69 93.29
-2 -1 -5 2932.91 95.59
2 -1 5 3204.68 94.49
2 -1 5 3174.78 95.09
2 1 5 3221.28 95.09
-2 1 -5 3222.28 93.29
2 1 5 3130.09 95.69
-2 1 -5 3300.37 95.79
-3 -1 -5 610.24 22.7
3 -1 5 589.64 24.6
3 -1 5 638.04 23.7
3 1 5 568.94 24.9
3 1 5 577.34 23.5
-3 1 -5 613.94 23
-4 -1 -5 7398.06 209.48
4 -1 5 7136.49 212.38
4 -1 5 7252.67 209.78
4 -1 5 7074.99 207.58
4 1 5 7346.97 210.48
4 1 5 6937.51 212.68
-4 1 -5 7255.37 209.78
5 -1 5 525.75 25.8
5 -1 5 501.35 21.2
-5 -1 -5 541.95 32.8
5 -1 5 501.85 22.7
5 1 5 526.55 26.1
5 1 5 478.45 22.8
6 -1 5 403.86 23.3
6 -1 5 395.86 20.4
-6 -1 -5 390.66 20.6
6 1 5 390.56 23.4
-6 1 -5 418.26 21.3
6 1 5 386.26 20.5
-8 -2 5 770.32 36.2
-8 -2 5 709.33 30.5
8 -2 -5 745.73 34.7
8 -2 -5 776.12 31.8
8 2 -5 774.22 35.5
8 2 -5 754.72 28
-8 2 5 732.13 34.5
-8 2 5 737.63 45.5
7 -2 -5 419.16 21
-7 -2 5 466.95 24.7
-7 -2 5 475.95 20.7
7 -2 -5 464.95 23.8
-7 2 5 381.56 33.8
7 2 -5 466.45 24.7
-7 2 5 464.45 23
7 2 -5 451.85 18.4
-6 -2 5 1495.85 48.9
-6 -2 5 1428.76 53.99
6 -2 -5 1491.25 50.99
6 -2 -5 1510.75 58.29
6 2 -5 1510.15 46.9
-6 2 5 1452.95 53.49
6 2 -5 1530.25 53.99
-6 2 5 1492.25 52.09
-5 -2 5 48.4 7.3
5 -2 -5 57.99 6.2
5 -2 -5 57.09 6.8
-5 -2 5 63.89 5.2
5 2 -5 62.49 7.1
5 2 -5 62.49 4.5
-5 2 5 57.99 7.1
-5 2 5 68.89 6
4 -2 -5 875.71 30.8
4 -2 -5 789.52 30.5
-4 -2 5 825.22 32
-4 -2 5 787.82 26.6
-4 -2 5 828.02 25
-4 2 5 798.22 31.4
-4 2 5 741.93 31.7
4 2 -5 882.31 31.4
4 2 -5 840.02 25.9
-3 -2 5 152.88 10
3 -2 -5 156.48 9.5
3 -2 -5 156.68 9.6
3 2 -5 164.28 6.1
-3 2 5 150.98 9.8
3 2 -5 164.38 9.6
-3 2 5 152.28 10
2 -2 -5 1226.28 39.5
-2 -2 5 1253.77 40.6
-2 2 5 1143.79 40.2
2 2 -5 1197.48 39.2
1 -2 -5 4417.36 130.79
-1 -2 5 4644.94 131.79
-1 2 5 4534.45 132.09
1 2 -5 4429.46 130.09
1 2 -5 4470.05 126.49
0 -2 5 416.96 16.6
0 -2 -5 430.06 16.9
0 2 5 460.45 17.6
0 2 -5 407.76 15.9
0 2 -5 416.16 14.1
-1 -2 -5 209.48 11.1
1 -2 5 224.38 10.6
-1 2 -5 214.38 10.5
1 2 5 240.48 11.4
-1 2 -5 221.68 9.5
-2 -2 -5 432.06 19.3
2 -2 5 429.86 18.2
-2 -2 -5 428.86 17.3
2 -2 5 451.85 17.8
2 -2 5 424.36 16.1
2 2 5 448.06 19.2
2 2 5 470.25 18.8
-2 2 -5 442.26 18.9
-2 2 -5 466.85 17.5
3 -2 5 591.84 23.1
3 -2 5 620.14 21.8
-3 -2 -5 626.84 23.1
3 -2 5 565.54 24.3
-3 2 -5 606.24 23.3
3 2 5 584.54 23.9
3 2 5 612.64 25.8
4 -2 5 559.84 22.5
4 -2 5 501.15 23.8
4 -2 5 528.45 20.8
-4 2 -5 522.35 22.5
4 2 5 563.74 25.7
4 2 5 559.84 23.5
5 -2 5 112.99 10.9
5 -2 5 111.09 9
5 -2 5 102.79 7.8
5 2 5 110.19 10.8
5 2 5 102.39 9.4
6 -2 5 169.18 14.7
-6 -2 -5 194.88 13.5
6 -2 5 192.08 11.7
6 -2 5 171.88 12.5
-6 2 -5 172.38 13.2
6 2 5 192.58 13.8
6 2 5 211.38 16.2
-8 -3 5 1017.2 38
8 -3 -5 1004.1 42.4
-8 -3 5 1095.89 44.4
8 -3 -5 973.9 39.5
-8 3 5 1011 42.2
-8 3 5 980.8 41.7
8 3 -5 860.81 52.59
8 3 -5 1001.6 34.7
-7 -3 5 180.28 14.7
7 -3 -5 172.58 13.4
7 -3 -5 164.28 12.3
-7 -3 5 172.78 10.9
-7 3 5 174.98 13.4
7 3 -5 182.28 9.5
7 3 -5 176.98 14.2
-7 3 5 171.18 13.8
6 -3 -5 661.83 28.7
6 -3 -5 662.93 27.9
-6 -3 5 639.04 29.8
-6 -3 5 680.03 24.8
6 3 -5 656.93 22.8
6 3 -5 647.04 29.1
-6 3 5 656.43 29
-5 -3 5 122.79 7.2
-5 -3 5 126.49 10.7
5 -3 -5 138.29 10.2
5 -3 -5 135.89 10.1
-5 3 5 124.79 9.6
-5 3 5 143.49 10.8
5 3 -5 132.79 6.4
5 3 -5 132.49 10.3
4 -3 -5 681.93 27.3
-4 -3 5 674.43 22
-4 -3 5 681.83 27.8
-4 -3 5 662.83 22.7
-4 3 5 709.13 27.7
4 3 -5 657.93 20.9
4 3 -5 699.03 27
-4 3 5 670.23 27.5
3 -3 -5 674.63 25.7
3 -3 -5 675.43 27
-3 -3 5 717.83 27.3
-3 -3 5 686.83 24.7
3 3 -5 690.83 25.7
-3 3 5 712.23 27
-3 3 5 687.13 27.7
2 -3 -5 403.96 16.4
-2 -3 5 392.46 17.1
-2 3 5 396.36 18.7
-2 3 5 390.96 17.2
2 3 -5 389.96 15.7
1 -3 -5 9698.63 280.17
1 3 -5 9999 279.07
0 -3 5 1936.51 60.69
0 -3 -5 1999.3 61.29
0 3 -5 2038.3 59.89
0 3 -5 1984.9 57.69
0 3 5 1952.4 61.69
1 -3 5 478.45 15.7
-1 -3 -5 470.65 19.2
1 -3 5 476.65 17.9
-1 3 -5 470.25 17.9
1 3 5 467.75 18.8
-1 3 -5 421.46 16.4
-2 -3 -5 2823.02 89.49
2 -3 5 2906.91 86.79
2 -3 5 2910.21 87.59
2 -3 5 2879.31 84.99
2 3 5 2976.3 90.59
2 3 5 2972.8 88.59
-2 3 -5 2838.82 86.59
3 -3 5 180.98 11.4
3 -3 5 189.48 10.4
3 -3 5 189.68 9.5
3 3 5 208.48 13
-3 3 -5 183.98 10.7
4 -3 5 413.86 17
4 -3 5 414.36 20.5
4 -3 5 401.26 20
-4 3 -5 416.76 19.1
4 3 5 349.07 20.1
4 3 5 404.26 19.2
5 -3 5 140.99 10.1
-5 -3 -5 148.29 11.9
5 -3 5 120.09 9.8
5 -3 5 125.79 11.4
5 3 5 145.99 13.3
5 3 5 159.08 11.5
6 -3 5 165.38 11
6 -3 5 172.98 12.2
6 -3 5 162.38 14.4
6 3 5 152.68 12.4
-6 3 -5 189.98 13.6
6 3 5 162.68 16.7
8 -4 -5 53.59 9.2
8 -4 -5 45.7 8.2
-8 -4 5 54.99 7.4
-8 -4 5 38.4 8.5
-8 4 5 43.9 8.8
8 4 -5 47.4 9.4
-7 -4 5 61.49 9.6
7 -4 -5 73.39 10.1
7 -4 -5 69.79 9.7
-7 -4 5 74.09 7
-7 4 5 56.89 8.6
-6 -4 5 47.7 12.1
-6 -4 5 40.6 4.5
6 -4 -5 56.79 8.4
6 -4 -5 42.2 10.6
6 4 -5 44.3 7.8
-6 4 5 39.5 7.1
-5 -4 5 2060.59 69.19
5 -4 -5 2023.2 66.89
5 -4 -5 2084.79 68.89
-5 -4 5 2042 61.89
-5 4 5 2031.8 67.79
-5 4 5 2074.59 69.09
-4 -4 5 1905.21 62.59
4 -4 -5 1875.81 60.49
-4 -4 5 1844.92 54.79
-4 -4 5 1860.21 58.29
4 -4 -5 1908.91 62.99
-4 4 5 1875.11 63.99
-3 -4 5 1926.01 61.09
3 -4 -5 1894.41 59.99
-3 -4 5 2004.8 62.29
3 -4 -5 1787.52 62.79
3 4 -5 1907.21 59.99
-3 4 5 1950.5 65.19
2 -4 -5 171.78 9.3
-2 -4 5 176.58 10.2
-2 -4 5 170.38 10.9
2 4 -5 164.78 10
-2 4 5 184.98 12.6
-1 -4 5 854.41 29.5
1 -4 -5 837.82 29
-1 4 5 855.31 30.3
1 4 -5 806.52 27.7
-1 4 5 876.71 34.3
0 -4 5 137.49 7.9
0 -4 -5 123.19 8
0 4 5 147.39 8.8
0 4 -5 123.59 7.8
1 -4 5 132.99 6.1
1 -4 5 134.19 7.8
-1 -4 -5 131.79 8.9
1 4 5 147.19 8.9
-1 4 -5 138.29 7.7
1 4 5 137.09 8.8
-1 4 -5 136.89 7.3
2 -4 5 149.29 7.4
2 -4 5 144.09 8.7
2 -4 5 145.79 8.3
-2 -4 -5 146.39 10.2
2 4 5 141.19 9.3
2 4 5 140.69 10.1
-2 4 -5 150.28 8.7
3 -4 5 499.35 19.8
3 -4 5 496.85 21.3
3 -4 5 504.25 19
3 4 5 513.25 23.5
3 4 5 514.05 21.7
-3 4 -5 492.25 21
4 -4 5 224.68 12.2
4 -4 5 222.48 11.4
4 -4 5 207.68 13.4
4 4 5 217.08 15.2
-4 4 -5 224.58 13.5
4 4 5 232.48 13.7
5 -4 5 597.24 24.4
5 -4 5 603.54 23.7
5 -4 5 588.04 27.4
-5 -4 -5 571.94 25.4
5 4 5 597.64 26.3
5 4 5 518.45 31.2
-7 -5 5 195.38 15.4
7 -5 -5 193.68 14.2
7 -5 -5 191.58 14.5
7 5 -5 209.48 15.8
-6 -5 5 270.57 12.5
6 -5 -5 303.27 16.7
-6 -5 5 261.97 17.1
6 -5 -5 276.17 17.3
5 -5 -5 238.38 15.5
5 -5 -5 233.58 13.5
-5 -5 5 242.18 10.2
-5 -5 5 238.18 15.2
-5 5 5 260.47 16.9
-5 5 5 233.28 14.1
-4 -5 5 1239.38 42.5
4 -5 -5 1202.18 45.7
-4 -5 5 1225.18 44.4
4 -5 -5 1277.97 42.5
-4 5 5 1244.28 48.3
-4 5 5 1266.07 43.7
-3 -5 5 421.86 20.1
3 -5 -5 432.76 17.9
-3 -5 5 421.36 19.3
3 -5 -5 456.55 21.8
-3 5 5 418.66 22.8
-3 5 5 446.46 19.5
3 5 -5 449.56 17.7
-2 -5 5 176.08 12.1
-2 -5 5 161.98 9.9
2 -5 -5 160.78 9
-2 5 5 154.38 13
2 5 -5 168.58 8.1
-2 5 5 169.38 10.2
1 -5 -5 3161.38 96.39
-1 -5 5 3319.87 96.89
-1 -5 5 3218.08 106.59
1 5 -5 3296.27 93.89
-1 5 5 3197.58 97.79
-1 5 5 3259.67 104.49
0 -5 -5 57.99 5.6
0 -5 5 66.69 5.5
0 -5 5 62.79 3.1
0 -5 5 71.29 8.4
0 5 5 75.29 9.1
0 5 -5 72.89 4.5
1 -5 5 273.47 10.5
1 -5 5 284.97 12.4
1 -5 5 271.57 11.9
-1 -5 -5 260.57 13.9
1 5 5 280.67 13.8
2 -5 5 775.12 25.5
2 -5 5 724.23 27
-2 -5 -5 747.33 30
2 -5 5 754.42 26.5
2 5 5 792.92 28.8
-2 5 -5 744.63 27.3
-3 -5 -5 54.39 6
3 -5 5 49.1 5.9
3 -5 5 53.19 5.3
3 -5 5 53.79 4.9
3 5 5 69.39 7.8
-3 5 -5 64.99 9
3 5 5 65.89 6.7
4 -5 5 402.36 19.3
-4 -5 -5 400.16 18.8
4 -5 5 376.06 16.4
4 -5 5 368.26 16.7
4 5 5 378.96 18.9
-4 5 -5 359.06 18.8
4 5 5 363.86 21.2
5 -5 5 224.88 12.2
5 -5 5 195.78 14.3
5 -5 5 214.58 12.5
-5 5 -5 190.38 14
5 5 5 202.38 13.9
-6 -6 5 657.83 29.8
6 -6 -5 655.93 30.7
-6 -6 5 673.63 23.3
6 -6 -5 631.64 27.2
6 6 -5 645.64 28.9
-6 6 5 598.24 26.9
-5 -6 5 271.37 10.6
5 -6 -5 253.97 13.9
5 -6 -5 255.87 16.9
-5 -6 5 255.37 15.5
-5 6 5 261.47 14.7
5 6 -5 268.27 15.1
-5 6 5 254.67 18.2
4 -6 -5 65.69 6
-4 -6 5 72.19 7.3
-4 -6 5 62.89 7.3
4 -6 -5 40.8 6.9
-4 6 5 52.69 8.7
4 6 -5 62.19 6.1
-4 6 5 75.89 7.1
-3 -6 5 202.18 12.3
3 -6 -5 187.28 10.2
-3 -6 5 211.38 16.3
-3 6 5 220.08 16.5
-3 6 5 195.68 11.5
2 -6 -5 1255.67 41.5
-2 -6 5 1274.97 42.5
-2 -6 5 1255.77 47.9
-2 6 5 1291.17 43.3
2 6 -5 1274.97 39
-2 6 5 1342.57 51.49
1 -6 -5 647.54 23
-1 -6 5 583.74 22.1
-1 -6 5 573.44 28.2
1 6 -5 614.74 19.1
-1 6 5 585.94 23.4
-1 6 5 579.64 29.8
0 -6 5 463.55 14.8
0 -6 -5 476.55 19.6
0 -6 5 475.75 17.8
0 -6 5 460.35 24.9
0 6 5 435.56 27.8
0 6 5 468.15 19.7
1 -6 5 321.47 13.1
1 -6 5 326.57 13.6
1 -6 5 316.77 20.5
-1 -6 -5 344.07 16.4
1 -6 5 314.37 12.3
1 6 5 332.47 15.5
1 6 5 323.87 20.8
2 -6 5 722.93 34.9
2 -6 5 697.83 24.8
2 -6 5 697.53 24.3
2 6 5 728.73 34.5
3 -6 5 332.27 14.6
3 -6 5 356.66 15
3 -6 5 335.67 16
-3 -6 -5 382.96 17.8
3 -6 5 323.17 22.5
-3 6 -5 326.77 16.6
3 6 5 335.57 16.9
3 6 5 350.96 19.4
4 -6 5 501.45 20.4
4 -6 5 511.35 22.8
4 -6 5 520.85 20.9
-4 6 -5 504.85 23.6
4 6 5 528.05 23.6
-5 -7 5 366.26 19.2
-5 -7 5 342.87 12.9
5 -7 -5 339.17 16.3
5 -7 -5 375.06 21.9
5 7 -5 435.16 25.8
-5 7 5 343.77 16.5
4 -7 -5 116.69 11.5
4 -7 -5 126.19 7.9
-4 -7 5 122.29 9.4
-4 7 5 112.49 12.9
4 7 -5 106.99 7.4
-4 7 5 118.99 8.5
-3 -7 5 230.28 15.6
-3 -7 5 237.78 12.5
3 -7 -5 235.88 16.4
3 -7 -5 221.78 11.1
3 7 -5 222.88 10
-3 7 5 228.58 18.3
-3 7 5 237.18 12
2 -7 -5 54.29 8.5
-2 -7 5 65.39 5.7
-2 -7 5 78.79 11.4
2 -7 -5 57.29 5.2
-2 7 5 66.09 5.2
-2 7 5 60.29 5.8
-2 7 5 79.19 12.6
-1 -7 5 636.64 31.7
-1 -7 5 659.93 23
1 -7 -5 661.93 24.6
-1 7 5 643.54 33.4
-1 7 5 657.73 23.8
0 -7 5 300.27 10.6
0 -7 5 317.37 11.1
0 -7 5 299.87 11.7
0 -7 -5 310.07 14.9
0 -7 5 289.57 20.4
0 7 5 318.67 15.1
0 7 5 292.57 21
0 7 5 292.97 14.6
1 -7 5 1856.31 69.59
1 -7 5 1829.12 54.39
1 -7 5 1824.12 53.79
1 -7 5 1802.62 54.09
1 7 5 1839.62 69.09
1 7 5 1741.33 58.99
1 7 5 1744.93 58.39
2 -7 5 75.49 5.6
2 -7 5 81.59 5.7
2 -7 5 92.39 11.5
2 -7 5 71.89 5.3
2 7 5 96.19 8
2 7 5 100.39 14.5
2 7 5 78.09 8.4
-3 -8 5 263.77 18.4
-3 8 5 249.48 20.4
-2 -8 5 338.67 12.8
-2 -8 5 338.17 22.7
2 -8 -5 340.07 14.8
2 -8 -5 341.67 21
-2 8 5 336.17 13.9
-2 8 5 339.27 24.4
-2 8 5 339.27 13.2
1 -8 -5 6.5 3.2
-1 -8 5 3.4 3.4
-1 8 5 4.6 2.7
-1 8 5 7.6 5.3
-1 8 5 5.6 2.3
0 -8 5 176.58 7.2
0 -8 5 169.88 16
0 8 5 188.58 17.4
0 8 5 184.48 10.5
0 8 5 183.68 10.5
9 0 -6 286.97 16.1
9 0 -6 283.47 20
-9 0 6 278.87 17.9
-9 0 6 307.37 21.3
-8 0 6 -1.1 1.7
8 0 -6 0.2 3.3
-8 0 6 1.3 3.5
7 0 -6 1455.85 53.79
-7 0 6 1347.67 52.69
7 0 -6 1384.26 46.9
-7 0 6 1321.67 48.4
6 0 -6 3039.3 90.39
-6 0 6 2968.6 96.49
-6 0 6 2840.52 92.09
6 0 -6 2983.2 95.39
5 0 -6 22.4 4.8
-5 0 6 12.6 4.2
-5 0 6 17.9 2.1
5 0 -6 20.7 3.8
-4 0 6 28 5.5
4 0 -6 19.3 4.1
4 0 -6 19.4 3.4
3 0 -6 14.6 3.4
-3 0 6 18.5 4.2
3 0 -6 19.1 3.2
2 0 -6 37.5 4.4
-2 0 6 43.3 5.2
1 0 -6 149.29 8.5
-1 0 6 139.69 8.9
0 0 6 3437.66 101.89
0 0 -6 3351.26 100.99
-1 0 -6 4745.53 139.69
1 0 6 4716.33 139.49
-1 0 -6 4782.02 136.99
2 0 6 141.69 9.6
-2 0 -6 162.28 10.3
-2 0 -6 144.89 8.2
2 0 6 138.89 9.2
3 0 6 282.47 14.5
-3 0 -6 264.17 15.2
-3 0 -6 258.07 13.1
3 0 6 280.67 15.3
4 0 6 2194.88 72.19
4 0 6 2284.97 75.09
-5 0 -6 27.5 4.7
5 0 6 29.2 6.6
6 0 6 45.8 9.1
6 0 6 49.9 8
8 -1 -6 83.49 8.1
-8 -1 6 64.19 10.7
8 -1 -6 93.59 10.9
-8 -1 6 81.49 8.4
-8 1 6 63.29 10.4
8 1 -6 77.29 7
-8 1 6 72.39 8.3
8 1 -6 65.99 10.3
-7 -1 6 35.4 6.3
-7 -1 6 29.7 7.2
7 -1 -6 32.5 5.7
7 -1 -6 30.4 6.2
-7 1 6 29.5 5.3
7 1 -6 34.8 7.2
-7 1 6 31.7 7.2
7 1 -6 32.7 4.8
6 -1 -6 897.91 36.7
-6 -1 6 896.91 33.2
6 -1 -6 883.41 33.7
-6 -1 6 895.61 37.8
6 1 -6 915.61 37.1
-6 1 6 996.9 38.8
6 1 -6 930.51 31.9
-6 1 6 958.7 35.2
-5 -1 6 849.02 30.1
-5 -1 6 901.21 35.6
5 -1 -6 854.81 33.9
5 -1 -6 848.22 31.6
-5 1 6 882.81 29.5
5 1 -6 840.72 29.3
-5 1 6 897.61 35.4
5 1 -6 888.31 34.3
4 -1 -6 1168.48 40.5
-4 -1 6 1190.78 43.5
4 -1 -6 1113.29 41.7
-4 1 6 1219.48 43.5
-4 1 6 1196.18 39.4
4 1 -6 1273.27 42.7
4 1 -6 1239.68 38
3 -1 -6 420.26 18.2
-3 -1 6 479.25 20.6
-3 1 6 436.16 20
3 1 -6 462.85 16.3
3 1 -6 454.35 19.2
2 -1 -6 145.99 9.1
-2 -1 6 155.98 9.7
-2 1 6 140.29 9.4
2 1 -6 135.09 8.4
2 1 -6 135.49 6.7
1 -1 -6 1154.98 41
-1 -1 6 1179.48 39.3
1 1 -6 1181.48 38
-1 1 6 1106.09 39.2
0 -1 -6 1345.57 43.9
0 -1 6 1414.76 44.4
0 1 6 1347.97 52.69
0 1 -6 1294.17 43.2
0 1 -6 1326.67 40.6
-1 -1 -6 379.16 15.2
1 -1 6 379.76 16.5
-1 -1 -6 361.56 16.6
-1 1 -6 394.16 16.6
-1 1 -6 388.86 14.6
1 1 6 390.46 16.8
2 -1 6 726.03 28.3
-2 -1 -6 765.62 29.3
2 -1 6 735.93 27.7
-2 1 -6 778.12 26.6
2 1 6 737.23 28.8
2 1 6 775.12 28.5
-2 1 -6 763.92 29
3 -1 6 729.93 30.1
-3 -1 -6 747.43 27.4
3 -1 6 744.03 28.2
-3 -1 -6 736.13 30.2
3 1 6 770.02 30.4
3 1 6 728.23 28.5
-3 1 -6 691.23 27
4 -1 6 512.35 22.5
4 -1 6 498.05 24.1
4 1 6 531.15 25.5
4 1 6 491.25 22.6
-4 1 -6 528.55 22.5
5 -1 6 1312.57 48.7
5 -1 6 1196.28 44.2
5 1 6 1201.08 44.8
-5 1 -6 1218.48 44.8
5 1 6 1177.88 48
6 -1 6 21.1 5.3
6 -1 6 12.3 10.4
6 1 6 29.3 6.4
-6 1 -6 21.7 5.3
6 1 6 36.3 8.1
8 -2 -6 5.9 4.1
-8 -2 6 4.5 3.9
8 -2 -6 5.5 2.9
-8 -2 6 8.5 3.3
-8 2 6 5.7 3.7
8 2 -6 9.6 4
8 2 -6 7.8 2.7
-8 2 6 1.8 3.6
7 -2 -6 82.79 9.1
-7 -2 6 68.59 6.9
7 -2 -6 71.89 8
-7 -2 6 77.89 11.3
-7 2 6 80.59 11.4
7 2 -6 65.59 9.7
-7 2 6 83.19 10.8
7 2 -6 75.89 6
6 -2 -6 296.77 15.8
6 -2 -6 277.37 16.7
-6 -2 6 275.17 17.7
-6 -2 6 274.67 13.6
6 2 -6 274.97 17
6 2 -6 293.27 12.4
-6 2 6 286.47 17.6
-5 -2 6 856.31 35.3
5 -2 -6 828.82 33.9
5 -2 -6 923.81 33.7
-5 -2 6 849.52 29.6
5 2 -6 860.61 34.3
-5 2 6 900.91 35.6
-5 2 6 948.11 32.3
4 -2 -6 316.87 16
-4 -2 6 339.97 17.5
4 -2 -6 285.47 15.1
4 2 -6 306.97 15.7
-4 2 6 294.37 16.3
4 2 -6 304.97 11.3
-4 2 6 312.87 15.2
3 -2 -6 441.36 19.1
-3 -2 6 440.16 20
3 -2 -6 410.96 18.6
-3 2 6 416.36 19.6
3 2 -6 458.55 18.9
3 2 -6 434.76 14
-2 -2 6 341.87 16.1
2 -2 -6 332.57 15.2
2 2 -6 352.36 11.2
-2 2 6 337.57 16.2
2 2 -6 351.36 15.2
1 -2 -6 1959.7 60.89
-1 -2 6 1898.91 61.49
-1 2 6 1968 62.19
1 2 -6 1983 56.19
1 2 -6 1942.41 59.99
0 -2 -6 90.19 6.7
0 -2 6 88.89 6.7
0 2 -6 94.89 6.3
0 2 6 77.89 6.8
0 2 -6 82.89 4.6
1 -2 6 2010 63.09
-1 -2 -6 2091.69 64.39
1 2 6 2006.1 64.79
-1 2 -6 2045.9 60.89
-1 2 -6 1961.9 66.09
2 -2 6 107.69 8.2
2 -2 6 141.49 8.7
-2 -2 -6 115.49 7.6
-2 -2 -6 115.69 9.1
-2 2 -6 118.19 7.5
2 2 6 114.49 8.8
-2 2 -6 117.49 8.5
2 2 6 112.29 8.3
3 -2 6 951.8 34.2
-3 -2 -6 954.6 33.6
-3 -2 -6 973.5 37.1
3 -2 6 918.71 35.4
3 2 6 955.5 35.2
-3 2 -6 963.8 34.4
3 2 6 936.51 36.8
4 -2 6 213.78 18.2
4 -2 6 222.98 14.5
-4 2 -6 226.78 13.2
4 2 6 217.88 15.1
4 2 6 215.88 13.5
5 -2 6 358.66 20.9
-5 -2 -6 327.37 17.9
5 -2 6 350.76 18.1
5 2 6 339.57 18.7
5 2 6 358.26 21.6
-5 2 -6 357.66 18.9
-8 -3 6 85.09 12.3
8 -3 -6 111.49 11.2
8 -3 -6 110.19 10.4
-8 -3 6 108.49 9.1
8 3 -6 104.39 7.4
-8 3 6 79.19 19.7
8 3 -6 79.69 12.1
-7 -3 6 192.88 11.4
-7 -3 6 179.68 15.2
7 -3 -6 214.58 15
7 -3 -6 207.08 14
-7 3 6 197.78 15.1
7 3 -6 200.48 9.9
7 3 -6 191.18 15
-6 -3 6 91.49 6.9
6 -3 -6 112.29 10.1
6 -3 -6 117.79 9.9
-6 -3 6 122.89 11.4
-6 3 6 108.69 10.5
6 3 -6 107.79 10
6 3 -6 109.89 6.1
5 -3 -6 540.05 23.9
5 -3 -6 543.55 23.7
-5 -3 6 497.45 18.5
-5 -3 6 531.55 25
5 3 -6 520.45 17.3
5 3 -6 533.15 23.7
-5 3 6 529.35 23.4
-5 3 6 468.05 23.7
4 -3 -6 550.84 23.3
-4 -3 6 522.25 23.7
-4 -3 6 506.95 19.2
4 -3 -6 523.65 22.3
-4 3 6 503.05 23.2
4 3 -6 493.95 22
4 3 -6 514.35 15.9
-4 3 6 540.85 23.5
3 -3 -6 142.99 10.1
3 -3 -6 141.49 9.3
-3 -3 6 138.99 10
-3 3 6 156.38 10.5
-3 3 6 143.29 10.5
3 3 -6 130.09 8.8
-2 -3 6 196.78 11.6
2 -3 -6 198.78 10.9
-2 3 6 224.28 12.3
1 -3 -6 645.94 24.8
-1 -3 6 681.23 25.6
-1 3 6 697.83 26.3
0 -3 6 1981.3 61.89
0 -3 -6 1967 62.29
0 3 -6 1981 57.89
0 3 -6 1964.3 60.69
0 3 6 1981.8 62.79
1 -3 6 919.21 31.6
-1 -3 -6 912.11 32.9
-1 3 -6 835.42 33.9
1 3 6 915.71 32.5
-1 3 -6 890.81 31.2
2 -3 6 15.2 3.6
-2 -3 -6 8.8 3.2
2 -3 6 19.1 3.7
-2 -3 -6 21.2 4
-2 3 -6 18.8 3.4
2 3 6 19.3 5
2 3 6 13.3 3.7
3 -3 6 1195.28 41.3
3 -3 6 1233.08 43.3
3 -3 6 1184.08 39.2
3 3 6 1215.98 45
3 3 6 1226.98 43
4 -3 6 227.28 14.6
4 -3 6 223.98 11.6
4 -3 6 231.68 13.1
-4 3 -6 218.98 13.3
4 3 6 220.68 13.8
4 3 6 227.08 15.7
5 -3 6 187.78 11.1
5 -3 6 178.28 12
-5 -3 -6 176.98 12.6
5 -3 6 187.68 14.5
5 3 6 191.68 15.4
-5 3 -6 180.18 13.1
5 3 6 204.48 13.7
7 -4 -6 36.5 6.5
7 -4 -6 39.1 7.1
-7 -4 6 36.2 5.3
-7 -4 6 52.99 9.6
-7 4 6 37 7.2
7 4 -6 43.4 8.3
6 -4 -6 160.38 12.4
6 -4 -6 158.98 12.1
-6 -4 6 166.98 8.8
-6 -4 6 136.09 12.6
6 4 -6 160.48 12.6
-6 4 6 172.48 13.1
5 -4 -6 13.8 4.7
-5 -4 6 12.4 2.2
5 -4 -6 5.7 3.3
-5 -4 6 9.5 4
-5 4 6 14.9 4.1
-5 4 6 13.2 4
4 -4 -6 1440.26 51.59
-4 -4 6 1454.85 51.39
4 -4 -6 1406.56 49.1
-4 -4 6 1483.45 47.8
-4 4 6 1503.45 51.39
-4 4 6 1481.45 52.79
3 -4 -6 1017.9 36
-3 -4 6 1064.19 37.1
3 -4 -6 1030.6 38.9
-3 -4 6 1033.6 37.9
-3 4 6 1009 40.1
-3 4 6 1031.4 37.8
2 -4 -6 1867.71 60.19
-2 -4 6 1924.71 61.89
2 4 -6 1950.2 59.19
-2 4 6 1982.2 62.59
-2 4 6 1865.61 65.69
1 -4 -6 3653.93 116.79
-1 -4 6 3950.1 113.69
1 4 -6 3821.72 110.89
-1 4 6 3743.43 114.29
0 -4 6 427.56 18
0 -4 -6 394.96 18.2
0 4 6 470.05 19.5
0 4 -6 443.76 17
1 -4 6 34.9 4.9
-1 -4 -6 36.5 5.6
-1 4 -6 43.1 4.5
-1 4 -6 39.6 3.8
1 4 6 40.4 6
1 4 6 30 5.1
2 -4 6 59.09 5.9
-2 -4 -6 57.39 8.1
2 -4 6 59.09 5.6
2 -4 6 59.89 4.5
2 4 6 82.09 7.2
2 4 6 60.39 6.8
-2 4 -6 61.69 5.5
3 -4 6 80.39 7.6
3 -4 6 79.19 5.8
3 -4 6 80.89 6.9
-3 4 -6 87.39 8.6
3 4 6 77.89 10.4
3 4 6 71.19 8.1
4 -4 6 85.09 6.7
4 -4 6 90.49 7.8
4 -4 6 101.49 9.6
-4 -4 -6 92.69 8.3
-4 4 -6 104.49 8.8
4 4 6 92.29 8.9
4 4 6 100.59 10.4
5 -4 6 73.39 10.1
5 -4 6 69.09 6.5
5 -4 6 72.59 7.6
5 4 6 79.79 11.3
-5 4 -6 73.39 10
5 4 6 79.69 8.8
7 -5 -6 40.1 7.8
-7 -5 6 33.8 4.9
-7 -5 6 48.9 9
7 -5 -6 38.4 7.4
-7 5 6 45.3 8.5
-6 -5 6 179.08 14.4
6 -5 -6 209.68 14.9
-6 -5 6 202.28 11.1
6 -5 -6 208.38 13.5
6 5 -6 179.48 13.5
5 -5 -6 161.08 11.1
5 -5 -6 154.78 12.5
-5 -5 6 166.18 12.6
-5 5 6 144.39 12.9
-4 -5 6 341.37 16.9
4 -5 -6 373.56 17.2
4 -5 -6 475.95 31.7
-4 5 6 322.57 20.3
3 -5 -6 219.08 14.6
-3 -5 6 209.28 13.3
3 -5 -6 215.28 11.8
-3 -5 6 217.88 13.2
-3 5 6 242.98 16.6
2 -5 -6 1304.87 43.7
-2 -5 6 1334.27 45.2
-2 5 6 1324.87 50.89
2 5 -6 1330.17 41.9
-1 -5 6 610.94 28.4
1 -5 -6 633.34 24.4
-1 -5 6 615.54 24.4
-1 5 6 638.04 30.4
1 5 -6 677.73 22.4
0 -5 6 41.1 4.9
0 -5 -6 53.89 5.7
0 5 -6 53.29 4.4
0 5 6 58.59 6.1
1 -5 6 34.6 2.8
1 -5 6 33.5 4.9
-1 -5 -6 27.5 5.3
1 5 6 29.8 5.1
-1 5 -6 27.4 3.3
2 -5 6 77.99 6.6
2 -5 6 69.99 6.6
-2 -5 -6 87.79 8.8
2 -5 6 80.89 5.2
2 5 6 81.59 7.5
-2 5 -6 79.69 6.4
2 5 6 86.79 8.4
3 -5 6 327.77 13.7
-3 -5 -6 290.77 15.7
3 -5 6 323.37 15.1
3 -5 6 301.97 16
3 5 6 298.87 18.5
3 5 6 322.17 17
-3 5 -6 326.57 16
4 -5 6 95.79 7
4 -5 6 81.09 8.9
4 -5 6 99.59 8.1
4 5 6 91.69 10.7
-4 5 -6 96.59 8.8
4 5 6 100.19 9.3
6 -6 -6 423.66 20.7
-6 -6 6 404.96 15
6 -6 -6 406.86 23.4
-6 -6 6 430.36 23
-6 6 6 426.56 22.8
-5 -6 6 175.78 13
5 -6 -6 143.79 12.8
5 -6 -6 166.88 11
-5 6 6 152.18 11.7
-5 6 6 169.08 14.7
5 6 -6 156.68 11
-4 -6 6 334.27 18
-4 -6 6 351.46 17.9
4 -6 -6 340.07 16.2
4 -6 -6 368.66 20.6
4 6 -6 341.17 15.9
-4 6 6 368.86 22.7
-4 6 6 312.47 17.2
3 -6 -6 350.06 15.8
3 -6 -6 349.87 20.1
-3 -6 6 348.87 17.3
-3 -6 6 324.87 18.7
-3 6 6 355.06 19.1
-3 6 6 355.16 22.3
-2 -6 6 78.59 8.8
2 -6 -6 53.89 5.6
-2 -6 6 72.89 7.1
-2 6 6 64.69 7
-2 6 6 60.79 10.7
1 -6 -6 373.66 16.3
-1 -6 6 315.47 21.6
-1 -6 6 322.17 20.1
-1 6 6 337.77 16.8
-1 6 6 356.46 22.1
0 -6 6 182.68 10.4
0 -6 -6 169.58 11
0 -6 6 172.18 14.6
0 6 6 193.48 15.7
1 -6 6 285.67 13
1 -6 6 298.67 13.7
1 -6 6 296.77 10.8
-1 -6 -6 288.27 15.8
1 -6 6 280.57 19.9
1 6 6 302.47 20.6
2 -6 6 494.25 20.4
2 -6 6 495.15 18
2 -6 6 532.85 29.3
2 -6 6 517.25 20.3
2 6 6 498.25 23.6
2 6 6 486.25 22.3
3 -6 6 112.69 8.9
3 -6 6 104.19 7.9
3 -6 6 106.49 6.9
-3 6 -6 105.79 8.6
3 6 6 107.49 9.5
4 -7 -6 186.98 11
-4 -7 6 213.18 14.3
-4 -7 6 215.18 13.2
4 -7 -6 180.68 14.8
4 7 -6 181.28 10.1
-4 7 6 196.48 12.3
-4 7 6 182.88 16.7
-3 -7 6 281.87 18.4
3 -7 -6 347.07 20.6
-3 -7 6 284.97 15.3
3 -7 -6 303.87 14.5
-3 7 6 311.97 22.1
3 7 -6 324.97 14
2 -7 -6 223.68 15.9
2 -7 -6 191.48 11
-2 -7 6 185.98 15.1
-2 -7 6 204.08 11.4
-2 7 6 219.38 18.1
-2 7 6 190.58 12
-1 -7 6 88.99 6.6
1 -7 -6 87.29 7.2
-1 -7 6 88.89 13.2
-1 7 6 86.99 13.8
-1 7 6 82.49 6.8
-1 7 6 81.19 7.9
0 -7 6 939.81 31.4
0 -7 6 926.11 29.9
0 -7 -6 914.51 34.5
0 -7 6 867.31 42.3
0 7 6 910.41 33.9
0 7 6 971 34.9
0 7 6 890.31 42.6
1 -7 6 516.55 18.9
1 -7 6 492.65 29.2
1 -7 6 501.05 16.6
1 -7 6 497.45 19.2
-1 -7 -6 508.75 23.3
1 7 6 498.15 29.4
1 7 6 488.35 22.4
1 7 6 526.25 25.9
-8 0 7 16.8 5.8
-8 0 7 19.9 4.9
8 0 -7 20.4 6
-7 0 7 1533.15 52.89
-7 0 7 1537.05 58.29
7 0 -7 1573.74 51.59
7 0 -7 1470.95 56.29
-6 0 7 1977.3 67.29
6 0 -7 1832.82 65.69
6 0 -7 1841.72 60.19
5 0 -7 457.45 19.5
-5 0 7 499.15 24.4
-5 0 7 495.15 17.7
5 0 -7 494.35 23
-4 0 7 61.79 7.5
4 0 -7 65.49 6.8
4 0 -7 62.59 5.5
3 0 -7 4043.2 121.49
3 0 -7 4189.08 124.09
-3 0 7 4185.38 125.99
2 0 -7 680.43 25.9
-2 0 7 690.63 27.5
1 0 -7 678.23 25.5
-1 0 7 683.53 26.8
0 0 7 558.64 22.9
0 0 -7 549.65 22.2
0 0 -7 568.14 19.8
-1 0 -7 85.99 7.2
1 0 7 70.29 6.8
-1 0 -7 76.19 5.6
2 0 7 -0.5 2
-2 0 -7 4.9 2.3
2 0 7 3.5 2.3
-2 0 -7 3.3 1.7
3 0 7 1614.84 54.49
3 0 7 1525.25 55.59
-3 0 -7 1648.24 53.09
-3 0 -7 1657.63 56.69
4 0 7 3424.06 109.39
4 0 7 3404.36 106.29
5 0 7 132.99 11.5
-5 0 -7 153.48 11.7
5 0 7 144.89 12.8
-8 -1 7 1.6 3.9
8 -1 -7 4.1 2.8
-8 -1 7 11.3 3.2
8 -1 -7 14.3 4.6
8 1 -7 7.9 2.7
-8 1 7 -2.4 3.4
-8 1 7 5.9 3.3
8 1 -7 0.1 4.2
-7 -1 7 1735.53 58.19
7 -1 -7 1711.33 58.69
-7 -1 7 1822.42 65.19
7 -1 -7 1755.32 63.09
7 1 -7 1752.62 63.29
7 1 -7 1773.02 56.29
-7 1 7 1705.73 64.09
-6 -1 7 900.41 37.3
6 -1 -7 836.92 35.1
6 -1 -7 736.43 31.3
6 1 -7 889.41 30.3
-6 1 7 894.11 37.1
6 1 -7 883.41 35.8
5 -1 -7 374.96 19.8
5 -1 -7 438.96 18.9
-5 -1 7 378.06 20.9
5 1 -7 400.96 20.6
-5 1 7 420.46 17
5 1 -7 394.46 16.2
-5 1 7 418.66 21.8
4 -1 -7 899.51 33.8
4 -1 -7 910.71 32.4
-4 -1 7 877.31 35.1
4 1 -7 898.21 29.6
4 1 -7 854.21 33.4
-4 1 7 872.51 35
-3 -1 7 557.44 24.8
3 -1 -7 593.84 23.1
3 -1 -7 603.94 23.9
3 1 -7 585.74 20.5
3 1 -7 559.74 23.3
-3 1 7 587.74 25.1
-2 -1 7 198.28 12.1
2 -1 -7 197.78 11.1
2 1 -7 194.28 10.8
-2 1 7 193.88 12
-1 -1 7 187.68 11.5
1 -1 -7 216.68 11.4
1 1 -7 202.58 10.9
-1 1 7 196.28 11.9
0 -1 7 492.25 20.8
0 -1 -7 511.85 20.7
0 1 -7 489.05 20.1
0 1 -7 473.85 17.2
0 1 7 496.05 21.1
-1 -1 -7 222.08 12.8
-1 -1 -7 226.08 12.8
1 -1 7 230.28 12.6
-1 1 -7 237.18 12.6
1 1 7 251.27 13.3
-1 1 -7 238.38 10.7
2 -1 7 10.2 3.3
2 -1 7 12.3 3.5
-2 -1 -7 12.1 2.7
-2 -1 -7 10.6 3.4
-2 1 -7 10.5 2.5
2 1 7 19.6 4.3
-2 1 -7 6.7 3
2 1 7 8.5 3.3
3 -1 7 39.4 5.9
3 -1 7 44.1 7
-3 -1 -7 37.1 6.4
-3 1 -7 32.1 4.7
3 1 7 31.5 5.5
3 1 7 31.5 6.3
4 -1 7 655.63 29.6
4 -1 7 649.04 27.4
-4 -1 -7 631.54 26.6
4 1 7 631.74 29.7
4 1 7 667.53 28.1
5 -1 7 893.11 39.4
-5 -1 -7 943.81 36.8
5 -1 7 952.8 36.8
-5 1 -7 897.11 36.4
5 1 7 886.01 36.6
5 1 7 884.51 39.9
-8 -2 7 266.87 19.9
-8 -2 7 266.17 15
8 -2 -7 254.57 15.9
8 -2 -7 236.38 17.7
-8 2 7 247.78 18.8
8 2 -7 257.97 18.5
8 2 -7 258.97 13
7 -2 -7 786.42 33.4
-7 -2 7 768.02 35.9
7 -2 -7 741.63 33.9
-7 2 7 769.12 35.5
7 2 -7 798.12 34.9
7 2 -7 790.32 27.5
6 -2 -7 1466.35 50.39
-6 -2 7 1417.66 53.89
6 -2 -7 1374.16 51.59
6 2 -7 1418.86 44.8
-6 2 7 1466.85 47.6
-6 2 7 1442.76 53.49
6 2 -7 1394.66 51.99
5 -2 -7 1303.67 46.6
5 -2 -7 1346.17 48
-5 -2 7 1359.16 49.9
-5 2 7 1262.37 50.39
5 2 -7 1331.17 41.3
-5 2 7 1403.46 45.8
5 2 -7 1286.77 47.5
4 -2 -7 961.1 36.9
4 -2 -7 1078.69 37.4
-4 -2 7 1067.69 39.5
4 2 -7 979.1 31
-4 2 7 965.3 36.4
4 2 -7 1025.2 37.3
-4 2 7 988.9 38.7
-3 -2 7 1471.25 50.69
3 -2 -7 1475.85 49.4
3 2 -7 1468.25 48.7
3 2 -7 1436.56 43
-3 2 7 1446.96 50.69
2 -2 -7 142.19 11.2
-2 -2 7 156.78 10.5
2 2 -7 148.99 6.2
2 2 -7 117.99 11.5
-2 2 7 130.89 10
2 2 -7 147.19 5.5
-1 -2 7 907.11 33.2
1 -2 -7 866.41 31.9
1 2 -7 903.41 27.3
1 2 -7 879.71 31.3
-1 2 7 924.61 33.7
0 -2 -7 174.28 10.6
0 -2 7 174.58 10.7
0 2 7 185.48 11.4
0 2 -7 185.78 10.3
0 2 -7 172.58 7.9
1 -2 7 169.58 10.7
-1 -2 -7 169.08 11.1
-1 2 -7 187.08 10.9
1 2 7 199.38 11.8
-1 2 -7 178.08 8.9
2 -2 7 21.6 4.7
-2 -2 -7 27.4 4.4
2 -2 7 28.7 4.8
-2 -2 -7 14.7 4.1
2 2 7 23.9 4.9
2 2 7 27.6 4.9
-2 2 -7 21.4 4
-2 2 -7 21.2 4.4
3 -2 7 821.72 33.4
-3 -2 -7 824.62 34.7
3 2 7 875.61 33.4
3 2 7 843.92 34.7
-3 2 -7 856.11 31.5
4 -2 7 220.38 15
-4 -2 -7 194.48 13.8
4 -2 7 227.68 13.7
4 2 7 218.08 14.1
4 2 7 230.88 15.9
5 -2 7 541.85 28.1
5 -2 7 534.45 24.9
-5 2 -7 523.15 25.2
5 2 7 546.65 29
5 2 7 562.04 26.2
8 -3 -7 40.1 7.8
-8 -3 7 46.7 6.7
8 -3 -7 29.6 6.1
-8 -3 7 46.3 9.4
8 3 -7 50.79 9.6
8 3 -7 44.9 4.8
-8 3 7 25.7 7.1
7 -3 -7 250.67 16.6
-7 -3 7 254.57 12.8
7 -3 -7 197.98 14.3
-7 -3 7 237.58 17.6
-7 3 7 224.68 16.8
7 3 -7 248.38 10.9
7 3 -7 224.08 16.5
6 -3 -7 120.89 11.9
6 -3 -7 116.59 10.7
-6 -3 7 126.49 11.9
-6 3 7 139.49 12.3
6 3 -7 140.39 6.8
6 3 -7 156.78 12.1
-6 3 7 124.69 9.9
5 -3 -7 739.53 31
-5 -3 7 818.02 33.8
-5 -3 7 775.52 24.9
5 -3 -7 744.63 31.4
5 3 -7 761.02 31.3
-5 3 7 790.12 31.5
5 3 -7 765.22 23.8
-5 3 7 750.22 32.7
-4 -3 7 149.09 11.8
4 -3 -7 159.18 11
4 -3 -7 157.68 11.3
-4 3 7 141.29 11.5
-4 3 7 177.18 12.1
4 3 -7 153.68 10.5
3 -3 -7 563.94 24.7
3 -3 -7 660.43 27
-3 -3 7 635.74 27
-3 3 7 662.03 27.3
-3 3 7 665.93 27.8
3 3 -7 638.14 24.8
2 -3 -7 793.52 28.8
-2 -3 7 772.52 29.9
2 3 -7 736.03 27.5
-2 3 7 753.92 30.2
1 -3 -7 2167.08 68.89
-1 -3 7 2214.48 69.89
-1 3 7 2197.68 70.59
1 3 -7 2188.28 67.59
0 -3 -7 722.93 31.4
0 -3 7 726.93 28.1
0 3 7 780.12 29.4
0 3 -7 740.73 23.9
1 -3 7 482.45 20.7
-1 -3 -7 500.35 22
1 3 7 521.25 25
-1 3 -7 474.55 18.2
2 -3 7 368.46 20.3
-2 -3 -7 320.77 18.1
2 -3 7 383.56 17.3
2 3 7 362.46 18.7
-2 3 -7 363.46 15.9
2 3 7 376.56 18.2
-3 -3 -7 356.26 17.6
3 -3 7 363.96 19.1
3 -3 7 375.36 18
-3 -3 -7 377.56 20.5
3 3 7 396.26 21
-3 3 -7 367.86 17.4
3 3 7 398.56 19.4
4 -3 7 7.1 3.6
-4 -3 -7 5.2 2.7
4 -3 7 7 3.1
-4 3 -7 0.3 2
4 3 7 3.4 3.6
4 3 7 8.9 3.6
7 -4 -7 109.69 10.8
-7 -4 7 107.09 11.9
7 -4 -7 96.39 9.9
-7 -4 7 99.49 7.1
7 4 -7 114.39 11.8
-7 4 7 94.09 11.2
6 -4 -7 228.18 14.7
6 -4 -7 210.28 14.8
-6 -4 7 208.18 15.8
-6 4 7 228.68 15.9
-6 4 7 211.98 14.5
6 4 -7 198.08 14.9
-5 -4 7 3.1 1.8
5 -4 -7 -1.7 1.7
-5 -4 7 -0.2 2.6
5 -4 -7 0.8 2.3
-5 4 7 2 2.3
-5 4 7 1.5 2.8
5 4 -7 -0.9 2
4 -4 -7 196.38 13.9
4 -4 -7 208.08 12.7
-4 -4 7 238.08 14.9
-4 -4 7 227.68 12.3
-4 4 7 220.38 15.1
-4 4 7 225.68 14.5
3 -4 -7 1028 39.3
-3 -4 7 1037 38.5
3 -4 -7 966.1 35.9
-3 4 7 1021.1 38.5
-3 4 7 1031.6 40.6
2 -4 -7 3637.94 113.89
-2 -4 7 3890.51 115.99
-2 4 7 3885.41 116.79
1 -4 -7 4266.77 128.89
-1 -4 7 4412.96 129.79
-1 4 7 4295.97 130.69
0 -4 -7 341.57 16.9
0 -4 7 344.37 16.5
0 4 -7 352.16 12.2
0 4 7 360.26 17.8
1 -4 7 128.39 9.8
1 4 7 142.59 10.3
1 4 7 131.69 9.9
-1 4 -7 126.19 7.3
-2 -4 -7 507.85 23.8
2 -4 7 520.45 21.6
2 -4 7 499.55 21.6
-2 4 -7 515.35 20.3
2 4 7 471.35 23.1
2 4 7 483.45 25.8
-3 -4 -7 145.99 10.4
3 -4 7 155.88 10.3
3 -4 7 130.49 10.7
3 4 7 125.59 11.4
3 4 7 146.39 11.2
-3 4 -7 146.09 10
4 -4 7 52.49 6.3
4 -4 7 48.4 7.8
4 4 7 52.29 8.2
4 4 7 64.39 9.6
-6 -5 7 174.48 14.5
6 -5 -7 195.48 14.9
6 -5 -7 182.18 17.5
-6 5 7 164.68 13.8
-6 5 7 183.68 14.4
6 5 -7 181.48 13
5 -5 -7 442.56 22.9
-5 -5 7 401.66 17.3
-5 -5 7 408.86 21.8
5 -5 -7 400.66 19.7
-5 5 7 418.86 21.6
-5 5 7 394.16 22.8
5 5 -7 316.87 22.7
-4 -5 7 48.8 7.5
4 -5 -7 50.69 6.1
-4 -5 7 57.99 6.3
4 -5 -7 47.5 8.3
-4 5 7 66.39 10.3
-4 5 7 57.69 8.3
-3 -5 7 193.38 12.7
3 -5 -7 175.48 11
3 -5 -7 189.78 14
-3 -5 7 160.38 12.1
-3 5 7 209.98 15.7
-3 5 7 169.18 12.3
2 -5 -7 413.56 18.6
-2 -5 7 417.66 21.7
-2 5 7 399.86 23.1
-2 5 7 435.76 20.5
1 -5 -7 188.38 13.5
-1 5 7 171.68 17.5
-1 5 7 205.08 12.8
0 -5 -7 132.39 9.6
0 -5 7 138.39 9.5
0 5 7 119.89 9.8
1 -5 7 182.68 11.2
-1 -5 -7 197.78 12.9
1 5 7 185.28 12.3
1 5 7 200.48 12.6
-1 5 -7 179.18 10.5
-1 5 -7 200.18 9.2
2 -5 7 125.09 9.1
2 -5 7 126.49 9
-2 -5 -7 118.99 10.6
2 5 7 109.79 9.6
-2 5 -7 107.69 7.8
2 5 7 113.59 10.3
3 -5 7 72.29 7.1
3 -5 7 63.79 8.5
3 5 7 73.29 9.6
-3 5 -7 65.69 7
3 5 7 81.09 10.8
-5 -6 7 144.39 12.1
5 -6 -7 114.19 9.7
5 -6 -7 121.19 11.9
-5 6 7 122.19 11
5 6 -7 115.19 9.9
-5 6 7 117.09 12.6
-4 -6 7 59.39 8.2
4 -6 -7 36.7 7
-4 -6 7 56.99 8.3
4 -6 -7 57.99 6.4
-4 6 7 46.7 8.8
-4 6 7 43.1 7.2
4 6 -7 52.69 5.8
-3 -6 7 308.57 18.8
-3 -6 7 314.67 17.4
3 -6 -7 350.76 20.6
3 -6 -7 341.77 16.4
3 6 -7 353.36 17
-3 6 7 365.06 18.6
-3 6 7 340.97 22.2
-2 -6 7 288.67 15.8
-2 -6 7 335.87 20
2 -6 -7 339.17 15.8
-2 6 7 317.47 21.3
-2 6 7 292.37 16.5
2 6 -7 303.77 13
-1 -6 7 150.38 13.3
-1 -6 7 133.19 9.6
1 -6 -7 131.59 9.6
-1 6 7 79.89 14.2
-1 6 7 139.39 13.8
1 6 -7 141.19 7.7
0 -6 7 103.89 8.1
0 -6 -7 99.79 8.9
0 -6 7 103.59 11.6
0 6 7 102.49 8.6
0 6 7 112.69 9.6
0 6 7 101.59 11.8
0 6 -7 106.99 6.7
1 -6 7 411.06 18.3
1 -6 7 420.86 17.5
-1 -6 -7 421.26 20.9
1 6 7 394.96 20.1
1 6 7 372.46 19.7
2 -6 7 113.69 8.6
2 -6 7 113.29 8.7
2 6 7 99.29 9.6
-3 -7 7 25.8 5.7
-3 -7 7 36.4 7.7
3 -7 -7 46.5 5.5
3 -7 -7 40.5 7.9
-3 7 7 39 9.1
-3 7 7 36 6.4
3 7 -7 31.7 3.9
-2 -7 7 311.17 20.7
2 -7 -7 295.37 15.6
-2 -7 7 333.17 16.2
2 7 -7 326.97 12.7
-2 7 7 334.77 23.6
-2 7 7 354.36 18
-1 -7 7 174.98 16.6
-1 -7 7 183.08 10.9
1 -7 -7 183.78 11.7
-1 7 7 169.08 16.8
-1 7 7 163.08 12
0 -7 7 196.58 9.9
0 -7 7 195.38 17.4
0 -7 -7 174.48 12.5
0 -7 7 192.68 10.9
0 7 7 185.08 17.6
0 7 7 175.08 12.6
-8 0 8 71.59 11.7
8 0 -8 57.69 10
8 0 -8 73.99 7.9
7 0 -8 572.74 28.3
-7 0 8 563.64 29.8
7 0 -8 567.34 23.8
-6 0 8 291.37 19.1
-6 0 8 264.87 10.7
6 0 -8 290.87 17.5
6 0 -8 281.17 14.3
-5 0 8 73.39 9
5 0 -8 77.69 6.6
4 0 -8 321.37 14.9
4 0 -8 330.47 17.2
-4 0 8 309.37 18.3
3 0 -8 1.3 2.1
-3 0 8 -0.9 2
3 0 -8 3 1.7
-2 0 8 1092.69 40.5
2 0 -8 1088.89 38.4
-1 0 8 188.38 12.3
1 0 -8 199.38 11.5
0 0 -8 2137.79 67.39
0 0 -8 2038.6 62.59
0 0 8 2017.5 66.99
-1 0 -8 372.96 15.9
-1 0 -8 374.76 18.3
1 0 8 379.26 18.6
2 0 8 186.98 12.6
-2 0 -8 196.88 10.8
-2 0 -8 187.68 12.9
2 0 8 185.78 12.3
-3 0 -8 -0.3 3.2
3 0 8 -2.5 2.2
3 0 8 -2.3 2
-4 0 -8 203.38 16.6
4 0 8 197.68 15.4
4 0 8 222.18 14.6
8 -1 -8 281.67 16.2
-8 -1 8 323.87 22.5
8 -1 -8 265.87 19.1
-8 1 8 283.37 20.9
8 1 -8 255.87 14.1
8 1 -8 282.97 19.8
-7 -1 8 893.11 39.5
7 -1 -8 889.61 37.6
7 -1 -8 791.82 32.9
7 1 -8 884.61 31.3
-7 1 8 858.81 39
7 1 -8 857.21 37.3
-6 -1 8 1202.18 46.9
6 -1 -8 1129.49 40.8
6 -1 -8 1075.59 43.5
6 1 -8 1131.59 38
-6 1 8 1127.79 45.9
-6 1 8 1122.09 37.6
6 1 -8 1134.19 44
5 -1 -8 215.88 13.9
-5 -1 8 201.78 15
5 -1 -8 209.48 12.5
5 1 -8 215.98 13.9
-5 1 8 207.78 14.9
5 1 -8 207.88 10.5
-5 1 8 207.68 11.5
-4 -1 8 418.06 21.4
4 -1 -8 393.96 19.3
4 -1 -8 385.96 18
4 1 -8 385.26 19.2
4 1 -8 372.36 15.5
-4 1 8 406.56 21.2
3 -1 -8 1855.61 63.19
3 -1 -8 2024.4 62.89
-3 -1 8 1907.11 65.39
-3 1 8 1908.11 65.59
3 1 -8 1997.4 59.59
3 1 -8 1982.5 63.49
-2 -1 8 216.88 13.7
2 -1 -8 233.78 12.9
2 1 -8 216.28 12.3
-2 1 8 235.08 14.1
-1 -1 8 243.38 14.4
1 -1 -8 258.07 13.5
1 1 -8 243.58 10.1
-1 1 8 249.38 14.5
1 1 -8 257.47 13.3
0 -1 -8 2118.29 67.39
0 -1 8 2097.09 67.99
0 1 -8 2074.39 66.69
0 1 -8 2108.99 62.79
0 1 8 2052.19 67.99
-1 -1 -8 19.8 3.3
1 -1 8 33.6 5.8
-1 -1 -8 22.9 5.5
-1 1 -8 22.4 3.6
1 1 8 23.3 4.7
-1 1 -8 18.5 4.2
2 -1 8 1074.19 40.1
-2 -1 -8 1070.59 37.7
2 -1 8 1084.79 40.6
-2 -1 -8 1145.89 42.1
2 1 8 1129.89 40.9
-2 1 -8 1060.09 41
2 1 8 1146.69 41.5
-2 1 -8 1106.59 37.8
3 -1 8 928.21 35.7
3 -1 8 915.61 37
-3 -1 -8 937.81 38.2
-3 -1 -8 983.6 37.2
-3 1 -8 896.41 37.2
3 1 8 958.3 38.1
-3 1 -8 885.41 33.9
3 1 8 876.41 35.7
-4 -1 -8 558.84 25.1
4 -1 8 623.54 29
4 -1 8 579.74 26.2
4 1 8 553.74 30.4
-4 1 -8 554.34 25.2
4 1 8 580.64 28.9
8 -2 -8 15 5
8 -2 -8 11.7 4
-8 -2 8 10.1 6
8 2 -8 11.7 6.1
8 2 -8 15.3 3.5
-8 2 8 10.9 6.1
-7 -2 8 740.73 35.1
7 -2 -8 669.63 29.9
7 -2 -8 702.03 32.7
-7 2 8 692.23 34.3
7 2 -8 774.22 26
7 2 -8 715.63 33.1
-6 -2 8 153.98 13.4
6 -2 -8 135.29 10.6
6 -2 -8 138.49 11.6
-6 2 8 136.39 12.6
-6 2 8 130.79 9.4
6 2 -8 126.49 7.4
6 2 -8 120.89 11.2
5 -2 -8 2907.81 94.59
-5 -2 8 3039.3 98.69
5 -2 -8 3101.39 96.29
5 2 -8 3033.6 88.09
5 2 -8 2982.2 95.79
-5 2 8 3096.19 98.79
-5 2 8 2922.31 93.49
4 -2 -8 593.84 25
4 -2 -8 539.95 24.4
-4 -2 8 608.94 27.1
4 2 -8 575.44 24.7
-4 2 8 586.94 26.8
4 2 -8 527.75 18.7
3 -2 -8 1281.37 45.4
-3 -2 8 1269.57 47
3 -2 -8 1283.17 45.1
-3 2 8 1366.86 48
3 2 -8 1307.37 39.1
3 2 -8 1280.67 44.7
-2 -2 8 219.98 13.8
2 -2 -8 222.48 12.7
-2 2 8 212.68 13.8
2 2 -8 230.08 12.3
2 2 -8 227.18 9.2
2 2 -8 210.48 8
1 -2 -8 98.19 8
-1 -2 8 81.29 8.1
1 2 -8 88.49 4.8
-1 2 8 95.99 8.8
1 2 -8 90.09 7.2
0 -2 -8 299.27 15.5
0 -2 8 297.57 15.7
0 2 8 273.67 15.5
0 2 -8 263.97 11.4
0 2 -8 293.47 14.6
1 -2 8 38.8 5.9
-1 -2 -8 47.5 5
-1 -2 -8 46.4 6.9
-1 2 -8 43.2 4.3
-1 2 -8 38 5.7
1 2 8 40.3 6.4
-2 -2 -8 226.88 14.7
2 -2 8 230.98 13.9
2 -2 8 200.18 15.3
2 2 8 237.88 14.4
-2 2 -8 236.28 12.1
2 2 8 210.08 14
-2 2 -8 207.98 13.5
3 -2 8 383.66 20.3
3 -2 8 362.36 18.9
-3 -2 -8 370.66 18.4
-3 -2 -8 413.56 22
-3 2 -8 382.86 18.2
3 2 8 386.06 21.2
3 2 8 378.76 19.9
4 -2 8 850.61 34.8
-4 -2 -8 867.61 34.4
4 -2 8 846.32 37.1
-4 2 -8 877.61 34.6
4 2 8 917.81 39
4 2 8 880.81 35.9
7 -3 -8 28.9 6.5
7 -3 -8 21.5 5.1
-7 -3 8 18.2 5.8
-7 3 8 34.2 8.1
7 3 -8 29.1 3.7
7 3 -8 28.3 6.9
6 -3 -8 87.99 9.3
-6 -3 8 87.29 10.5
6 -3 -8 77.99 8.7
6 3 -8 92.29 5.1
-6 3 8 79.89 8.3
6 3 -8 84.79 9.2
-5 -3 8 134.39 7.6
-5 -3 8 124.59 12.1
5 -3 -8 141.39 11.2
5 -3 -8 128.39 10.7
5 3 -8 129.99 5.3
-5 3 8 118.29 11.5
-5 3 8 135.89 11
5 3 -8 134.29 10.8
4 -3 -8 10.1 3.8
-4 -3 8 11.1 4.2
4 -3 -8 17.8 4.5
-4 3 8 18.1 4.6
-4 3 8 14 4.2
4 3 -8 11.5 3.4
-3 -3 8 414.76 21.2
3 -3 -8 425.66 19.8
3 3 -8 430.66 19.3
-3 3 8 452.35 22
2 -3 -8 1798.42 58.89
-2 -3 8 1774.02 60.49
-2 3 8 1805.82 61.29
-1 -3 8 894.01 34.5
1 -3 -8 930.41 33.9
-1 3 8 891.91 36.2
0 -3 -8 3.7 2.7
0 -3 8 1.5 2.3
0 3 -8 3.6 1.6
0 3 8 13.7 3.9
1 -3 8 253.97 16.2
-1 -3 -8 250.47 15
1 3 8 277.97 15.7
-1 3 -8 268.57 12
2 -3 8 617.84 25.9
2 -3 8 610.24 26
-2 -3 -8 641.74 28.3
-2 -3 -8 610.34 24.8
2 3 8 573.74 27
2 3 8 600.94 26.6
-2 3 -8 592.74 23.5
-2 3 -8 621.24 26.4
3 -3 8 43.4 6.6
3 -3 8 31.7 6.3
-3 -3 -8 51.39 8.4
-3 -3 -8 44.8 6.7
3 3 8 41.2 6.8
3 3 8 38.9 7.1
-3 3 -8 44 6.4
-7 -4 8 313.17 21.3
7 -4 -8 294.67 18.9
7 -4 -8 337.97 19.9
-7 4 8 304.27 20.6
6 -4 -8 13.7 4.3
6 -4 -8 21.4 6.5
-6 -4 8 15.1 5.2
-6 4 8 24.3 5.8
-6 4 8 7 4.4
6 4 -8 19.3 5.2
5 -4 -8 1670.23 59.49
5 -4 -8 1658.43 57.29
-5 -4 8 1600.74 59.89
-5 4 8 1647.84 59.59
-5 4 8 1661.73 60.19
5 4 -8 1676.63 57.29
4 -4 -8 76.09 12.4
-4 -4 8 75.59 9.1
4 -4 -8 81.39 8
-4 -4 8 83.69 7.3
-4 4 8 78.09 9.3
-4 4 8 77.89 11
-3 -4 8 377.76 30
3 -4 -8 424.36 22.1
3 -4 -8 467.65 20.4
-3 4 8 423.06 21.8
-3 4 8 465.45 24
2 -4 -8 1266.97 44.6
-2 -4 8 1310.17 57.19
-2 4 8 1272.77 46.7
-1 -4 8 889.71 44.2
1 -4 -8 987.6 35.9
-1 4 8 972.9 37.3
0 -4 8 1164.88 41.3
0 -4 -8 1094.49 41
0 4 -8 1114.99 34.4
0 4 8 1175.78 42.7
-1 -4 -8 32.9 6.3
1 -4 8 57.49 6.5
1 4 8 41.7 6.9
-1 4 -8 45.1 4.4
1 4 8 41.5 7
-2 -4 -8 232.88 15.8
2 -4 8 248.48 14.3
-2 -4 -8 263.17 14.3
2 -4 8 223.48 13.9
2 4 8 244.28 15.3
-2 4 -8 259.07 12.9
3 -4 8 763.32 32.1
3 -4 8 777.42 30.9
3 4 8 741.13 34
3 4 8 766.72 32.5
-3 4 -8 725.23 29.4
6 -5 -8 115.69 10.6
-6 -5 8 106.89 11.5
6 -5 -8 97.29 10.8
-6 5 8 106.49 17.9
-6 5 8 100.79 11.3
-5 -5 8 633.64 24.1
5 -5 -8 634.64 29.7
-5 -5 8 579.94 28.8
5 -5 -8 578.44 26.3
-5 5 8 577.34 28.4
5 5 -8 577.14 25.9
4 -5 -8 219.88 13.4
4 -5 -8 229.28 16
-4 -5 8 219.78 15.3
-4 -5 8 221.98 13.6
-4 5 8 225.08 15.2
-4 5 8 194.38 19.6
4 5 -8 205.68 12.6
-3 -5 8 184.98 13.3
3 -5 -8 203.48 14.9
3 -5 -8 214.58 12.6
-3 -5 8 189.38 13.5
3 5 -8 188.18 12.2
-3 5 8 225.58 14.5
-3 5 8 183.18 15.5
2 -5 -8 1227.68 43.3
-2 -5 8 1245.18 44.8
-2 5 8 1276.07 50.39
2 5 -8 1221.78 40.9
-2 5 8 1155.68 45
1 -5 -8 866.81 33.4
-1 -5 8 849.12 33.4
1 5 -8 875.31 30.8
-1 5 8 876.71 35.1
0 -5 -8 18.4 4.8
0 -5 8 31.5 5.5
0 5 8 25.4 5.7
0 5 -8 25.3 6.6
-1 -5 -8 9.5 3.6
1 -5 8 11.7 3.4
-1 5 -8 9 2.3
-1 5 -8 14.9 3.6
1 5 8 7 3.8
1 5 8 14.6 4
-2 -5 -8 50.99 8.7
2 -5 8 53.89 6.5
2 -5 8 44.1 6.7
2 5 8 48.6 8.3
-2 5 -8 46.6 5.8
2 5 8 51.59 8.1
-4 -6 8 94.59 9.4
4 -6 -8 101.39 8.7
-4 -6 8 87.89 9.6
4 -6 -8 85.19 10.2
4 6 -8 114.09 9.8
-4 6 8 108.99 12.4
3 -6 -8 74.19 10.5
-3 -6 8 68.89 9.2
-3 -6 8 65.39 9.9
3 -6 -8 69.19 7.2
-3 6 8 69.59 12.1
3 6 -8 68.79 6.2
2 -6 -8 -0.3 2.2
-2 -6 8 2.4 2.8
-2 -6 8 -2.6 3.1
-2 6 8 -2.6 3.1
2 6 -8 8.7 2.5
-1 -6 8 839.32 38.9
1 -6 -8 879.31 34.7
-1 -6 8 922.21 34.1
-1 6 8 858.31 41
-1 6 8 851.71 35.3
1 6 -8 877.41 30.4
0 -6 8 201.88 12.4
0 -6 -8 199.28 13.3
0 6 8 172.68 16.5
0 6 -8 188.78 10.5
0 6 8 182.88 13.5
-7 0 9 1758.22 66.99
7 0 -9 1833.82 58.99
7 0 -9 1737.23 64.59
6 0 -9 466.25 20
-6 0 9 431.86 17.1
-6 0 9 459.75 25.7
6 0 -9 441.16 23.2
5 0 -9 104.59 7.9
-5 0 9 84.29 10.4
5 0 -9 98.49 9.6
-4 0 9 131.39 11.7
4 0 -9 140.49 9.2
4 0 -9 130.29 10.4
3 0 -9 33.7 5.5
3 0 -9 48 5.2
-3 0 9 31.7 6.1
-2 0 9 64.79 8.9
2 0 -9 68.99 7.1
-1 0 9 12.6 4.3
1 0 -9 7.3 3
0 0 9 62.49 7.7
0 0 -9 78.09 7.6
0 0 -9 73.79 5.8
-1 0 -9 122.29 8.1
-1 0 -9 132.89 10.5
1 0 9 127.79 10.6
-2 0 -9 3.7 2.9
2 0 9 2.7 2.8
-2 0 -9 3 1.6
2 0 9 4 3.1
3 0 9 490.15 23.8
-3 0 -9 516.75 35.8
3 0 9 431.06 23.8
-3 0 -9 487.45 21.8
7 -1 -9 457.55 25.4
7 -1 -9 471.05 24.6
-7 1 9 505.25 27.8
7 1 -9 486.05 25.8
7 1 -9 475.45 20
6 -1 -9 314.77 19.2
6 -1 -9 339.77 17.6
-6 -1 9 360.36 22.1
6 1 -9 329.87 15
-6 1 9 352.16 21.7
-6 1 9 345.57 15.8
6 1 -9 346.57 19.8
5 -1 -9 417.56 27.7
-5 -1 9 432.06 24.5
5 -1 -9 477.25 21.4
5 1 -9 501.45 18.8
5 1 -9 485.45 23.3
-5 1 9 467.55 20.6
-5 1 9 458.35 24.9
4 -1 -9 218.88 13
4 -1 -9 225.18 14.2
-4 -1 9 244.98 16.2
4 1 -9 221.28 13.8
4 1 -9 207.88 10.7
-4 1 9 235.48 16
-3 -1 9 257.47 16.3
3 -1 -9 244.58 14.4
3 -1 -9 258.67 14.1
-3 1 9 263.47 16.5
3 1 -9 253.17 14.4
3 1 -9 248.18 11.8
-2 -1 9 189.98 13.3
2 -1 -9 181.88 11.9
2 1 -9 195.98 11.9
-2 1 9 169.98 12.8
1 -1 -9 367.06 24.8
-1 -1 9 350.36 18.9
-1 1 9 372.06 19.4
1 1 -9 340.67 17
1 1 -9 344.17 13.6
0 -1 9 113.19 9.8
0 -1 -9 107.29 9.1
0 1 -9 111.19 6.7
0 1 -9 97.19 8.6
0 1 9 97.39 9.4
-1 -1 -9 254.77 12.6
1 -1 9 239.78 14.7
-1 -1 -9 235.18 14.8
1 1 9 232.18 15
-1 1 -9 246.28 14.8
-1 1 -9 234.58 11.8
2 -1 9 28.7 5.7
2 -1 9 38.9 6.8
-2 -1 -9 32.5 6.4
2 1 9 42.8 7.4
-2 1 -9 22.6 5.5
-2 1 -9 37.9 5.6
2 1 9 31.3 6
3 -1 9 73.49 8.3
-3 -1 -9 65.49 9.7
3 -1 9 90.59 9.5
-3 -1 -9 91.89 8
3 1 9 67.39 10.1
-3 1 -9 75.59 8.2
3 1 9 82.79 11.1
7 -2 -9 113.19 10.3
-7 -2 9 107.09 12.4
7 -2 -9 134.49 12
7 2 -9 74.59 15.2
7 2 -9 110.49 7.1
-7 2 9 100.49 7.9
-7 2 9 104.39 14.1
-6 -2 9 261.37 18.7
6 -2 -9 243.98 16.1
6 -2 -9 277.47 17.5
6 2 -9 281.97 17.7
-6 2 9 236.48 18
6 2 -9 276.27 11.6
-6 2 9 267.17 14.8
5 -2 -9 346.67 18.8
5 -2 -9 334.57 18.1
-5 -2 9 336.77 20.7
5 2 -9 336.87 18.8
5 2 -9 326.47 12.9
-5 2 9 324.07 17.4
-5 2 9 341.47 20.7
-4 -2 9 567.54 28
4 -2 -9 602.54 26.4
4 -2 -9 645.34 26.9
4 2 -9 618.14 20.1
4 2 -9 594.94 26.1
-4 2 9 586.14 28.4
-3 -2 9 1277.57 47.8
3 -2 -9 1263.57 45.3
3 2 -9 1284.07 39
-3 2 9 1284.17 48.1
3 2 -9 1256.67 44.6
2 -2 -9 1217.58 44.6
-2 -2 9 1277.27 47
2 2 -9 1306.07 39.7
-2 2 9 1298.57 47.6
2 2 -9 1249.18 38.1
2 2 -9 1291.87 44.3
1 -2 -9 185.98 12.1
-1 -2 9 180.28 12.8
1 2 -9 172.68 11.2
-1 2 9 181.38 12.9
1 2 -9 167.48 7.8
0 -2 -9 486.45 25.2
0 -2 9 514.35 23.8
0 2 9 513.45 24.3
0 2 -9 506.65 18.7
0 2 -9 515.95 22.5
1 -2 9 246.78 15
-1 -2 -9 263.17 15.8
-1 2 -9 250.97 14.8
1 2 9 241.88 15.5
-1 2 -9 253.07 12.2
2 -2 9 62.69 8.5
-2 -2 -9 67.29 8.1
2 -2 9 71.19 7.7
-2 -2 -9 51.09 6
2 2 9 51.69 7.8
-2 2 -9 61.79 6.1
-2 2 -9 49 7.7
2 2 9 47.4 7.6
-3 -2 -9 257.67 14.7
-3 -2 -9 270.67 18.1
3 -2 9 265.47 16
3 -2 9 241.78 16.5
3 2 9 220.48 15.7
3 2 9 269.97 18
7 -3 -9 316.57 19.6
-7 -3 9 358.06 22.6
7 -3 -9 316.77 19.1
7 3 -9 307.27 20.1
7 3 -9 314.47 12.3
-7 3 9 288.27 16.6
-7 3 9 322.27 21.7
-6 -3 9 60.39 10.2
6 -3 -9 46.2 7.6
6 -3 -9 37.7 6.7
-6 3 9 65.39 7.7
6 3 -9 50.79 8.2
-6 3 9 48.1 9.3
6 3 -9 49.5 3.3
-5 -3 9 3.2 2.4
5 -3 -9 12.9 3.9
5 -3 -9 3.1 2.5
-5 -3 9 6.5 3.9
5 3 -9 13.7 4.6
-5 3 9 4.5 3.4
-5 3 9 5.3 3.3
4 -3 -9 238.08 15.2
4 -3 -9 236.98 14.5
-4 -3 9 275.17 17.2
4 3 -9 214.38 13.8
-4 3 9 220.28 15.8
-4 3 9 225.78 15.5
3 -3 -9 291.27 16
-3 -3 9 229.38 22.5
3 3 -9 299.77 15.4
-3 3 9 303.37 18
2 -3 -9 1973.5 65.39
2 3 -9 1970.1 63.99
-2 3 9 2007.9 68.29
-1 -3 9 1516.05 54.69
1 -3 -9 1591.54 53.89
1 3 -9 1528.95 46
1 3 -9 1548.65 52.09
-1 3 9 1637.64 56.29
0 -3 9 392.96 20
0 -3 -9 397.66 19.9
0 3 -9 374.46 14.8
0 3 9 407.06 20.9
0 3 -9 397.46 18.7
1 -3 9 90.19 8.8
1 3 9 93.09 9.6
-1 3 -9 93.79 6.5
-1 3 -9 77.09 8.1
-2 -3 -9 341.77 20.4
2 -3 9 380.16 19.5
-2 -3 -9 353.86 17.7
2 -3 9 347.47 18.9
-2 3 -9 352.76 16.5
2 3 9 357.06 20
2 3 9 349.07 20.2
-2 3 -9 359.46 19.3
-6 -4 9 53.69 9.7
6 -4 -9 49.3 8.2
6 -4 -9 46.9 8.8
6 4 -9 71.19 11.6
-6 4 9 70.29 10.9
-6 4 9 61.09 9.6
-5 -4 9 21.7 6.3
-5 -4 9 22.3 4.3
5 -4 -9 22.2 5.9
5 -4 -9 16.2 4.7
5 4 -9 22 5.1
-5 4 9 19.7 5.7
-5 4 9 17.8 5.5
4 -4 -9 73.09 8.1
-4 -4 9 82.79 9.7
4 -4 -9 75.59 8.9
-4 4 9 67.49 10
4 4 -9 84.09 8.2
-4 4 9 74.89 9.4
3 -4 -9 46 6.6
-3 -4 9 49.5 7.9
3 4 -9 52.79 7.6
-3 4 9 56.99 11.5
-3 4 9 46.3 7.9
-2 -4 9 181.58 13.1
2 -4 -9 173.78 12
-2 4 9 192.78 14.1
1 -4 -9 1505.75 53.19
-1 -4 9 1568.54 54.39
0 -4 9 264.27 15.6
0 -4 -9 241.68 14.9
0 4 -9 255.27 9.7
0 4 9 228.88 15.7
0 4 -9 240.68 13.7
1 -4 9 660.33 28.4
-1 -4 -9 691.43 30.1
-1 4 -9 665.73 23.7
-1 4 -9 671.03 27.9
1 4 9 618.64 28.8
1 4 9 646.64 29.5
2 -4 9 291.37 24.6
-2 -4 -9 345.47 20.3
2 -4 9 350.66 18.7
2 4 9 337.47 20.3
2 4 9 361.66 20.5
5 -5 -9 185.18 15
-5 -5 9 211.88 15.9
-5 -5 9 173.78 11.6
5 -5 -9 211.68 14.1
-5 5 9 198.28 15.9
-5 5 9 196.58 16
4 -5 -9 59.59 9.1
-4 -5 9 84.29 8.4
4 -5 -9 88.29 8.7
-4 -5 9 77.99 10.8
4 5 -9 91.39 8.1
-4 5 9 75.29 10.8
-4 5 9 61.69 10.4
-3 -5 9 194.08 14.1
3 -5 -9 187.18 14.9
-3 -5 9 202.28 14.5
-3 5 9 200.08 14.7
3 5 -9 197.28 11.7
-3 5 9 202.68 16.5
-2 -5 9 802.72 33.3
2 -5 -9 815.42 32.2
-2 5 9 799.02 34.4
-2 5 9 752.12 37.3
2 5 -9 798.02 29.7
1 -5 -9 177.98 12.5
-1 -5 9 158.58 12
-1 5 9 170.98 13.4
1 5 -9 155.98 10.2
0 -5 -9 107.89 10
0 -5 9 107.39 9.8
0 5 -9 102.19 9.2
0 5 9 105.79 10.7
-2 6 9 175.08 16.6
7 0 -10 218.98 16.8
-7 0 10 238.48 19.9
7 0 -10 207.08 12.8
-6 0 10 59.59 5.7
-6 0 10 44.6 9.1
6 0 -10 59.79 6.3
6 0 -10 63.19 9.7
5 0 -10 31.6 5
5 0 -10 46.5 7.5
-5 0 10 32.5 8.2
4 0 -10 194.38 11.5
4 0 -10 178.48 13
-4 0 10 202.98 15.5
3 0 -10 479.05 22.6
-3 0 10 472.95 24.8
3 0 -10 505.45 21.2
2 0 -10 818.22 32.1
-2 0 10 779.72 34.3
-1 0 10 40 7.4
1 0 -10 34.9 4.7
1 0 -10 25.2 5.1
0 0 -10 707.93 29.8
0 0 -10 692.63 25.7
0 0 10 708.33 31.2
-1 0 -10 541.25 25.2
1 0 10 519.95 25.6
-1 0 -10 468.65 20.3
-2 0 -10 193.68 11.7
2 0 10 169.28 13.2
2 0 10 178.38 13.9
-2 0 -10 171.58 14.4
7 -1 -10 314.67 20.3
7 -1 -10 320.77 17.6
-7 -1 10 335.17 22.7
7 1 -10 322.27 15.3
-7 1 10 333.47 23.1
-7 1 10 315.77 14.2
6 -1 -10 164.08 13.3
-6 -1 10 154.28 8.3
6 -1 -10 163.68 11.5
-6 -1 10 113.99 14.1
-6 1 10 158.98 10.5
6 1 -10 156.58 13.1
-6 1 10 150.58 14.7
6 1 -10 158.68 9.4
5 -1 -10 122.09 9.7
-5 -1 10 111.79 12.4
5 -1 -10 121.29 10.6
5 1 -10 106.39 7.4
-5 1 10 106.39 11.8
5 1 -10 97.79 10
-4 -1 10 293.77 19.3
4 -1 -10 321.17 16.8
4 -1 -10 319.87 17.8
-4 1 10 293.27 19.2
4 1 -10 323.77 14.2
4 1 -10 293.37 17.1
3 -1 -10 889.11 35.5
-3 -1 10 893.41 38.3
3 -1 -10 950.2 35.3
-3 1 10 917.41 38.8
3 1 -10 921.71 35.5
3 1 -10 946.21 32.2
2 -1 -10 845.12 33.6
-2 -1 10 836.22 35.7
2 1 -10 859.61 33.3
-2 1 10 840.32 35.9
2 1 -10 848.92 27.9
1 -1 -10 127.49 10.4
-1 -1 10 125.79 11.5
-1 1 10 135.69 11.9
1 1 -10 151.18 10.9
1 1 -10 150.88 7.8
0 -1 -10 201.48 11
0 -1 -10 201.58 13.5
0 -1 10 206.08 14.5
0 1 -10 190.38 13
0 1 -10 205.98 10.6
0 1 10 198.88 14.5
1 -1 10 139.29 11.6
-1 -1 -10 137.19 11.5
-1 1 -10 147.39 9.2
1 1 10 145.39 12.1
-2 -1 -10 19.3 5
2 -1 10 5.3 4.2
-2 -1 -10 13.5 3.6
2 -1 10 13.6 7.2
-2 1 -10 20.1 5.7
2 1 10 14.3 5
2 1 10 21.8 6
6 -2 -10 698.33 31.8
-6 -2 10 731.33 35.2
6 -2 -10 725.13 30.9
-6 2 10 667.93 28.9
6 2 -10 685.03 23.8
-6 2 10 729.93 35.4
6 2 -10 674.63 31.6
5 -2 -10 233.08 15
5 -2 -10 244.38 15.7
-5 -2 10 234.18 17.4
5 2 -10 230.68 14.9
-5 2 10 227.28 17.4
-5 2 10 216.98 14.6
5 2 -10 219.18 9.8
4 -2 -10 1754.42 60.49
-4 -2 10 1707.53 63.59
4 -2 -10 1751.92 75.79
-4 2 10 1726.53 63.69
4 2 -10 1811.82 60.29
4 2 -10 1714.03 52.19
3 -2 -10 422.26 31.8
-3 -2 10 559.54 27.8
3 2 -10 537.25 24.1
-3 2 10 577.84 27.6
3 2 -10 555.14 19
3 2 -10 551.84 17.6
2 -2 -10 2814.42 88.99
-2 -2 10 2711.33 91.09
2 2 -10 2810.92 82.49
2 2 -10 2774.12 87.89
-2 2 10 2778.72 91.99
-1 -2 10 532.25 25.7
1 -2 -10 482.75 23.6
-1 2 10 549.74 26.4
1 2 -10 530.55 18.6
1 2 -10 517.75 23.4
0 -2 10 140.39 11.9
0 -2 -10 134.99 11.2
0 2 10 159.18 12.7
0 2 -10 145.79 8.2
-1 -2 -10 168.28 12.1
-1 -2 -10 186.28 13.8
1 -2 10 157.68 12.8
-1 2 -10 183.38 13.2
-1 2 -10 167.58 9.9
1 2 10 164.38 13.3
-6 -3 10 166.38 15.4
6 -3 -10 155.98 13
6 -3 -10 177.48 13.8
6 3 -10 169.98 13.6
-6 3 10 145.49 12.4
-6 3 10 152.08 15
-5 -3 10 82.09 11.7
5 -3 -10 54.09 8
5 -3 -10 93.79 9.6
5 3 -10 70.49 8.6
-5 3 10 82.49 9.4
-5 3 10 78.69 11.5
4 -3 -10 369.26 20.7
4 -3 -10 391.06 20.2
-4 -3 10 379.96 22
4 3 -10 360.06 19
-4 3 10 349.17 21.5
-3 -3 10 47.7 8.3
3 -3 -10 38.3 6.6
-3 3 10 33.3 7.3
-2 -3 10 620.14 28.5
2 -3 -10 626.14 26.8
-2 3 10 650.43 29.7
2 3 -10 488.45 27
-1 -3 10 126.69 11.6
1 -3 -10 136.89 12.4
1 3 -10 135.39 10.2
-1 3 10 147.89 12.4
1 3 -10 143.39 6.5
0 -3 -10 1179.58 44.7
0 -3 10 1194.88 45.2
0 3 -10 1173.28 42.9
0 3 10 1145.59 45.8
0 3 -10 1167.48 37.5
1 -3 10 329.07 19.2
-1 -3 -10 345.77 20.1
-1 -3 -10 364.66 17.6
-1 3 -10 358.76 15.5
1 3 10 330.77 20.1
1 3 10 320.37 19.6
5 -4 -10 506.65 26
-5 -4 10 480.15 21.4
5 -4 -10 460.35 23.9
-5 -4 10 491.35 26.9
-5 4 10 484.55 27
-5 4 10 486.05 26.3
4 -4 -10 603.64 29.2
-4 -4 10 583.04 29.2
4 -4 -10 559.94 26.3
4 4 -10 591.34 25.9
-4 4 10 610.04 30.2
-4 4 10 587.84 29.7
-3 -4 10 12.2 4.6
3 -4 -10 1.3 3.4
-3 4 10 0.9 3
3 4 -10 1.3 2.6
-2 -4 10 617.34 28.7
2 -4 -10 580.84 26.6
-2 4 10 592.44 29.1
2 4 -10 607.04 25.1
1 -4 -10 72.99 8.4
-1 -4 10 77.59 9.1
1 4 -10 76.79 7.9
-1 4 10 82.39 11.2
0 -4 -10 340.27 20.2
0 -4 10 366.36 20.3
0 4 10 361.86 21.4
-3 5 10 140.69 14.1
-2 5 10 568.64 31.3
-6 0 11 7.9 4.5
6 0 -11 2.9 2.3
-6 0 11 4.2 2.5
6 0 -11 1.4 3.2
5 0 -11 322.57 19.7
5 0 -11 355.36 17.3
-5 0 11 362.16 23.4
4 0 -11 21.1 5.1
4 0 -11 24.5 4.8
-4 0 11 26 6.5
3 0 -11 13.3 3.8
3 0 -11 24.7 4.8
-3 0 11 16.6 5.6
-2 0 11 5.6 3.7
2 0 -11 8.2 3.7
-1 0 11 143.59 13.5
1 0 -11 144.09 11.5
1 0 -11 153.68 8.9
0 0 -11 5.9 3.9
0 0 -11 5.3 2.1
0 0 11 5.5 3.3
-6 -1 11 329.57 23
6 -1 -11 299.37 19.2
6 1 -11 343.07 15.4
6 1 -11 342.87 20.3
-6 1 11 345.77 17.6
-6 1 11 322.57 23.2
-5 -1 11 732.63 35.5
5 -1 -11 726.63 30.1
5 -1 -11 762.22 32.6
5 1 -11 714.63 26.4
5 1 -11 692.63 34.6
-5 1 11 663.03 34.4
-4 -1 11 76.89 11.4
4 -1 -11 60.29 8.6
4 -1 -11 66.49 7.5
-4 1 11 62.09 10.6
4 1 -11 54.99 5.5
4 1 -11 64.49 7.7
3 -1 -11 24.9 5.8
3 -1 -11 30.6 6
-3 -1 11 21.2 6
3 1 -11 24.7 4.3
3 1 -11 29.1 5.5
-3 1 11 36.7 7.7
-2 -1 11 690.13 32.7
2 -1 -11 710.73 30.6
2 1 -11 720.63 30.3
2 1 -11 713.43 24.6
-2 1 11 727.03 33.5
1 -1 -11 37.7 7.1
-1 -1 11 22.5 6.1
1 1 -11 36.5 5
-1 1 11 27.2 6.7
0 -1 11 33.8 6.9
0 -1 -11 33.4 5.3
0 -1 -11 40.9 7.5
0 1 -11 45 4.7
0 1 -11 32.7 6.8
-5 -2 11 121.49 14
5 -2 -11 155.08 12.4
5 -2 -11 183.58 13.5
-5 2 11 176.98 15.6
5 2 -11 156.88 7.7
5 2 -11 182.08 13.6
-5 2 11 149.69 12.6
-4 -2 11 100.09 11.6
4 -2 -11 94.09 9.7
4 -2 -11 93.89 9.6
4 2 -11 95.49 9.6
4 2 -11 98.59 5.6
-4 2 11 107.09 12.1
-3 -2 11 621.54 30.6
3 -2 -11 632.94 28.1
-3 2 11 679.43 32
3 2 -11 634.84 21.7
3 2 -11 594.04 27.1
3 2 -11 590.14 21.7
2 -2 -11 1698.53 60.69
-2 -2 11 1787.92 64.09
2 2 -11 1780.82 54.49
2 2 -11 1747.63 60.19
-2 2 11 1754.92 64.49
2 2 -11 1734.93 52.49
1 -2 -11 720.33 31.8
-1 -2 11 701.43 33.1
1 2 -11 736.43 31
-1 2 11 738.33 34.2
1 2 -11 752.22 25.2
0 -2 -11 186.98 14.5
0 -2 11 189.78 14.9
0 -2 -11 204.48 12.3
0 2 11 236.48 17
4 -3 -11 106.59 10.9
4 -3 -11 109.09 10.4
-4 -3 11 98.09 11.6
-4 3 11 105.99 12.4
-3 -3 11 233.68 17
3 -3 -11 210.48 14.4
3 3 -11 211.78 14.9
-3 3 11 201.48 16.5
-2 -3 11 301.37 19.7
2 -3 -11 318.27 18.4
2 3 -11 347.97 25.8
-2 3 11 297.67 19.8
-1 -3 11 618.24 29.9
1 -3 -11 613.74 28.5
1 3 -11 608.94 20.4
-1 3 11 624.24 31
3 0 -12 699.43 28.6
3 0 -12 681.13 33.9
-3 0 12 697.13 34.3
