#------------------------------------------------------------------------------
#$Date: 2019-11-02 07:06:08 +0200 (Sat, 02 Nov 2019) $
#$Revision: 220894 $
#$URL: file:///home/coder/svn-repositories/cod/cif/4/12/77/4127700.cif $
#------------------------------------------------------------------------------
#
# This file is available in the Crystallography Open Database (COD),
# http://www.crystallography.net/
#
# All data on this site have been placed in the public domain by the
# contributors.
#
data_4127700
loop_
_publ_author_name
'Lengyel, Jeff'
'Wang, Xiaoping'
'Choi, Eun Sang'
'Besara, Tiglet'
'Sch\"onemann, Rico'
'Ramakrishna, Sanath Kumar'
'Holleman, Jade'
'Blockmon, Avery L.'
'Hughey, Kendall D.'
'Liu, Tianhan'
'Hudis, Jacob'
'Beery, Drake'
'Balicas, Luis'
'McGill, Stephen A.'
'Hanson, Kenneth'
'Musfeldt, Janice L.'
'Siegrist, Theo'
'Dalal, Naresh S.'
'Shatruk, Michael'
_publ_section_title
;
 Antiferroelectric Phase Transition in a Proton-Transfer Salt of Squaric
 Acid and 2,3-Dimethylpyrazine.
;
_journal_issue                   41
_journal_name_full               'Journal of the American Chemical Society'
_journal_page_first              16279
_journal_page_last               16287
_journal_paper_doi               10.1021/jacs.9b04473
_journal_volume                  141
_journal_year                    2019
_chemical_formula_moiety         'C4 H3 O5, C6 H9 N2'
_chemical_formula_sum            'C10 H12 N2 O5'
_chemical_formula_weight         240.22
_space_group_crystal_system      triclinic
_space_group_IT_number           2
_space_group_name_Hall           '-P 1'
_space_group_name_H-M_alt        'P -1'
_symmetry_space_group_name_Hall  '-P 1'
_symmetry_space_group_name_H-M   'P -1'
_atom_sites_solution_hydrogens   difmap
_audit_creation_date             2018-11-23
_audit_creation_method
;
Olex2 1.2
(compiled 2018.05.29 svn.r3508 for OlexSys, GUI svn.r5506)
;
_cell_angle_alpha                76.398(5)
_cell_angle_beta                 89.550(6)
_cell_angle_gamma                80.515(6)
_cell_formula_units_Z            2
_cell_length_a                   6.721(4)
_cell_length_b                   7.967(4)
_cell_length_c                   10.750(6)
_cell_measurement_reflns_used    17498
_cell_measurement_temperature    230
_cell_measurement_theta_max      78.553
_cell_measurement_theta_min      7.461
_cell_volume                     551.5(5)
_computing_cell_refinement       Mantidplot
_computing_data_collection       'SNS PyDas'
_computing_data_reduction        Mantidplot
_computing_molecular_graphics    'Olex2 (Dolomanov et al., 2009)'
_computing_publication_material  'Olex2 (Dolomanov et al., 2009)'
_computing_structure_refinement  'ShelXL (Sheldrick, 2015)'
_diffrn_ambient_temperature      230
_diffrn_measured_fraction_theta_full 0.755
_diffrn_measured_fraction_theta_max 0.307
_diffrn_measurement_device_type  TOPAZ
_diffrn_measurement_method       'time-of-flight Laue'
_diffrn_radiation_type           neutrons
_diffrn_radiation_wavelength     0.6
_diffrn_radiation_wavelength_details 'Based on neutron time of flight'
_diffrn_reflns_av_R_equivalents  0.1138
_diffrn_reflns_av_unetI/netI     0.0947
_diffrn_reflns_Laue_measured_fraction_full 0.755
_diffrn_reflns_Laue_measured_fraction_max 0.307
_diffrn_reflns_limit_h_max       11
_diffrn_reflns_limit_h_min       -11
_diffrn_reflns_limit_k_max       15
_diffrn_reflns_limit_k_min       -12
_diffrn_reflns_limit_l_max       19
_diffrn_reflns_limit_l_min       -19
_diffrn_reflns_number            5223
_diffrn_reflns_point_group_measured_fraction_full 0.755
_diffrn_reflns_point_group_measured_fraction_max 0.307
_diffrn_reflns_theta_full        21.100
_diffrn_reflns_theta_max         78.550
_diffrn_reflns_theta_min         7.464
_diffrn_source                   'The ORNL Spallation Neutron Scource'
_exptl_absorpt_coefficient_mu    0.2175
_exptl_absorpt_correction_T_max  0.7257
_exptl_absorpt_correction_T_min  0.4307
_exptl_absorpt_correction_type   sphere
_exptl_absorpt_process_details
;
C. W. Dwiggins, Jr., Acta Cryst. A31, 395 (1975).
;
_exptl_crystal_colour            'clear yellow'
_exptl_crystal_colour_lustre     clear
_exptl_crystal_colour_primary    yellow
_exptl_crystal_density_diffrn    1.446
_exptl_crystal_description       block
_exptl_crystal_F_000             252
_exptl_crystal_size_max          3.6
_exptl_crystal_size_mid          1.35
_exptl_crystal_size_min          0.85
_refine_diff_density_max         1.017
_refine_diff_density_min         -0.884
_refine_diff_density_rms         0.208
_refine_ls_extinction_coef       0.057(10)
_refine_ls_extinction_expression Fc^*^=kFc[1+0.001xFc^2^\l^3^/sin(2\q)]^-1/4^
_refine_ls_extinction_method     'SHELXL-2014/7 (Sheldrick 2014'
_refine_ls_goodness_of_fit_ref   1.169
_refine_ls_hydrogen_treatment    refall
_refine_ls_matrix_type           full
_refine_ls_number_parameters     297
_refine_ls_number_reflns         2796
_refine_ls_number_restraints     0
_refine_ls_restrained_S_all      1.169
_refine_ls_R_factor_all          0.0788
_refine_ls_R_factor_gt           0.0780
_refine_ls_shift/su_max          0.000
_refine_ls_shift/su_mean         0.000
_refine_ls_structure_factor_coef Fsqd
_refine_ls_weighting_details
'w=1/[\s^2^(Fo^2^)+(0.0792P)^2^+1.9533P] where P=(Fo^2^+2Fc^2^)/3'
_refine_ls_weighting_scheme      calc
_refine_ls_wR_factor_gt          0.1789
_refine_ls_wR_factor_ref         0.1793
_reflns_Friedel_coverage         0.000
_reflns_number_gt                2785
_reflns_number_total             2796
_reflns_threshold_expression     'I > 2\s(I)'
_iucr_refine_instructions_details
;

    230k.res created by SHELXL-2014/7

TITL 230K_0m_a_a.res in P-1
CELL 0.6 6.7207 7.9672 10.7498 76.398 89.55 80.515
ZERR 2 0.0035 0.0042 0.0056 0.005 0.006 0.006
LATT 1
NEUT
SFAC C H N O
DISP C 0.002 0.0011 8.2943
DISP H -0 0 0.617
DISP N 0.0041 0.0022 13.3466
DISP O 0.0076 0.0042 21.1513
UNIT 20 24 4 10
EQIV $1 1-X,1-Y,-Z
EQIV $2 +X,1+Y,+Z
EQIV $3 1-X,2-Y,-Z
EQIV $4 1-X,1-Y,1-Z
 
L.S. 20
PLAN  10
TEMP -43
HTAB O2 O5
HTAB O3 O3_$1
HTAB O5 O2
HTAB O5 O4_$2
HTAB O5 O5_$3
HTAB N1 O1_$4
GRID
BOND $H
fmap -2
acta
MERG 2
SHEL 1000 0.6
REM <olex2.extras>
REM <HklSrc "%.\\230K.HKL">
REM </olex2.extras>
 
WGHT    0.079200    1.953300
EXTI    0.057478
FVAR       3.39046   0.40067
O1    4    0.718868    0.374712    0.487865    11.00000    0.06144    0.02729 =
         0.02366   -0.00384   -0.00891   -0.00414
O2    4    0.633270    0.760237    0.300555    11.00000    0.06946    0.02547 =
         0.02918   -0.00639   -0.01178   -0.01099
PART 4
H2    2    0.616264    0.892499    0.179973    11.00000    0.06218    0.08920 =
         0.11799   -0.07234    0.00133   -0.01770
PART 0
O3    4    0.524847    0.602826    0.067089    11.00000    0.07125    0.02856 =
         0.02191   -0.00218   -0.00994   -0.01106
H3    2    0.500000    0.500000    0.000000    10.50000    0.06656    0.05532 =
         0.05760    0.02019   -0.00295   -0.00805
O4    4    0.618207    0.206483    0.256069    11.00000    0.06797    0.02361 =
         0.03110   -0.00785   -0.00430   -0.00876
O5    4    0.614083    0.998557    0.094707    11.00000    0.06290    0.03127 =
         0.04389   -0.01247   -0.00456   -0.01068
H5A   2    0.594395    1.106504    0.126177    11.00000    0.06844    0.03688 =
         0.06014   -0.01621    0.00057   -0.01185
H5B   2    0.526156    0.998821    0.029114    10.50000    0.05654    0.04819 =
         0.03188   -0.00496   -0.00439   -0.00985
C1    1    0.664777    0.433749    0.373662    11.00000    0.04057    0.02138 =
         0.02359   -0.00415   -0.00426   -0.00246
C2    1    0.624879    0.607882    0.288126    11.00000    0.04449    0.02257 =
         0.02379   -0.00428   -0.00578   -0.00564
C3    1    0.577375    0.533943    0.183741    11.00000    0.04258    0.02246 =
         0.02158   -0.00394   -0.00469   -0.00521
C4    1    0.617337    0.356520    0.266714    11.00000    0.04113    0.02097 =
         0.02394   -0.00451   -0.00155   -0.00466
 
N1    3    0.219274    0.964680    0.406009    11.00000    0.03538    0.02954 =
         0.02605   -0.00219   -0.00311   -0.00369
H1    2    0.252526    0.825375    0.454302    11.00000    0.05981    0.04024 =
         0.03564   -0.00298   -0.00552   -0.00522
N2    3    0.130037    1.309797    0.286857    11.00000    0.04749    0.03009 =
         0.04234   -0.00411   -0.00355   -0.00384
C5    1    0.156162    1.007990    0.283569    11.00000    0.03248    0.03115 =
         0.02578   -0.00547   -0.00161   -0.00531
C6    1    0.131340    0.865398    0.219678    11.00000    0.04613    0.03834 =
         0.03422   -0.01005   -0.00594   -0.00784
H6A   2    0.166509    0.739263    0.283734    11.00000    0.15409    0.04166 =
         0.05789   -0.00556   -0.02190   -0.01232
H6B   2   -0.019827    0.881409    0.185160    11.00000    0.05459    0.09626 =
         0.13079   -0.05887   -0.02418   -0.01067
H6C   2    0.222722    0.868406    0.137496    11.00000    0.09848    0.09458 =
         0.06995   -0.04517    0.03193   -0.03551
C7    1    0.111724    1.188411    0.223281    11.00000    0.03506    0.03163 =
         0.02895   -0.00146   -0.00242   -0.00231
C8    1    0.045636    1.247496    0.085981    11.00000    0.05462    0.04618 =
         0.02847    0.00377   -0.00366   -0.00205
PART 1
H8AA  2   -0.097354    1.252236    0.068677    21.00000    0.06583    0.11227 =
         0.05102    0.01618   -0.00772    0.00113
H8AB  2    0.063876    1.375826    0.048992    21.00000    0.12145    0.05724 =
         0.03871    0.01090    0.00173   -0.00327
H8AC  2    0.135060    1.172432    0.030320    21.00000    0.16329    0.11307 =
         0.02223   -0.00498    0.00756    0.06734
PART 0
PART 2
H8BA  2   -0.064382    1.167970    0.064601   -21.00000    0.09786    0.08297 =
         0.05497    0.00529   -0.03673   -0.03800
H8BB  2   -0.046081    1.381053    0.071994   -21.00000    0.11543    0.07716 =
         0.05767    0.01472    0.00164    0.04693
H8BC  2    0.158538    1.253986    0.024099   -21.00000    0.05319    0.17312 =
         0.05534    0.01845    0.02121   -0.01067
PART 0
C9    1    0.193333    1.259144    0.409234    11.00000    0.04720    0.03189 =
         0.04028   -0.01135   -0.00289   -0.00515
H9    2    0.208113    1.358035    0.462199    11.00000    0.08942    0.05032 =
         0.06176   -0.02383   -0.00667   -0.01110
C10   1    0.241266    1.084839    0.471689    11.00000    0.03802    0.03444 =
         0.02946   -0.00735   -0.00411   -0.00385
H10   2    0.297290    1.034251    0.571675    11.00000    0.06820    0.07036 =
         0.03445   -0.01207   -0.01551   -0.00269
HKLF 2
 
REM  230K_0m_a_a.res in P-1
REM R1 =  0.0780 for    2785 Fo > 4sig(Fo)  and  0.0788 for all    2796 data
REM    297 parameters refined using      0 restraints
 
END  
     
WGHT      0.0825      1.7961 

REM Highest difference peak  1.017,  deepest hole -0.884,  1-sigma level  0.208
Q1    1   0.6755  0.4556  0.4996  11.00000  0.05    1.02
Q2    1   0.5943  0.2971  0.2380  11.00000  0.05    1.00
Q3    1   0.1861  1.0347  0.4380  11.00000  0.05    0.94
Q4    1   0.4229  1.2191  0.3773  11.00000  0.05   -0.88
Q5    1   0.4483  0.7528  0.1605  11.00000  0.05   -0.87
Q6    1   0.6256  0.6854  0.3060  11.00000  0.05    0.83
Q7    1   0.2008  0.9413  0.3461  11.00000  0.05    0.82
Q8    1   0.7424  0.3591  0.3596  11.00000  0.05    0.80
Q9    1   0.5730  0.5195  0.0579  11.00000  0.05    0.79
Q10   1   0.1343  1.3415  0.3442  11.00000  0.05    0.77

  REM The information below was added by Olex2.
  REM
  REM R1 = 0.0780 for 2785 Fo > 4sig(Fo) and 0.0788 for all 17498 data
  REM n/a parameters refined using n/a restraints
  REM Highest difference peak 1.02, deepest hole -0.88
  REM Mean Shift 0, Max Shift 0.000.

  REM +++ Tabular Listing of Refinement Information +++
  REM R1_all = 0.0788
  REM R1_gt = 0.0780
  REM wR_ref = 0.1793
  REM GOOF = 1.169
  REM Shift_max = 0.000
  REM Shift_mean = 0
  REM Reflections_all = 17498
  REM Reflections_gt = 2785
  REM Parameters = n/a
  REM Hole = -0.88
  REM Peak = 1.02
  REM Flack = n/a

  
;
_cod_data_source_file            ja9b04473_si_005.cif
_cod_data_source_block           230k
_cod_database_code               4127700
_shelx_shelxl_version_number     2014/7
_shelx_space_group_comment
;
The symmetry employed for this shelxl refinement is uniquely defined
by the following loop, which should always be used as a source of
symmetry information in preference to the above space-group names.
They are only intended as comments.
;
_exptl_absorpt_special_details
;
Neutron linear absorption coefficient is wavelength dependent.
For each peak, the absorption coefficient mu is calculated as:
          mu = 1.2957 + 1.5810/1.7982 * wavelength  [cm^-1^]
where 
 1.2957 cm^-1 is the absorption coefficient for total scattering;
 1.5810 cm^-1 is the absorption coefficient for true absorption at 1.7982 A.
 
The value of 0.2175 (mm^-1^) shown in _exptl_absorpt_coefficient_mu 
is the sample absorption coefficient for neutron wavelength at 1.0 \%A.
;
_diffrn_reflns_min_d_angs        0.500
_olex2_refinement_description
;
1. Others
 Sof(H8BA)=Sof(H8BB)=Sof(H8BC)=1-FVAR(1)
 Sof(H8AA)=Sof(H8AB)=Sof(H8AC)=FVAR(1)
 Fixed Sof: H5B(0.5)
;
_olex2_submission_special_instructions 'No special instructions were received'
loop_
_space_group_symop_operation_xyz
'x, y, z'
'-x, -y, -z'
loop_
_atom_site_label
_atom_site_type_symbol
_atom_site_fract_x
_atom_site_fract_y
_atom_site_fract_z
_atom_site_U_iso_or_equiv
_atom_site_adp_type
_atom_site_occupancy
_atom_site_site_symmetry_order
_atom_site_calc_flag
_atom_site_refinement_flags_posn
_atom_site_refinement_flags_adp
_atom_site_refinement_flags_occupancy
_atom_site_disorder_assembly
_atom_site_disorder_group
O1 O 0.7189(5) 0.3747(3) 0.4879(2) 0.0382(5) Uani 1 1 d . . . . .
O2 O 0.6333(5) 0.7602(3) 0.3006(2) 0.0410(6) Uani 1 1 d . . . . .
H2 H 0.6163(10) 0.8925(12) 0.1800(10) 0.081(2) Uani 1 1 d . . . A 4
O3 O 0.5248(5) 0.6028(3) 0.0671(2) 0.0408(6) Uani 1 1 d . . . . .
H3 H 0.5000 0.5000 0.0000 0.066(2) Uani 1 2 d S T P . .
O4 O 0.6182(5) 0.2065(3) 0.2561(2) 0.0405(6) Uani 1 1 d . . . . .
O5 O 0.6141(5) 0.9986(4) 0.0947(3) 0.0451(6) Uani 1 1 d . . . . .
H5A H 0.5944(9) 1.1065(7) 0.1262(6) 0.0540(11) Uani 1 1 d . . . . .
H5B H 0.5262(16) 0.9988(14) 0.0291(8) 0.046(2) Uani 0.5 1 d . . . A .
C1 C 0.6648(3) 0.4337(2) 0.37366(17) 0.0290(4) Uani 1 1 d . . . . .
C2 C 0.6249(3) 0.6079(3) 0.28813(18) 0.0304(4) Uani 1 1 d . . . . .
C3 C 0.5774(3) 0.5339(2) 0.18374(17) 0.0291(4) Uani 1 1 d . . . . .
C4 C 0.6173(3) 0.3565(2) 0.26671(17) 0.0289(4) Uani 1 1 d . . . . .
N1 N 0.2193(2) 0.96468(19) 0.40601(13) 0.0312(3) Uani 1 1 d . . . . .
H1 H 0.2525(8) 0.8254(6) 0.4543(4) 0.0466(10) Uani 1 1 d . . . . .
N2 N 0.1300(3) 1.3098(2) 0.28686(17) 0.0410(4) Uani 1 1 d . . . . .
C5 C 0.1562(3) 1.0080(3) 0.28357(18) 0.0300(4) Uani 1 1 d . . . . .
C6 C 0.1313(4) 0.8654(3) 0.2197(2) 0.0392(5) Uani 1 1 d . . . . .
H6A H 0.1665(16) 0.7393(9) 0.2837(7) 0.086(2) Uani 1 1 d . . . . .
H6B H -0.0198(11) 0.8814(12) 0.1852(10) 0.089(3) Uani 1 1 d . . . . .
H6C H 0.2227(13) 0.8684(12) 0.1375(7) 0.081(2) Uani 1 1 d . . . . .
C7 C 0.1117(3) 1.1884(3) 0.22328(19) 0.0332(4) Uani 1 1 d . . . . .
C8 C 0.0456(5) 1.2475(4) 0.0860(2) 0.0459(6) Uani 1 1 d . . . . .
H8AA H -0.097(5) 1.252(9) 0.069(3) 0.084(13) Uani 0.40(6) 1 d . . . B 1
H8AB H 0.064(9) 1.376(4) 0.049(2) 0.078(11) Uani 0.40(6) 1 d . . . B 1
H8AC H 0.135(8) 1.172(6) 0.030(2) 0.112(18) Uani 0.40(6) 1 d . . . B 1
H8BA H -0.064(5) 1.168(4) 0.0646(19) 0.079(7) Uani 0.60(6) 1 d . . . B 2
H8BB H -0.046(6) 1.381(3) 0.072(2) 0.096(8) Uani 0.60(6) 1 d . . . B 2
H8BC H 0.159(3) 1.254(6) 0.0241(18) 0.103(12) Uani 0.60(6) 1 d . . . B 2
C9 C 0.1933(4) 1.2591(3) 0.4092(2) 0.0395(5) Uani 1 1 d . . . . .
H9 H 0.2081(11) 1.3580(8) 0.4622(6) 0.0654(15) Uani 1 1 d . . . . .
C10 C 0.2413(3) 1.0848(3) 0.4717(2) 0.0342(4) Uani 1 1 d . . . . .
H10 H 0.2973(9) 1.0343(9) 0.5717(5) 0.0587(13) Uani 1 1 d . . . . .
loop_
_atom_site_aniso_label
_atom_site_aniso_U_11
_atom_site_aniso_U_22
_atom_site_aniso_U_33
_atom_site_aniso_U_23
_atom_site_aniso_U_13
_atom_site_aniso_U_12
O1 0.0614(15) 0.0273(10) 0.0237(9) -0.0038(8) -0.0089(9) -0.0041(10)
O2 0.0695(17) 0.0255(9) 0.0292(10) -0.0064(8) -0.0118(10) -0.0110(10)
H2 0.062(4) 0.089(6) 0.118(7) -0.072(6) 0.001(4) -0.018(3)
O3 0.0712(17) 0.0286(10) 0.0219(9) -0.0022(8) -0.0099(9) -0.0111(11)
H3 0.067(5) 0.055(4) 0.058(4) 0.020(4) -0.003(3) -0.008(4)
O4 0.0680(17) 0.0236(9) 0.0311(11) -0.0078(8) -0.0043(10) -0.0088(10)
O5 0.0629(18) 0.0313(12) 0.0439(15) -0.0125(11) -0.0046(13) -0.0107(12)
H5A 0.068(3) 0.037(2) 0.060(3) -0.016(2) 0.001(2) -0.012(2)
H5B 0.057(6) 0.048(5) 0.032(5) -0.005(4) -0.004(4) -0.010(4)
C1 0.0406(10) 0.0214(7) 0.0236(7) -0.0042(6) -0.0043(6) -0.0025(7)
C2 0.0445(10) 0.0226(7) 0.0238(7) -0.0043(6) -0.0058(6) -0.0056(7)
C3 0.0426(10) 0.0225(7) 0.0216(7) -0.0039(6) -0.0047(6) -0.0052(7)
C4 0.0411(10) 0.0210(7) 0.0239(7) -0.0045(6) -0.0015(6) -0.0047(7)
N1 0.0354(7) 0.0295(6) 0.0260(6) -0.0022(5) -0.0031(5) -0.0037(5)
H1 0.060(3) 0.040(2) 0.036(2) -0.0030(16) -0.0055(17) -0.0052(19)
N2 0.0475(9) 0.0301(7) 0.0423(8) -0.0041(6) -0.0035(6) -0.0038(6)
C5 0.0325(9) 0.0312(9) 0.0258(8) -0.0055(6) -0.0016(6) -0.0053(7)
C6 0.0461(12) 0.0383(11) 0.0342(10) -0.0100(8) -0.0059(8) -0.0078(9)
H6A 0.154(8) 0.042(3) 0.058(3) -0.006(2) -0.022(4) -0.012(4)
H6B 0.055(3) 0.096(6) 0.131(7) -0.059(5) -0.024(4) -0.011(3)
H6C 0.098(5) 0.095(5) 0.070(4) -0.045(4) 0.032(4) -0.036(4)
C7 0.0351(9) 0.0316(9) 0.0290(8) -0.0015(7) -0.0024(7) -0.0023(7)
C8 0.0546(16) 0.0462(14) 0.0285(10) 0.0038(9) -0.0037(10) -0.0020(11)
H8AA 0.066(12) 0.11(3) 0.051(10) 0.016(17) -0.008(8) 0.001(18)
H8AB 0.12(3) 0.057(12) 0.039(8) 0.011(7) 0.002(11) -0.003(15)
H8AC 0.16(4) 0.11(2) 0.022(7) -0.005(10) 0.008(11) 0.07(2)
H8BA 0.098(15) 0.083(12) 0.055(7) 0.005(8) -0.037(9) -0.038(11)
H8BB 0.115(18) 0.077(11) 0.058(8) 0.015(8) 0.002(10) 0.047(12)
H8BC 0.053(8) 0.17(3) 0.055(8) 0.018(12) 0.021(6) -0.011(12)
C9 0.0472(12) 0.0319(10) 0.0403(11) -0.0113(8) -0.0029(9) -0.0052(9)
H9 0.089(4) 0.050(3) 0.062(3) -0.024(3) -0.007(3) -0.011(3)
C10 0.0380(10) 0.0344(10) 0.0295(8) -0.0074(7) -0.0041(7) -0.0039(8)
H10 0.068(3) 0.070(4) 0.034(2) -0.012(2) -0.016(2) -0.003(3)
loop_
_atom_type_symbol
_atom_type_description
_atom_type_scat_dispersion_real
_atom_type_scat_dispersion_imag
_atom_type_scat_source
C C 0.0020 0.0011
'Neutron Data Booklet, ILL Grenoble, France (2003) ISBN 0-9704143-7-4'
H H 0.0000 0.0000
'Neutron Data Booklet, ILL Grenoble, France (2003) ISBN 0-9704143-7-4'
N N 0.0041 0.0022
'Neutron Data Booklet, ILL Grenoble, France (2003) ISBN 0-9704143-7-4'
O O 0.0076 0.0042
'Neutron Data Booklet, ILL Grenoble, France (2003) ISBN 0-9704143-7-4'
loop_
_geom_angle_atom_site_label_1
_geom_angle_atom_site_label_2
_geom_angle_atom_site_label_3
_geom_angle
_geom_angle_site_symmetry_1
C2 O2 H2 114.0(3) .
O5 H2 O2 173.8(5) .
H3 O3 C3 116.2(2) .
O3 H3 O3 180.00(19) 2_665
H5A O5 H2 105.2(5) .
H5B O5 H2 115.8(8) .
H5B O5 H5A 115.1(8) .
O1 C1 C2 134.97(19) .
O1 C1 C4 135.2(2) .
C2 C1 C4 89.84(15) .
O2 C2 C1 134.35(19) .
O2 C2 C3 135.1(2) .
C3 C2 C1 90.52(15) .
O3 C3 C2 132.3(2) .
O3 C3 C4 136.61(19) .
C2 C3 C4 91.06(15) .
O4 C4 C1 134.1(2) .
O4 C4 C3 137.3(2) .
C3 C4 C1 88.57(14) .
H1 N1 C5 118.1(3) .
H1 N1 C10 119.3(3) .
C5 N1 C10 122.54(17) .
C7 N2 C9 118.97(18) .
N1 C5 C6 118.64(18) .
N1 C5 C7 117.34(18) .
C7 C5 C6 124.00(18) .
H6A C6 C5 111.7(4) .
H6A C6 H6C 109.1(8) .
H6B C6 C5 110.4(5) .
H6B C6 H6A 107.9(8) .
H6B C6 H6C 105.7(8) .
H6C C6 C5 111.8(4) .
N2 C7 C5 121.18(18) .
N2 C7 C8 118.1(2) .
C5 C7 C8 120.7(2) .
H8AA C8 C7 115.4(16) .
H8AA C8 H8AB 102(3) .
H8AA C8 H8AC 111(3) .
H8AB C8 C7 110.9(13) .
H8AB C8 H8AC 106(3) .
H8AC C8 C7 110.9(15) .
H8BA C8 C7 110.0(10) .
H8BA C8 H8BB 103.2(19) .
H8BB C8 C7 107.3(11) .
H8BC C8 C7 114.8(12) .
H8BC C8 H8BA 113(2) .
H8BC C8 H8BB 108(2) .
N2 C9 C10 122.0(2) .
H9 C9 N2 119.4(4) .
H9 C9 C10 118.6(4) .
N1 C10 C9 117.95(19) .
H10 C10 N1 116.4(4) .
H10 C10 C9 125.7(4) .
loop_
_geom_bond_atom_site_label_1
_geom_bond_atom_site_label_2
_geom_bond_distance
_geom_bond_site_symmetry_2
O1 C1 1.241(3) .
O2 H2 1.457(12) .
O2 C2 1.262(3) .
H2 O5 1.089(13) .
O3 H3 1.243(2) .
O3 C3 1.272(3) .
H3 O3 1.243(2) 2_665
O4 C4 1.226(3) .
O5 H2 1.089(13) .
O5 H5A 0.985(6) .
O5 H5B 0.923(10) .
C1 C2 1.457(3) .
C1 C4 1.485(3) .
C2 C3 1.445(3) .
C3 C4 1.467(3) .
N1 H1 1.096(5) .
N1 C5 1.334(2) .
N1 C10 1.343(3) .
N2 C7 1.330(3) .
N2 C9 1.333(3) .
C5 C6 1.490(3) .
C5 C7 1.414(3) .
C6 H6A 1.067(7) .
C6 H6B 1.062(7) .
C6 H6C 1.070(7) .
C7 C8 1.487(3) .
C8 H8AA 0.97(4) .
C8 H8AB 1.03(2) .
C8 H8AC 1.06(3) .
C8 H8BA 1.107(17) .
C8 H8BB 1.116(17) .
C8 H8BC 1.005(16) .
C9 H9 1.092(6) .
C9 C10 1.379(3) .
C10 H10 1.101(5) .
loop_
_geom_hbond_atom_site_label_D
_geom_hbond_atom_site_label_H
_geom_hbond_atom_site_label_A
_geom_hbond_distance_DH
_geom_hbond_distance_HA
_geom_hbond_distance_DA
_geom_hbond_angle_DHA
_geom_hbond_site_symmetry_A
O5 H2 O2 1.089(13) 1.457(12) 2.543(4) 173.8(5) .
O3 H3 O3 1.243(2) 1.243(2) 2.485(5) 180.00(19) 2_665
O5 H5A O4 0.985(6) 1.783(6) 2.669(4) 147.8(6) 1_565
O5 H5B O5 0.923(10) 1.631(8) 2.552(6) 175.3(10) 2_675
N1 H1 O1 1.096(5) 1.549(5) 2.640(3) 173.5(4) 2_666
loop_
_refln_index_h
_refln_index_k
_refln_index_l
_refln_F_squared_meas
_refln_F_squared_sigma
_refln_scale_group_code
9 -8 3 433 164 1
8 -6 3 1160 143 1
8 -7 5 450 140 1
8 -8 5 885 162 1
8 -8 3 988 175 1
7 -6 5 1086 137 1
7 -6 4 988 130 1
7 -6 3 1868 156 1
7 -7 4 1020 141 1
7 -7 3 395 126 1
7 -7 2 5516 317 1
7 -8 4 872 155 1
6 -5 4 175 79 1
6 -5 2 839 88 1
6 -6 4 3811 226 1
6 -6 2 633 99 1
5 -4 2 4326 216 1
5 -5 3 1798 117 1
5 -5 2 341 68 1
4 -4 2 8191 378 1
3 -3 2 5747 264 1
3 -3 1 25412 1187 1
9 -4 10 1027 190 1
9 -5 10 691 209 1
9 -5 9 2405 246 1
9 -6 9 563 190 1
9 -6 8 3830 288 1
8 -4 9 313 131 1
8 -5 10 2308 241 1
8 -6 10 447 181 1
8 -6 9 383 159 1
8 -6 8 565 155 1
8 -6 7 373 130 1
7 -4 8 2959 198 1
7 -4 7 230 101 1
7 -4 6 234 97 1
7 -5 7 1479 139 1
7 -5 6 3592 207 1
6 -3 7 197 86 1
6 -3 6 200 79 1
6 -3 5 5540 260 1
6 -4 7 216 87 1
6 -4 6 830 96 1
5 -3 6 10402 454 1
5 -3 5 4690 214 1
5 -3 4 11320 480 1
4 -2 4 21903 896 1
4 -3 5 53327 2208 1
4 -3 4 7281 304 1
3 -2 3 9441 383 1
9 -1 10 665 213 1
9 -2 12 488 242 1
8 -1 9 3175 240 1
8 -2 13 566 217 1
7 0 9 1958 178 1
7 -1 11 2393 234 1
7 -1 10 695 162 1
7 -1 9 767 138 1
7 -1 8 1233 136 1
7 -1 7 671 116 1
7 -2 9 511 122 1
6 0 8 552 101 1
6 -1 10 5097 279 1
6 -1 9 220 107 1
6 -1 8 6609 309 1
6 -1 7 555 96 1
6 -1 6 10809 463 1
6 -2 8 876 101 1
5 -1 8 3421 178 1
5 -1 7 31761 1308 1
5 -1 6 6610 290 1
4 -1 7 25768 1066 1
4 -1 6 3020 141 1
3 0 4 421 31 1
3 -1 4 13396 534 1
9 2 9 959 318 1
9 2 7 751 303 1
8 2 7 911 248 1
8 1 10 1471 242 1
7 2 11 1444 345 1
7 2 10 1988 338 1
7 2 9 1102 263 1
7 2 8 2283 278 1
7 2 6 355 164 1
7 1 9 2289 229 1
7 1 8 584 147 1
6 2 6 301 147 1
6 2 5 571 133 1
6 1 8 14888 647 1
6 1 7 9555 421 1
6 1 6 306 93 1
6 1 5 3379 164 1
5 1 7 4141 205 1
5 1 6 5336 238 1
5 1 5 10077 412 1
5 1 4 971 78 1
4 1 6 6608 278 1
4 1 5 14701 585 1
4 1 4 1244 74 1
4 1 3 7056 287 1
3 1 4 497 41 1
3 1 3 1293 62 1
6 -9 -14 1655 257 1
6 -9 -15 921 252 1
5 -8 -13 677 192 1
5 -9 -13 691 174 1
5 -10 -13 1145 209 1
5 -11 -14 1020 216 1
4 -6 -10 4662 241 1
4 -7 -10 274 102 1
4 -7 -11 509 122 1
4 -9 -13 4732 325 1
4 -9 -14 1788 238 1
4 -10 -13 313 154 1
4 -10 -14 943 219 1
3 -5 -8 9607 411 1
3 -6 -8 4548 212 1
3 -6 -9 3523 183 1
3 -6 -10 400 101 1
3 -7 -9 5071 245 1
3 -7 -10 1059 111 1
3 -7 -11 709 120 1
3 -8 -12 1558 161 1
3 -9 -12 1215 170 1
3 -10 -14 2567 256 1
2 -3 -5 2022 86 1
2 -4 -6 381 43 1
2 -4 -7 759 59 1
2 -5 -7 14533 595 1
2 -5 -8 236 60 1
1 -3 -4 2336 97 1
8 -7 7 285 136 1
7 -6 6 612 113 1
7 -7 9 636 157 1
7 -7 8 708 145 1
7 -7 6 262 107 1
7 -8 8 435 149 1
7 -9 6 1046 156 1
6 -6 8 1519 146 1
6 -6 6 2391 158 1
6 -7 8 523 128 1
6 -7 6 1250 128 1
6 -8 8 343 132 1
6 -8 6 1330 144 1
5 -5 7 5231 245 1
5 -5 6 2193 129 1
5 -5 5 960 88 1
5 -6 7 1188 119 1
5 -6 6 5612 259 1
5 -6 5 1802 120 1
5 -7 7 310 106 1
5 -7 6 1314 119 1
4 -4 5 20365 804 1
4 -4 4 10321 409 1
4 -5 5 427 65 1
4 -5 4 114 56 1
3 -3 4 10723 412 1
3 -3 3 226 34 1
3 -4 4 47766 1823 1
3 -4 3 11525 442 1
7 -3 12 529 170 1
7 -3 11 660 156 1
7 -3 10 364 127 1
7 -4 12 365 162 1
7 -4 11 2584 220 1
7 -5 12 436 162 1
7 -5 11 1165 192 1
7 -6 12 627 191 1
6 -3 12 1571 186 1
6 -3 11 744 149 1
6 -3 10 2490 175 1
6 -4 12 1142 175 1
6 -4 11 785 139 1
6 -5 11 5795 323 1
6 -5 10 368 132 1
5 -3 11 771 133 1
5 -3 10 1780 143 1
5 -3 9 2317 144 1
5 -4 12 6710 345 1
5 -4 11 626 125 1
5 -4 10 635 112 1
5 -4 9 6264 284 1
5 -5 12 1511 187 1
4 -2 8 722 83 1
4 -2 7 4476 192 1
4 -2 6 3435 149 1
4 -3 9 9572 393 1
4 -3 8 756 86 1
4 -3 7 737 75 1
4 -4 10 1764 134 1
3 -2 6 2261 101 1
3 -2 5 40119 1487 1
3 -3 7 21815 837 1
2 -1 4 5457 207 1
2 -1 3 1586 65 1
2 -2 5 8843 331 1
8 0 13 3066 421 1
7 1 13 5312 545 1
7 0 13 1440 314 1
7 0 12 5280 429 1
6 1 14 835 388 1
6 1 13 3295 460 1
6 1 11 931 234 1
6 0 14 4824 527 1
6 0 13 2234 368 1
6 0 11 1594 217 1
6 -1 17 1283 427 1
6 -1 15 1000 354 1
6 -1 14 884 278 1
6 -1 13 970 242 1
6 -1 12 353 174 1
5 0 15 1111 374 1
5 0 14 2684 403 1
5 0 13 7105 526 1
5 0 12 2535 271 1
5 0 11 672 171 1
5 0 10 4790 267 1
5 0 9 4691 237 1
5 0 8 2404 138 1
5 -1 16 1610 431 1
5 -1 15 1028 339 1
5 -1 13 866 233 1
5 -1 12 6975 393 1
5 -1 11 1090 157 1
4 0 12 2495 260 1
4 0 11 307 148 1
4 0 9 2014 144 1
4 0 8 6677 283 1
4 0 7 28501 1086 1
4 -1 14 1553 313 1
4 -1 13 1546 246 1
4 -1 11 9420 426 1
4 -1 9 10301 419 1
3 0 9 2943 161 1
3 0 8 57441 2166 1
3 0 7 1635 95 1
3 0 6 3962 165 1
3 0 5 11105 425 1
3 -1 11 3972 226 1
2 0 6 337 41 1
2 0 5 55799 2115 1
2 0 4 17016 629 1
1 0 3 9413 348 1
7 3 7 5687 497 1
7 3 6 934 312 1
7 3 5 13037 766 1
6 3 7 3489 451 1
6 3 6 15539 915 1
6 3 5 8857 595 1
6 3 4 1672 289 1
5 2 10 1617 287 1
4 2 9 1624 297 1
4 2 8 1772 240 1
4 2 7 702 183 1
4 2 5 2026 159 1
4 2 4 18583 713 1
4 2 3 3698 183 1
4 2 2 8293 343 1
3 2 7 5217 415 1
3 2 6 17073 842 1
3 2 5 2453 217 1
3 2 4 496 130 1
2 1 4 5361 195 1
2 1 3 8133 291 1
2 1 2 729 35 1
2 1 1 10726 381 1
4 -11 -11 1419 186 1
4 -11 -12 827 167 1
3 -7 -8 1183 91 1
3 -8 -9 412 98 1
3 -9 -9 570 107 1
3 -10 -11 930 147 1
3 -10 -12 2047 198 1
3 -11 -10 760 136 1
3 -11 -11 948 155 1
3 -11 -12 366 147 1
3 -11 -13 2821 262 1
3 -12 -11 4912 314 1
3 -12 -13 1323 220 1
2 -6 -6 2688 120 1
2 -6 -7 2387 114 1
2 -7 -6 481 61 1
2 -7 -7 5239 221 1
2 -7 -8 1437 101 1
2 -8 -7 929 88 1
2 -8 -8 990 96 1
2 -8 -9 1617 122 1
2 -9 -8 2227 140 1
2 -9 -9 499 102 1
2 -10 -9 1539 137 1
2 -10 -10 288 111 1
2 -10 -11 396 132 1
2 -11 -10 1791 164 1
2 -11 -11 833 150 1
2 -11 -12 2262 217 1
2 -12 -11 757 159 1
2 -13 -12 871 180 1
1 -4 -4 464 31 1
1 -5 -5 6162 233 1
1 -6 -6 1524 79 1
6 -10 7 459 166 1
5 -8 5 1219 135 1
5 -8 4 2342 162 1
5 -9 7 1944 186 1
5 -9 6 1174 156 1
5 -9 4 4005 234 1
5 -10 7 837 160 1
4 -6 3 833 72 1
4 -7 5 222 91 1
4 -7 4 357 84 1
4 -7 3 5724 254 1
4 -8 5 6730 315 1
4 -8 4 1233 116 1
4 -8 3 19779 803 1
4 -9 4 585 119 1
4 -9 3 932 121 1
4 -10 5 397 126 1
3 -5 3 4613 187 1
3 -6 4 288 64 1
3 -6 3 378 61 1
3 -6 2 43287 1650 1
3 -7 4 20018 804 1
3 -7 3 4156 187 1
3 -8 4 7803 339 1
2 -4 2 8560 331 1
2 -5 2 12406 479 1
6 -6 10 580 170 1
6 -7 11 2643 252 1
6 -7 10 4777 328 1
5 -5 8 3425 194 1
5 -6 11 3757 271 1
5 -6 10 16861 738 1
5 -7 13 482 196 1
5 -7 9 1123 159 1
5 -8 12 1100 218 1
5 -8 9 2122 197 1
4 -5 8 277 95 1
4 -6 11 816 170 1
4 -6 10 290 133 1
4 -6 9 2207 166 1
4 -6 8 274 99 1
4 -6 7 5701 264 1
4 -7 12 3596 294 1
4 -7 11 9308 474 1
4 -7 10 1191 165 1
4 -7 9 812 134 1
4 -7 8 290 111 1
4 -8 12 893 207 1
4 -8 10 935 167 1
4 -9 11 338 148 1
3 -3 5 16599 629 1
3 -4 8 787 92 1
3 -4 7 268 70 1
3 -4 6 424 64 1
3 -5 8 4415 213 1
3 -5 7 3144 158 1
3 -5 6 148 66 1
3 -6 9 531 112 1
3 -6 8 2025 142 1
3 -6 7 14496 594 1
2 -3 5 6745 258 1
2 -3 4 59680 2250 1
2 -4 6 35140 1350 1
2 -4 5 21336 802 1
1 -2 3 1966 82 1
6 -3 15 1223 295 1
5 -3 14 1036 234 1
5 -3 13 535 171 1
4 -2 11 3145 194 1
4 -2 10 3203 174 1
4 -3 16 2299 388 1
4 -3 15 2540 325 1
4 -3 14 4312 321 1
4 -3 13 1502 200 1
4 -3 12 1682 171 1
4 -3 11 2958 182 1
4 -4 13 690 170 1
4 -4 12 2431 193 1
3 -2 11 400 112 1
3 -2 9 4720 203 1
3 -2 8 7155 276 1
3 -3 13 5495 325 1
3 -3 12 1343 151 1
3 -3 11 2051 153 1
3 -3 10 2412 146 1
3 -3 9 766 86 1
3 -4 16 656 249 1
3 -4 14 1194 207 1
3 -4 13 9195 440 1
3 -4 12 577 129 1
3 -4 11 320 110 1
2 -1 6 5389 199 1
2 -1 5 25485 881 1
2 -2 9 1761 110 1
2 -2 8 12881 474 1
2 -2 7 5215 200 1
2 -2 6 13658 485 1
2 -3 12 2321 181 1
2 -3 10 9385 371 1
2 -3 9 1713 109 1
2 -4 13 4478 287 1
1 -1 5 26213 909 1
1 -1 4 26762 927 1
1 -1 3 184 13 1
1 -2 6 42988 1515 1
4 1 14 6725 761 1
4 1 13 858 358 1
4 1 11 1099 246 1
4 0 15 5928 599 1
3 1 11 4920 403 1
3 1 10 6192 390 1
3 1 8 4597 223 1
3 0 15 5013 631 1
3 0 14 9210 701 1
3 0 13 4615 423 1
3 0 12 1000 238 1
3 -1 17 1292 561 1
3 -1 16 1477 433 1
2 1 10 8094 533 1
2 0 13 2993 416 1
2 0 10 3875 240 1
2 0 9 31291 1082 1
2 0 8 19879 677 1
2 -1 15 3066 477 1
2 -1 14 4028 444 1
2 -1 12 11703 539 1
2 -1 11 1410 149 1
1 0 12 3488 463 1
1 0 11 5023 420 1
1 0 10 2892 290 1
1 0 9 47838 1779 1
1 0 8 588 105 1
1 0 7 8642 306 1
1 0 6 6311 221 1
1 0 5 1157 55 1
1 0 4 17763 595 1
1 -1 14 12533 880 1
1 -1 12 5101 371 1
1 -1 10 10883 427 1
0 -1 13 5800 632 1
0 -1 12 1854 343 1
0 -1 11 4339 364 1
0 -1 10 460 188 1
0 -1 9 20690 767 1
0 -1 8 264 88 1
0 -1 7 14406 489 1
4 -9 8 277 136 1
4 -10 8 1103 168 1
3 -7 7 3491 197 1
3 -7 6 1487 120 1
3 -8 7 2710 182 1
3 -8 6 363 105 1
3 -9 10 288 137 1
3 -9 8 3097 221 1
3 -9 7 2319 180 1
3 -10 9 894 174 1
3 -10 8 932 163 1
3 -10 7 441 142 1
3 -11 9 1209 202 1
2 -5 5 292 55 1
2 -5 4 2761 125 1
2 -6 6 6072 279 1
2 -6 4 657 64 1
2 -7 5 1649 112 1
2 -8 7 1357 131 1
2 -8 6 7273 348 1
2 -10 8 384 135 1
2 -11 8 319 159 1
1 -3 3 7527 318 1
1 -4 3 4267 177 1
1 -5 4 25275 1033 1
3 -5 11 443 130 1
3 -6 14 1298 219 1
3 -6 13 6040 381 1
3 -6 12 7028 381 1
3 -6 11 23508 1002 1
3 -7 14 930 231 1
3 -7 12 609 174 1
3 -8 14 640 214 1
3 -8 13 1094 210 1
2 -4 9 268 85 1
2 -4 8 3316 164 1
2 -5 11 323 116 1
2 -5 9 958 108 1
2 -6 14 831 210 1
2 -6 11 603 132 1
2 -6 10 1685 150 1
2 -6 9 588 106 1
2 -7 13 5117 350 1
2 -7 12 9302 479 1
2 -7 11 2102 193 1
2 -7 10 1029 130 1
2 -8 13 1316 228 1
2 -8 12 507 164 1
2 -9 13 999 214 1
1 -2 4 8647 337 1
1 -3 7 18286 736 1
1 -3 6 26805 1059 1
1 -3 5 3930 158 1
1 -4 8 203 74 1
1 -4 7 275 61 1
1 -4 6 903 63 1
1 -5 10 6437 305 1
1 -5 9 1499 119 1
1 -5 8 2660 146 1
1 -6 11 1003 146 1
1 -6 10 641 118 1
1 -6 9 2841 170 1
1 -7 12 409 159 1
1 -7 11 1301 168 1
1 -8 12 415 166 1
1 -9 13 1249 247 1
2 -3 17 2728 560 1
2 -3 16 1015 420 1
2 -3 15 4804 510 1
1 -2 11 525 144 1
1 -2 10 7404 349 1
1 -2 9 1712 123 1
1 -3 14 5717 494 1
1 -3 13 2119 273 1
1 -3 12 1964 208 1
1 -3 11 1875 169 1
1 -4 15 765 324 1
1 -4 14 7146 531 1
1 -4 12 393 133 1
0 -1 5 7746 318 1
0 -1 4 3102 125 1
0 -1 3 2326 96 1
0 -2 9 11083 485 1
0 -2 8 5275 242 1
0 -2 7 8044 343 1
0 -2 6 257 47 1
0 -3 14 3014 422 1
0 -3 13 982 286 1
0 -3 11 7390 393 1
0 -3 10 2945 191 1
0 -3 9 898 103 1
0 -3 8 886 80 1
0 -4 14 4305 449 1
0 -4 12 3038 270 1
0 -4 11 578 146 1
0 -5 14 8159 597 1
-1 -4 15 2847 555 1
-1 -4 13 577 267 1
-1 -4 12 3507 332 1
-1 -4 10 692 142 1
-1 -5 14 1084 354 1
-1 -5 13 579 254 1
-1 -6 15 2772 474 1
-1 -1 10 12223 907 1
-1 -1 9 27813 1471 1
-1 -1 8 7619 469 1
-1 -1 7 6954 361 1
-1 -1 6 2594 150 1
-1 -1 5 28590 1100 1
-1 -1 4 488 46 1
-1 -1 3 258 27 1
-1 -1 2 19343 737 1
-2 -2 10 4504 557 1
-2 -2 9 3454 379 1
-2 -2 8 3627 330 1
-2 -2 6 19102 803 1
-2 -2 5 4530 207 1
-2 -2 3 5313 213 1
-3 -3 10 6818 732 1
-3 -3 9 7103 616 1
-3 -3 8 2258 353 1
-3 -3 7 4316 350 1
-3 -3 6 3337 264 1
-3 -3 5 5489 295 1
-4 -4 9 9321 901 1
-4 -4 8 15912 1067 1
-4 -4 7 1824 360 1
-5 -5 7 8133 814 1
-2 -3 7 13228 605 2
-2 -3 6 62455 2843 2
-2 -3 5 2117 105 2
-2 -4 7 52089 2372 2
-3 -4 9 6462 330 2
-3 -4 8 2661 154 2
-3 -4 7 29459 1358 2
-3 -5 10 320 106 2
-3 -5 9 937 108 2
-3 -5 8 729 91 2
-3 -6 10 8491 445 2
-4 -5 11 1292 150 2
-4 -6 14 1243 207 2
-4 -6 13 419 163 2
-4 -6 10 792 132 2
-4 -6 9 442 106 2
-4 -7 14 468 193 2
-4 -7 12 554 155 2
-4 -8 14 1779 247 2
-5 -6 12 1532 189 2
-5 -7 15 574 198 2
-5 -7 14 1076 211 2
-5 -7 12 344 159 2
-5 -8 14 426 200 2
-5 -8 13 529 180 2
-2 -1 4 438 27 2
-3 -2 8 13777 580 2
-3 -2 7 5165 221 2
-3 -2 6 4850 205 2
-3 -2 5 680 43 2
-4 -2 8 544 76 2
-4 -3 9 16539 711 2
-4 -3 8 4233 201 2
-4 -3 7 21884 915 2
-5 -3 11 3473 207 2
-5 -3 10 6250 307 2
-5 -3 9 1754 130 2
-5 -4 10 7293 350 2
-6 -4 15 805 192 2
-6 -4 13 555 143 2
-6 -4 12 432 133 2
-6 -4 10 5593 298 2
-6 -5 14 323 148 2
-6 -5 12 366 127 2
-2 0 5 10289 411 2
-2 0 4 8507 342 2
-3 0 7 244 52 2
-3 0 6 7727 324 2
-4 0 10 452 90 2
-4 0 9 262 89 2
-4 0 8 8420 367 2
-4 -1 8 3903 187 2
-4 -1 7 23733 978 2
-5 0 12 2549 201 2
-5 0 11 2256 181 2
-5 0 10 415 116 2
-5 -1 11 11638 524 2
-5 -1 10 2653 172 2
-5 -1 9 2862 168 2
-5 -1 8 370 87 2
-6 0 13 4253 332 2
-6 0 12 4907 322 2
-6 -1 15 484 177 2
-6 -1 13 638 177 2
-6 -1 11 1794 173 2
-6 -1 10 2166 173 2
-6 -1 9 2973 189 2
-7 -1 15 514 238 2
-7 -1 14 2409 290 2
-7 -1 12 4074 306 2
-7 -1 11 358 158 2
-8 -2 14 569 211 2
-9 -1 15 956 335 2
-1 1 5 1488 68 2
-1 1 4 25689 1011 2
-2 2 10 3199 194 2
-2 2 9 7859 351 2
-2 2 8 17366 704 2
-2 1 7 1044 68 2
-2 1 6 13414 539 2
-2 1 5 1232 67 2
-3 3 15 804 341 2
-3 3 12 9467 640 2
-3 2 13 607 184 2
-3 2 11 5756 323 2
-3 2 10 551 138 2
-3 2 9 29130 1199 2
-3 1 8 150 69 2
-3 1 7 907 81 2
-3 1 6 1469 86 2
-4 2 14 490 222 2
-4 2 13 2623 286 2
-4 2 11 5277 349 2
-4 2 10 3582 268 2
-4 2 9 9595 487 2
-4 1 9 1214 121 2
-5 3 13 3943 512 2
-5 2 12 3104 362 2
-5 2 10 8387 530 2
-6 2 14 1348 352 2
-6 2 12 2862 441 2
7 -8 8 794 260 2
7 -9 6 532 256 2
6 -7 6 827 194 2
6 -8 6 840 213 2
6 -10 5 467 202 2
5 -6 7 1034 150 2
5 -6 6 5116 293 2
5 -6 5 1220 160 2
5 -6 4 2731 197 2
5 -7 7 314 153 2
5 -7 6 1507 175 2
5 -7 5 1348 170 2
5 -7 4 2325 203 2
5 -8 6 855 180 2
5 -8 5 1163 179 2
5 -8 4 1814 192 2
5 -9 6 922 195 2
4 -5 5 211 97 2
4 -5 3 2457 144 2
4 -6 5 6757 325 2
4 -6 4 244 99 2
4 -6 3 720 107 2
4 -7 3 4882 255 2
3 -4 4 49891 2019 2
3 -4 3 11632 480 2
3 -5 4 6891 299 2
3 -5 3 4438 202 2
3 -5 2 8394 356 2
2 -3 2 358 35 2
-2 -2 4 124 23 2
-3 -3 6 5927 233 2
-3 -3 5 8601 333 2
-3 -3 4 4002 157 2
-4 -4 8 27610 1100 2
-4 -4 7 3547 163 2
-4 -4 6 135 57 2
-5 -5 10 523 110 2
-5 -5 9 893 110 2
-5 -5 8 310 88 2
-5 -5 7 12092 498 2
-5 -6 8 911 109 2
-6 -5 9 2673 175 2
-6 -6 10 343 118 2
-6 -6 8 1082 124 2
-6 -7 10 496 129 2
-6 -7 9 2335 177 2
-6 -8 11 957 161 2
-7 -6 12 500 147 2
-7 -7 12 1127 171 2
-7 -7 10 820 152 2
-7 -7 9 415 129 2
-7 -8 11 1024 176 2
-7 -8 10 1953 201 2
-2 -1 3 397 21 2
-3 -1 4 1332 58 2
-4 -2 6 4081 167 2
-4 -2 5 696 54 2
-5 -2 8 1589 112 2
-5 -2 6 809 77 2
-5 -3 7 3859 172 2
-6 -2 9 515 104 2
-6 -2 8 8057 349 2
-6 -2 7 1073 102 2
-6 -3 9 737 116 2
-6 -3 8 4963 236 2
-6 -3 7 942 100 2
-6 -3 6 10118 414 2
-7 -3 12 883 156 2
-7 -3 11 1554 174 2
-7 -3 9 1305 144 2
-7 -3 8 1450 138 2
-7 -4 10 978 143 2
-7 -4 9 3399 214 2
-8 -3 11 1414 189 2
-8 -3 10 473 158 2
-8 -3 9 404 150 2
-8 -4 12 338 156 2
-8 -4 11 612 178 2
-8 -4 10 3413 253 2
-8 -4 9 523 142 2
-8 -4 8 282 128 2
-8 -5 11 308 128 2
-9 -3 13 580 205 2
-9 -4 13 389 185 2
-9 -4 12 946 204 2
-9 -4 11 385 187 2
-10 -4 12 464 228 2
-10 -4 11 536 243 2
-2 0 3 32927 1220 2
-2 0 2 19003 713 2
-3 0 4 662 46 2
-3 0 3 1683 73 2
-4 0 6 5589 233 2
-4 0 5 7261 292 2
-4 0 4 12196 474 2
-5 0 8 676 93 2
-5 0 7 2603 152 2
-5 0 6 5222 235 2
-5 0 5 457 87 2
-6 1 10 541 198 2
-6 1 9 624 191 2
-6 0 9 2161 185 2
-6 0 7 1520 155 2
-6 0 6 1412 148 2
-7 1 10 764 259 2
-7 0 10 813 200 2
-7 0 9 413 187 2
-7 0 8 753 192 2
-7 0 7 847 200 2
-7 -1 8 1143 155 2
-8 -1 10 546 206 2
-8 -1 9 1518 236 2
-8 -1 6 1146 215 2
-9 0 10 905 349 2
-9 -1 11 513 243 2
-1 3 9 9230 542 2
-1 3 8 8733 590 2
-1 2 5 975 125 2
-1 1 3 1465 58 2
-2 3 10 42795 1869 2
-2 3 9 2655 327 2
-2 3 8 2871 365 2
-2 2 6 1715 129 2
-2 2 5 789 154 2
-2 1 3 9052 323 2
-3 3 10 1515 306 2
-3 3 9 5186 468 2
-3 2 7 1529 136 2
-3 2 6 2576 207 2
-3 2 5 5724 383 2
-4 3 9 2673 449 2
-5 2 8 569 218 2
-5 2 7 1491 297 2
-5 2 6 4478 475 2
4 -9 4 588 149 2
4 -9 3 906 158 2
4 -10 6 704 182 2
4 -10 3 7235 393 2
4 -11 3 526 174 2
4 -12 4 735 205 2
4 -13 3 1518 261 2
3 -7 4 20007 800 2
3 -7 3 4096 203 2
3 -7 2 666 99 2
3 -8 4 7967 363 2
3 -8 3 2290 160 2
3 -8 2 779 112 2
3 -9 4 11209 496 2
3 -9 3 4148 240 2
3 -9 2 14689 618 2
3 -10 5 1159 160 2
3 -10 4 1009 164 2
3 -10 3 2365 209 2
3 -10 2 2892 212 2
3 -11 3 346 140 2
3 -11 2 896 171 2
3 -12 5 785 191 2
2 -5 3 3896 157 2
2 -5 2 13109 492 2
2 -6 3 4530 192 2
2 -6 2 21442 818 2
2 -7 3 748 88 2
2 -7 2 9048 368 2
2 -7 1 250 66 2
2 -8 3 190 84 2
-2 -3 3 2754 118 2
-3 -4 4 11219 435 2
-3 -5 5 15256 587 2
-3 -5 4 2474 110 2
-4 -5 5 28080 1086 2
-4 -6 7 1767 121 2
-4 -6 6 608 86 2
-4 -6 5 9588 391 2
-4 -6 4 270 60 2
-4 -7 7 6312 286 2
-4 -7 6 1897 130 2
-4 -7 5 1686 111 2
-5 -6 6 3650 182 2
-5 -7 8 1603 151 2
-5 -7 7 398 111 2
-5 -7 6 945 116 2
-5 -8 9 5647 307 2
-5 -8 8 356 130 2
-5 -8 7 9920 449 2
-5 -8 6 2435 168 2
-5 -8 5 766 100 2
-5 -9 8 478 155 2
-5 -9 7 3175 216 2
-6 -8 8 1091 163 2
-6 -8 7 500 134 2
-6 -9 11 399 163 2
-6 -9 9 1081 177 2
-6 -9 8 400 148 2
-6 -9 7 3244 229 2
-6 -9 6 250 121 2
-6 -10 8 366 179 2
-6 -10 7 1361 182 2
-7 -9 8 569 170 2
-7 -10 9 1035 216 2
-7 -10 8 1351 214 2
-3 -2 3 60349 2264 2
-4 -3 5 16849 637 2
-4 -3 4 2032 92 2
-4 -3 3 35292 1317 2
-5 -4 6 1130 91 2
-5 -4 5 4544 198 2
-5 -4 4 13755 540 2
-6 -4 7 431 91 2
-6 -4 6 393 93 2
-6 -4 5 673 93 2
-6 -5 7 422 104 2
-6 -5 6 8679 377 2
-6 -5 5 286 90 2
-7 -5 8 3974 243 2
-7 -5 7 1457 150 2
-7 -5 6 1909 154 2
-7 -6 6 404 117 2
-7 -6 5 277 107 2
-8 -5 7 2175 197 2
-8 -6 7 1205 175 2
-8 -6 6 771 145 2
-8 -7 9 515 167 2
-8 -7 8 297 145 2
-8 -7 7 900 153 2
-9 -7 11 397 191 2
-9 -7 7 390 171 2
-9 -8 9 595 209 2
-3 -1 3 16025 561 2
-3 -1 2 66369 2312 2
-4 -1 4 3858 148 2
-4 -1 3 17012 606 2
-5 -2 4 17564 635 2
-5 -2 3 2748 121 2
-6 -2 6 224 72 2
-6 -2 5 237 82 2
-6 -2 4 1215 100 2
-7 -2 6 2314 163 2
-7 -2 5 1674 142 2
-7 -2 4 2764 173 2
-7 -3 6 507 104 2
-7 -3 5 985 115 2
-7 -3 4 266 96 2
-7 -3 3 885 106 2
-8 -2 9 2362 213 2
-8 -2 6 567 152 2
-8 -2 5 468 156 2
-8 -3 7 2501 201 2
-8 -3 5 3203 211 2
-8 -3 4 271 131 2
-9 -2 6 430 195 2
-9 -3 9 576 174 2
-9 -3 6 704 173 2
-9 -3 5 461 175 2
-9 -4 7 1390 182 2
-9 -4 6 1312 189 2
-9 -4 4 998 171 2
-10 -3 9 501 234 2
-10 -3 8 674 245 2
-11 -4 7 652 287 2
-2 0 1 198411 6561 2
-3 0 2 35141 1183 2
-3 0 1 129 41 2
-4 0 3 11214 387 2
-4 0 2 172415 5675 2
-5 1 6 5423 263 2
-5 0 4 535 79 2
-5 0 3 21433 746 2
-5 -1 1 22351 760 2
-6 0 4 13088 533 2
-6 0 3 43148 1653 2
-6 -1 2 35926 1240 2
-6 -1 1 2848 209 2
-7 1 7 797 318 2
-7 1 5 1993 471 2
-7 0 4 7220 489 2
-7 0 3 2071 382 2
-7 -1 4 9620 413 2
-7 -1 3 1925 209 2
-7 -1 2 5869 369 2
-8 0 6 2101 378 2
-8 0 5 4469 488 2
-8 0 4 9740 792 2
-8 -1 3 12877 738 2
-8 -1 2 2486 384 2
-9 0 5 2524 671 2
-9 -1 5 3388 440 2
-9 -1 3 1295 468 2
-10 -1 4 4437 727 2
-3 -3 2 19087 798 2
-3 -4 2 106 29 2
-4 -4 3 1004 56 2
-4 -5 3 342 52 2
-4 -5 2 6445 272 2
-5 -6 4 394 78 2
-5 -6 3 1428 100 2
-6 -6 4 1911 135 2
-6 -7 6 942 118 2
-6 -7 5 298 100 2
-6 -7 4 1207 121 2
-6 -8 5 922 124 2
-6 -8 4 443 107 2
-7 -8 7 606 139 2
-7 -8 5 1291 153 2
-7 -8 4 531 127 2
-7 -9 5 364 133 2
-7 -9 4 342 122 2
-7 -10 6 417 142 2
-8 -9 8 1009 200 2
-8 -9 5 987 175 2
-8 -10 7 403 164 2
-8 -11 7 549 216 2
-3 -2 2 204 23 2
-3 -2 1 13415 528 2
-4 -3 2 6128 242 2
-4 -3 1 300 34 2
-5 -3 3 974 72 2
-5 -3 2 8111 333 2
-5 -4 2 10088 408 2
-6 -4 4 272 67 2
-6 -4 3 1857 117 2
-6 -4 2 5338 243 2
-7 -4 5 4775 240 2
-7 -4 4 549 102 2
-7 -4 3 4117 214 2
-7 -5 4 3966 212 2
-7 -5 3 1865 139 2
-8 -5 5 848 134 2
-8 -5 3 544 119 2
-8 -6 3 1063 143 2
-8 -6 2 2561 190 2
-9 -5 4 521 142 2
-9 -6 4 341 143 2
-9 -6 3 552 164 2
-9 -7 3 1218 179 2
-10 -6 6 437 188 2
-10 -7 4 527 193 2
-11 -7 7 425 211 2
-11 -8 4 669 231 2
-11 -8 3 518 258 2
-2 -1 0 52975 2222 2
-3 -1 1 24465 961 2
-4 -2 0 139 47 2
-5 -2 1 3910 183 2
-5 -2 0 375 77 2
-6 -2 2 2499 154 2
-6 -2 1 326 101 2
-6 -3 1 2106 129 2
-6 -3 0 931 109 2
-7 -2 3 4347 253 2
-7 -4 -1 595 130 2
-8 -2 3 515 208 2
-8 -3 2 680 169 2
-8 -3 0 635 233 2
-8 -4 0 3124 260 2
-9 -4 2 1844 250 2
-9 -4 1 764 227 2
-9 -4 0 548 252 2
-9 -5 0 607 202 2
-9 -5 -1 628 237 2
-10 -4 1 1397 370 2
-10 -5 1 666 266 2
-10 -5 0 695 288 2
-11 -5 3 645 279 2
-11 -5 2 1133 349 2
-2 -1 -1 15271 582 2
-3 -1 -1 457 57 2
-3 -2 -3 7629 328 2
-4 -1 -1 3339 193 2
-4 -2 -2 10533 421 2
-4 -2 -3 4489 310 2
-4 -3 -4 745 144 2
-4 -3 -5 4216 526 2
-5 -1 -1 7098 484 2
-5 -2 -2 2133 196 2
-5 -4 -5 9966 563 2
-5 -4 -6 13327 1026 2
-6 -2 -2 636 298 2
-6 -3 -4 1362 400 2
-6 -4 -5 13646 883 2
-7 -4 -5 5387 724 2
-7 -5 -6 15513 1153 2
-8 -4 -4 8601 879 2
12 -3 1 402 193 3
11 -3 1 1505 217 3
10 -3 3 1581 191 3
10 -3 2 2750 235 3
10 -3 1 463 146 3
9 -3 3 836 144 3
9 -3 2 4885 300 3
9 -3 1 1187 151 3
9 -4 1 2951 226 3
8 -2 2 7319 385 3
8 -2 1 724 110 3
8 -3 2 914 126 3
8 -3 1 1988 157 3
7 -2 2 11221 550 3
7 -2 1 329 79 3
7 -3 2 3945 220 3
7 -3 1 903 99 3
6 -2 2 143 58 3
6 -2 1 1799 107 3
4 -1 1 291 31 3
11 0 6 1309 188 3
11 0 4 1311 178 3
10 0 6 420 139 3
10 -1 6 841 148 3
10 -1 5 740 146 3
9 0 5 6498 336 3
9 -1 5 2552 189 3
9 -1 4 229 108 3
8 0 5 2161 155 3
8 0 4 855 108 3
8 0 3 1197 106 3
8 -1 6 697 112 3
8 -1 5 3293 197 3
8 -1 4 4457 234 3
7 0 5 1902 125 3
7 0 4 1442 107 3
7 0 3 1252 96 3
6 0 4 1265 88 3
6 0 3 17413 733 3
5 0 3 1611 82 3
5 0 2 5490 229 3
4 0 2 18236 745 3
3 0 2 5817 254 3
10 3 10 1072 263 3
10 3 5 511 161 3
9 3 6 2240 218 3
9 2 7 1420 169 3
8 3 7 384 144 3
8 3 6 1968 182 3
8 2 7 1013 147 3
7 2 4 3896 199 3
6 2 5 554 87 3
6 2 4 331 75 3
5 2 4 1053 77 3
5 1 4 1077 71 3
4 1 4 1466 73 3
4 1 3 7735 311 3
3 1 2 19537 787 3
11 6 3 1059 349 3
9 6 9 1646 534 3
9 6 3 2541 430 3
9 5 5 5533 473 3
9 5 4 2910 332 3
8 5 3 468 221 3
8 5 2 670 233 3
7 5 6 15718 896 3
7 5 5 3030 346 3
7 4 5 6087 332 3
7 4 4 4260 257 3
7 4 3 2045 172 3
6 4 5 13138 595 3
6 4 4 2516 189 3
6 4 3 5505 288 3
5 3 3 3372 162 3
5 3 2 12004 486 3
3 2 3 9055 363 3
3 2 2 9508 379 3
3 2 1 296 33 3
6 -9 -14 1315 259 3
6 -9 -15 545 269 3
5 -8 -13 745 198 3
5 -9 -13 455 202 3
5 -10 -15 1002 275 3
4 -6 -10 4628 252 3
4 -6 -11 2150 179 3
4 -8 -12 592 152 3
4 -9 -13 3813 337 3
4 -9 -14 1326 270 3
4 -10 -14 662 236 3
4 -10 -15 604 245 3
3 -4 -7 2715 129 3
3 -5 -7 26638 1089 3
3 -5 -8 9577 412 3
3 -5 -9 215 86 3
3 -6 -8 4486 217 3
3 -6 -9 3379 190 3
3 -6 -10 386 114 3
3 -7 -10 911 127 3
3 -7 -11 641 139 3
3 -8 -12 959 173 3
3 -9 -12 765 182 3
2 -3 -5 2054 89 3
2 -4 -6 303 47 3
2 -4 -7 820 68 3
2 -5 -7 14486 601 3
2 -6 -8 206 72 3
1 -3 -4 2132 88 3
11 -3 5 289 139 3
11 -4 6 352 163 3
10 -3 6 430 151 3
10 -3 5 386 129 3
10 -4 6 322 131 3
9 -2 7 272 121 3
9 -2 5 2046 169 3
9 -2 4 974 117 3
9 -3 7 398 131 3
9 -3 4 916 122 3
9 -4 7 1159 164 3
8 -2 6 1009 127 3
8 -2 5 1367 131 3
8 -2 4 4339 221 3
8 -3 4 4098 217 3
7 -2 5 1584 122 3
7 -2 4 1963 125 3
7 -3 5 4200 211 3
7 -3 4 2659 153 3
6 -2 4 8911 366 3
6 -2 3 17599 694 3
5 -2 4 28513 1102 3
5 -2 3 25446 975 3
4 -1 3 16710 650 3
4 -1 2 2334 96 3
3 -1 2 1785 79 3
11 1 11 1168 275 3
11 1 10 2253 301 3
11 0 10 856 226 3
10 1 12 512 233 3
10 1 9 625 182 3
10 0 12 692 256 3
10 0 11 1079 229 3
10 0 9 442 170 3
10 -1 12 415 195 3
9 1 11 4820 373 3
9 1 8 374 138 3
9 0 11 2219 261 3
9 0 8 1004 149 3
8 1 7 9373 416 3
8 0 10 1017 163 3
8 0 7 245 110 3
7 1 8 878 124 3
7 1 7 459 99 3
7 0 9 2131 170 3
7 0 8 4521 236 3
7 0 6 17633 704 3
6 1 7 10712 437 3
6 0 6 15612 616 3
5 0 6 8364 335 3
5 0 5 413 59 3
4 0 5 271 47 3
4 0 4 37472 1389 3
3 0 3 14099 532 3
10 4 12 1482 379 3
9 4 10 875 293 3
9 4 9 660 237 3
9 3 14 1144 441 3
8 4 10 870 284 3
8 3 13 1015 349 3
8 3 11 2934 355 3
8 3 10 464 212 3
8 3 9 533 162 3
7 4 11 2301 394 3
7 4 8 926 212 3
7 3 12 888 322 3
7 3 11 2237 306 3
7 3 8 344 147 3
7 3 7 7156 346 3
6 3 10 591 208 3
6 3 9 1914 203 3
6 3 8 2100 183 3
6 3 7 4655 250 3
6 3 6 20935 828 3
6 2 8 527 117 3
5 3 7 253 116 3
5 3 6 29674 1145 3
5 2 9 3538 215 3
5 2 8 253 104 3
5 2 7 2778 157 3
5 2 6 1103 99 3
4 2 7 641 87 3
4 2 6 181 73 3
4 2 5 2695 128 3
4 2 4 24491 939 3
3 1 4 809 44 3
2 1 3 9046 336 3
2 1 2 1012 41 3
6 5 8 749 348 3
6 5 5 1670 319 3
6 5 4 1095 285 3
6 5 3 3167 371 3
6 5 2 4238 400 3
6 5 1 1736 343 3
5 4 6 14555 664 3
5 4 5 9097 429 3
5 4 4 3373 209 3
5 4 3 2074 169 3
5 4 2 973 149 3
4 4 7 941 379 3
4 4 6 17066 950 3
4 4 5 1883 299 3
4 4 4 6022 427 3
4 4 2 27241 1454 3
3 3 6 666 180 3
3 3 4 9532 427 3
3 3 3 5382 265 3
3 3 2 5402 272 3
3 3 1 1168 147 3
2 2 4 2956 124 3
2 2 3 2885 116 3
2 2 2 9025 319 3
2 2 1 571 44 3
1 1 2 11276 402 3
1 1 1 51087 1800 3
5 -11 -11 639 190 3
5 -12 -12 1198 247 3
4 -8 -8 731 108 3
4 -8 -9 294 116 3
4 -9 -8 418 122 3
4 -9 -9 766 143 3
4 -9 -10 637 145 3
4 -10 -11 328 150 3
4 -11 -11 759 211 3
4 -11 -12 794 207 3
4 -12 -10 697 181 3
4 -12 -11 440 179 3
3 -6 -6 190 60 3
3 -6 -7 1589 106 3
3 -7 -6 215 77 3
3 -7 -7 873 98 3
3 -7 -8 992 109 3
3 -8 -7 6651 298 3
3 -8 -8 276 102 3
3 -8 -9 612 119 3
3 -9 -8 2860 188 3
3 -9 -9 516 125 3
3 -10 -11 416 168 3
2 -4 -4 15490 569 3
2 -5 -5 2966 123 3
2 -6 -5 24776 932 3
2 -6 -6 2664 126 3
2 -7 -6 392 77 3
2 -7 -7 5184 230 3
1 -3 -3 3522 146 3
9 -5 5 1439 190 3
9 -6 5 667 155 3
9 -6 4 563 150 3
8 -5 5 497 137 3
8 -5 4 1592 168 3
8 -6 5 797 155 3
8 -6 4 1539 175 3
8 -6 3 1229 164 3
8 -7 5 424 156 3
8 -7 4 409 137 3
7 -4 4 237 101 3
7 -5 5 449 124 3
7 -5 4 1052 128 3
7 -5 3 250 105 3
7 -6 5 1104 148 3
7 -6 4 916 135 3
7 -6 3 1658 154 3
6 -4 4 7125 313 3
6 -4 3 2088 127 3
6 -5 2 772 85 3
5 -3 3 11544 450 3
5 -3 2 1043 67 3
5 -4 3 37684 1466 3
5 -4 2 4479 189 3
4 -3 3 37810 1431 3
4 -3 2 2204 99 3
3 -2 2 2449 103 3
9 -3 11 749 217 3
9 -4 10 873 206 3
8 -2 9 544 154 3
8 -2 8 451 140 3
8 -3 11 669 202 3
8 -3 9 1487 189 3
8 -4 11 1046 218 3
8 -4 8 423 143 3
7 -2 9 541 135 3
7 -2 7 252 107 3
7 -3 10 321 153 3
7 -3 9 1543 173 3
7 -3 8 1111 146 3
7 -3 7 402 112 3
7 -4 10 441 156 3
6 -2 8 1033 127 3
6 -2 7 716 107 3
6 -2 6 2505 146 3
6 -3 8 5768 286 3
6 -3 7 286 97 3
6 -3 6 357 81 3
5 -1 6 7080 295 3
5 -1 5 290 59 3
5 -2 7 13515 551 3
5 -2 6 652 82 3
5 -2 5 2558 126 3
4 -1 5 447 52 3
4 -1 4 2208 95 3
4 -2 5 15435 589 3
4 -2 4 23088 864 3
3 -1 4 14083 533 3
3 -1 3 48902 1885 3
9 2 13 684 295 3
8 2 15 913 365 3
8 1 12 991 243 3
8 0 15 691 272 3
8 0 13 2855 333 3
8 0 12 2187 256 3
7 1 15 1123 366 3
7 1 14 916 275 3
7 1 13 4858 420 3
7 1 12 8550 487 3
7 0 13 901 240 3
7 0 12 5535 359 3
7 0 11 910 169 3
7 -1 15 951 300 3
6 1 13 2844 331 3
6 1 11 902 177 3
6 1 9 336 116 3
6 0 14 6090 460 3
6 0 13 2997 295 3
6 0 11 1753 185 3
6 0 10 304 121 3
6 -1 14 1138 241 3
6 -1 13 1506 221 3
5 1 10 6930 321 3
5 1 9 1335 128 3
5 1 7 4440 194 3
5 0 11 766 146 3
5 0 10 5154 253 3
5 0 9 4994 232 3
5 0 8 1970 127 3
5 -1 12 7326 373 3
5 -1 11 986 142 3
4 0 9 2146 138 3
4 0 8 6934 278 3
4 0 7 29584 1069 3
4 0 6 2649 112 3
3 0 7 1563 86 3
3 0 6 3893 152 3
3 0 5 11509 402 3
2 0 4 17911 631 3
2 0 3 17127 635 3
6 4 11 987 339 3
6 3 14 1093 466 3
6 3 13 718 319 3
5 4 10 1094 332 3
5 4 9 1092 276 3
5 3 12 2660 426 3
5 2 16 1766 564 3
5 2 12 2989 310 3
4 3 11 2312 405 3
4 3 10 1487 315 3
4 3 9 1268 249 3
4 3 8 8169 413 3
4 3 7 38335 1371 3
4 2 15 3118 754 3
4 2 13 1096 368 3
4 2 12 1231 319 3
4 2 10 1114 185 3
4 2 9 2455 180 3
3 2 12 5884 586 3
3 2 11 654 284 3
3 2 10 5452 403 3
3 2 8 8542 358 3
3 2 7 6965 275 3
3 2 6 21988 744 3
3 1 15 8673 1016 3
3 1 14 7114 751 3
3 1 11 5011 323 3
3 1 10 4902 266 3
2 1 10 8328 479 3
2 1 9 21987 854 3
2 1 8 5990 257 3
2 1 7 7164 265 3
2 1 6 15376 523 3
2 1 5 1489 70 3
8 -6 11 1343 259 3
8 -6 10 532 217 3
8 -6 9 445 212 3
8 -6 8 734 195 3
8 -7 9 1816 267 3
7 -5 7 1364 166 3
7 -6 9 8239 489 3
7 -7 9 564 189 3
7 -7 8 765 176 3
6 -4 6 805 112 3
6 -6 8 1275 169 3
6 -6 6 2580 184 3
5 -3 5 4985 230 3
5 -4 5 542 86 3
5 -5 7 5387 279 3
5 -5 6 1843 140 3
5 -5 5 1172 99 3
4 -3 5 56008 2331 3
4 -3 4 7610 320 3
4 -4 5 20534 869 3
4 -4 4 10802 454 3
3 -2 3 9938 412 3
3 -3 4 11173 459 3
3 -3 3 476 35 3
8 -3 14 657 257 3
8 -3 13 910 243 3
7 -2 13 571 212 3
7 -3 13 997 224 3
7 -3 12 834 189 3
7 -4 12 528 183 3
6 -2 10 1815 167 3
6 -3 14 1438 281 3
6 -3 13 1981 255 3
6 -3 12 1591 208 3
6 -3 11 815 162 3
6 -3 10 2180 187 3
6 -4 12 1297 210 3
6 -4 11 329 148 3
5 -2 10 392 122 3
5 -3 12 2833 241 3
5 -3 11 569 149 3
5 -3 10 1693 162 3
5 -3 9 2572 171 3
5 -4 12 6271 384 3
5 -4 11 601 148 3
4 -1 7 26278 1061 3
4 -2 8 596 92 3
4 -2 7 4509 206 3
4 -3 9 9437 419 3
3 -1 6 1961 96 3
3 -1 5 7505 297 3
3 -2 7 715 75 3
3 -2 6 2636 122 3
2 -1 4 5805 228 3
5 1 14 8459 701 3
5 1 13 9021 650 3
5 0 15 950 389 3
5 0 14 2678 400 3
5 -1 17 1659 506 3
5 -1 16 1271 462 3
5 -1 15 878 320 3
5 -2 17 1191 451 3
4 0 15 4961 638 3
4 0 14 2932 473 3
4 0 12 2555 260 3
4 -1 16 2081 446 3
4 -1 15 1567 376 3
4 -1 14 2455 337 3
4 -1 13 1616 262 3
4 -1 12 437 177 3
4 -2 16 1959 491 3
3 0 13 3292 435 3
3 0 11 6514 379 3
3 0 10 4526 262 3
3 0 9 3445 197 3
3 -1 16 1952 579 3
3 -1 14 697 297 3
3 -1 13 13330 785 3
3 -1 11 3736 259 3
3 -1 10 439 127 3
3 -2 17 2473 723 3
2 0 9 29027 1221 3
2 0 8 19781 826 3
2 0 7 10474 443 3
2 0 6 325 53 3
2 -1 12 9226 581 3
2 -1 11 1618 202 3
2 -1 10 7106 357 3
2 -1 8 38946 1599 3
2 -2 12 3337 293 3
2 -2 11 4427 282 3
1 0 4 18674 737 3
1 0 3 10576 432 3
1 -1 6 22043 902 3
1 1 7 12944 692 3
1 0 12 2695 600 3
1 0 11 4098 517 3
1 0 10 2730 344 3
1 -1 14 14086 1348 3
0 0 7 1489 295 3
0 0 6 26762 1319 3
0 0 5 9128 434 3
0 0 4 7657 313 3
0 0 3 4171 164 3
0 0 2 55722 2142 3
0 0 1 23818 936 3
0 -1 11 3880 631 3
0 -1 9 20644 1080 3
0 -1 7 11363 481 3
-1 -2 9 3820 502 3
-1 -2 7 22807 1092 3
-1 -2 6 11747 529 3
-1 -2 5 8886 369 3
-1 -3 11 1105 420 3
-1 -3 10 1025 330 3
-2 -3 6 39455 2098 3
-2 -4 9 1134 397 3
-2 4 -2 8565 392 4
-2 4 -3 11054 508 4
-2 3 -2 401 36 4
-3 7 -4 19724 950 4
-3 6 -3 269 76 4
-3 6 -4 214 79 4
-3 5 -3 4383 212 4
-3 5 -4 6690 323 4
-4 8 -4 1045 141 4
-4 8 -5 6527 372 4
-4 8 -6 512 116 4
-4 6 -5 6523 339 4
-5 10 -7 780 186 4
-5 9 -6 746 173 4
-5 9 -7 1545 224 4
-5 8 -5 1176 161 4
-5 8 -6 962 159 4
-5 8 -7 357 145 4
-5 7 -5 1862 165 4
-2 4 -5 21954 907 4
-2 3 -4 61469 2504 4
-2 3 -5 6604 274 4
-3 6 -8 2147 157 4
-3 5 -6 254 71 4
-3 5 -7 3127 171 4
-3 5 -8 4318 227 4
-3 4 -6 516 70 4
-3 4 -7 302 79 4
-4 8 -10 871 184 4
-4 7 -9 721 146 4
-4 7 -10 1248 182 4
-4 7 -11 8630 488 4
-4 6 -7 5376 273 4
-4 6 -9 2358 184 4
-4 5 -7 184 79 4
-4 5 -8 279 104 4
-5 8 -12 1186 227 4
-5 7 -9 1169 169 4
-5 7 -10 437 168 4
-5 7 -13 601 218 4
-5 6 -10 17121 797 4
-5 6 -11 3594 286 4
-6 8 -11 503 197 4
-6 7 -11 1704 255 4
-6 6 -11 671 177 4
-1 3 -6 27015 1105 4
-1 3 -7 18461 770 4
-1 2 -5 41607 1652 4
-1 2 -6 44230 1807 4
-1 1 -4 28222 1134 4
-2 6 -13 482 209 4
-2 5 -12 910 181 4
-2 5 -13 7725 497 4
-2 4 -9 372 101 4
-2 4 -10 759 126 4
-2 4 -11 2945 217 4
-2 4 -13 3923 327 4
-2 3 -7 2389 123 4
-2 3 -8 831 92 4
-2 3 -9 1486 123 4
-2 3 -10 9158 419 4
-2 2 -7 5296 232 4
-2 2 -8 12947 548 4
-3 6 -13 5330 399 4
-3 5 -11 335 124 4
-3 5 -13 1707 242 4
-3 4 -10 7804 373 4
-3 4 -11 373 137 4
-3 4 -13 7997 475 4
-3 4 -14 676 250 4
-3 3 -10 2054 156 4
-3 3 -11 2082 174 4
-3 3 -12 1405 177 4
-4 3 -13 1273 200 4
2 7 -13 1275 491 4
2 6 -13 1639 579 4
1 7 -14 1211 506 4
1 6 -12 1296 358 4
1 6 -13 11832 929 4
1 6 -14 4012 631 4
1 6 -15 2166 635 4
1 5 -9 892 170 4
1 5 -11 4459 403 4
1 5 -13 1011 371 4
1 5 -14 1421 473 4
1 4 -8 1865 163 4
1 4 -10 613 226 4
1 4 -12 1993 412 4
1 3 -6 4479 205 4
1 3 -7 10601 453 4
1 3 -8 10348 484 4
0 5 -14 8488 757 4
0 4 -10 508 138 4
0 4 -11 599 198 4
0 4 -12 4084 376 4
0 4 -14 3338 541 4
0 3 -8 685 103 4
0 3 -9 774 129 4
0 3 -10 2355 215 4
0 3 -11 5750 407 4
0 3 -13 796 353 4
0 3 -14 2612 487 4
0 2 -5 9040 362 4
0 2 -6 266 60 4
0 2 -7 7274 306 4
0 2 -8 4154 210 4
0 2 -9 8143 395 4
0 1 -3 2484 100 4
0 1 -4 2935 119 4
-1 4 -14 8026 632 4
-1 4 -15 1128 408 4
0 13 11 859 234 4
0 13 10 591 187 4
0 12 12 943 251 4
0 12 10 3428 297 4
0 12 9 1412 202 4
0 11 11 1816 243 4
0 11 10 1054 183 4
0 11 9 1298 176 4
0 11 8 2554 203 4
0 10 10 1286 179 4
0 10 8 2181 175 4
0 9 8 222 105 4
0 9 7 1950 145 4
0 8 8 1701 128 4
0 8 7 2869 164 4
0 8 6 2208 133 4
0 7 6 3716 176 4
0 6 6 4001 179 4
0 6 5 5584 236 4
0 5 5 15508 626 4
0 5 4 3527 146 4
0 4 4 90533 3562 4
0 4 3 1295 55 4
0 3 3 11918 488 4
-1 14 12 581 275 4
-1 13 12 510 218 4
-1 13 10 781 181 4
-1 12 12 2176 276 4
-1 12 10 11918 610 4
-1 11 10 746 169 4
-1 10 10 2172 205 4
-1 10 8 254 121 4
-1 9 8 2085 158 4
-1 8 8 572 105 4
-1 8 7 212 88 4
-1 7 7 5164 238 4
-1 7 6 1540 102 4
-1 6 6 1398 85 4
-1 6 5 502 44 4
-2 13 12 493 238 4
-2 12 11 742 204 4
-2 12 10 682 184 4
-2 11 12 2176 254 4
-2 11 11 792 178 4
-2 2 -3 17734 719 4
-3 4 -4 46708 1783 4
-3 3 -3 273 37 4
-3 3 -4 10872 419 4
-4 5 -5 343 75 4
-4 5 -6 844 87 4
-4 4 -4 10794 426 4
-4 4 -5 20148 793 4
-4 4 -6 543 72 4
-4 3 -4 7297 287 4
-5 6 -6 5667 273 4
-5 6 -7 1125 128 4
-5 5 -5 913 97 4
-5 5 -6 1760 128 4
-5 5 -7 5415 262 4
-5 4 -5 630 81 4
-5 4 -6 198 77 4
-6 8 -8 525 152 4
-6 7 -6 861 131 4
-6 7 -8 295 142 4
-6 6 -6 2401 171 4
-6 6 -8 1390 162 4
-6 6 -9 820 159 4
-6 5 -6 219 99 4
-7 8 -8 631 180 4
-7 7 -8 497 161 4
-7 6 -9 10108 506 4
-7 6 -10 1621 213 4
-8 7 -9 1790 245 4
-8 6 -8 581 172 4
-2 2 -5 8929 333 4
-2 1 -4 5711 214 4
-3 3 -7 21610 831 4
-3 3 -8 538 85 4
-3 2 -6 2574 115 4
-3 2 -7 653 70 4
-3 2 -8 6959 289 4
-3 1 -5 7607 285 4
-4 4 -10 1582 152 4
-4 4 -11 284 118 4
-4 3 -7 1168 84 4
-4 3 -8 973 100 4
-4 3 -9 9395 395 4
-4 3 -10 279 113 4
-4 2 -7 4489 194 4
-4 2 -8 647 91 4
-4 2 -9 291 96 4
-5 5 -12 1698 216 4
-5 4 -10 494 128 4
-5 4 -11 610 140 4
-5 4 -12 6369 362 4
-5 4 -13 456 189 4
-5 3 -9 2465 160 4
-5 3 -10 1558 147 4
-5 3 -11 593 140 4
-5 3 -12 3073 237 4
-5 3 -13 660 186 4
-5 2 -10 403 110 4
-6 4 -11 690 154 4
-6 4 -12 649 184 4
-6 3 -11 809 158 4
-6 3 -12 1755 201 4
-6 3 -13 2006 249 4
-6 3 -14 1600 273 4
-6 2 -10 1630 145 4
-7 3 -12 1110 196 4
-7 3 -13 799 216 4
-8 3 -14 996 252 4
-1 1 -5 28702 1072 4
-1 1 -6 22038 841 4
-1 1 -7 5771 236 4
-1 0 -3 10481 408 4
-2 3 -13 1922 256 4
-2 3 -15 4398 562 4
-2 2 -11 3993 249 4
-2 2 -12 2947 261 4
-2 1 -7 274 61 4
-2 1 -8 38705 1476 4
-2 1 -10 6936 325 4
-2 1 -11 1068 185 4
-2 1 -12 10366 582 4
-2 1 -13 640 271 4
-2 0 -6 338 51 4
-2 0 -7 10025 393 4
-3 3 -15 949 311 4
-3 2 -15 1052 340 4
-3 2 -17 2927 620 4
-3 1 -10 423 116 4
-3 1 -11 3622 236 4
-3 1 -12 402 169 4
-3 1 -13 13694 741 4
-3 1 -16 2466 537 4
-3 0 -9 3301 180 4
-3 0 -10 4966 259 4
-3 0 -11 5540 322 4
-4 2 -13 507 159 4
-4 2 -15 1254 307 4
-4 2 -16 1054 448 4
-4 1 -12 322 159 4
-4 1 -13 1682 249 4
-4 1 -14 1877 325 4
-4 1 -15 924 355 4
-4 1 -16 2938 480 4
-4 0 -12 2425 249 4
-4 0 -14 4074 442 4
-4 0 -15 5668 611 4
-5 2 -16 3255 509 4
-5 2 -17 1468 464 4
-5 1 -16 1936 438 4
-5 0 -14 2479 368 4
-5 0 -15 833 361 4
2 4 -8 14013 723 4
2 4 -9 610 303 4
2 4 -10 2168 426 4
2 3 -6 43262 1857 4
2 3 -7 8665 555 4
2 3 -8 19832 1181 4
1 3 -12 1022 493 4
1 2 -4 1100 55 4
1 2 -5 9405 343 4
1 2 -6 13212 500 4
1 2 -7 23076 931 4
1 2 -9 3861 401 4
1 2 -10 1110 421 4
0 2 -13 1789 476 4
0 1 -7 10916 415 4
0 1 -8 295 135 4
0 1 -9 18975 885 4
0 1 -11 4607 562 4
0 0 -1 24600 908 4
0 0 -2 60702 2148 4
0 0 -3 4985 177 4
0 0 -4 9299 339 4
0 0 -5 12190 503 4
0 0 -6 36023 1551 4
0 0 -7 1935 267 4
-1 1 -14 13430 1118 4
-1 0 -11 3356 448 4
-1 0 -12 3897 605 4
-1 -1 -7 12313 628 4
-1 4 4 606 35 4
-1 3 3 59 15 4
-2 9 8 2156 156 4
-2 8 8 774 110 4
-2 8 7 1230 109 4
-2 7 8 1501 117 4
-2 7 7 5198 228 4
-2 7 6 335 74 4
-2 6 7 2165 116 4
-2 6 6 2905 133 4
-2 5 5 3149 128 4
-3 12 13 1373 248 4
-3 12 11 4699 345 4
-3 12 10 536 199 4
-3 11 11 976 181 4
-3 11 10 434 168 4
-3 10 11 935 178 4
-3 9 8 3433 202 4
-3 8 9 386 113 4
-3 8 7 6525 292 4
-3 7 8 1032 110 4
-3 7 7 960 97 4
-3 6 7 1262 93 4
-4 12 13 516 213 4
-4 12 11 477 200 4
-4 11 13 1232 251 4
-4 11 12 454 204 4
-4 11 11 1408 211 4
-4 11 10 327 155 4
-4 10 10 787 160 4
-4 9 10 630 142 4
-4 9 9 1100 146 4
-5 12 12 1664 258 4
-5 11 11 493 191 4
-3 3 -2 5928 233 4
-4 4 -2 8485 330 4
-4 4 -3 2772 124 4
-4 3 -2 2253 100 4
-4 3 -3 37236 1412 4
-5 5 -3 1821 114 4
-5 4 -2 4345 183 4
-5 4 -3 37011 1443 4
-5 4 -4 1002 87 4
-6 6 -4 3776 212 4
-6 5 -4 272 96 4
-6 4 -3 2141 128 4
-7 7 -3 510 141 4
-7 7 -4 1234 161 4
-7 7 -5 383 141 4
-7 6 -3 1691 158 4
-7 6 -4 1093 141 4
-7 6 -5 1282 154 4
-7 5 -3 350 105 4
-7 5 -4 1080 132 4
-7 5 -5 810 125 4
-8 8 -3 965 187 4
-8 8 -5 667 181 4
-8 7 -5 455 154 4
-8 7 -6 333 150 4
-8 6 -4 1864 183 4
-8 6 -5 869 157 4
-9 8 -4 390 172 4
-9 6 -5 347 166 4
-2 1 -3 1997 83 4
-3 2 -4 36976 1389 4
-3 1 -3 48311 1843 4
-3 1 -4 13686 519 4
-4 2 -4 22577 847 4
-4 2 -5 15062 578 4
-4 2 -6 3431 154 4
-5 3 -5 4816 210 4
-5 3 -6 10595 435 4
-5 3 -7 596 99 4
-5 2 -5 2406 123 4
-5 2 -6 541 83 4
-5 2 -7 13415 551 4
-6 4 -8 426 119 4
-6 4 -9 842 146 4
-6 3 -6 270 93 4
-6 3 -8 5469 278 4
-6 2 -6 2406 147 4
-6 2 -7 753 110 4
-6 2 -8 1010 131 4
-7 5 -10 2493 263 4
-7 4 -8 3207 224 4
-7 4 -9 305 151 4
-7 3 -7 321 115 4
-7 3 -8 1243 153 4
-7 3 -9 1331 177 4
-7 3 -10 497 150 4
-7 2 -7 364 103 4
-8 5 -10 2407 270 4
-8 4 -8 664 153 4
-8 4 -11 920 217 4
-8 3 -8 360 143 4
-8 3 -9 1576 200 4
-8 3 -11 626 213 4
-9 5 -9 1880 267 4
-9 5 -10 713 225 4
-9 4 -10 456 211 4
-9 3 -11 606 230 4
-2 0 -3 16571 604 4
-2 0 -4 17488 610 4
-3 1 -7 22619 815 4
-3 0 -5 11300 401 4
-3 0 -6 3789 150 4
-3 0 -7 1556 90 4
-4 1 -8 253 81 4
-4 1 -9 10086 397 4
-4 0 -6 2613 113 4
-4 0 -7 29080 1050 4
-4 0 -8 6715 273 4
-4 0 -9 2012 140 4
-5 1 -9 1379 124 4
-5 1 -10 3560 204 4
-5 1 -11 1117 161 4
-5 1 -12 7466 391 4
-5 0 -8 2151 135 4
-5 0 -9 5014 237 4
-5 0 -10 4979 253 4
-5 0 -11 862 154 4
-5 0 -12 2666 237 4
-6 2 -14 499 226 4
-6 1 -10 5875 293 4
-6 1 -13 612 229 4
-6 1 -14 816 262 4
-6 1 -15 1186 321 4
-6 0 -11 1560 185 4
-6 0 -13 2604 313 4
-6 0 -14 5290 478 4
-7 2 -15 2324 388 4
-7 1 -12 518 195 4
-7 1 -15 764 332 4
-7 0 -11 908 194 4
-7 0 -12 5690 379 4
-7 0 -13 1429 251 4
-7 -1 -12 8198 502 4
-7 -1 -13 4753 440 4
-7 -1 -14 828 302 4
-8 1 -13 530 211 4
-8 1 -14 939 266 4
-8 0 -12 1967 268 4
-8 0 -13 3433 350 4
-8 -1 -12 1613 274 4
-1 0 -6 6072 216 4
-2 0 -13 3038 442 4
-2 -1 -4 6326 218 4
-2 -1 -5 1571 75 4
-2 -1 -6 14784 504 4
-2 -1 -7 6585 253 4
-2 -1 -8 5169 246 4
-2 -1 -9 22796 923 4
-2 -1 -10 8934 529 4
-3 -1 -8 5357 223 4
-3 -1 -9 267 123 4
-3 -1 -10 5544 310 4
-3 -1 -11 5192 364 4
-3 -1 -14 7756 817 4
-3 -2 -5 3546 143 4
-3 -2 -6 18964 651 4
-3 -2 -7 6165 267 4
-3 -2 -8 8605 396 4
-3 -2 -10 5867 452 4
-3 -2 -12 6026 721 4
-4 -1 -14 7059 654 4
-4 -2 -8 1389 127 4
-4 -2 -9 2125 198 4
-4 -2 -10 469 219 4
-4 -3 -9 779 268 4
-4 -3 -10 1814 362 4
-4 -3 -11 2428 539 4
-5 -2 -12 2576 360 4
-5 -3 -9 1019 227 4
-5 -3 -12 2185 507 4
-6 -2 -15 1384 473 4
-6 -3 -12 4590 517 4
-6 -3 -14 1609 512 4
-3 1 -2 1711 79 4
-4 2 -2 4771 197 4
-4 2 -3 2030 95 4
-5 3 -4 11123 475 4
-5 2 -3 24456 1002 4
-5 2 -4 27806 1162 4
-6 3 -3 2452 138 4
-6 3 -4 31349 1343 4
-6 3 -5 5833 278 4
-6 2 -3 17736 753 4
-6 2 -4 8714 387 4
-6 2 -5 4906 235 4
-7 4 -4 327 94 4
-7 3 -4 2583 165 4
-7 3 -5 4131 228 4
-8 3 -4 4217 246 4
-9 5 -5 1060 169 4
-9 5 -6 621 166 4
-9 4 -7 1019 179 4
-3 0 -3 13675 530 4
-4 0 -4 37510 1452 4
-4 0 -5 131 48 4
-5 1 -5 121 53 4
-5 1 -6 6696 287 4
-5 1 -7 32728 1332 4
-5 0 -5 405 65 4
-5 0 -6 8287 352 4
-6 1 -6 11677 496 4
-6 1 -7 652 106 4
-6 1 -8 6923 326 4
-6 0 -5 1192 92 4
-6 0 -6 15623 654 4
-7 1 -7 795 123 4
-7 1 -8 1575 150 4
-7 1 -9 1020 151 4
-7 0 -6 17065 721 4
-7 0 -8 4237 245 4
-7 0 -9 2343 191 4
-8 1 -9 3226 243 4
-8 0 -7 369 124 4
-8 0 -10 1030 186 4
-9 1 -10 1125 207 4
-9 0 -8 856 158 4
-9 0 -10 416 203 4
-9 0 -11 2508 294 4
-10 2 -11 418 202 4
-10 0 -9 565 202 4
-10 0 -11 1101 252 4
-10 0 -12 722 316 4
-2 -1 -3 9078 359 4
-3 -1 -4 605 46 4
-3 -1 -5 3100 140 4
-3 -1 -6 21448 886 4
-4 -1 -6 7199 313 4
-4 -2 -5 2641 139 4
-5 -2 -5 14684 619 4
-5 -2 -6 1319 118 4
-5 -2 -7 2705 177 4
-5 -2 -8 282 128 4
-5 -2 -9 3060 240 4
-6 -2 -7 376 118 4
-6 -2 -8 532 147 4
-6 -3 -7 4009 270 4
-6 -3 -8 2067 235 4
-6 -3 -9 1614 272 4
-7 -2 -9 1230 199 4
-7 -2 -10 1507 249 4
-7 -2 -11 1845 280 4
-7 -3 -7 6820 394 4
-7 -3 -11 2158 384 4
-7 -3 -12 1201 394 4
-8 -2 -13 2651 464 4
-8 -3 -8 635 194 4
-8 -3 -11 2238 409 4
-9 -2 -12 681 330 4
-1 -1 -2 10429 405 4
-2 -2 -3 2181 128 4
-2 -2 -4 3045 178 4
-3 -3 -6 872 312 4
-4 -3 -1 2841 173 4
-4 -3 -2 659 104 4
-4 -3 -3 2038 139 4
-4 -3 -4 558 109 4
-4 -3 -5 5144 274 4
-5 -4 -2 599 262 4
-5 -4 -3 2344 307 4
-5 -4 -4 3341 348 4
-5 -4 -5 8601 587 4
-5 -4 -6 15580 923 4
-5 -4 -7 1188 364 4
-7 -5 -2 2033 401 4
5 11 15 1298 193 5
5 10 14 969 162 5
4 10 13 2549 214 5
4 9 13 3199 228 5
4 9 12 493 126 5
4 9 11 306 113 5
3 10 13 1033 146 5
3 10 12 1418 162 5
3 9 13 2764 210 5
3 9 11 3096 210 5
3 8 11 532 106 5
3 7 10 3779 209 5
3 7 9 211 78 5
3 7 8 5673 284 5
2 6 8 6573 312 5
2 6 7 28313 1294 5
2 5 7 20778 945 5
2 5 6 7673 354 5
3 14 14 684 183 5
3 13 12 714 169 5
2 14 14 420 182 5
2 14 13 455 168 5
2 13 14 855 181 5
2 12 12 2270 216 5
2 12 11 1784 191 5
2 11 12 2052 180 5
2 11 11 1203 152 5
2 11 10 1011 142 5
2 10 11 15239 683 5
2 10 10 4243 237 5
2 10 9 2603 173 5
2 9 10 12516 558 5
2 9 8 1472 116 5
2 8 7 405 59 5
1 13 13 430 162 5
1 12 13 3173 247 5
1 12 12 418 139 5
1 11 12 2255 190 5
1 11 11 10458 508 5
1 11 10 760 137 5
1 10 11 471 124 5
1 10 10 3938 228 5
1 10 9 3270 201 5
1 9 10 2536 161 5
1 9 8 1317 113 5
1 8 9 270 72 5
1 8 7 264 66 5
1 7 7 12703 539 5
1 6 6 7340 305 5
1 5 5 30478 1242 5
1 15 8 861 375 5
1 14 8 1399 304 5
1 13 9 815 205 5
1 13 8 482 190 5
1 12 8 1726 198 5
1 12 7 710 175 5
1 11 8 1033 136 5
1 11 7 594 133 5
1 10 7 1279 123 5
1 10 6 14102 624 5
1 9 6 1933 130 5
1 9 5 1060 113 5
1 8 5 15438 652 5
1 7 4 10715 452 5
0 14 8 3797 483 5
0 12 9 1222 192 5
0 12 8 1250 197 5
0 11 8 2251 201 5
0 11 7 2388 216 5
0 11 6 1338 193 5
0 10 6 1396 159 5
0 9 7 1951 138 5
0 9 6 329 99 5
0 9 5 328 103 5
0 8 6 1965 126 5
0 7 5 1451 97 5
0 7 4 73116 3002 5
0 6 4 19047 784 5
0 5 3 6862 283 5
0 4 3 612 36 5
0 3 2 9073 385 5
-1 12 9 1451 228 5
3 14 3 1885 466 5
3 13 3 3520 494 5
3 13 2 4209 574 5
2 12 3 3828 439 5
2 12 2 2983 482 5
2 10 2 627 199 5
2 10 1 2182 333 5
2 9 2 830 141 5
2 9 1 4956 341 5
1 14 5 1108 377 5
1 13 4 2704 500 5
1 13 3 3078 596 5
1 12 4 4763 445 5
1 12 2 2854 589 5
1 11 2 1210 361 5
1 10 3 2127 225 5
1 10 2 890 250 5
1 9 3 242 102 5
1 8 2 15735 659 5
1 7 2 1720 114 5
1 7 1 15915 658 5
1 6 1 19593 779 5
1 5 1 1239 74 5
0 13 5 5382 627 5
0 13 4 2420 539 5
0 12 4 2290 417 5
0 12 3 2352 495 5
0 11 3 636 300 5
0 10 3 813 241 5
0 9 2 5114 385 5
0 7 2 355 100 5
0 6 2 77645 3039 5
0 4 1 94 36 5
0 3 1 11497 447 5
-1 12 4 2304 474 5
11 1 10 1226 281 5
11 0 10 599 254 5
10 1 9 628 173 5
9 1 6 570 149 5
9 0 8 459 158 5
9 0 7 1595 206 5
8 1 7 8786 421 5
8 1 6 3667 224 5
8 0 6 501 128 5
8 0 5 1694 169 5
7 1 6 3639 198 5
7 1 5 1608 128 5
7 0 6 15090 655 5
7 0 5 1626 138 5
6 1 6 407 60 5
6 1 5 3152 158 5
6 1 4 9304 397 5
6 0 5 927 93 5
6 0 4 983 95 5
5 1 4 1346 71 5
5 0 4 7328 308 5
4 0 3 4894 200 5
3 0 2 5755 229 5
3 13 16 1576 216 5
2 13 16 4356 324 5
2 11 16 369 149 5
2 10 15 441 130 5
2 10 14 2098 180 5
2 9 14 3629 212 5
2 9 12 277 101 5
2 9 11 3070 178 5
2 8 12 313 98 5
2 8 11 585 87 5
1 12 16 756 172 5
1 11 18 2226 223 5
1 11 17 654 167 5
1 10 16 306 128 5
1 10 14 1606 162 5
1 10 13 1246 149 5
1 9 14 3060 194 5
1 9 12 4525 239 5
1 8 10 1359 103 5
1 7 11 3705 180 5
1 7 10 450 75 5
1 7 9 5517 237 5
1 6 9 1920 101 5
1 6 8 168 54 5
1 5 7 362 42 5
1 4 6 255 27 5
0 13 15 884 216 5
0 12 13 2428 226 5
0 12 12 893 177 5
0 11 12 512 148 5
0 11 11 1689 177 5
0 11 10 997 151 5
0 10 11 2724 187 5
0 10 10 1211 137 5
0 9 10 365 98 5
0 9 8 240 93 5
0 8 9 359 75 5
0 8 8 1576 109 5
0 8 7 2614 135 5
0 7 8 1106 76 5
0 7 7 423 67 5
0 6 7 2706 114 5
0 6 6 3284 138 5
0 5 5 12281 456 5
0 4 4 66502 2463 5
0 3 3 671 31 5
-1 12 14 1605 223 5
-1 12 13 453 167 5
-1 12 12 2092 227 5
-1 11 13 1339 183 5
-1 11 12 7706 405 5
-1 11 10 772 158 5
-1 10 12 501 139 5
-1 10 11 2149 181 5
-1 10 10 2134 180 5
-1 9 11 970 127 5
-1 8 9 735 100 5
-1 8 8 424 95 5
-1 7 8 7682 319 5
-1 7 7 4411 199 5
-1 6 7 8026 320 5
-2 12 14 1758 254 5
-1 14 8 3863 547 5
-1 14 7 3157 571 5
-1 13 7 1149 365 5
-1 12 7 638 232 5
-1 12 6 1241 308 5
-1 10 6 8400 427 5
-1 10 5 5870 376 5
-1 9 5 1373 161 5
-1 8 5 8626 373 5
-1 8 4 8346 375 5
-1 7 5 4232 192 5
-1 7 4 69683 2636 5
-1 6 4 21149 818 5
-1 6 3 224 80 5
-1 5 4 6195 244 5
-1 5 3 9653 378 5
-1 4 3 52863 1983 5
-2 13 8 1018 354 5
-2 13 7 1193 435 5
-2 13 6 3131 629 5
-2 12 9 684 270 5
-2 12 6 1884 463 5
-2 11 8 1012 227 5
-2 10 6 2090 286 5
-2 10 5 1502 304 5
-2 9 7 495 145 5
-2 9 5 1917 232 5
-2 8 6 537 127 5
-2 8 5 2246 192 5
-2 7 5 35405 1364 5
-2 6 5 20336 788 5
-3 14 9 1680 644 5
-3 12 9 876 341 5
-3 10 8 2612 314 5
-3 10 7 4033 414 5
-3 9 7 2554 261 5
-3 8 7 3732 250 5
2 8 -1 1151 366 5
1 9 0 2278 480 5
1 8 0 907 272 5
1 7 0 11165 553 5
1 6 0 18640 712 5
1 6 -1 3050 413 5
1 5 0 34115 1196 5
1 5 -1 1615 226 5
1 4 -1 1590 160 5
0 9 1 4561 507 5
0 8 1 1019 236 5
0 7 0 919 292 5
0 6 0 943 215 5
0 5 0 22273 899 5
0 4 0 10881 401 5
0 3 0 23481 821 5
0 2 0 415 24 5
0 1 0 7099 266 5
-1 10 2 3000 537 5
-1 7 1 6450 505 5
-1 6 1 16038 746 5
-1 5 1 25049 955 5
-1 4 1 1450 88 5
-2 8 2 2078 447 5
-2 7 2 823 283 5
10 1 11 569 188 5
10 0 12 916 245 5
9 1 13 438 186 5
9 1 12 2316 252 5
9 1 11 5114 336 5
9 0 11 2164 250 5
8 1 12 983 187 5
8 1 10 750 146 5
8 0 13 3105 264 5
8 0 12 2049 225 5
8 0 10 925 160 5
7 1 9 2462 167 5
7 1 8 801 111 5
7 0 11 1188 154 5
7 0 9 2275 166 5
7 0 8 4215 230 5
6 1 9 419 93 5
6 1 8 17208 683 5
6 1 7 10754 435 5
6 0 8 630 101 5
6 0 7 260 90 5
5 0 8 2123 123 5
5 0 7 31241 1200 5
5 0 6 7949 318 5
4 0 6 2375 105 5
4 0 5 103 43 5
3 0 4 89 29 5
3 9 19 508 178 5
3 8 17 1258 190 5
2 10 19 504 179 5
2 10 18 372 166 5
2 10 17 506 167 5
2 9 17 756 167 5
2 9 16 667 153 5
2 8 18 407 161 5
2 8 17 309 145 5
2 8 14 1706 158 5
2 7 15 301 123 5
2 7 14 6008 293 5
2 7 13 362 107 5
2 7 12 46835 1862 5
2 6 13 793 111 5
2 6 12 23119 929 5
1 9 16 1419 179 5
1 8 16 1330 161 5
1 8 15 279 128 5
1 7 15 1640 153 5
1 7 14 3275 198 5
1 7 13 2416 163 5
1 6 14 8577 383 5
1 6 13 19581 798 5
1 6 12 6493 288 5
1 6 11 16182 652 5
1 5 11 331 73 5
1 5 10 10081 398 5
1 5 9 32592 1245 5
1 4 9 14729 564 5
1 4 8 59006 2260 5
1 4 7 22634 855 5
1 3 6 645 41 5
0 11 18 414 180 5
0 11 17 516 186 5
0 11 14 1029 177 5
0 10 16 405 165 5
0 10 15 1556 181 5
0 10 13 3539 244 5
0 9 15 2388 204 5
0 9 12 2642 190 5
0 8 11 1094 116 5
0 7 11 202 83 5
0 7 10 1868 120 5
0 6 10 204 68 5
0 6 9 6903 283 5
0 6 8 24213 933 5
0 5 8 23675 890 5
0 5 7 2659 112 5
0 4 6 4111 157 5
0 3 5 7787 313 5
0 3 4 180 16 5
-1 12 17 698 223 5
-1 11 17 503 183 5
-1 10 15 1183 185 5
-1 10 14 744 175 5
-1 9 16 763 170 5
-1 9 15 1878 194 5
-1 9 13 3554 240 5
-1 9 12 835 145 5
-1 8 14 1018 148 5
-1 8 12 559 118 5
-1 8 11 1789 145 5
-1 7 12 957 119 5
-1 7 11 788 109 5
-1 7 10 3095 171 5
-1 6 10 1104 97 5
-1 5 9 1488 91 5
-1 5 8 159 54 5
-1 5 7 8156 320 5
-2 10 16 511 183 5
-2 10 14 1463 212 5
-1 4 4 530 39 5
-1 3 4 1749 65 5
-1 3 3 3212 116 5
-1 2 3 7073 265 5
-2 10 9 1076 162 5
-2 9 9 554 129 5
-2 8 9 1406 131 5
-2 8 8 712 115 5
-2 7 9 1426 117 5
-2 7 8 1227 111 5
-2 7 7 4201 199 5
-2 6 7 1999 116 5
-2 6 6 2327 125 5
-2 5 7 12766 468 5
-2 5 6 8288 313 5
-2 4 6 167 49 5
-2 4 5 34476 1230 5
-3 12 13 727 280 5
-3 12 11 3184 433 5
-3 11 14 775 234 5
-3 11 13 2589 303 5
-3 11 11 587 236 5
-3 10 12 1970 231 5
-3 10 11 581 190 5
-3 10 10 385 174 5
-3 9 12 967 172 5
-3 8 10 253 125 5
-3 8 9 502 132 5
-3 8 8 448 130 5
-3 7 10 595 118 5
-3 7 9 3851 210 5
-3 7 8 864 125 5
-3 6 9 2940 167 5
-3 6 8 3474 180 5
-3 6 7 1066 106 5
-4 11 13 1512 315 5
-4 9 13 3932 344 5
-4 9 10 582 203 5
-4 8 10 716 169 5
-5 10 13 1086 350 5
-5 9 13 527 249 5
-2 7 3 978 176 5
-2 6 3 51687 1778 5
-2 5 3 6472 247 5
-2 4 3 431 63 5
-2 3 3 18204 619 5
-2 3 2 9067 315 5
-3 8 4 2707 376 5
-3 7 5 28615 1084 5
-3 7 4 3701 341 5
-3 6 5 4227 221 5
-3 6 4 3347 244 5
-3 5 5 5574 230 5
-3 5 4 9801 389 5
-3 5 3 2251 242 5
-3 4 4 14025 495 5
-3 3 4 7744 280 5
-4 8 6 1973 351 5
-4 7 6 11388 611 5
-4 7 5 3669 424 5
-4 6 6 7613 399 5
-4 6 5 8756 533 5
-4 6 4 27647 1458 5
-4 5 6 3023 201 5
-4 5 4 3389 391 5
-4 4 5 5129 281 5
-5 9 8 1513 463 5
-5 8 8 1219 333 5
-5 8 6 2409 614 5
-5 7 6 15258 1052 5
-5 6 6 1133 379 5
-5 5 6 2056 335 5
-6 6 8 914 404 5
-6 6 7 1965 552 5
-6 5 8 1178 369 5
0 9 17 959 185 5
0 8 20 1401 228 5
0 8 19 531 163 5
0 8 15 1241 147 5
0 7 17 1034 159 5
0 7 16 357 125 5
0 7 15 4069 246 5
0 7 14 1329 141 5
0 7 13 38300 1664 5
0 6 15 908 131 5
0 6 14 1918 155 5
0 6 13 16826 745 5
0 6 12 952 103 5
0 5 12 1172 103 5
0 5 11 173 72 5
0 5 10 1029 83 5
0 4 10 31717 1304 5
0 4 9 8977 375 5
0 4 8 23786 969 5
0 3 7 2460 107 5
0 3 6 608 39 5
-1 8 17 812 169 5
-1 7 18 1625 216 5
-1 7 17 673 161 5
-1 7 16 584 144 5
-1 7 15 1488 163 5
-1 7 14 634 130 5
-1 6 16 574 129 5
-1 6 15 8331 418 5
-1 6 14 6527 335 5
-1 6 13 5542 286 5
-1 3 6 13992 549 5
-1 3 5 6035 235 5
-1 2 4 21945 906 5
-2 7 13 767 124 5
-2 7 11 253 97 5
-2 6 12 3901 210 5
-2 6 11 357 97 5
-2 6 10 6725 306 5
-2 6 9 7684 338 5
-2 5 10 12423 523 5
-2 5 9 10496 440 5
-2 4 9 7848 330 5
-2 4 8 12065 493 5
-2 4 7 567 60 5
-3 10 16 434 203 5
-3 9 18 386 191 5
-3 9 16 449 187 5
-3 9 14 2002 241 5
-3 8 16 676 182 5
-3 8 14 313 151 5
-3 8 13 382 148 5
-3 7 14 2258 216 5
-3 7 13 273 133 5
-3 7 12 491 126 5
-3 6 13 3600 227 5
-3 6 11 975 127 5
-3 5 12 887 117 5
-3 5 11 5238 262 5
-4 8 17 531 209 5
-4 8 16 421 194 5
-4 8 14 372 183 5
-4 7 16 392 182 5
-4 7 15 5204 360 5
-2 3 4 37076 1497 5
-2 2 4 5159 209 5
-3 5 6 587 89 5
-3 4 7 1903 122 5
-3 4 6 4128 200 5
-3 3 6 6567 288 5
-3 3 5 981 85 5
-3 2 6 3520 161 5
-4 5 8 1652 165 5
-4 5 7 2152 188 5
-4 4 8 1299 136 5
-4 4 7 1580 150 5
-4 3 7 4303 229 5
-5 7 10 863 248 5
-5 7 9 568 243 5
-5 6 11 581 213 5
-5 6 10 693 221 5
-5 6 9 1005 240 5
-5 5 11 2500 250 5
-5 5 9 2552 287 5
-5 5 8 4014 352 5
-5 4 10 5227 340 5
-5 4 8 546 199 5
-6 6 11 1116 340 5
-6 5 12 854 306 5
-6 5 11 2036 346 5
-1 0 1 368 19 5
-2 1 2 8390 328 5
-2 0 2 12895 508 5
-3 2 3 2348 143 5
-3 1 3 16705 715 5
-3 0 4 572 71 5
-3 0 3 1297 160 5
-3 -1 4 776 111 5
-4 2 5 529 121 5
-4 1 4 1992 292 5
-4 0 5 5212 321 5
-4 -1 6 832 159 5
-5 3 5 1899 462 5
-5 2 6 3066 378 5
-5 1 6 5263 468 5
-5 0 7 2077 270 5
-5 0 6 3403 455 5
-5 -1 7 2312 385 5
-6 -1 9 1305 410 5
-3 1 8 270 38 6
-3 1 7 1124 67 6
-3 1 6 1955 96 6
-4 1 9 1581 103 6
-4 1 8 184 53 6
-5 2 12 4599 265 6
-5 2 11 951 112 6
-5 1 11 2174 152 6
-5 1 9 513 77 6
-6 2 14 677 140 6
-6 2 12 4338 269 6
-7 2 17 405 170 6
-7 2 14 429 136 6
-7 1 14 1279 173 6
-2 2 5 1491 65 6
-3 3 7 3357 149 6
-3 2 6 3745 158 6
-3 2 5 7180 298 6
-4 4 10 919 88 6
-4 4 9 6874 313 6
-4 3 9 2899 148 6
-4 3 8 129 57 6
-5 5 12 1016 129 6
-5 5 11 2961 192 6
-5 4 11 6994 338 6
-5 4 10 6948 330 6
-5 3 10 1280 106 6
-6 6 15 1702 209 6
-6 6 14 435 147 6
-6 5 12 1369 156 6
-6 4 13 449 127 6
-6 4 11 256 101 6
-6 4 10 2850 180 6
-7 5 16 408 166 6
-7 4 14 511 129 6
-1 2 3 4920 206 6
-2 4 7 407 55 6
-2 4 6 160 48 6
-2 3 5 1373 64 6
-3 6 11 864 120 6
-3 6 10 463 102 6
-3 6 9 2398 159 6
-3 5 8 6669 300 6
-3 5 7 18168 760 6
-3 4 7 1841 100 6
-3 4 6 3418 154 6
-4 9 14 1258 283 6
-4 9 13 3845 394 6
-4 6 11 2013 163 6
-4 6 10 3213 198 6
-4 5 9 158 72 6
-5 8 15 373 178 6
-5 8 13 594 177 6
-5 7 13 404 140 6
-5 7 10 903 145 6
-6 9 14 1730 302 6
-6 8 14 443 185 6
-6 8 11 314 154 6
0 6 9 4474 281 6
0 5 8 16814 688 6
0 4 6 3006 140 6
0 3 5 6051 245 6
0 2 3 7314 284 6
-1 10 13 2051 620 6
-1 9 15 1674 413 6
-1 9 13 3099 464 6
-1 9 12 960 371 6
-1 8 14 1032 220 6
-1 8 13 532 236 6
-1 8 12 793 233 6
-1 8 11 1563 271 6
-1 7 11 562 163 6
-1 7 10 1838 207 6
-1 7 9 848 188 6
-1 6 8 5338 267 6
-1 6 7 5156 267 6
-1 5 7 6343 274 6
-1 5 6 31227 1230 6
-1 4 5 3554 155 6
-2 10 14 1169 439 6
-2 10 13 2884 521 6
-2 9 13 2170 381 6
-2 9 12 7877 642 6
-2 8 9 877 234 6
-2 7 10 515 119 6
-2 7 9 856 153 6
-2 7 8 637 142 6
-3 11 13 2508 520 6
-3 10 14 1658 419 6
-1 -4 5 5098 210 6
-1 -4 4 2727 116 6
-1 -5 6 7369 317 6
-1 -5 5 30416 1238 6
-1 -6 9 13115 581 6
-1 -6 8 220 98 6
-1 -6 7 3953 205 6
-1 -6 6 2234 136 6
-1 -7 10 1206 155 6
-1 -7 9 1958 173 6
-1 -7 8 1461 149 6
-1 -7 7 16071 696 6
-1 -8 12 1569 228 6
-1 -8 11 2366 239 6
-1 -8 9 2853 224 6
-1 -8 8 1234 154 6
-1 -9 14 617 262 6
-1 -9 10 682 185 6
-1 -9 9 1541 201 6
-1 -10 11 704 222 6
-2 -7 8 343 99 6
-2 -8 11 1662 195 6
-2 -8 10 1261 168 6
-2 -8 9 3303 234 6
-2 -8 8 2303 180 6
-2 -9 8 316 137 6
-2 -10 11 1148 251 6
-3 -10 12 366 179 6
-3 1 5 37957 1489 6
-3 1 4 208 26 6
-4 2 6 183 37 6
-4 1 6 1629 75 6
-4 1 5 111 33 6
-5 2 9 2446 130 6
-5 2 8 1098 81 6
-5 2 7 2176 109 6
-6 3 10 2671 157 6
-6 3 9 327 82 6
-6 2 10 2710 155 6
-6 2 9 790 90 6
-6 2 8 815 83 6
-7 3 13 633 136 6
-7 3 11 444 117 6
-7 3 10 612 108 6
-7 2 11 2902 181 6
-7 2 10 1023 115 6
-7 2 9 636 96 6
-8 3 13 2573 212 6
-8 3 11 1023 139 6
-8 2 13 881 149 6
-8 2 12 2330 190 6
-8 2 11 426 116 6
-9 2 12 435 138 6
-2 2 3 160 20 6
-3 3 5 944 52 6
-3 2 4 3350 129 6
-4 4 7 1541 93 6
-4 4 6 7917 318 6
-4 3 6 761 57 6
-4 3 5 20390 772 6
-5 5 9 3856 199 6
-5 5 8 5045 236 6
-5 5 7 296 90 6
-5 4 8 903 87 6
-5 4 7 4941 219 6
-5 4 6 503 75 6
-6 6 11 1607 160 6
-6 5 9 360 99 6
-6 5 8 1223 120 6
-6 4 8 810 91 6
-7 7 13 309 151 6
-7 7 11 368 142 6
-7 6 11 289 132 6
-7 6 10 654 134 6
-7 5 10 2076 168 6
-7 5 9 1040 127 6
-1 2 2 3885 147 6
-2 5 6 6737 276 6
-2 5 5 2002 113 6
-2 4 5 29913 1140 6
-2 4 4 12156 472 6
-2 3 3 15860 596 6
-3 7 9 3020 206 6
-3 7 8 694 138 6
-3 7 7 525 148 6
-3 6 7 1086 117 6
-3 6 5 4325 228 6
-3 5 6 776 70 6
-3 5 5 6291 264 6
-3 5 4 11485 457 6
-3 4 4 16879 652 6
-3 4 3 433 60 6
-4 9 9 990 284 6
-4 8 8 516 199 6
-4 8 7 623 228 6
-4 7 8 1432 166 6
-4 7 7 783 150 6
-4 7 6 11662 555 6
-4 6 7 1619 130 6
-4 6 6 8981 390 6
-4 6 5 10302 448 6
-5 9 8 851 327 6
-5 8 8 870 218 6
-5 8 7 786 225 6
-5 7 8 551 144 6
-5 7 7 601 158 6
-5 7 6 16342 739 6
-6 10 12 855 282 6
-6 8 7 860 244 6
1 6 9 1962 312 6
0 8 10 1118 427 6
0 6 7 1918 244 6
0 6 6 1714 355 6
0 5 6 11683 478 6
0 5 5 8726 467 6
0 4 5 253 58 6
0 4 4 59871 2264 6
0 3 3 7075 256 6
0 2 2 554 31 6
0 1 1 34677 1209 6
-1 7 7 2878 310 6
-1 7 6 1912 352 6
-1 6 6 969 137 6
-1 5 4 4211 224 6
-1 5 3 5510 422 6
-1 4 3 37655 1318 6
-2 9 8 1579 473 6
-1 -3 3 15672 604 6
-2 -4 4 988 53 6
-2 -4 3 2838 112 6
-2 -5 6 1124 81 6
-2 -5 5 606 60 6
-2 -5 4 29706 1108 6
-2 -6 6 1086 88 6
-3 -6 7 1948 120 6
-3 -6 6 1696 109 6
-3 -6 5 14623 572 6
-3 -6 4 374 50 6
-3 -7 8 11116 478 6
-3 -7 7 4793 234 6
-3 -7 6 350 93 6
-3 -7 5 2063 126 6
-3 -8 10 1664 182 6
-3 -8 9 1711 174 6
-3 -8 8 7448 359 6
-3 -8 6 13800 577 6
-3 -9 8 1606 184 6
-3 -9 7 1966 175 6
-4 -7 8 4377 227 6
-4 -8 9 1158 151 6
-4 -8 7 5421 276 6
-4 -8 6 780 114 6
-4 -9 10 454 147 6
-4 -9 8 1326 167 6
-4 -9 7 775 141 6
-4 -10 12 988 212 6
-4 -11 10 724 190 6
-5 -9 9 683 151 6
-5 -10 10 395 166 6
-5 -10 8 2035 216 6
-5 -10 7 2589 227 6
-5 -11 8 404 157 6
-5 -12 9 521 197 6
-6 -12 8 415 159 6
-3 0 4 930 46 6
-4 0 5 7984 305 6
-4 0 4 12701 489 6
-5 0 6 5722 228 6
-5 0 5 505 48 6
-6 0 7 1852 106 6
-6 0 6 1746 99 6
-7 0 9 501 97 6
-7 0 8 1114 104 6
-7 0 7 1443 109 6
-8 1 11 325 114 6
-8 1 9 340 108 6
-8 0 10 274 115 6
-8 -1 10 428 128 6
-9 1 11 313 142 6
-9 0 9 433 117 6
-3 1 3 22223 875 6
-4 2 5 743 51 6
-4 2 4 731 48 6
-5 2 6 5245 215 6
-5 2 5 555 58 6
-6 3 6 6334 279 6
-6 2 5 1713 104 6
-7 4 9 311 107 6
-7 4 8 2127 160 6
-7 3 8 1343 125 6
-7 3 7 244 93 6
-7 3 6 1216 121 6
-7 2 7 2802 159 6
-8 4 9 414 128 6
-8 3 9 1275 143 6
-8 3 7 2161 172 6
-9 5 11 810 172 6
-9 4 9 317 146 6
-9 4 8 371 150 6
-9 3 8 347 130 6
-10 3 10 404 150 6
-10 3 8 369 145 6
-2 2 2 1855 68 6
-3 3 3 30022 1059 6
-3 2 2 1647 64 6
-4 4 4 610 70 6
-4 4 3 207 68 6
-4 3 3 2471 107 6
-5 5 6 2493 142 6
-5 5 5 7747 320 6
-5 4 5 1052 85 6
-5 4 3 409 80 6
-6 6 7 3079 204 6
-6 6 6 6217 313 6
-6 6 5 13809 585 6
-6 5 6 267 103 6
-6 5 5 3227 184 6
-6 5 4 3209 188 6
-6 4 5 515 86 6
-6 4 3 442 94 6
-7 7 7 5926 374 6
-7 7 5 1581 257 6
-7 6 7 727 159 6
-7 6 6 1154 179 6
-7 5 6 3163 200 6
-7 5 4 353 131 6
-7 4 3 2135 155 6
-8 6 7 1899 212 6
-8 6 6 5264 342 6
-8 5 5 1292 158 6
-9 7 8 1515 279 6
-9 6 8 594 164 6
-9 6 7 540 207 6
-1 2 1 5092 172 6
-1 1 0 63958 2149 6
-2 3 1 6569 229 6
-2 2 0 20146 681 6
-3 8 6 3607 402 6
-3 7 5 31392 1306 6
-3 7 4 3480 383 6
-3 6 4 3347 221 6
-3 6 3 14014 661 6
-3 5 3 2566 145 6
-3 5 2 7196 329 6
-3 5 1 1715 262 6
-3 4 1 5962 242 6
-3 3 0 417 72 6
-4 7 4 731 251 6
-4 7 3 668 297 6
-4 6 3 2889 233 6
-4 5 2 5647 260 6
-4 5 1 374 175 6
-5 10 7 2313 604 6
-5 9 6 1108 348 6
-5 8 5 977 341 6
-5 7 4 5092 398 6
-5 7 3 1834 352 6
-5 7 2 1155 362 6
-5 6 3 5006 299 6
-5 5 1 6859 368 6
-5 5 0 1250 271 6
-6 7 3 709 275 6
-6 6 1 729 305 6
-6 6 0 1495 401 6
-6 5 0 1293 257 6
-7 8 3 1155 425 6
-7 6 0 3101 530 6
-4 0 3 10780 450 6
-5 0 4 803 54 6
-5 0 3 26685 1086 6
-6 1 5 132 60 6
-6 0 5 8784 375 6
-6 0 4 16456 686 6
-7 1 5 3023 165 6
-7 0 4 10420 460 6
-8 0 6 2534 162 6
-8 0 5 5244 267 6
-9 1 6 706 126 6
-10 1 7 330 134 6
-10 0 7 275 131 6
-10 0 6 752 147 6
-4 2 3 2145 92 6
-4 2 2 3964 161 6
-5 2 3 524 56 6
-5 2 2 4787 205 6
-6 3 4 809 89 6
-6 3 3 325 80 6
-6 2 3 271 65 6
-7 3 5 3133 173 6
-7 3 4 3445 189 6
-7 3 3 1036 110 6
-7 2 4 1712 119 6
-7 2 3 1735 124 6
-8 3 5 231 105 6
-8 3 3 1328 146 6
-8 2 3 2921 184 6
-9 5 7 747 182 6
-9 4 4 430 152 6
-9 3 5 407 127 6
-9 3 4 351 132 6
-10 5 7 636 202 6
-10 5 6 701 189 6
-10 3 4 315 144 6
-11 3 5 413 160 6
-2 1 0 2920 118 6
-3 2 1 9581 381 6
-3 2 0 30579 1245 6
-4 3 1 27370 1130 6
-4 2 0 11454 479 6
-5 4 2 5781 276 6
-5 4 1 615 117 6
-5 3 0 11219 492 6
-5 2 0 11704 497 6
-6 4 2 1100 129 6
-6 4 0 434 167 6
-6 3 1 936 107 6
-7 5 2 1359 209 6
-7 4 2 569 141 6
-7 3 0 2485 202 6
-8 5 2 1975 281 6
-8 5 0 2652 451 6
-8 4 0 931 237 6
-8 3 -1 1552 234 6
-9 6 2 1191 374 6
-9 6 1 1620 459 6
-9 5 0 958 357 6
-9 4 -1 2238 426 6
-9 3 -1 978 273 6
-1 0 -1 5356 202 6
-2 1 -1 191 28 6
-2 0 -2 551 44 6
-3 3 -1 17301 871 6
-3 2 -2 804 199 6
-3 1 -2 1173 84 6
-3 0 -3 8547 362 6
-4 3 -2 693 293 6
-4 2 -2 3054 193 6
-4 2 -3 1327 322 6
-4 1 -3 9611 455 6
-4 0 -4 23118 1117 6
-4 -1 -5 8777 691 6
-5 4 -2 3173 593 6
-5 2 -3 16273 871 6
-5 1 -4 643 275 6
-6 3 -3 1835 402 6
-6 2 -4 3160 521 6
-6 1 -5 3449 601 6
-7 0 -6 9028 952 6
-8 -1 -7 3668 790 6
6 -8 -13 403 163 7
6 -8 -14 482 173 7
6 -9 -14 1886 246 7
5 -6 -10 1730 156 7
5 -6 -11 792 136 7
5 -7 -10 1654 160 7
5 -7 -11 295 129 7
5 -7 -12 393 129 7
5 -8 -11 465 132 7
5 -8 -13 1364 186 7
5 -8 -14 522 174 7
5 -9 -13 567 185 7
4 -5 -8 2887 167 7
4 -5 -9 220 88 7
4 -6 -10 5174 283 7
4 -7 -10 251 107 7
3 -4 -6 5256 248 7
3 -4 -7 2595 134 7
3 -5 -7 27541 1262 7
3 -5 -8 10296 485 7
2 -3 -5 2064 103 7
8 -7 -8 529 175 7
8 -7 -9 328 158 7
8 -8 -9 590 172 7
7 -6 -7 1236 157 7
7 -6 -9 240 117 7
7 -7 -7 8590 443 7
7 -7 -8 433 147 7
7 -7 -9 284 126 7
7 -8 -9 268 133 7
6 -5 -6 253 97 7
6 -5 -7 1965 149 7
6 -6 -6 9158 430 7
6 -6 -7 4473 244 7
6 -6 -8 1337 133 7
6 -7 -7 3425 220 7
6 -7 -8 886 130 7
6 -7 -9 581 114 7
5 -4 -6 395 75 7
5 -5 -5 10942 480 7
5 -5 -6 3209 170 7
5 -5 -7 639 79 7
5 -6 -6 2503 152 7
4 -4 -4 679 59 7
4 -4 -5 9112 385 7
3 -3 -3 36275 1482 7
3 -3 -4 10575 439 7
10 -6 -7 780 282 7
9 -6 -5 514 206 7
8 -4 -4 349 145 7
8 -5 -4 407 153 7
8 -5 -5 1163 174 7
7 -3 -3 675 119 7
7 -3 -4 3587 214 7
7 -3 -5 3010 189 7
7 -4 -3 2391 186 7
7 -4 -4 243 119 7
7 -4 -5 476 118 7
7 -5 -3 787 141 7
7 -5 -4 463 126 7
6 -3 -3 471 96 7
6 -3 -4 1100 106 7
6 -4 -3 451 96 7
5 -3 -2 7418 323 7
5 -3 -3 8764 375 7
4 -2 -2 4556 194 7
4 -3 -2 405 47 7
3 -2 -2 1976 85 7
2 -1 -1 3586 159 7
11 0 -6 1818 510 7
10 0 -5 2410 505 7
10 -1 -3 1025 474 7
10 -2 -3 1666 420 7
10 -2 -4 960 354 7
9 0 -3 1063 414 7
9 0 -4 916 365 7
9 0 -5 4131 452 7
9 -1 -4 657 290 7
8 0 -4 11011 640 7
8 -1 -2 2259 324 7
8 -1 -3 1105 226 7
8 -2 -2 4340 352 7
8 -2 -3 2184 250 7
7 0 -3 1759 213 7
7 0 -4 8038 410 7
7 -1 -2 512 161 7
7 -1 -3 6840 350 7
6 0 -2 369 127 7
6 0 -3 46713 1852 7
6 -1 -1 2359 176 7
6 -1 -2 1498 134 7
5 0 -2 347 85 7
5 -1 -1 3171 161 7
5 -1 -2 35502 1404 7
4 0 -2 208159 8224 7
4 -1 -1 702 61 7
3 0 -1 332 32 7
2 0 -1 196628 7619 7
-1 -1 -5 7171 297 7
-1 -1 -6 8159 322 7
-1 -1 -7 21309 843 7
-1 -1 -8 232 49 7
-1 -1 -9 4049 181 7
-1 -1 -10 1977 118 7
-1 -1 -11 13288 567 7
-1 -1 -12 6785 316 7
-2 -1 -11 1017 110 7
-2 -1 -12 2716 177 7
-2 -1 -14 330 134 7
-2 -2 -10 12668 529 7
-2 -2 -11 3195 169 7
-2 -2 -12 713 106 7
-2 -2 -13 5014 260 7
-2 -2 -14 2071 170 7
-2 -2 -16 3885 276 7
-2 -2 -17 2065 240 7
-2 -3 -15 1309 147 7
-2 -3 -16 1228 170 7
-2 -3 -17 8532 460 7
-3 -2 -14 314 124 7
-3 -2 -15 832 168 7
-3 -2 -17 1585 242 7
-3 -3 -17 9763 525 7
-3 -4 -20 568 224 7
7 -10 -10 469 165 7
7 -11 -10 343 165 7
6 -9 -9 383 139 7
6 -9 -10 619 145 7
6 -10 -9 379 139 7
6 -11 -12 474 168 7
5 -7 -7 1111 108 7
5 -7 -8 1042 117 7
5 -8 -7 1162 126 7
5 -8 -8 1291 135 7
5 -9 -8 2664 185 7
5 -9 -9 1301 148 7
5 -10 -9 750 142 7
5 -11 -10 315 143 7
4 -6 -6 13112 534 7
4 -6 -7 2705 141 7
4 -7 -7 902 95 7
4 -7 -8 2067 130 7
4 -8 -7 906 113 7
4 -8 -8 592 104 7
4 -8 -9 248 92 7
3 -4 -5 1620 73 7
3 -5 -5 8470 331 7
3 -5 -6 703 55 7
3 -6 -6 154 59 7
2 -3 -3 18515 756 7
2 -4 -4 13747 534 7
9 -9 -4 789 262 7
8 -8 -5 442 178 7
8 -8 -6 429 175 7
7 -6 -5 674 125 7
7 -7 -4 529 151 7
7 -7 -5 2431 201 7
7 -8 -4 527 151 7
7 -8 -5 646 162 7
7 -9 -4 896 182 7
7 -9 -6 492 164 7
6 -6 -3 584 115 7
6 -6 -4 843 124 7
6 -6 -5 21520 856 7
6 -7 -3 765 133 7
6 -7 -4 243 112 7
6 -7 -5 419 120 7
6 -8 -4 1252 147 7
6 -8 -5 775 135 7
6 -9 -4 804 158 7
5 -5 -4 275 79 7
5 -6 -3 8532 361 7
5 -6 -4 5456 249 7
5 -7 -3 3089 179 7
5 -7 -4 9670 408 7
4 -4 -2 179 58 7
4 -4 -3 262 54 7
4 -5 -3 7791 312 7
3 -3 -2 13014 484 7
3 -4 -2 214 40 7
2 -2 -1 1921 79 7
10 -5 -1 1382 504 7
10 -5 -3 1009 333 7
9 -6 -1 888 370 7
8 -4 0 805 292 7
8 -5 0 2546 397 7
8 -5 -1 686 243 7
8 -5 -2 2357 272 7
8 -8 1 2609 511 7
7 -3 -1 3301 252 7
7 -5 0 792 227 7
7 -5 -1 408 172 7
7 -6 0 4108 358 7
7 -6 -1 1449 219 7
7 -7 1 773 259 7
6 -3 -1 1072 129 7
6 -4 0 483 137 7
6 -5 0 1885 191 7
6 -5 -1 8871 402 7
5 -3 0 12934 520 7
5 -3 -1 194 83 7
5 -4 0 2263 149 7
5 -4 -1 209 91 7
4 -2 0 12140 472 7
4 -2 -1 44656 1697 7
4 -3 0 4045 178 7
4 -3 -1 33971 1296 7
3 -2 0 35571 1345 7
2 -1 0 2738 104 7
7 1 -2 5691 532 7
7 0 -1 2434 372 7
7 -1 0 1103 318 7
6 1 -1 2579 411 7
6 1 -2 36216 1564 7
6 0 -1 10821 526 7
6 -1 0 408 170 7
5 1 -1 20044 947 7
5 1 -2 8483 371 7
5 0 0 3057 261 7
4 1 -1 46957 1854 7
4 0 0 34770 1282 7
3 1 -1 17213 627 7
3 0 0 975 64 7
3 -1 1 4458 173 7
2 0 0 8471 304 7
1 0 0 10383 374 7
-1 -2 -6 10475 402 7
-1 -2 -7 38278 1402 7
-1 -2 -8 16422 611 7
-2 -3 -8 97515 3608 7
-2 -3 -9 21521 815 7
-2 -3 -10 424 71 7
-2 -3 -11 478 87 7
-2 -3 -12 4316 209 7
-2 -4 -11 202 78 7
-2 -4 -12 608 96 7
-2 -4 -13 488 107 7
-2 -4 -14 3115 192 7
-2 -4 -16 1335 166 7
-3 -4 -11 4937 224 7
-3 -4 -12 871 112 7
-3 -4 -13 12165 515 7
-3 -4 -15 2400 196 7
-3 -4 -16 355 146 7
-3 -5 -13 435 109 7
-3 -5 -14 792 131 7
-3 -5 -17 809 178 7
-3 -6 -16 4056 265 7
-3 -6 -17 1527 208 7
-3 -6 -18 2267 247 7
-3 -7 -19 1453 232 7
-4 -5 -15 564 155 7
-4 -5 -16 974 185 7
-4 -5 -20 1589 291 7
-4 -6 -15 2493 210 7
-4 -6 -16 8060 426 7
-4 -6 -17 1240 209 7
-4 -6 -18 444 182 7
-4 -6 -20 1986 296 7
-4 -7 -19 378 188 7
-4 -7 -20 474 188 7
-5 -6 -19 575 191 7
-5 -7 -18 2049 261 7
4 -10 -10 855 151 7
4 -11 -11 1627 196 7
4 -11 -12 874 181 7
4 -11 -13 1625 220 7
4 -12 -11 490 180 7
3 -7 -8 1339 102 7
3 -8 -7 6766 300 7
3 -8 -8 187 92 7
3 -8 -9 336 101 7
3 -9 -8 3334 193 7
3 -9 -9 491 118 7
3 -9 -10 291 109 7
3 -10 -11 1060 155 7
3 -11 -10 577 144 7
3 -11 -11 705 166 7
3 -11 -12 403 155 7
3 -11 -13 3727 268 7
3 -12 -11 5369 335 7
3 -12 -13 1281 216 7
2 -5 -5 2936 122 7
2 -5 -6 9671 372 7
2 -6 -6 2764 123 7
2 -6 -7 2387 113 7
2 -7 -7 5282 226 7
2 -7 -8 1517 103 7
2 -8 -7 910 85 7
2 -8 -8 867 95 7
2 -8 -9 1813 129 7
2 -9 -8 2213 146 7
2 -9 -9 508 105 7
2 -10 -9 1355 139 7
1 -4 -4 1008 52 7
6 -10 -5 431 174 7
6 -10 -7 483 183 7
6 -11 -5 854 208 7
6 -11 -7 696 191 7
5 -8 -5 1566 156 7
5 -8 -6 5902 297 7
5 -9 -4 438 147 7
5 -9 -5 1440 172 7
5 -9 -6 667 137 7
5 -10 -7 2404 211 7
5 -11 -5 437 166 7
5 -12 -6 1307 245 7
5 -12 -7 435 208 7
5 -12 -8 1573 242 7
5 -13 -7 478 222 7
5 -13 -8 791 236 7
4 -7 -4 1335 117 7
4 -7 -5 6596 294 7
4 -8 -4 399 113 7
4 -8 -5 419 110 7
4 -8 -6 3331 188 7
4 -9 -6 662 124 7
4 -10 -5 1349 161 7
4 -10 -6 2161 178 7
4 -11 -6 956 164 7
3 -5 -3 4188 172 7
3 -6 -3 24491 951 7
3 -6 -4 5655 235 7
3 -7 -4 6034 261 7
3 -7 -5 50498 1957 7
3 -8 -4 4723 227 7
2 -4 -3 1145 52 7
2 -5 -3 9124 346 7
8 -10 1 1867 460 7
8 -10 0 1348 450 7
7 -8 -2 832 185 7
7 -9 0 2681 414 7
7 -10 -1 785 302 7
7 -10 -3 484 186 7
7 -11 -2 925 288 7
6 -7 0 1665 218 7
6 -7 -2 300 131 7
6 -9 0 1104 276 7
6 -9 -1 1049 214 7
6 -9 -2 460 172 7
6 -10 -1 452 206 7
6 -11 0 1234 323 7
5 -5 -1 9698 383 7
5 -6 0 2075 166 7
5 -7 0 2018 189 7
5 -7 -2 845 125 7
5 -8 -1 1892 184 7
5 -8 -2 1413 148 7
5 -9 -1 952 178 7
5 -10 0 1485 265 7
4 -4 -1 255 63 7
4 -5 0 16443 609 7
4 -5 -1 708 86 7
4 -6 0 2290 148 7
4 -6 -1 1614 113 7
4 -7 0 438 120 7
4 -7 -1 1825 136 7
3 -4 0 191 58 7
3 -4 -1 10693 383 7
3 -5 0 24727 897 7
3 -5 -1 3788 155 7
2 -3 0 41538 1434 7
2 -4 0 2142 86 7
7 -3 1 729 305 7
7 -4 2 8529 712 7
7 -6 3 1262 495 7
6 -3 2 5576 483 7
6 -3 1 3338 271 7
6 -4 2 1225 310 7
6 -5 2 607 267 7
6 -8 4 2563 638 7
5 -4 3 23143 1169 7
5 -4 2 2858 250 7
5 -5 3 1257 320 7
5 -5 2 489 182 7
5 -6 4 1515 490 7
5 -7 4 2510 462 7
5 -7 3 9295 649 7
5 -8 4 2134 541 7
4 -2 1 319 86 7
4 -3 2 1217 152 7
4 -3 1 140 68 7
4 -4 3 1718 268 7
4 -4 2 5829 272 7
4 -5 3 1813 251 7
4 -5 2 4032 230 7
4 -6 3 754 227 7
4 -8 5 4215 819 7
3 -2 1 32431 1087 7
3 -3 2 4327 187 7
3 -3 1 29046 981 7
3 -4 3 7484 383 7
3 -4 2 3782 176 7
3 -5 3 2631 225 7
3 -7 4 13546 803 7
2 -2 1 24512 826 7
2 -3 2 237 67 7
3 -9 -7 3962 220 7
3 -10 -6 6800 353 7
3 -10 -7 5275 295 7
3 -11 -6 534 140 7
3 -12 -7 2474 233 7
3 -12 -8 364 148 7
3 -12 -9 898 175 7
3 -13 -8 1369 217 7
3 -13 -9 526 183 7
3 -14 -8 1815 275 7
3 -14 -9 2834 316 7
2 -6 -4 16949 697 7
2 -7 -4 16858 715 7
2 -7 -5 47460 1981 7
2 -8 -5 3403 179 7
2 -8 -6 1108 97 7
2 -9 -5 2610 162 7
2 -9 -7 234 95 7
2 -10 -6 4133 236 7
2 -10 -7 571 114 7
2 -10 -8 316 100 7
2 -11 -7 830 144 7
2 -11 -8 1904 174 7
2 -12 -7 488 161 7
2 -13 -8 357 160 7
1 -4 -3 37842 1639 7
1 -5 -3 9526 388 7
1 -5 -4 6133 253 7
1 -6 -4 20783 848 7
6 -12 -3 840 251 7
5 -10 -3 1603 198 7
5 -11 -3 363 175 7
5 -12 -2 498 249 7
5 -12 -3 1846 288 7
5 -13 -3 1414 321 7
4 -8 -2 257 99 7
4 -9 -3 3669 228 7
4 -10 -2 645 162 7
4 -11 -4 461 156 7
4 -12 -2 1060 243 7
4 -12 -3 1577 233 7
4 -12 -4 1783 229 7
4 -13 -2 934 281 7
4 -13 -4 559 213 7
3 -6 -2 17589 714 7
3 -7 -1 897 100 7
3 -7 -2 7527 331 7
3 -8 -1 1939 151 7
3 -8 -2 283 104 7
3 -9 -2 5260 275 7
3 -10 -2 3396 226 7
3 -10 -3 1801 162 7
3 -11 -2 316 155 7
3 -11 -3 468 148 7
3 -12 -2 3525 308 7
3 -12 -3 418 177 7
2 -4 -1 3418 137 7
2 -5 -1 23462 924 7
2 -6 -1 822 75 7
2 -6 -2 7256 298 7
2 -7 -2 1495 100 7
2 -8 -2 3852 194 7
2 -9 -2 8783 394 7
1 -4 -1 2358 96 7
6 -10 2 3222 576 7
5 -9 3 5151 707 7
5 -9 2 2066 406 7
4 -8 3 12293 856 7
4 -8 2 552 232 7
4 -9 2 1530 313 7
4 -9 1 2033 285 7
4 -10 3 5611 687 7
4 -10 2 6861 604 7
4 -10 1 549 242 7
4 -11 1 2814 414 7
3 -5 1 2427 148 7
3 -6 2 35816 1513 7
3 -6 1 2239 158 7
3 -7 2 537 162 7
3 -7 1 4292 247 7
3 -8 3 1468 309 7
3 -8 2 613 200 7
3 -9 3 2297 404 7
3 -9 2 10218 612 7
3 -10 3 1968 455 7
3 -10 2 1771 349 7
2 -4 1 1127 79 7
2 -5 2 11021 478 7
2 -5 1 20567 854 7
2 -6 2 18389 789 7
2 -6 1 5223 249 7
2 -7 2 6922 358 7
2 -7 1 276 98 7
2 -8 2 345 163 7
2 -9 2 3926 319 7
1 -3 1 1493 70 7
1 -4 1 1423 78 7
1 -5 1 17227 712 7
2 -5 4 1787 356 7
1 -2 2 38961 1517 7
1 -4 3 2841 204 7
1 -5 4 16163 990 7
1 -5 3 9839 451 7
1 -8 5 6100 846 7
0 -3 2 858 70 7
0 -4 3 6161 351 7
0 -5 3 14932 662 7
0 -6 4 1780 350 7
0 -7 4 726 304 7
-1 -3 2 6438 283 7
-1 -4 3 9248 584 7
-1 -4 2 5503 234 7
-1 -5 3 1257 204 7
-1 -6 4 27270 1671 7
-1 -6 3 3381 250 7
-1 -7 4 1541 360 7
-2 -6 3 1005 258 7
-2 -7 4 2837 566 7
11 -4 6 358 177 8
10 -3 6 516 166 8
10 -3 3 1204 170 8
9 -2 5 1864 176 8
9 -2 4 736 139 8
9 -3 4 861 148 8
9 -3 3 958 147 8
8 -2 4 4449 263 8
8 -2 3 3170 206 8
8 -3 4 4067 256 8
8 -3 3 12336 625 8
7 -2 4 1967 143 8
7 -2 3 14655 709 8
7 -3 4 2682 175 8
7 -3 3 10685 529 8
6 -2 3 18383 866 8
5 -2 3 26033 1185 8
5 -2 2 3733 180 8
4 -1 2 2398 115 8
11 1 10 1922 280 8
11 0 10 537 216 8
11 -1 8 433 152 8
10 1 9 435 169 8
10 0 9 337 161 8
10 0 7 337 143 8
10 -1 9 315 148 8
10 -1 8 1160 172 8
9 0 9 457 142 8
9 0 8 816 144 8
9 0 7 2394 197 8
9 -1 7 527 135 8
8 0 8 226 110 8
8 0 7 359 111 8
8 0 6 416 107 8
8 0 5 2361 158 8
8 -1 6 776 119 8
7 0 7 246 91 8
7 0 6 18273 793 8
7 0 5 1826 127 8
7 -1 5 322 73 8
6 0 6 15615 669 8
6 0 5 926 82 8
6 0 4 1075 80 8
5 0 5 456 51 8
5 0 4 8040 336 8
4 0 4 38530 1564 8
4 0 3 5192 218 8
3 0 3 14834 634 8
3 0 2 5944 266 8
11 3 9 489 212 8
10 4 9 950 240 8
10 3 10 903 235 8
9 4 10 637 236 8
9 3 11 518 201 8
9 3 10 1090 212 8
9 3 8 423 142 8
9 2 9 1183 180 8
8 3 10 908 177 8
8 3 9 323 148 8
8 3 8 547 142 8
8 3 7 514 134 8
8 2 7 1064 129 8
7 3 7 7496 365 8
7 2 8 2582 178 8
7 2 6 268 92 8
6 2 8 586 103 8
6 2 6 332 86 8
6 2 5 712 85 8
5 2 6 1160 90 8
5 2 5 16136 674 8
4 1 4 1312 67 8
3 1 4 548 32 8
3 1 3 1530 68 8
10 7 8 2193 527 8
9 6 9 1303 442 8
9 5 5 5394 421 8
9 5 4 2313 306 8
8 6 9 2404 405 8
8 6 8 1131 390 8
8 6 6 892 332 8
8 6 5 1183 365 8
7 5 6 16551 849 8
7 5 5 3497 325 8
7 4 5 5977 305 8
7 4 4 4434 248 8
7 4 3 1712 159 8
6 4 5 12994 565 8
6 4 4 2888 186 8
6 4 3 6161 304 8
5 4 6 13515 598 8
5 3 4 208 70 8
5 3 3 3387 160 8
5 3 2 12228 495 8
4 3 4 516 69 8
4 3 3 2412 119 8
3 2 3 8577 343 8
3 2 2 9575 383 8
6 -10 -14 561 237 8
5 -6 -9 1598 149 8
5 -7 -9 686 121 8
5 -7 -10 1372 168 8
5 -10 -13 991 250 8
4 -6 -8 579 105 8
4 -7 -8 2093 157 8
4 -7 -9 606 123 8
4 -8 -10 401 134 8
4 -9 -10 618 148 8
4 -9 -11 313 156 8
3 -4 -6 5264 227 8
3 -5 -6 771 74 8
3 -5 -7 26643 1099 8
3 -6 -7 1415 110 8
3 -6 -8 4461 225 8
3 -7 -8 832 114 8
2 -3 -4 40314 1603 8
2 -4 -5 39854 1575 8
9 -2 8 422 134 8
9 -2 7 235 117 8
9 -3 8 736 153 8
9 -4 10 854 178 8
9 -4 7 1225 158 8
8 -2 8 306 124 8
8 -2 7 938 128 8
8 -2 6 1023 124 8
8 -3 9 1365 159 8
8 -3 7 2271 175 8
7 -2 6 6544 298 8
7 -2 5 1645 110 8
7 -3 7 355 102 8
6 -2 6 2425 135 8
6 -2 5 4904 217 8
5 -1 5 234 53 8
5 -1 4 594 49 8
5 -2 5 2693 127 8
5 -2 4 28164 1079 8
4 -1 4 2238 96 8
4 -1 3 17093 655 8
3 -1 3 49529 1985 8
10 0 12 1115 231 8
9 1 14 560 237 8
9 1 13 569 194 8
9 1 12 2415 277 8
9 1 11 5372 349 8
9 0 11 2589 245 8
8 1 13 412 185 8
8 1 12 1084 210 8
8 1 10 805 158 8
8 0 13 3536 289 8
8 0 12 2580 231 8
8 0 10 1176 156 8
7 1 9 2559 172 8
7 1 8 930 115 8
7 0 12 6162 344 8
7 0 11 1242 156 8
7 0 10 416 123 8
7 0 9 2393 167 8
6 1 9 413 101 8
6 1 8 17458 692 8
6 1 7 11216 455 8
6 0 8 834 101 8
6 0 7 289 69 8
5 1 7 4884 214 8
5 0 8 2240 130 8
5 0 7 32908 1262 8
5 0 6 8674 343 8
4 0 7 30394 1162 8
4 0 6 2398 108 8
4 0 5 177 41 8
3 0 5 11670 435 8
3 0 4 270 29 8
2 0 3 211 16 8
8 5 13 1405 374 8
8 4 16 1844 525 8
8 4 15 2903 565 8
8 4 13 952 329 8
7 4 13 1036 333 8
7 4 11 2015 295 8
7 4 8 532 159 8
7 3 11 2161 238 8
6 4 9 929 186 8
6 3 14 872 307 8
6 3 12 5747 395 8
6 3 10 999 164 8
6 3 9 2200 180 8
6 3 8 1954 155 8
5 3 12 2946 295 8
5 3 11 766 181 8
5 3 9 1071 146 8
5 3 8 12413 514 8
5 3 6 32151 1230 8
5 2 8 224 80 8
4 3 7 42553 1622 8
4 2 9 2661 161 8
4 2 8 1996 127 8
4 2 7 721 84 8
3 2 6 24040 918 8
3 2 5 3892 163 8
2 1 4 6141 229 8
2 1 3 9380 348 8
7 6 4 3102 587 8
6 5 4 1300 242 8
6 5 3 4131 393 8
6 5 2 3342 400 8
5 5 8 1228 353 8
5 5 7 26289 1366 8
5 5 6 4192 436 8
5 4 2 1163 151 8
4 4 6 18122 809 8
4 4 5 2144 222 8
4 4 4 5526 341 8
4 4 2 27214 1372 8
3 3 5 180 80 8
3 3 4 9881 372 8
3 3 3 5320 221 8
3 3 2 5358 243 8
2 2 3 3217 122 8
2 2 2 9639 342 8
2 2 1 544 43 8
1 1 1 43009 1501 8
5 -9 -8 2363 197 8
5 -10 -7 2071 192 8
5 -10 -8 1309 185 8
5 -10 -9 767 181 8
5 -12 -8 1329 232 8
5 -13 -9 523 235 8
4 -8 -6 3039 179 8
4 -8 -7 954 126 8
4 -9 -6 681 123 8
4 -9 -8 322 134 8
4 -10 -7 1730 174 8
4 -12 -10 565 200 8
4 -12 -11 417 201 8
3 -6 -5 7211 290 8
3 -7 -5 51461 1979 8
3 -8 -6 5539 257 8
3 -8 -7 6250 289 8
3 -9 -7 3819 217 8
3 -9 -8 3356 211 8
3 -10 -7 4938 275 8
2 -4 -3 458 34 8
2 -5 -4 833 54 8
2 -6 -4 17882 672 8
2 -6 -5 25595 972 8
9 -5 9 2160 261 8
9 -6 9 493 213 8
9 -6 8 3216 299 8
8 -6 9 563 198 8
8 -6 8 720 179 8
8 -6 7 646 151 8
8 -7 9 2452 273 8
7 -5 7 1628 168 8
7 -5 6 3578 221 8
7 -5 5 620 121 8
7 -6 6 797 145 8
7 -6 5 990 149 8
6 -4 6 743 108 8
6 -5 6 369 106 8
6 -5 5 2655 163 8
6 -5 4 388 95 8
5 -3 5 5144 223 8
5 -3 4 11933 469 8
5 -4 5 726 87 8
5 -4 4 1054 89 8
4 -3 4 8044 314 8
4 -3 3 38452 1457 8
3 -2 3 10639 420 8
8 -3 14 677 228 8
8 -3 13 1285 234 8
8 -3 12 618 208 8
8 -3 11 813 182 8
7 -2 13 689 195 8
7 -2 9 579 129 8
7 -3 13 1243 204 8
7 -3 12 684 189 8
7 -3 11 1045 180 8
7 -3 10 306 140 8
7 -3 9 1499 154 8
6 -1 10 5748 296 8
6 -1 9 308 111 8
6 -1 8 7265 327 8
6 -2 10 1590 164 8
6 -2 9 1283 135 8
6 -2 8 932 117 8
6 -3 11 923 155 8
6 -3 10 2402 189 8
6 -3 9 279 109 8
5 -1 9 1346 126 8
5 -1 8 3812 190 8
5 -1 7 34894 1366 8
5 -2 8 563 95 8
5 -2 7 13894 559 8
4 -1 7 28155 1093 8
4 -1 6 3686 157 8
4 -1 5 323 41 8
4 -2 7 4598 201 8
4 -2 6 3743 159 8
3 -1 5 7975 303 8
3 -1 4 14363 538 8
8 2 14 697 247 8
8 0 16 518 247 8
7 2 15 1316 304 8
7 2 12 433 175 8
7 1 15 677 252 8
7 1 14 498 212 8
7 0 14 408 187 8
6 2 15 1148 288 8
6 2 14 3429 354 8
6 1 13 3035 271 8
6 0 17 1180 339 8
6 0 14 5696 372 8
6 0 13 3457 257 8
5 1 14 7683 462 8
5 1 13 11052 522 8
5 1 10 7970 336 8
5 0 15 947 229 8
5 0 14 2892 267 8
5 0 13 9031 436 8
5 0 12 3150 215 8
5 0 11 1048 127 8
5 0 10 5768 255 8
4 1 11 1171 142 8
4 1 9 18679 690 8
4 1 8 24650 898 8
4 1 7 3021 132 8
4 0 12 3198 208 8
4 0 10 228 95 8
4 0 9 2052 127 8
4 0 8 7284 282 8
3 1 8 6147 244 8
3 1 7 2192 105 8
3 1 6 22161 794 8
3 0 9 3986 180 8
3 0 8 62975 2255 8
3 0 7 1799 90 8
3 0 6 4300 159 8
2 0 6 90 40 8
2 0 5 57118 1976 8
2 0 4 18373 653 8
5 4 14 1526 494 8
5 4 12 5275 481 8
5 3 16 7241 736 8
4 4 9 1431 273 8
4 3 16 4088 712 8
4 3 13 6622 549 8
4 3 11 3016 275 8
3 3 13 3863 529 8
3 3 12 781 329 8
3 3 11 734 276 8
3 3 10 1403 255 8
3 3 9 14009 625 8
3 3 8 2480 205 8
3 3 7 42327 1493 8
3 2 13 3118 372 8
3 2 12 5249 368 8
3 2 11 471 163 8
3 2 10 6434 299 8
2 2 13 2933 447 8
2 2 11 1781 300 8
2 2 10 7537 412 8
2 2 9 3317 219 8
2 2 7 212 85 8
2 2 6 24304 816 8
2 2 5 14194 481 8
1 1 10 881 198 8
1 1 9 2191 178 8
1 1 7 15282 526 8
1 1 6 6585 234 8
1 1 5 5467 193 8
1 1 4 14968 505 8
1 1 3 7784 261 8
8 -6 11 532 230 8
7 -5 11 1379 228 8
7 -5 10 3216 267 8
7 -6 11 2098 258 8
7 -6 10 1205 224 8
6 -4 9 966 143 8
6 -4 8 234 113 8
6 -5 11 5298 355 8
6 -5 10 655 162 8
6 -6 11 532 185 8
6 -6 10 670 186 8
6 -6 9 783 165 8
6 -6 8 1489 165 8
6 -7 11 2031 262 8
5 -3 7 459 79 8
5 -4 9 6462 334 8
5 -5 8 3787 224 8
5 -5 7 5554 284 8
5 -6 10 19116 895 8
4 -3 7 957 92 8
4 -3 6 5069 231 8
4 -4 7 2571 149 8
4 -4 6 619 79 8
4 -5 8 228 91 8
3 -2 5 43703 1776 8
3 -2 4 38657 1561 8
3 -3 5 17556 719 8
3 -3 4 11399 471 8
2 -2 3 17945 793 8
7 -2 16 625 265 8
7 -2 15 2641 327 8
6 -2 17 767 259 8
6 -2 13 310 149 8
6 -3 15 1329 245 8
6 -3 14 2174 257 8
5 -1 12 8153 408 8
5 -1 11 1230 145 8
5 -2 16 3665 398 8
5 -2 14 473 187 8
5 -2 11 352 114 8
5 -3 14 783 202 8
5 -3 13 685 168 8
5 -3 12 3348 237 8
4 -1 11 10114 456 8
4 -1 9 10871 466 8
4 -2 11 3881 224 8
4 -2 10 3218 186 8
4 -2 9 296 89 8
4 -3 14 3710 302 8
4 -3 13 1082 184 8
4 -3 12 1700 175 8
4 -3 11 2778 187 8
3 -1 10 808 90 8
3 -1 9 8113 354 8
3 -1 8 52928 2118 8
3 -1 7 23915 951 8
3 -2 10 323 94 8
3 -2 9 5065 237 8
3 -2 8 7570 322 8
2 -1 6 5921 235 8
2 -1 5 27579 1085 8
2 -2 7 5435 226 8
4 1 16 890 405 8
4 0 18 1817 521 8
3 1 16 1094 425 8
3 1 15 9229 772 8
3 1 14 7950 611 8
3 1 11 5888 322 8
3 0 17 1083 436 8
3 0 16 962 398 8
3 0 15 4907 487 8
3 0 14 8766 567 8
3 0 13 4580 328 8
3 0 12 823 159 8
3 -1 18 2028 600 8
3 -1 17 2081 460 8
3 -1 16 1487 360 8
2 0 16 2856 567 8
2 0 15 3057 500 8
2 0 13 2421 286 8
2 0 11 273 134 8
2 0 10 4877 255 8
2 0 9 39017 1605 8
2 0 8 22696 941 8
2 -1 16 952 402 8
2 -1 15 3568 439 8
2 -1 14 3534 360 8
2 -1 12 12620 599 8
2 -1 11 1959 159 8
2 -2 17 3217 546 8
1 0 10 3228 216 8
1 0 9 55990 2297 8
1 0 8 869 93 8
1 0 7 10327 435 8
1 0 6 6814 284 8
1 0 5 1397 65 8
1 0 4 19620 767 8
1 -1 12 4657 328 8
1 -1 10 10821 489 8
1 -1 9 41590 1713 8
1 -1 8 37465 1545 8
0 0 11 1800 344 8
0 0 10 30556 1506 8
0 0 9 24846 1132 8
0 0 8 313 136 8
0 0 7 1971 131 8
0 0 6 41009 1576 8
0 0 5 16331 635 8
0 0 4 14264 552 8
0 0 3 6533 247 8
0 0 2 53477 2087 8
-1 -1 11 9951 822 8
-1 -1 10 13458 880 8
-1 -1 9 26846 1392 8
-1 -1 8 7662 462 8
-1 -1 7 6739 359 8
-1 -1 6 2487 163 8
-1 -1 5 24368 957 8
-1 -1 4 351 59 8
-1 -1 3 248 41 8
-2 -2 9 2984 512 8
-2 -2 8 2453 405 8
-2 -2 6 15798 891 8
-2 -2 5 3951 328 8
-2 -3 8 19545 972 8
6 -7 -9 637 130 9
5 -5 -8 7900 401 9
5 -6 -7 220 85 9
5 -6 -8 226 96 9
5 -6 -9 2089 159 9
5 -7 -8 963 123 9
5 -7 -9 529 117 9
5 -7 -10 1596 162 9
4 -4 -6 11134 517 9
4 -5 -6 5025 250 9
4 -5 -7 3671 195 9
4 -6 -7 2861 164 9
3 -4 -5 1782 95 9
3 -4 -6 5207 243 9
9 -6 -7 976 178 9
9 -6 -8 392 169 9
9 -7 -6 509 177 9
9 -7 -8 1701 230 9
9 -8 -6 384 178 9
8 -6 -6 7213 391 9
8 -6 -7 2160 204 9
8 -7 -7 416 146 9
8 -7 -8 475 152 9
8 -8 -6 511 167 9
7 -5 -6 4416 243 9
7 -6 -5 983 133 9
7 -6 -6 2266 181 9
7 -6 -7 1221 142 9
7 -7 -5 2850 204 9
7 -7 -7 7995 405 9
6 -4 -5 620 84 9
6 -5 -4 4606 233 9
6 -5 -5 4023 211 9
6 -5 -6 524 85 9
6 -6 -5 22923 993 9
6 -6 -6 9023 416 9
5 -4 -4 193 63 9
5 -5 -5 10989 475 9
4 -3 -3 3414 148 9
4 -4 -3 399 48 9
4 -4 -4 1004 58 9
3 -3 -3 34894 1416 9
11 -4 -5 532 225 9
10 -5 -2 495 222 9
10 -5 -3 1015 238 9
9 -3 -2 1001 210 9
9 -3 -4 446 152 9
9 -4 -4 539 161 9
8 -3 -3 1576 166 9
8 -4 -2 384 135 9
8 -4 -3 272 134 9
8 -5 -1 746 157 9
7 -3 -3 917 113 9
7 -4 -2 609 117 9
7 -4 -3 2926 183 9
6 -2 -2 12895 548 9
6 -2 -3 273 62 9
6 -3 -1 873 103 9
6 -3 -2 8910 393 9
5 -2 -1 5243 232 9
5 -2 -2 5598 243 9
5 -3 -1 311 63 9
5 -3 -2 7685 326 9
4 -2 -1 44203 1788 9
3 -1 -1 75771 3048 9
10 0 -1 1162 428 9
10 0 -2 1256 350 9
10 -1 -3 933 301 9
9 1 -3 2106 390 9
9 0 -2 895 317 9
9 0 -3 1312 292 9
9 -1 -1 770 275 9
8 1 -2 2479 349 9
8 0 -2 1564 246 9
8 0 -3 565 177 9
8 -1 -1 406 187 9
8 -1 -2 2227 207 9
7 1 -2 5984 387 9
7 0 -1 2896 235 9
7 0 -2 2220 193 9
7 0 -3 1822 160 9
7 -1 0 1340 180 9
7 -1 -1 858 134 9
6 0 -1 12509 530 9
6 0 -2 243 100 9
6 -1 -1 3058 167 9
5 0 -1 2296 126 9
5 0 -2 290 66 9
4 0 -1 316 53 9
3 0 -1 149 25 9
-1 -2 -7 38519 1515 9
-1 -2 -8 15729 626 9
-1 -2 -9 25889 1049 9
-1 -2 -10 285 74 9
-1 -2 -11 9147 400 9
-1 -3 -11 348 81 9
-1 -3 -12 1653 124 9
-1 -3 -13 516 112 9
-1 -3 -14 3204 206 9
-1 -3 -16 347 149 9
-1 -3 -18 7401 463 9
-1 -4 -14 12569 561 9
-1 -4 -16 2108 192 9
-1 -4 -18 1914 232 9
-1 -4 -19 1251 253 9
-1 -5 -21 807 252 9
-2 -3 -11 419 79 9
-2 -3 -12 4012 214 9
-2 -3 -14 9218 441 9
-2 -3 -15 974 162 9
-2 -3 -16 1281 189 9
-2 -3 -17 8154 482 9
-2 -4 -14 3081 199 9
-2 -4 -15 319 129 9
-2 -4 -16 1135 175 9
-2 -4 -17 3771 286 9
-2 -4 -18 3208 304 9
-2 -4 -19 4689 403 9
-2 -5 -21 1758 308 9
-2 -6 -21 2143 329 9
-3 -4 -20 597 272 9
-3 -5 -17 749 180 9
-3 -5 -20 582 235 9
8 -10 -9 332 164 9
7 -8 -7 1322 161 9
7 -9 -6 716 153 9
7 -9 -7 754 161 9
7 -9 -9 1020 155 9
7 -10 -7 463 146 9
7 -10 -8 316 155 9
6 -7 -6 1666 147 9
6 -7 -7 3720 213 9
6 -8 -6 506 122 9
6 -8 -7 1616 152 9
6 -8 -8 511 121 9
6 -9 -7 325 124 9
6 -10 -7 543 138 9
6 -10 -8 638 153 9
5 -6 -5 4310 204 9
5 -6 -6 2570 144 9
5 -7 -5 880 110 9
5 -7 -6 27569 1112 9
5 -7 -7 902 100 9
5 -8 -6 6014 288 9
5 -8 -7 1094 120 9
5 -9 -6 509 106 9
4 -5 -4 6766 276 9
4 -5 -5 308 58 9
4 -6 -4 52036 2036 9
4 -6 -5 15984 636 9
4 -7 -5 6813 294 9
3 -4 -3 644 46 9
3 -4 -4 20270 786 9
3 -5 -4 15487 595 9
2 -3 -2 12764 537 9
9 -7 -2 418 200 9
8 -6 -2 496 149 9
7 -5 -3 799 124 9
7 -6 -1 2010 183 9
7 -6 -2 316 122 9
7 -8 -2 744 156 9
7 -8 -3 848 140 9
6 -5 -1 10858 452 9
6 -5 -3 1332 109 9
6 -6 -1 1247 126 9
6 -6 -3 403 101 9
6 -7 -2 250 106 9
5 -4 -1 536 81 9
5 -4 -2 8386 337 9
5 -5 -1 11666 470 9
5 -5 -2 1818 112 9
4 -3 -1 33931 1278 9
4 -4 -1 329 54 9
4 -4 -2 210 48 9
3 -3 -1 31730 1176 9
10 -3 2 2243 607 9
10 -3 -1 713 304 9
10 -4 1 847 340 9
9 -3 2 3077 521 9
9 -3 1 1294 361 9
9 -3 0 588 249 9
9 -4 1 1710 359 9
9 -6 1 956 284 9
8 -3 2 856 301 9
8 -3 1 1094 241 9
8 -3 0 2346 241 9
8 -4 0 914 195 9
8 -6 3 796 348 9
7 -2 0 351 130 9
7 -3 2 2310 275 9
7 -3 1 678 165 9
7 -3 0 2370 187 9
7 -4 2 8555 493 9
7 -4 1 1550 190 9
7 -5 2 471 193 9
6 -2 1 1472 143 9
6 -3 2 6067 321 9
6 -3 1 4529 237 9
6 -4 2 1496 172 9
6 -4 1 2898 189 9
5 -2 0 13688 535 9
5 -3 1 4478 208 9
4 -2 1 288 63 9
4 -2 0 13583 521 9
3 -1 0 12361 458 9
3 -2 1 34937 1321 9
2 -1 0 3488 138 9
7 1 -1 428 200 9
7 0 1 938 301 9
7 -1 2 3232 394 9
6 1 -1 2918 232 9
6 0 2 1312 363 9
6 0 1 8857 494 9
5 1 0 381 187 9
5 1 -1 19989 752 9
5 0 2 2679 347 9
5 0 1 1009 160 9
5 -1 3 4005 370 9
4 1 0 1821 171 9
4 1 -1 50841 1771 9
4 0 1 255 89 9
4 -1 3 11927 618 9
3 0 1 2712 117 9
-1 -2 -5 2726 110 9
-1 -2 -6 10757 399 9
-1 -3 -7 2916 118 9
-1 -3 -8 61491 2266 9
-1 -3 -9 11908 454 9
-1 -4 -9 15967 598 9
-1 -4 -10 2650 129 9
-1 -4 -11 1690 111 9
-1 -4 -12 3901 190 9
-2 -4 -10 201 75 9
-2 -4 -11 187 85 9
-2 -4 -12 512 91 9
-2 -5 -11 1271 106 9
-2 -5 -12 5018 237 9
-2 -5 -14 1589 147 9
-2 -6 -13 586 122 9
-2 -6 -14 878 141 9
-2 -6 -15 659 140 9
-2 -6 -16 2958 228 9
-2 -6 -17 10339 514 9
-2 -6 -18 1601 234 9
-2 -7 -15 427 133 9
-2 -7 -16 1389 181 9
-2 -7 -18 2605 260 9
-2 -8 -19 2020 255 9
-3 -6 -14 3140 207 9
-3 -6 -15 1945 187 9
-3 -6 -16 3551 265 9
-3 -6 -17 1751 233 9
-3 -6 -18 1694 253 9
-3 -7 -15 1441 178 9
-3 -7 -16 2501 233 9
-3 -7 -17 1313 204 9
-3 -7 -19 1592 250 9
-3 -8 -17 1531 213 9
-3 -8 -19 1904 272 9
-4 -9 -19 497 232 9
6 -12 -10 358 178 9
5 -9 -9 825 138 9
5 -10 -8 1314 175 9
5 -10 -9 863 160 9
5 -11 -8 324 157 9
5 -11 -10 406 163 9
5 -11 -11 494 167 9
5 -13 -9 535 199 9
4 -8 -6 3143 174 9
4 -8 -7 1178 113 9
4 -8 -8 708 104 9
4 -9 -8 577 119 9
4 -10 -7 1686 167 9
4 -11 -8 306 140 9
4 -11 -9 542 143 9
4 -11 -10 441 150 9
4 -12 -10 500 163 9
3 -6 -5 6957 279 9
3 -6 -6 177 53 9
3 -7 -5 49734 1938 9
3 -8 -6 5072 235 9
3 -8 -7 6364 285 9
3 -9 -7 3990 209 9
3 -9 -8 3258 185 9
3 -10 -7 5378 274 9
2 -4 -3 786 42 9
2 -4 -4 14659 576 9
2 -5 -4 581 47 9
2 -6 -5 22370 852 9
2 -7 -5 44373 1697 9
7 -9 -4 664 180 9
7 -9 -5 302 142 9
7 -12 -3 772 252 9
7 -12 -4 484 241 9
6 -8 -4 850 151 9
6 -9 -2 604 167 9
6 -9 -4 1286 175 9
6 -9 -5 1890 182 9
6 -10 -3 703 178 9
6 -10 -5 735 161 9
6 -11 -3 605 190 9
6 -11 -5 779 190 9
6 -12 -4 462 206 9
6 -12 -5 695 206 9
5 -7 -2 1090 125 9
5 -7 -3 3175 184 9
5 -8 -2 1514 153 9
5 -8 -3 733 123 9
5 -8 -4 737 122 9
5 -9 -3 2794 202 9
5 -9 -4 554 125 9
5 -9 -5 1834 161 9
5 -10 -3 1688 184 9
5 -10 -4 536 143 9
4 -6 -2 302 81 9
4 -6 -3 3945 182 9
4 -7 -2 694 96 9
4 -7 -3 486 91 9
4 -8 -3 2878 171 9
3 -4 -2 138 38 9
3 -5 -2 12891 489 9
3 -6 -2 17744 688 9
2 -3 -1 9604 375 9
9 -8 0 630 280 9
9 -9 1 994 399 9
8 -8 1 1679 328 9
8 -8 0 507 226 9
8 -9 1 1143 293 9
8 -9 0 689 230 9
8 -10 0 1366 315 9
7 -6 1 647 166 9
7 -6 0 5006 293 9
7 -7 2 3918 362 9
7 -8 2 1495 287 9
7 -8 1 767 225 9
7 -9 3 1194 364 9
7 -9 2 1777 348 9
7 -9 1 1116 250 9
7 -9 0 2511 294 9
6 -5 1 5922 286 9
6 -5 0 2629 172 9
6 -6 2 566 159 9
6 -6 0 1483 152 9
6 -7 2 1046 191 9
6 -7 0 2082 179 9
6 -8 2 5993 398 9
6 -9 2 598 240 9
6 -9 1 597 212 9
6 -10 2 2736 357 9
5 -4 0 2784 139 9
5 -5 1 4106 203 9
5 -5 0 2432 141 9
5 -6 2 534 140 9
5 -6 1 20251 765 9
5 -6 0 2225 149 9
5 -7 2 1268 172 9
5 -9 2 1848 239 9
4 -4 1 3582 158 9
4 -4 0 350 61 9
4 -5 1 6901 277 9
4 -5 0 18373 673 9
4 -6 1 8643 347 9
3 -3 1 29995 1067 9
3 -3 0 1438 62 9
3 -4 1 16674 601 9
3 -4 0 322 44 9
3 -5 1 2616 122 9
2 -2 0 25997 938 9
8 -3 4 2230 576 9
7 -3 4 1178 451 9
7 -5 5 1136 405 9
7 -5 4 1230 346 9
7 -6 5 1106 464 9
6 -2 3 12842 678 9
6 -3 4 21540 1100 9
6 -3 3 1669 243 9
6 -4 4 4791 423 9
6 -5 5 1546 408 9
6 -5 4 710 255 9
6 -6 6 1766 548 9
6 -6 5 2517 443 9
5 -2 3 17905 746 9
5 -3 5 3358 518 9
5 -3 4 7709 480 9
5 -3 3 7297 344 9
5 -4 3 25344 924 9
5 -5 6 1109 467 9
5 -5 5 660 316 9
5 -6 6 3375 531 9
4 -2 3 1566 152 9
4 -2 2 3844 162 9
4 -3 4 5642 349 9
4 -3 3 27131 941 9
4 -4 5 12106 708 9
4 -4 4 7536 374 9
4 -6 6 3969 523 9
3 -2 3 6466 260 9
3 -2 2 1979 94 9
3 -3 4 6426 335 9
3 -4 4 32562 1168 9
3 -5 5 760 236 9
2 -1 1 789 33 9
2 -2 2 594 49 9
1 -1 1 18056 610 9
5 -12 -5 2131 248 9
5 -12 -6 1624 229 9
5 -13 -7 487 209 9
4 -10 -4 904 140 9
4 -10 -5 1133 147 9
4 -10 -6 1414 151 9
4 -11 -4 636 154 9
4 -11 -5 1129 166 9
4 -11 -6 671 150 9
4 -12 -5 565 171 9
4 -12 -7 1232 192 9
4 -13 -5 436 180 9
4 -13 -6 2623 273 9
4 -13 -7 1284 244 9
4 -13 -8 1122 204 9
3 -7 -4 5776 263 9
3 -8 -4 4767 236 9
3 -9 -4 1555 134 9
3 -10 -4 1278 141 9
3 -10 -5 562 123 9
3 -10 -6 7111 357 9
3 -12 -5 2789 247 9
3 -12 -6 1305 184 9
3 -13 -6 1317 212 9
2 -5 -2 8882 367 9
2 -5 -3 8706 360 9
2 -6 -3 74196 3015 9
2 -7 -3 1396 92 9
2 -7 -4 15950 665 9
1 -4 -2 1021 50 9
6 -9 -1 807 171 9
6 -11 -1 575 201 9
5 -8 -1 2534 182 9
5 -9 -1 1299 166 9
5 -10 1 981 226 9
5 -10 0 1912 235 9
5 -11 1 517 232 9
5 -11 0 857 220 9
5 -11 -1 2367 262 9
5 -12 -1 958 233 9
5 -12 -2 577 199 9
4 -7 0 757 111 9
4 -7 -1 1893 127 9
4 -8 -1 929 120 9
4 -9 1 3414 243 9
4 -9 0 2229 192 9
4 -9 -1 2972 203 9
4 -11 0 531 171 9
4 -11 -1 640 161 9
4 -13 0 492 223 9
3 -5 0 25392 1014 9
3 -6 0 327 75 9
3 -6 -1 215 59 9
3 -7 0 434 93 9
3 -7 -1 1142 97 9
3 -8 0 5001 250 9
3 -8 -1 2079 137 9
3 -9 0 2972 197 9
3 -10 0 1106 149 9
2 -4 0 2028 88 9
2 -5 0 1307 73 9
2 -6 0 4354 191 9
1 -3 0 27681 1149 9
6 -8 4 2093 443 9
5 -7 4 1804 340 9
5 -8 4 1556 347 9
5 -9 4 3153 431 9
4 -5 3 1428 166 9
4 -6 3 719 153 9
4 -7 3 4699 309 9
4 -8 5 5378 557 9
4 -8 4 899 267 9
4 -8 3 14341 726 9
3 -4 2 4777 219 9
3 -5 3 4074 225 9
3 -5 2 8446 370 9
3 -6 3 408 131 9
3 -6 2 45752 1880 9
3 -7 5 6740 534 9
3 -7 4 13587 694 9
3 -7 3 2984 228 9
3 -8 5 4499 491 9
3 -8 4 6373 441 9
3 -9 5 3687 492 9
3 -9 4 8569 583 9
3 -10 5 1164 394 9
3 -12 5 1783 487 9
2 -3 2 461 52 9
2 -4 3 11026 468 9
2 -4 2 8985 379 9
2 -5 3 3427 187 9
2 -5 2 13576 571 9
2 -6 3 4034 224 9
2 -7 3 667 138 9
2 -8 4 21354 1024 9
1 -2 1 38481 1538 9
1 -4 2 17810 728 9
2 -4 5 14385 867 9
2 -6 6 3818 547 9
1 -2 3 1229 118 9
1 -3 4 828 217 9
1 -3 3 6497 269 9
1 -4 5 26718 1624 9
1 -4 4 11292 519 9
1 -5 5 9459 616 9
1 -6 6 2822 564 9
1 -7 6 10055 850 9
0 -1 1 15515 585 9
0 -2 2 35143 1355 9
0 -3 3 4081 195 9
0 -4 4 7505 443 9
0 -5 5 661 332 9
0 -5 4 655 149 9
0 -7 6 3332 649 9
-1 -3 2 8071 319 9
-1 -4 3 9741 429 9
-1 -5 4 15174 806 9
-1 -6 5 949 420 9
-1 -7 5 927 335 9
-1 -8 6 3045 710 9
-2 -4 3 2032 281 9
-2 -6 4 11469 767 9
6 -7 -9 715 129 10
6 -7 -10 280 128 10
6 -8 -10 287 135 10
6 -9 -10 361 156 10
6 -9 -12 420 165 10
6 -9 -13 416 177 10
5 -6 -8 315 102 10
5 -6 -9 1956 155 10
5 -7 -8 1059 125 10
5 -7 -9 378 120 10
5 -7 -10 1742 165 10
4 -5 -6 5113 257 10
4 -5 -7 3770 199 10
4 -6 -7 2700 161 10
4 -6 -8 470 91 10
3 -4 -5 1744 93 10
3 -4 -6 5587 259 10
2 -3 -4 36547 1780 10
9 -7 -8 1685 236 10
9 -8 -8 383 175 10
9 -9 -8 458 193 10
8 -6 -7 2335 209 10
8 -7 -7 375 161 10
8 -7 -8 289 143 10
8 -8 -8 386 151 10
7 -6 -5 655 133 10
7 -6 -6 2440 183 10
7 -7 -5 2369 193 10
7 -7 -7 8642 435 10
7 -8 -6 279 140 10
6 -5 -4 4597 235 10
6 -5 -5 4242 221 10
6 -6 -5 22475 977 10
6 -6 -6 9343 433 10
6 -7 -5 294 106 10
5 -5 -4 305 76 10
5 -5 -5 11123 484 10
4 -4 -3 283 51 10
4 -4 -4 736 58 10
3 -3 -3 36411 1472 10
10 -5 -3 691 235 10
9 -6 -2 1059 231 10
8 -4 -3 369 138 10
8 -5 -2 2563 233 10
7 -3 -3 869 121 10
7 -4 -2 463 122 10
7 -4 -3 2837 185 10
7 -5 -1 795 140 10
7 -5 -2 2037 167 10
7 -5 -3 1025 125 10
6 -3 -1 999 103 10
6 -3 -2 9055 398 10
6 -4 -1 189 94 10
6 -4 -2 1157 110 10
5 -3 -1 329 72 10
5 -3 -2 8223 351 10
4 -2 -1 44497 1799 10
3 -2 -1 10747 433 10
10 -1 -3 1481 359 10
10 -2 0 1430 428 10
9 0 -1 855 315 10
9 0 -3 1053 314 10
9 -1 -1 572 282 10
9 -2 1 1787 433 10
9 -2 -1 543 250 10
8 0 -2 2169 283 10
8 -1 -2 2569 250 10
7 0 -1 2688 251 10
7 0 -2 2192 205 10
7 -1 0 1211 198 10
7 -1 -1 724 146 10
7 -1 -2 687 121 10
7 -2 -1 2329 170 10
6 0 -1 11814 517 10
6 0 -2 256 106 10
6 -1 0 282 115 10
6 -1 -1 3021 172 10
5 0 -1 2315 131 10
5 -1 0 4473 205 10
5 -1 -1 3992 179 10
4 0 -1 392 58 10
4 -1 0 702 61 10
0 -1 -7 12466 493 10
0 -2 -13 240 91 10
0 -2 -14 3193 204 10
0 -2 -15 2513 199 10
-1 -2 -9 26421 1066 10
-1 -2 -10 244 72 10
-1 -2 -11 9270 403 10
-1 -2 -13 8735 404 10
-1 -2 -14 4242 248 10
-1 -2 -16 1588 205 10
-1 -2 -17 708 186 10
-1 -3 -13 657 114 10
-1 -3 -14 3433 209 10
-1 -3 -17 442 160 10
-1 -3 -18 6923 443 10
-1 -4 -16 1527 174 10
-1 -4 -17 334 158 10
-1 -4 -18 1783 224 10
-1 -4 -19 676 234 10
-1 -4 -21 756 251 10
-1 -5 -21 466 229 10
-2 -3 -12 3697 198 10
-2 -3 -13 255 110 10
-2 -3 -14 8092 398 10
-2 -3 -15 1112 162 10
-2 -3 -16 986 181 10
-2 -3 -17 8590 487 10
-2 -4 -17 4726 315 10
-2 -4 -18 3171 300 10
-2 -4 -19 4390 384 10
-2 -5 -21 1338 282 10
-3 -4 -20 623 260 10
-3 -5 -20 458 217 10
-3 -5 -21 1793 339 10
7 -9 -9 849 170 10
7 -10 -8 876 176 10
7 -10 -9 316 153 10
6 -8 -6 470 115 10
6 -8 -7 1464 152 10
6 -8 -8 373 114 10
6 -10 -7 402 152 10
6 -10 -8 516 152 10
6 -10 -9 299 134 10
6 -12 -8 424 186 10
5 -7 -5 816 111 10
5 -7 -6 26490 1073 10
5 -8 -6 5971 286 10
5 -8 -7 1001 120 10
5 -9 -6 484 118 10
5 -9 -7 285 112 10
5 -9 -8 2569 176 10
5 -10 -7 2710 197 10
4 -5 -5 404 52 10
4 -6 -4 53767 2105 10
4 -6 -5 16083 642 10
4 -7 -5 6437 282 10
4 -7 -6 18540 749 10
3 -4 -3 906 47 10
3 -4 -4 20609 792 10
3 -5 -4 15940 611 10
3 -6 -4 5823 236 10
2 -3 -2 13508 562 10
8 -11 -3 438 197 10
7 -7 -1 779 164 10
7 -7 -3 322 126 10
7 -8 -2 591 157 10
7 -8 -3 625 159 10
7 -8 -4 363 141 10
7 -9 -3 858 171 10
7 -9 -4 758 161 10
6 -5 -3 1529 112 10
6 -6 -1 1116 135 10
6 -6 -3 392 105 10
6 -7 -2 605 116 10
6 -7 -3 941 122 10
6 -8 -2 313 127 10
5 -5 -1 11711 473 10
5 -5 -2 1924 119 10
5 -6 -2 758 97 10
5 -6 -3 8612 358 10
4 -4 -1 220 58 10
4 -4 -2 169 50 10
4 -5 -1 876 77 10
4 -5 -2 9095 358 10
3 -3 -1 32611 1205 10
3 -4 -1 10406 389 10
9 -4 1 2093 422 10
8 -4 1 569 234 10
8 -4 0 505 214 10
8 -5 0 3145 295 10
7 -3 2 2624 300 10
7 -3 1 455 179 10
7 -3 0 2088 199 10
7 -4 2 8255 521 10
7 -4 1 1081 202 10
7 -4 0 496 140 10
7 -5 1 390 179 10
7 -6 3 1282 333 10
7 -6 2 489 234 10
6 -3 1 4683 253 10
6 -4 2 1402 183 10
6 -4 1 2817 195 10
6 -4 0 620 100 10
6 -5 2 477 170 10
6 -5 1 5125 287 10
5 -2 0 13552 531 10
5 -3 1 4066 198 10
5 -3 0 15518 606 10
5 -4 2 3361 203 10
5 -4 1 1525 125 10
4 -2 1 238 67 10
4 -2 0 13658 526 10
3 -2 1 35598 1351 10
3 -2 0 36701 1357 10
2 -1 0 3479 137 10
8 1 -1 1217 421 10
8 -2 3 1917 616 10
7 0 1 1271 370 10
7 -1 2 2972 452 10
6 1 -1 2841 280 10
6 0 1 8491 539 10
6 -1 2 2909 341 10
5 1 -1 19724 778 10
5 0 1 1413 212 10
5 -1 2 22013 954 10
4 1 0 2099 207 10
4 0 1 237 116 10
4 -1 2 1371 142 10
3 0 1 2413 120 10
3 -1 2 1071 83 10
-1 -2 -5 2940 120 10
-1 -2 -6 10530 394 10
-1 -3 -7 3120 123 10
-1 -3 -8 62387 2306 10
-1 -3 -9 12015 453 10
-1 -3 -10 20162 772 10
-1 -4 -10 2563 125 10
-1 -4 -11 1842 112 10
-1 -4 -12 3728 183 10
-1 -4 -13 559 108 10
-1 -4 -14 12668 536 10
-1 -5 -16 305 127 10
-2 -4 -10 222 73 10
-2 -4 -12 693 104 10
-2 -4 -13 227 114 10
-2 -5 -12 5235 242 10
-2 -5 -14 1469 145 10
-2 -5 -17 1438 203 10
-2 -6 -14 933 134 10
-2 -6 -15 882 142 10
-2 -6 -16 3002 226 10
-2 -6 -17 10015 497 10
-2 -6 -18 1555 232 10
-2 -6 -21 2497 322 10
-2 -7 -18 2971 267 10
-2 -8 -19 2365 263 10
-3 -5 -17 946 187 10
-3 -6 -14 2976 199 10
-3 -6 -15 1716 181 10
-3 -6 -16 4061 277 10
-3 -6 -17 1304 223 10
-3 -6 -18 2165 261 10
-3 -7 -16 2417 230 10
-3 -7 -17 1216 208 10
-3 -7 -19 1328 248 10
-3 -8 -19 2307 272 10
5 -11 -11 369 169 10
5 -12 -10 508 171 10
5 -12 -12 1298 234 10
4 -9 -8 420 123 10
4 -9 -9 1040 130 10
4 -10 -7 1611 167 10
4 -10 -10 780 142 10
4 -11 -9 288 138 10
4 -11 -11 1653 182 10
4 -12 -10 516 166 10
4 -13 -10 389 180 10
3 -7 -5 50154 1954 10
3 -7 -7 968 85 10
3 -8 -6 5623 256 10
3 -8 -7 6311 283 10
3 -8 -8 192 84 10
3 -9 -7 4396 222 10
3 -9 -8 3277 189 10
3 -9 -9 461 112 10
3 -10 -8 4180 237 10
3 -12 -9 865 163 10
2 -5 -4 703 50 10
2 -5 -5 3176 129 10
2 -6 -5 22972 875 10
2 -6 -6 2860 123 10
2 -7 -5 45273 1737 10
2 -7 -6 470 67 10
2 -8 -6 655 83 10
1 -4 -3 35662 1475 10
7 -12 -4 486 236 10
6 -9 -4 1027 172 10
6 -10 -3 494 184 10
6 -10 -5 466 156 10
6 -11 -5 404 186 10
6 -12 -3 730 247 10
6 -12 -4 450 220 10
6 -12 -5 980 203 10
5 -8 -3 605 131 10
5 -8 -4 659 120 10
5 -9 -3 2544 199 10
5 -9 -5 1474 148 10
5 -10 -3 1962 203 10
5 -10 -4 548 150 10
5 -10 -5 362 137 10
5 -11 -3 502 165 10
5 -12 -4 600 182 10
5 -12 -5 2461 258 10
4 -6 -3 4417 201 10
4 -7 -2 430 98 10
4 -7 -3 490 93 10
4 -8 -3 2995 177 10
4 -8 -4 245 102 10
4 -9 -3 4690 252 10
4 -9 -4 4033 226 10
4 -10 -4 690 137 10
3 -5 -2 13147 499 10
3 -6 -2 18111 704 10
3 -6 -3 23791 915 10
3 -7 -2 7657 321 10
3 -7 -3 23906 937 10
2 -4 -1 3550 138 10
2 -4 -2 290 32 10
2 -5 -2 9231 349 10
8 -8 1 2479 381 10
8 -9 0 741 270 10
8 -10 1 719 346 10
8 -10 0 1002 352 10
7 -7 1 452 198 10
7 -8 2 1069 313 10
7 -8 1 1036 241 10
7 -9 3 946 425 10
7 -9 2 2772 421 10
7 -9 1 955 284 10
7 -9 0 2946 324 10
7 -10 0 542 241 10
6 -6 1 320 132 10
6 -6 0 1358 161 10
6 -7 2 1242 211 10
6 -7 0 1761 182 10
6 -8 2 5487 411 10
6 -9 2 1073 267 10
6 -9 0 1435 214 10
6 -10 2 2468 362 10
6 -10 1 4017 388 10
5 -5 0 2299 141 10
5 -6 2 764 150 10
5 -6 1 17993 693 10
5 -6 0 2447 155 10
5 -7 2 1184 183 10
5 -7 1 289 134 10
5 -7 0 2731 179 10
5 -9 2 2113 274 10
5 -9 1 7495 405 10
5 -11 2 750 242 10
4 -4 0 256 62 10
4 -5 1 6889 279 10
4 -5 0 18184 668 10
4 -6 1 8763 353 10
4 -6 0 2733 147 10
4 -7 1 6937 307 10
4 -8 1 248 123 10
3 -3 0 1396 62 10
3 -4 1 16443 595 10
3 -4 0 340 51 10
3 -5 1 2882 135 10
3 -5 0 25527 917 10
3 -6 1 2607 141 10
2 -2 0 27075 973 10
2 -3 0 41235 1444 10
7 -3 3 6510 572 10
6 -3 4 18952 1124 10
6 -3 3 2187 307 10
6 -4 4 4724 485 10
6 -5 5 1337 462 10
6 -6 5 2061 508 10
6 -6 4 2513 383 10
5 -2 2 2364 166 10
5 -3 4 8165 564 10
5 -3 3 8325 410 10
5 -4 3 25374 964 10
5 -5 4 577 254 10
5 -6 6 4715 708 10
5 -6 5 1280 393 10
5 -6 4 2241 302 10
5 -7 5 1390 369 10
4 -2 2 3767 170 10
4 -3 4 5244 392 10
4 -3 3 26542 951 10
4 -4 5 11591 806 10
4 -4 4 7152 406 10
4 -4 3 1865 163 10
4 -6 6 2254 577 10
4 -6 5 4979 473 10
3 -2 2 1888 97 10
3 -3 4 6480 389 10
3 -3 2 5632 207 10
3 -4 4 33056 1248 10
3 -4 3 9979 370 10
3 -5 5 838 290 10
3 -5 4 4809 280 10
3 -6 5 2637 341 10
3 -7 6 1639 406 10
2 -1 1 334 26 10
2 -2 2 601 53 10
2 -5 4 2125 172 10
1 -1 1 18248 611 10
4 -10 -6 1096 135 10
4 -11 -6 480 154 10
4 -12 -7 920 189 10
4 -13 -6 2441 273 10
4 -13 -7 1908 260 10
4 -13 -8 1166 204 10
3 -9 -4 1674 140 10
3 -10 -4 1054 141 10
3 -10 -5 634 126 10
3 -10 -6 6638 341 10
3 -11 -5 265 129 10
3 -11 -6 337 135 10
3 -11 -7 257 116 10
3 -12 -5 2742 236 10
3 -12 -6 1660 195 10
3 -12 -7 2077 216 10
3 -13 -6 1491 217 10
3 -13 -7 744 199 10
3 -13 -8 1146 210 10
3 -14 -6 1002 211 10
3 -14 -7 627 204 10
3 -14 -8 1694 242 10
2 -5 -3 8788 365 10
2 -6 -3 77817 3177 10
2 -7 -3 1293 91 10
2 -7 -4 16543 697 10
2 -8 -5 3529 177 10
2 -9 -5 2679 158 10
2 -10 -5 2071 157 10
2 -11 -5 300 130 10
1 -4 -2 858 47 10
5 -11 0 590 216 10
5 -11 -1 2360 279 10
5 -12 -1 792 238 10
5 -12 -2 737 218 10
5 -13 -1 655 245 10
4 -8 -1 913 125 10
4 -9 0 2468 203 10
4 -9 -1 3203 214 10
4 -10 1 335 162 10
4 -10 -2 514 142 10
4 -11 -1 775 181 10
4 -12 -1 1723 253 10
4 -12 -2 728 222 10
4 -13 -2 1425 254 10
3 -7 0 526 97 10
3 -7 -1 1129 100 10
3 -8 0 4827 248 10
3 -8 -1 2093 147 10
3 -9 0 3402 217 10
3 -9 -1 3200 198 10
3 -9 -2 5304 265 10
3 -10 0 824 162 10
3 -10 -1 637 141 10
3 -11 0 5499 350 10
3 -12 -1 431 184 10
3 -13 -1 1797 286 10
2 -5 0 1301 74 10
2 -5 -1 23690 923 10
2 -6 0 4241 190 10
2 -6 -1 693 65 10
2 -7 0 7196 315 10
1 -3 0 28349 1157 10
5 -8 4 1813 377 10
5 -9 4 3439 494 10
4 -6 3 697 174 10
4 -7 3 4312 313 10
4 -8 5 3417 538 10
4 -8 3 14491 760 10
4 -10 3 7081 567 10
3 -7 4 13350 717 10
3 -7 3 2845 234 10
3 -7 2 669 126 10
3 -8 5 4518 556 10
3 -8 4 5444 446 10
3 -8 3 1970 234 10
3 -9 5 3589 539 10
3 -9 4 8141 614 10
3 -9 3 2928 308 10
3 -10 5 1420 450 10
2 -4 2 8810 374 10
2 -5 3 3182 187 10
2 -5 2 13374 565 10
2 -6 4 489 138 10
2 -6 3 3613 218 10
2 -6 2 21726 907 10
2 -7 4 6648 414 10
2 -7 3 441 148 10
2 -8 4 21502 1067 10
2 -9 3 2577 260 10
2 -10 4 9696 702 10
2 -11 4 698 347 10
1 -2 1 39428 1545 10
1 -3 2 33335 1356 10
1 -3 1 1676 71 10
1 -4 2 18080 744 10
1 -5 2 193 73 10
2 -4 5 15669 1106 10
1 -4 4 10979 554 10
1 -5 5 8958 660 10
1 -6 5 892 305 10
1 -7 6 10671 977 10
0 -1 1 16003 602 10
0 -2 2 33354 1278 10
0 -3 3 3910 208 10
0 -4 4 7572 493 10
0 -4 3 7260 305 10
0 -5 4 711 197 10
0 -6 5 885 349 10
0 -8 6 1603 484 10
-1 -3 2 8465 336 10
-1 -4 3 9772 449 10
-1 -5 4 12303 731 10
-1 -6 4 30019 1423 10
-2 -4 3 2529 330 10
-2 -6 4 13352 861 10
-2 -7 4 2024 350 10
4 -9 9 375 168 11
4 -9 8 415 163 11
3 -7 8 896 138 11
3 -7 7 2991 204 11
3 -7 6 1558 143 11
3 -8 9 3546 264 11
3 -8 8 463 138 11
3 -8 7 2818 212 11
3 -9 8 3127 250 11
3 -9 7 2425 208 11
3 -10 11 706 217 11
3 -10 9 912 191 11
3 -10 8 978 192 11
3 -11 9 822 214 11
2 -5 6 911 78 11
2 -5 5 255 62 11
2 -6 6 6175 315 11
2 -8 8 1797 172 11
2 -8 7 1284 146 11
2 -8 6 7405 394 11
1 -3 3 7517 367 11
1 -4 4 15771 722 11
1 -4 3 4561 213 11
1 -5 8 2983 161 11
1 -6 10 704 121 11
1 -6 9 3359 194 11
1 -6 8 21780 939 11
1 -6 7 500 65 11
1 -7 12 356 144 11
1 -7 11 1579 176 11
1 -7 10 249 122 11
1 -7 9 1003 132 11
1 -8 13 352 176 11
1 -8 11 3010 236 11
1 -8 10 4762 285 11
1 -9 13 1314 241 11
1 -9 11 350 143 11
1 -10 12 604 187 11
0 -3 4 2781 118 11
0 -4 6 40045 1655 11
0 -4 5 3508 152 11
0 -5 8 187 76 11
0 -5 7 2081 120 11
0 -5 6 2218 116 11
0 -6 9 5119 265 11
0 -6 8 4048 212 11
0 -6 7 3558 183 11
0 -7 11 993 156 11
0 -7 10 1399 152 11
0 -7 9 501 116 11
0 -7 8 254 100 11
0 -8 13 594 202 11
0 -8 12 3245 272 11
0 -8 11 789 168 11
0 -8 10 3227 231 11
0 -8 9 1696 159 11
0 -9 14 530 225 11
0 -2 6 618 44 11
0 -2 5 9405 376 11
0 -3 9 839 92 11
0 -3 8 819 80 11
0 -4 12 4395 263 11
0 -4 11 902 130 11
0 -4 10 507 92 11
0 -5 14 8561 502 11
0 -5 13 816 166 11
-1 -3 8 17235 719 11
-1 -3 7 14762 618 11
-1 -3 6 5220 225 11
-1 -4 12 4298 278 11
-1 -4 10 914 122 11
-1 -4 9 370 94 11
-1 -4 8 2173 132 11
-1 -5 14 1666 257 11
-1 -5 11 5174 289 11
-1 -5 10 341 113 11
-1 -5 9 1120 112 11
-1 -6 16 612 286 11
-1 -6 15 2646 345 11
-1 -6 14 4137 370 11
-1 -6 13 14679 738 11
-1 -6 12 2090 210 11
-1 -6 11 467 133 11
-1 -7 15 714 266 11
-1 -7 14 1093 269 11
-2 -6 14 750 282 11
-2 -6 13 2004 264 11
-2 -6 12 1020 190 11
-2 -7 15 1663 385 11
-2 -7 14 1936 343 11
-2 -7 13 990 248 11
-2 -8 15 978 336 11
-3 -8 15 926 319 11
1 -1 18 1790 585 11
1 -1 17 2376 519 11
1 -1 14 14816 814 11
1 -1 12 6253 326 11
1 -2 19 2502 552 11
0 -1 16 4147 611 11
0 -1 15 2969 472 11
0 -1 14 1500 365 11
0 -1 13 6834 481 11
0 -1 12 2448 247 11
0 -1 11 5507 307 11
0 -1 10 596 125 11
0 -1 9 27359 1086 11
0 -1 8 326 74 11
0 -1 7 16026 643 11
0 -2 18 3071 641 11
0 -2 13 2104 216 11
-1 -2 11 2324 202 11
-1 -2 10 1718 157 11
-1 -2 9 5294 249 11
-1 -3 15 4231 466 11
-1 -3 14 1669 314 11
-1 -3 13 897 189 11
-2 -3 15 1627 455 11
10 -3 0 638 163 11
10 -3 -1 472 176 11
10 -4 -1 463 149 11
10 -4 -2 387 164 11
9 -2 -1 440 136 11
9 -2 -2 341 150 11
9 -3 -1 889 156 11
9 -3 -2 765 159 11
8 -2 0 557 112 11
8 -2 -2 4678 262 11
8 -3 -3 1565 157 11
7 -2 0 643 92 11
7 -2 -1 2890 167 11
7 -3 -1 4941 242 11
7 -3 -2 253 88 11
7 -3 -3 765 109 11
6 -2 -1 11953 502 11
6 -2 -2 13290 559 11
5 -1 -1 3921 171 11
5 -2 -1 5194 220 11
5 -2 -2 5508 234 11
4 -1 0 645 40 11
4 -1 -1 720 44 11
3 -1 -1 60908 2472 11
2 -12 8 320 158 11
1 -6 6 4892 213 11
1 -6 5 778 66 11
1 -6 4 291 44 11
1 -7 7 1209 113 11
1 -7 6 17547 710 11
1 -7 5 18580 742 11
1 -8 8 4311 235 11
1 -8 6 13694 572 11
1 -9 9 2181 188 11
1 -9 8 2661 193 11
1 -9 6 5716 280 11
1 -10 10 988 178 11
1 -10 9 1380 176 11
1 -10 8 923 153 11
1 -10 7 785 136 11
1 -11 10 1602 211 11
1 -11 8 516 151 11
1 -12 9 428 177 11
1 -12 8 441 174 11
0 -4 3 9117 354 11
0 -5 4 1259 67 11
0 -5 3 19908 764 11
0 -6 5 825 73 11
0 -6 4 2884 128 11
0 -7 6 6507 285 11
0 -7 5 10429 430 11
0 -7 4 1534 88 11
0 -8 7 5494 268 11
0 -8 6 1382 122 11
0 -8 5 31163 1243 11
0 -9 7 265 114 11
0 -9 6 1381 137 11
0 -10 8 300 134 11
0 -11 10 447 183 11
0 -11 9 675 170 11
0 -11 8 519 154 11
-1 -3 4 8796 328 11
-1 -3 3 16900 624 11
-1 -4 6 40933 1559 11
-1 -4 5 5532 217 11
-1 -4 4 2762 112 11
-1 -5 6 8853 352 11
-1 -5 5 35398 1335 11
-1 -6 9 15548 630 11
-1 -6 8 196 95 11
-1 -6 7 4845 219 11
-1 -6 6 2866 140 11
-1 -7 10 1467 155 11
-1 -7 9 2849 183 11
-1 -7 8 1854 141 11
-1 -7 7 19937 789 11
-1 -8 12 1937 219 11
-1 -8 11 2907 234 11
-1 -8 9 3734 222 11
-1 -8 8 1333 133 11
-1 -9 14 1371 273 11
-2 -6 8 1672 136 11
-2 -6 6 1273 95 11
-2 -7 9 260 125 11
-2 -7 8 279 114 11
-2 -7 7 7771 341 11
-2 -7 6 9027 378 11
-2 -8 11 1729 211 11
-2 -8 10 1592 180 11
-2 -8 9 4556 259 11
-2 -8 8 2735 190 11
-2 -9 11 612 179 11
-2 -10 11 2033 251 11
-2 -11 11 437 202 11
-3 -9 12 482 228 11
-3 -9 10 682 176 11
-3 -10 10 966 197 11
-3 -10 9 370 172 11
-1 -2 6 19286 738 11
-1 -2 5 12160 460 11
-1 -2 4 1261 54 11
-2 -3 9 611 128 11
-2 -3 8 26853 1038 11
-2 -3 7 10998 439 11
-2 -3 6 60432 2290 11
-2 -3 5 1656 90 11
-2 -4 12 463 196 11
-2 -4 11 572 162 11
-2 -4 10 2468 194 11
-2 -4 9 975 123 11
-2 -4 8 19462 762 11
-2 -4 7 48208 1837 11
-3 -4 9 4649 283 11
-3 -4 8 2226 176 11
-3 -4 7 21779 857 11
-3 -4 6 822 104 11
-3 -5 15 2083 505 11
-3 -5 14 820 345 11
-3 -5 13 864 297 11
-3 -5 12 1581 288 11
-3 -5 9 729 150 11
-3 -5 8 450 123 11
-3 -6 15 2558 491 11
-3 -6 14 5620 599 11
-3 -6 13 1506 327 11
-3 -6 11 2358 258 11
-3 -6 10 6100 352 11
-4 -5 11 1316 308 11
-4 -5 9 579 214 11
-4 -7 12 747 311 11
-5 -7 10 635 309 11
-5 -7 9 3171 382 11
-1 0 11 4266 542 11
-1 0 10 17211 983 11
-1 0 8 2867 280 11
-1 0 7 931 202 11
-1 0 6 1559 176 11
-2 -1 12 3045 551 11
-2 -1 11 1307 394 11
-2 -1 10 7098 557 11
-2 -1 9 1775 294 11
-2 -1 8 5653 374 11
-2 -1 7 6252 363 11
-2 -1 6 28601 1174 11
-2 -1 5 1057 142 11
-3 -2 10 5055 532 11
-3 -2 9 713 290 11
9 -6 -4 290 145 11
9 -6 -5 409 175 11
9 -7 -5 360 163 11
8 -5 -2 3519 219 11
7 -4 -2 359 101 11
7 -4 -3 2795 172 11
7 -5 -2 1770 132 11
7 -5 -3 848 123 11
7 -5 -4 468 115 11
7 -6 -4 2422 176 11
7 -6 -5 660 137 11
6 -4 -2 1257 99 11
6 -4 -3 540 86 11
6 -5 -3 1492 114 11
6 -5 -4 4088 205 11
5 -3 -2 7695 303 11
5 -4 -2 8167 323 11
5 -4 -3 347 67 11
4 -3 -2 357 43 11
3 -2 -1 10000 386 11
3 -13 4 396 183 11
2 -9 3 3137 183 11
2 -10 6 460 126 11
2 -10 4 13684 601 11
2 -10 3 13769 598 11
2 -11 4 717 144 11
2 -11 3 394 143 11
2 -12 6 683 170 11
2 -12 5 437 160 11
2 -13 6 868 213 11
2 -13 5 958 203 11
2 -13 4 3710 285 11
1 -5 3 14821 571 11
1 -5 2 201 37 11
1 -6 3 52566 1997 11
1 -6 2 4906 196 11
1 -7 3 680 75 11
1 -7 2 7302 292 11
1 -8 4 13322 551 11
1 -8 3 2730 145 11
1 -8 2 524 79 11
1 -9 4 5941 282 11
1 -9 3 15140 625 11
1 -9 2 419 88 11
1 -10 5 2254 186 11
1 -10 4 6947 341 11
1 -10 3 4016 227 11
1 -11 4 498 140 11
1 -11 3 1556 162 11
1 -12 6 1533 193 11
1 -13 4 863 190 11
1 -13 3 612 175 11
-1 -5 3 2033 89 11
-1 -5 2 12278 462 11
-1 -6 4 42977 1646 11
-1 -6 3 4248 175 11
-1 -7 5 567 89 11
-1 -7 4 1926 115 11
-1 -7 3 13384 527 11
-1 -8 6 3859 212 11
-1 -8 5 21611 872 11
-1 -8 4 5429 246 11
-1 -9 7 4573 257 11
-1 -9 6 6255 310 11
-1 -9 5 6638 316 11
-1 -10 8 1139 166 11
-1 -10 7 3455 239 11
-1 -10 6 3695 243 11
-1 -10 5 8755 412 11
-1 -11 6 343 142 11
-1 -12 8 671 207 11
-1 -12 7 1022 202 11
-2 -8 5 1055 123 11
-2 -9 6 575 143 11
-2 -9 5 6736 326 11
-2 -9 4 2938 179 11
-2 -10 6 7112 374 11
-2 -10 5 9642 454 11
-2 -11 7 373 168 11
-2 -11 5 4063 273 11
-2 -13 7 605 216 11
-2 -13 6 2332 274 11
-3 -12 8 733 233 11
-1 -2 2 43015 1612 11
-2 -4 5 2094 100 11
-2 -4 4 900 62 11
-2 -4 3 3268 126 11
-2 -4 2 5685 201 11
-2 -5 5 372 57 11
-2 -5 4 34497 1235 11
-3 -5 5 13396 500 11
-3 -5 4 2003 112 11
-3 -6 7 2036 151 11
-3 -6 6 1676 129 11
-3 -6 5 16287 607 11
-3 -6 4 365 82 11
-3 -6 3 1417 92 11
-3 -7 9 1245 164 11
-3 -7 8 11729 490 11
-3 -7 7 4929 249 11
-3 -7 6 310 109 11
-3 -7 5 2488 147 11
-3 -8 6 16188 628 11
-4 -7 8 3737 268 11
-4 -7 7 4288 263 11
-4 -7 6 1233 153 11
-4 -7 5 1130 139 11
-4 -8 10 1992 277 11
-4 -8 9 966 221 11
-4 -8 8 481 169 11
-4 -8 7 5854 320 11
-4 -8 6 772 150 11
-4 -8 5 282 118 11
-4 -8 4 1839 149 11
-4 -9 8 1380 215 11
-4 -9 7 587 176 11
-4 -9 6 5181 293 11
-4 -10 7 2176 238 11
-5 -8 8 645 241 11
-5 -8 7 6582 426 11
-5 -9 9 609 270 11
-5 -9 8 649 240 11
-5 -9 7 1901 285 11
-5 -9 6 566 193 11
-5 -10 8 2411 325 11
-5 -10 7 2552 304 11
-5 -10 6 915 209 11
-5 -10 5 1143 196 11
-6 -11 7 1877 378 11
-1 -1 2 20095 674 11
-1 -1 1 52158 1813 11
-2 -2 3 5686 200 11
-2 -2 2 1958 76 11
-3 -3 7 3579 202 11
-3 -3 6 4267 201 11
-3 -3 5 6518 254 11
-3 -3 4 2781 132 11
-3 -3 3 17084 580 11
-3 -3 2 15833 537 11
-4 -3 5 10162 580 11
-4 -4 9 9927 603 11
-4 -4 8 18014 830 11
-4 -4 7 2344 250 11
-4 -4 3 633 126 11
-5 -4 8 7263 757 11
-5 -4 6 864 379 11
-5 -4 5 2256 449 11
-5 -5 9 965 370 11
-5 -5 7 7903 574 11
-5 -5 6 5799 454 11
-5 -5 5 2129 299 11
-5 -5 4 1610 273 11
-5 -5 3 1244 255 11
-5 -6 7 1138 246 11
-5 -6 6 2389 264 11
-6 -6 7 986 366 11
-6 -6 6 3021 498 11
-6 -6 4 1454 378 11
-6 -7 9 1920 443 11
-6 -7 8 1676 425 11
-6 -7 6 973 320 11
-7 -8 8 2130 595 11
-7 -8 5 1095 432 11
0 -4 1 7717 345 11
0 -5 1 1268 61 11
0 -6 1 6387 266 11
0 -7 2 282 50 11
0 -8 2 2049 118 11
0 -9 2 221 90 11
0 -10 3 315 102 11
0 -10 2 330 105 11
0 -11 3 14124 661 11
0 -12 2 279 131 11
0 -13 4 320 148 11
-1 -7 2 3936 182 11
-1 -8 2 4469 216 11
-1 -9 3 1271 121 11
-1 -9 2 3349 186 11
-1 -10 3 3021 196 11
-1 -10 2 3578 208 11
-1 -10 1 2815 172 11
-1 -11 4 502 145 11
-1 -11 3 1583 171 11
-1 -11 2 5420 299 11
-1 -12 4 676 163 11
-1 -12 3 299 138 11
-1 -12 1 965 130 11
-1 -13 5 1224 212 11
-1 -13 4 613 169 11
-1 -13 3 364 167 11
-1 -14 5 602 196 11
-1 -14 3 2988 277 11
-1 -14 2 829 194 11
-1 -15 2 1730 262 11
-1 -3 1 21379 923 11
-2 -5 2 1150 66 11
-2 -6 3 1030 77 11
-2 -6 2 11883 477 11
-2 -6 1 2299 107 11
-2 -7 3 254 71 11
-2 -7 2 13426 550 11
-3 -7 3 964 96 11
-3 -8 4 1413 133 11
-3 -8 3 3469 190 11
-3 -9 5 2811 195 11
-3 -9 4 1185 137 11
-3 -9 3 1891 148 11
-3 -9 2 576 109 11
-3 -10 5 1364 178 11
-3 -10 4 2375 191 11
-3 -10 3 2936 199 11
-3 -11 4 1004 167 11
-3 -11 3 2656 198 11
-4 -10 4 560 160 11
-4 -11 6 4092 324 11
-4 -11 5 6684 406 11
-4 -11 3 1539 187 11
-4 -12 7 530 189 11
-4 -12 4 673 186 11
-4 -12 3 3143 270 11
-4 -13 7 785 267 11
-4 -13 4 424 190 11
-4 -13 3 553 179 11
-5 -12 6 739 237 11
-5 -13 3 2011 290 11
-2 -3 2 42723 1692 11
-2 -3 1 14869 587 11
-3 -4 3 13902 579 11
-3 -4 1 10471 440 11
-3 -5 2 242 66 11
-3 -5 1 34050 1399 11
-3 -5 0 212 48 11
-4 -6 3 6644 318 11
-4 -6 2 2276 154 11
-4 -6 1 4129 217 11
-4 -7 3 6885 329 11
-4 -7 2 292 94 11
-5 -7 6 629 199 11
-5 -7 5 4428 336 11
-5 -7 2 7098 401 11
-5 -7 1 6417 369 11
-5 -8 4 2000 230 11
-5 -8 3 655 172 11
-5 -8 1 1048 172 11
-6 -9 4 2727 368 11
-6 -9 1 617 264 11
-6 -10 5 589 280 11
-6 -10 1 1436 284 11
-6 -10 0 497 240 11
-7 -11 1 1026 405 11
-7 -12 2 1565 398 11
-1 -1 0 8989 340 11
-2 -2 0 4523 181 11
-3 -3 0 943 97 11
-3 -3 -1 1221 158 11
-3 -4 -2 503 63 11
-3 -4 -3 247 113 11
-3 -4 -4 1543 241 11
-4 -4 1 3560 238 11
-4 -4 0 1570 230 11
-4 -4 -1 1877 295 11
-4 -5 -2 1572 182 11
-4 -5 -4 10254 725 11
-5 -5 0 4367 470 11
-5 -6 -1 10269 605 11
-5 -6 -2 5132 473 11
-5 -6 -3 1188 362 11
-5 -7 -5 5305 596 11
-6 -6 1 10021 954 11
-6 -7 -1 12287 929 11
-6 -7 -2 1586 512 11
3 4 20 587 177 12
3 4 18 415 168 12
3 3 20 326 160 12
3 3 17 10019 549 12
3 2 18 382 150 12
3 2 17 2204 209 12
3 2 16 362 123 12
2 3 17 8866 493 12
2 3 16 1133 153 12
2 3 15 1037 132 12
2 3 14 8469 438 12
2 2 14 1808 147 12
2 2 13 4789 260 12
2 2 12 723 91 12
2 2 11 3116 170 12
2 2 10 11874 554 12
1 1 7 18107 849 12
1 1 6 7345 362 12
3 8 19 1712 230 12
3 7 20 370 163 12
3 7 19 1328 209 12
3 7 17 822 171 12
3 6 19 389 143 12
3 6 18 2527 216 12
3 6 17 1437 179 12
3 6 16 3399 231 12
3 6 15 1324 139 12
2 7 18 2496 236 12
2 7 17 419 157 12
2 7 16 1262 159 12
2 6 18 1276 176 12
2 6 17 9129 465 12
2 6 16 2369 186 12
2 6 15 323 116 12
2 6 14 820 120 12
2 5 14 1285 120 12
2 5 12 3907 202 12
2 4 12 468 79 12
2 4 10 245 52 12
1 6 17 2647 214 12
1 5 14 246 94 12
1 5 13 313 79 12
1 4 12 3151 160 12
1 4 11 1329 94 12
1 4 10 2090 112 12
1 3 9 9372 387 12
1 3 8 43705 1780 12
1 3 7 2150 95 12
1 2 6 8359 355 12
1 2 5 2527 111 12
4 11 17 990 314 12
4 10 16 859 244 12
3 11 17 2171 375 12
3 11 16 781 292 12
3 9 15 1145 210 12
3 9 14 2972 266 12
3 9 13 2278 246 12
3 8 14 282 124 12
3 8 13 441 141 12
3 8 12 1565 174 12
3 7 12 1926 166 12
2 9 16 536 171 12
2 9 14 2494 261 12
2 8 14 1133 159 12
2 8 13 511 138 12
2 7 13 253 110 12
2 7 12 31360 1314 12
2 7 11 4658 248 12
2 6 10 787 93 12
2 6 9 782 93 12
2 5 8 6958 303 12
2 4 7 28256 1150 12
1 9 15 1579 212 12
1 8 13 993 139 12
1 7 12 1077 126 12
1 6 10 391 80 12
1 5 9 21896 910 12
1 5 8 285 62 12
1 4 7 16194 659 12
1 4 6 191 35 12
1 3 5 17037 679 12
6 10 10 1582 503 12
5 11 11 6315 862 12
5 9 10 725 308 12
5 9 9 1858 391 12
5 8 10 978 214 12
5 7 9 628 137 12
5 7 8 922 190 12
4 13 15 2907 813 12
4 11 12 3152 538 12
4 10 11 940 404 12
4 10 10 13094 1040 12
4 9 10 591 274 12
4 9 9 3481 450 12
4 8 10 767 165 12
4 8 9 2565 268 12
4 8 8 2571 308 12
4 7 8 1910 180 12
4 7 7 619 179 12
4 6 7 3096 190 12
4 6 6 10734 509 12
3 11 12 3800 630 12
3 10 11 1546 380 12
3 9 11 1840 264 12
3 9 10 3357 373 12
3 8 9 740 179 12
3 8 8 732 213 12
3 7 8 4126 244 12
3 7 7 434 143 12
3 6 7 1304 120 12
3 6 6 10515 465 12
3 5 6 854 85 12
3 5 5 1388 104 12
2 6 7 28515 1132 12
2 5 6 7489 312 12
2 5 5 10277 418 12
2 4 5 10617 426 12
2 4 4 104 46 12
2 3 3 2266 98 12
1 2 2 2348 93 12
5 -6 6 4053 250 12
5 -7 6 970 158 12
5 -8 9 1595 212 12
5 -8 8 608 185 12
5 -8 7 337 154 12
5 -8 6 1023 175 12
5 -8 5 981 176 12
5 -9 7 1330 224 12
5 -9 6 740 201 12
4 -6 6 4387 239 12
4 -6 5 5124 265 12
4 -7 7 1037 145 12
4 -8 7 955 160 12
3 -4 4 42698 1733 12
3 -5 5 807 86 12
3 -5 4 5725 259 12
3 -6 5 3352 184 12
3 -7 5 7386 353 12
2 -3 3 817 47 12
2 -4 3 10191 412 12
2 5 21 1218 207 12
2 5 19 342 134 12
1 6 20 483 143 12
1 5 21 783 176 12
1 5 20 361 143 12
1 5 18 294 138 12
1 4 21 546 165 12
1 4 19 1073 168 12
1 4 18 1762 175 12
1 4 16 1807 151 12
1 4 14 11080 471 12
1 3 18 8055 395 12
1 3 16 244 106 12
1 3 14 3248 173 12
1 3 13 616 84 12
1 3 12 1317 95 12
1 3 11 396 60 12
0 5 19 407 147 12
0 4 20 2904 239 12
0 4 19 1485 183 12
0 4 18 4061 248 12
0 4 17 582 115 12
0 4 15 1387 126 12
0 3 15 6496 302 12
0 3 14 241 89 12
0 3 13 1820 116 12
0 2 10 3357 142 12
0 2 9 2937 124 12
0 2 8 2589 108 12
1 8 18 497 164 12
1 8 17 469 147 12
1 8 16 1056 157 12
1 7 16 830 135 12
1 7 15 966 142 12
1 7 14 2382 168 12
1 6 13 15251 618 12
1 6 12 4470 214 12
0 9 18 408 188 12
0 9 17 822 203 12
0 8 20 1420 225 12
0 8 15 439 141 12
0 7 17 611 150 12
0 7 15 3030 203 12
0 7 14 907 139 12
0 7 13 27827 1102 12
0 6 15 600 117 12
0 6 14 1611 135 12
0 6 13 12519 518 12
0 6 12 850 104 12
0 6 11 2876 154 12
0 5 13 2158 134 12
0 5 12 1000 96 12
0 5 10 885 82 12
0 4 10 26081 1000 12
0 4 9 7061 279 12
0 4 8 17730 674 12
0 3 7 2024 84 12
0 3 6 346 31 12
0 2 5 1870 78 12
0 2 4 429 22 12
-1 8 17 444 166 12
-1 7 17 751 147 12
-1 7 16 527 135 12
-1 6 14 4943 255 12
2 13 16 3628 740 12
2 11 13 2964 512 12
2 10 12 2038 372 12
1 11 13 3412 550 12
1 10 14 617 288 12
1 10 13 956 294 12
1 10 12 2799 419 12
1 10 11 998 306 12
1 9 12 2779 286 12
1 9 11 2198 292 12
1 9 10 2292 311 12
1 8 10 738 165 12
1 8 9 348 162 12
1 7 10 268 100 12
1 7 9 4184 225 12
1 7 8 360 113 12
1 6 7 14133 561 12
0 10 15 975 276 12
0 10 13 2086 404 12
0 10 12 5464 569 12
0 9 12 1846 282 12
0 9 11 11105 678 12
0 8 11 831 162 12
0 8 10 1077 175 12
0 7 10 1175 132 12
0 6 9 5590 249 12
0 6 8 19470 760 12
0 5 7 2085 111 12
0 5 6 14217 550 12
0 4 6 3488 144 12
0 4 5 239 46 12
0 3 4 1266 55 12
0 2 3 6807 273 12
-1 11 14 1282 447 12
-1 10 13 2667 425 12
-1 9 13 2734 318 12
-1 9 12 820 269 12
-1 8 11 1204 190 12
-1 7 10 1780 168 12
-1 5 7 6299 259 12
-2 10 14 1995 451 12
6 8 7 2040 534 12
5 9 8 1389 555 12
4 7 6 1032 297 12
4 6 5 2506 299 12
3 7 6 9034 564 12
3 6 5 9800 506 12
3 5 4 15472 658 12
3 4 3 232 113 12
2 9 8 1079 437 12
2 7 6 1124 245 12
2 6 5 603 170 12
2 5 4 2187 166 12
2 4 3 58808 2138 12
2 3 2 3089 144 12
1 7 6 9687 581 12
1 6 5 468 171 12
1 5 4 11193 481 12
1 4 3 2731 144 12
0 6 5 2340 259 12
0 5 4 1887 197 12
4 -8 10 759 185 12
3 -6 7 11812 496 12
3 -7 8 651 123 12
3 -7 7 2248 158 12
3 -8 10 2355 213 12
3 -8 9 2126 204 12
3 -9 12 779 197 12
3 -9 8 2187 217 12
3 -10 11 531 188 12
3 -10 9 465 176 12
3 -10 8 554 183 12
3 -11 9 585 220 12
2 -4 5 18904 709 12
2 -5 6 548 74 12
2 -5 5 545 68 12
2 -6 8 6365 290 12
2 -6 7 4746 224 12
2 -6 6 4630 215 12
2 -6 5 165 69 12
2 -7 9 656 118 12
2 -7 8 968 121 12
2 -8 10 702 154 12
2 -8 9 1758 175 12
2 -8 8 1253 150 12
2 -8 7 811 134 12
2 -9 10 442 145 12
2 -9 9 442 136 12
2 -10 9 961 189 12
2 -11 10 775 201 12
1 -3 4 1221 55 12
1 -3 3 6468 246 12
1 -4 5 32322 1194 12
1 -4 4 12337 461 12
1 -5 5 10893 422 12
1 -6 6 3970 183 12
1 -7 7 969 108 12
1 -8 8 2866 193 12
0 2 18 2225 203 12
0 2 17 1612 165 12
0 2 15 2831 175 12
0 2 14 3098 173 12
0 1 20 344 164 12
0 1 18 1919 188 12
0 1 17 513 147 12
0 1 16 14208 616 12
0 1 14 273 94 12
0 1 11 3971 171 12
0 1 10 18379 703 12
0 1 9 2300 101 12
0 1 8 2085 89 12
0 1 7 11702 462 12
-1 2 19 488 155 12
-1 2 18 2105 202 12
-1 2 17 1603 169 12
-1 2 16 285 115 12
-1 1 18 724 151 12
-1 1 17 4630 274 12
-1 1 16 916 132 12
-1 1 14 691 102 12
-1 1 13 5849 263 12
-1 1 12 8699 359 12
0 6 18 7766 428 12
0 5 15 862 125 12
0 3 9 78059 2919 12
0 2 6 11011 428 12
-1 6 20 1317 226 12
-1 6 18 1441 205 12
-1 6 17 997 175 12
-1 5 18 530 154 12
-1 5 17 293 142 12
-1 5 16 405 129 12
-1 5 14 384 111 12
-1 4 17 1070 149 12
-1 4 15 5124 264 12
-1 4 14 722 113 12
-1 4 13 362 96 12
-1 4 12 2511 145 12
-1 4 11 2532 139 12
-1 3 13 1606 116 12
-1 3 12 468 80 12
-1 3 11 12778 510 12
-1 3 10 4273 184 12
-1 3 9 12491 487 12
-1 2 8 61839 2309 12
-1 2 7 18849 713 12
-2 7 20 653 243 12
-2 6 19 2859 296 12
-2 6 18 534 181 12
-2 6 17 1073 171 12
-2 5 20 404 174 12
-2 5 19 1177 191 12
-2 5 18 379 147 12
-2 5 16 775 150 12
-2 4 16 744 131 12
-2 4 15 373 120 12
-2 4 14 368 110 12
-3 5 19 342 168 12
-1 9 16 818 210 12
-1 9 15 1359 235 12
-1 8 15 1339 194 12
-1 8 14 452 165 12
-1 7 13 1627 164 12
-1 7 12 698 127 12
-1 6 10 799 102 12
-1 5 10 17435 648 12
-1 5 9 1168 93 12
-1 5 8 208 62 12
-1 4 8 22826 820 12
-1 4 7 102 49 12
-1 3 6 11265 393 12
-1 3 5 5148 186 12
-1 2 4 19561 680 12
-2 9 16 528 227 12
-2 8 16 787 187 12
-2 8 15 508 185 12
-2 7 15 589 145 12
-2 7 14 16013 672 12
-2 7 13 673 149 12
-2 7 11 485 134 12
-2 6 13 1596 152 12
-2 6 12 2756 176 12
-2 6 11 320 104 12
-2 6 10 5010 244 12
-2 5 11 857 99 12
-2 5 10 9990 391 12
-2 5 9 8682 342 12
-2 4 9 6620 259 12
-2 4 8 10193 382 12
-3 8 16 1144 241 12
-3 7 14 1786 214 12
-3 6 13 3003 210 12
-3 5 11 4659 231 12
-4 7 15 4444 361 12
0 8 8 981 275 12
0 6 6 2325 166 12
0 5 5 10080 361 12
0 4 4 78016 2592 12
0 3 3 10467 355 12
0 2 2 1153 41 12
-1 11 12 4905 951 12
-1 8 9 1105 247 12
-1 7 8 4869 302 12
-1 7 7 2752 315 12
-1 6 7 5655 256 12
-1 6 6 709 172 12
-1 5 6 32841 1103 12
-1 5 5 3784 192 12
-1 4 5 3602 140 12
-1 4 4 310 72 12
-1 3 4 1674 68 12
-1 3 3 2415 97 12
-2 8 9 1296 336 12
-2 7 9 802 190 12
-2 7 8 865 247 12
-2 7 7 2539 402 12
-2 6 7 1161 181 12
-2 6 6 1449 290 12
-2 5 6 5416 245 12
-2 5 5 1647 217 12
-2 4 5 24636 834 12
-2 3 4 30605 1025 12
-3 7 9 3726 354 12
-3 6 8 2408 234 12
-3 6 7 853 249 12
-3 5 7 15107 578 12
-4 5 7 1875 251 12
-5 7 10 924 416 12
-1 2 12 3619 179 12
-1 2 11 414 60 12
-1 1 9 1420 74 12
-1 1 8 9013 374 12
-1 1 7 5378 224 12
-1 1 6 1685 77 12
-2 3 20 1009 187 12
-2 3 19 4002 293 12
-2 3 17 674 152 12
-2 3 16 3696 237 12
-2 2 19 823 168 12
-2 2 16 2166 179 12
-2 2 15 1696 151 12
-2 2 14 254 97 12
-2 2 13 522 91 12
-2 2 12 9903 443 12
-2 2 11 1615 103 12
-2 1 12 1695 115 12
-2 1 11 2347 128 12
-2 1 10 152 59 12
-3 3 20 768 200 12
-3 3 17 535 144 12
-3 2 19 1538 206 12
-3 2 18 813 157 12
-3 2 16 831 141 12
-3 2 15 2789 198 12
-3 1 14 900 114 12
-2 5 13 1248 122 12
-2 4 11 13292 562 12
-2 3 10 53946 2158 12
-2 3 9 2980 142 12
-2 3 8 3445 153 12
-2 2 8 21351 834 12
-2 2 7 3967 162 12
-3 7 18 575 203 12
-3 6 16 3556 267 12
-3 5 14 2126 182 12
-3 4 14 415 113 12
-3 4 13 299 106 12
-3 4 12 3227 189 12
-3 4 11 236 97 12
-3 3 12 11239 487 12
-3 3 11 1405 114 12
-3 3 10 1568 113 12
-4 6 16 1681 230 12
-4 6 15 476 173 12
-4 5 19 360 174 12
-4 5 14 319 142 12
-4 4 15 358 132 12
-4 4 13 350 113 12
-4 3 12 2496 170 12
-5 6 17 1200 242 12
-5 4 15 311 138 12
-1 1 2 7813 350 12
-2 3 6 9470 392 12
-2 3 5 1594 88 12
-2 2 4 5045 207 12
-3 7 11 708 194 12
-3 5 8 5852 306 12
-3 4 7 1625 126 12
-3 3 7 3257 157 12
-3 3 6 5801 259 12
-3 2 5 6758 287 12
-4 6 11 1646 224 12
-4 6 10 3179 294 12
-4 5 11 5195 306 12
-4 5 10 3938 265 12
-4 4 9 5683 294 12
-4 4 8 1287 143 12
-4 4 7 1373 153 12
-4 3 7 4412 225 12
-5 6 10 849 325 12
-5 5 11 1729 239 12
-5 5 9 3350 340 12
-5 4 10 5450 325 12
-5 4 9 406 153 12
-6 6 11 1312 402 12
-6 5 12 967 274 12
-6 5 11 2238 354 12
-6 4 10 2095 279 12
-7 5 12 1390 377 12
-2 3 3 11607 540 12
-2 1 2 10326 401 12
-2 0 1 256599 9913 12
-3 3 4 5937 289 12
-3 2 3 2277 143 12
-3 1 2 6324 298 12
-3 0 2 31001 1198 12
-4 4 5 5004 490 12
-4 3 5 15049 669 12
-4 3 4 1762 338 12
-4 2 4 475 113 12
-4 2 3 1009 322 12
-4 1 3 715 121 12
-4 0 2 139723 5970 12
-5 3 5 1250 330 12
-5 2 4 1203 283 12
-5 1 4 6034 330 12
-5 1 3 988 358 12
-5 0 3 17924 838 12
-6 5 8 1333 421 12
-6 4 7 2105 455 12
-6 3 6 3729 525 12
-6 2 5 1084 347 12
-6 0 4 11392 645 12
-7 1 5 2198 477 12
-7 0 4 6307 782 12
5 0 19 642 190 13
5 0 16 887 167 13
5 -1 18 1490 250 13
5 -1 17 1673 225 13
4 0 18 1754 233 13
4 0 15 7706 439 13
4 0 14 4973 305 13
4 -1 19 799 211 13
4 -1 18 1107 202 13
4 -1 16 2161 219 13
4 -1 15 1664 185 13
4 -1 14 2641 205 13
3 0 15 7165 404 13
3 0 14 13108 666 13
3 0 13 5686 313 13
3 0 12 1145 115 13
3 0 11 8663 431 13
3 0 10 5991 297 13
3 -1 18 3277 292 13
3 -1 17 2199 220 13
3 -1 16 2600 224 13
3 -1 15 271 131 13
3 -1 13 22586 1099 13
3 -1 11 4950 263 13
2 0 10 5639 276 13
2 0 9 39622 1807 13
2 0 8 22181 1006 13
2 0 7 11232 516 13
4 4 19 336 163 13
4 4 18 5836 378 13
4 3 18 384 147 13
4 3 17 353 143 13
4 3 16 6053 337 13
4 3 15 1116 137 13
3 4 20 378 181 13
3 4 18 591 166 13
3 4 17 2459 213 13
3 3 19 349 156 13
3 3 17 10099 506 13
3 2 17 2029 189 13
3 2 16 256 122 13
3 2 15 1126 137 13
3 2 14 292 98 13
3 2 13 4333 226 13
3 2 12 8432 382 13
3 2 11 418 76 13
2 2 14 1866 142 13
2 2 13 4785 240 13
2 2 12 677 87 13
2 2 11 2965 153 13
2 2 10 11669 497 13
2 2 9 4528 199 13
2 1 10 13022 547 13
1 1 7 18563 760 13
1 1 6 7021 297 13
1 1 5 6073 270 13
5 7 18 1436 292 13
5 6 17 1081 233 13
5 6 16 1738 239 13
4 8 18 1292 323 13
4 7 17 1972 317 13
4 7 16 586 225 13
4 6 17 1428 215 13
4 6 16 5932 388 13
4 6 15 1607 206 13
3 7 19 1038 272 13
3 7 17 1001 247 13
3 6 18 1698 244 13
3 6 17 1165 226 13
3 6 16 2457 249 13
3 6 15 1304 181 13
3 6 14 1876 194 13
3 5 14 640 132 13
3 5 12 306 111 13
3 4 12 616 97 13
3 4 11 3828 197 13
3 4 10 554 83 13
2 6 16 1817 219 13
2 5 14 1008 136 13
2 4 12 322 92 13
2 4 9 31666 1303 13
2 3 10 482 57 13
2 3 9 16766 693 13
2 3 8 66273 2706 13
2 3 7 8343 348 13
1 3 8 43154 1765 13
1 2 6 7706 309 13
1 2 5 1836 78 13
7 7 12 1039 305 13
6 8 14 1313 385 13
6 8 12 1255 426 13
6 7 12 3174 393 13
6 7 10 11632 862 13
6 6 10 7143 476 13
5 8 14 1278 354 13
5 7 11 1997 359 13
5 6 10 833 190 13
5 6 9 2883 286 13
4 8 13 972 361 13
4 8 12 1285 403 13
4 7 13 3998 346 13
4 7 11 23626 1222 13
4 6 11 12927 608 13
4 5 8 543 119 13
4 5 7 1801 166 13
4 4 7 1771 120 13
3 6 10 7109 376 13
3 5 9 5113 246 13
3 5 8 27684 1114 13
3 4 7 46531 1831 13
3 4 6 12688 514 13
3 3 5 212 47 13
2 5 8 5988 279 13
2 4 7 30035 1186 13
2 4 6 217 58 13
2 3 5 153 43 13
1 2 3 33005 1275 13
6 -8 2 7586 415 13
6 -9 3 707 181 13
6 -9 2 561 182 13
6 -9 1 1020 202 13
6 -10 2 2601 285 13
6 -10 1 3169 326 13
6 -11 0 602 251 13
5 -7 2 1725 152 13
5 -9 3 6215 362 13
5 -9 2 1557 195 13
5 -9 1 6862 394 13
5 -10 2 651 180 13
5 -10 1 1061 196 13
4 -6 2 1322 104 13
4 -6 1 8226 370 13
4 -7 2 622 108 13
4 -7 1 6361 306 13
4 -7 0 494 105 13
4 -9 2 1305 167 13
4 -9 1 2772 210 13
4 -10 1 412 149 13
3 -4 1 15335 618 13
3 -5 1 2489 123 13
3 -6 1 2294 128 13
3 -7 1 4413 218 13
3 -8 1 418 99 13
2 -3 1 4746 191 13
2 -4 1 1040 55 13
3 1 17 2210 186 13
2 2 19 291 132 13
2 1 20 317 156 13
2 1 19 461 148 13
2 1 17 2297 189 13
2 1 16 337 130 13
2 1 15 16711 703 13
2 1 13 398 85 13
2 0 19 1384 181 13
2 0 17 302 127 13
2 0 16 5161 276 13
2 0 15 4859 256 13
1 1 18 614 142 13
1 1 17 691 135 13
1 1 16 9543 436 13
1 1 15 5305 264 13
1 1 14 405 93 13
1 1 13 638 93 13
1 1 12 7025 300 13
1 1 11 12474 501 13
1 1 10 2072 101 13
1 0 20 491 154 13
1 0 19 315 139 13
1 0 18 665 144 13
1 0 17 3189 214 13
1 0 16 6022 306 13
1 0 15 11654 506 13
1 0 14 5323 256 13
1 0 13 352 86 13
1 0 12 5885 257 13
1 0 11 6820 282 13
1 0 10 4565 189 13
1 0 9 60859 2313 13
1 0 8 1069 59 13
1 0 7 10690 415 13
2 6 21 1629 322 13
2 5 21 964 247 13
2 5 17 1457 181 13
2 4 19 5199 334 13
2 4 18 3187 245 13
2 4 17 3920 253 13
2 4 16 1061 144 13
1 6 19 1637 271 13
1 5 21 526 226 13
1 5 16 423 138 13
1 4 21 466 185 13
1 4 19 861 188 13
1 4 18 1851 204 13
1 4 16 1857 166 13
1 4 14 9877 427 13
1 4 13 492 101 13
1 3 16 404 115 13
1 3 14 3262 182 13
1 3 13 673 96 13
1 3 12 1220 101 13
1 3 11 535 77 13
1 3 10 15648 608 13
1 2 10 529 51 13
1 2 9 22306 844 13
1 2 8 13514 504 13
0 4 20 2510 262 13
0 4 19 1406 218 13
0 4 18 3266 256 13
0 4 17 285 129 13
0 3 15 6067 293 13
0 3 13 1688 123 13
0 2 10 3088 136 13
0 2 9 2939 126 13
0 2 8 2703 111 13
0 1 5 5726 231 13
3 8 17 1150 339 13
3 8 15 1046 365 13
3 7 14 914 229 13
2 8 19 1824 383 13
2 7 16 1097 235 13
2 7 14 3722 338 13
2 7 13 446 215 13
2 6 13 631 147 13
2 6 12 14168 627 13
1 7 17 1871 304 13
1 7 16 502 219 13
1 7 15 806 240 13
1 7 14 2239 275 13
1 7 13 1973 302 13
1 6 15 696 169 13
1 6 14 4898 310 13
1 6 13 11786 555 13
1 6 12 3519 251 13
1 6 11 9530 471 13
1 5 12 893 120 13
1 5 10 6220 285 13
1 5 9 22856 898 13
1 4 9 10554 420 13
1 4 8 49516 1879 13
1 4 7 18095 696 13
1 3 6 565 47 13
0 7 17 769 289 13
0 7 15 1769 321 13
0 6 14 1166 196 13
0 6 13 10000 521 13
0 6 12 741 169 13
0 5 12 891 123 13
0 5 10 719 111 13
0 4 9 6722 282 13
0 4 8 17551 679 13
0 3 7 1919 91 13
0 3 6 690 47 13
0 2 4 375 24 13
-1 6 14 3865 324 13
4 6 7 2662 378 13
4 5 6 8581 457 13
4 5 5 1922 422 13
3 6 8 772 203 13
3 6 7 1462 324 13
3 4 5 2345 128 13
3 4 4 2055 221 13
2 6 8 4675 376 13
2 5 6 6324 379 13
2 4 5 8203 320 13
2 3 3 1260 101 13
1 5 6 1128 267 13
1 4 5 413 108 13
1 3 4 2369 99 13
1 1 1 63723 2217 13
0 3 4 790 60 13
4 -9 4 421 143 13
4 -10 5 355 142 13
4 -10 3 6292 358 13
4 -11 3 677 175 13
4 -13 3 1147 274 13
3 -7 3 3670 183 13
3 -8 4 6622 307 13
3 -8 3 1997 150 13
3 -9 5 4516 249 13
3 -9 4 9509 434 13
3 -9 3 3265 210 13
3 -9 2 12967 558 13
3 -10 5 984 155 13
3 -10 4 862 152 13
3 -10 3 2531 212 13
3 -10 2 2172 202 13
3 -12 6 517 183 13
3 -12 5 381 181 13
2 -5 2 12057 453 13
2 -6 3 3863 167 13
2 -6 2 20052 766 13
2 -7 3 701 83 13
2 -7 2 8360 342 13
2 -8 4 24663 979 13
2 -8 2 490 98 13
2 -9 4 284 108 13
2 -9 3 2678 177 13
2 -10 4 9377 439 13
2 -10 3 10758 490 13
1 -3 1 1325 57 13
1 -4 2 12994 486 13
1 -4 1 1307 56 13
1 -5 2 225 36 13
1 -6 2 4293 175 13
1 -1 19 2971 261 13
1 -1 18 1914 199 13
1 -1 17 3432 243 13
1 -1 16 525 139 13
1 -1 14 21507 888 13
1 -1 12 7588 326 13
1 -1 11 201 72 13
1 -1 10 14368 557 13
1 -2 19 2849 265 13
1 -2 18 2430 234 13
1 -2 17 336 138 13
1 -2 16 550 147 13
1 -2 12 262 89 13
1 -3 17 1266 188 13
1 -3 14 8328 388 13
0 -1 13 9165 394 13
0 -1 12 3688 180 13
0 -1 11 6842 286 13
0 -1 10 614 67 13
0 -1 9 29969 1138 13
0 -1 8 407 48 13
0 -1 7 17212 660 13
0 -1 6 36550 1463 13
0 -2 18 2817 247 13
0 -2 17 473 148 13
0 -2 15 609 131 13
0 -2 14 267 112 13
0 -2 13 2540 157 13
0 -2 12 3854 190 13
0 -3 18 1252 203 13
0 -3 17 1326 185 13
0 -3 16 3992 257 13
0 3 19 834 196 13
0 2 18 1995 211 13
0 2 17 982 176 13
0 2 15 2572 183 13
0 2 14 3373 194 13
0 2 13 244 88 13
0 1 20 560 182 13
0 1 18 1660 196 13
0 1 17 630 154 13
0 1 16 13578 599 13
0 1 13 244 90 13
0 1 12 287 80 13
0 1 11 3928 176 13
0 1 10 18461 714 13
0 1 9 2039 94 13
0 1 8 1956 86 13
0 1 7 11651 441 13
-1 3 19 3132 305 13
-1 2 18 1273 204 13
-1 2 17 1414 187 13
-1 2 15 3139 201 13
-1 1 17 4734 295 13
-1 1 16 807 144 13
-1 1 15 261 117 13
-1 1 14 452 112 13
-1 1 13 5838 272 13
-1 1 12 8558 361 13
-2 1 19 789 186 13
0 6 19 1125 255 13
0 6 18 5314 426 13
0 6 17 886 215 13
0 5 15 763 145 13
0 4 13 343 101 13
0 3 9 77371 2753 13
0 2 6 9702 338 13
-1 6 21 805 287 13
-1 6 20 600 300 13
-1 6 18 999 277 13
-1 6 17 946 231 13
-1 5 18 424 192 13
-1 5 17 333 165 13
-1 4 17 1009 168 13
-1 4 15 4815 263 13
-1 4 14 680 131 13
-1 4 12 2144 147 13
-1 4 11 2001 138 13
-1 3 13 1581 126 13
-1 3 12 532 95 13
-1 3 11 11593 441 13
-1 3 10 3936 174 13
-1 3 9 10929 410 13
-1 2 9 2416 107 13
-1 2 8 60749 2149 13
-1 2 7 17429 619 13
-2 6 19 3091 428 13
-2 6 17 903 275 13
-2 5 19 1001 273 13
-2 5 16 737 194 13
-2 3 11 7701 314 13
-3 4 18 718 224 13
-3 4 16 927 203 13
0 7 12 2157 373 13
0 5 9 6934 298 13
0 5 8 15792 626 13
0 4 7 2934 134 13
0 3 5 6376 223 13
-1 7 13 1783 393 13
-1 6 12 5966 412 13
-1 6 10 891 297 13
-1 5 10 14172 569 13
-1 5 9 559 177 13
-1 4 8 21101 729 13
-1 4 7 280 101 13
-1 3 6 11633 401 13
-1 3 5 3999 163 13
-1 2 4 22494 761 13
-2 8 16 1841 517 13
-2 7 14 15462 1100 13
-2 6 13 1342 309 13
-2 6 12 2644 387 13
-2 5 11 520 186 13
-2 5 10 8108 465 13
-2 5 9 7370 499 13
-2 4 9 5353 258 13
-2 4 8 8221 373 13
-2 3 7 689 88 13
-2 3 6 6579 268 13
-2 2 5 1038 64 13
-3 6 14 2658 434 13
-3 6 13 2661 452 13
-3 5 11 3261 398 13
-3 5 10 1316 360 13
-3 4 10 10488 492 13
-3 4 9 10865 562 13
-4 6 14 2377 575 13
-4 5 11 3018 605 13
-1 -1 20 1602 239 13
-1 -1 19 558 176 13
-1 -1 18 2682 250 13
-1 -1 17 928 171 13
-1 -1 15 9634 471 13
-1 -1 14 224 102 13
-1 -1 13 8410 392 13
-1 -1 12 1846 124 13
-1 -1 11 16166 694 13
-1 -1 10 20242 850 13
-1 -1 9 42894 1752 13
-1 -1 8 12673 519 13
-1 -1 7 11056 449 13
-1 -2 20 1713 262 13
-1 -2 19 649 190 13
-1 -2 17 327 137 13
-1 -2 14 536 109 13
-2 -1 19 995 199 13
-2 -1 17 4059 287 13
-2 -1 16 2826 219 13
-2 -1 15 913 140 13
-2 -1 14 3455 211 13
-2 -2 19 1942 243 13
-2 -2 16 1023 154 13
-2 -2 14 326 110 13
-1 1 8 8865 349 13
-1 1 7 5568 220 13
-1 1 6 1651 71 13
-2 3 20 622 234 13
-2 3 19 3544 328 13
-2 3 18 434 150 13
-2 3 17 610 170 13
-2 2 17 299 148 13
-2 2 16 1833 185 13
-2 2 15 1586 161 13
-2 2 13 672 107 13
-2 2 12 9137 402 13
-2 1 14 250 107 13
-2 1 13 246 95 13
-2 1 12 1833 127 13
-2 1 11 2322 135 13
-3 3 20 543 258 13
-3 3 19 475 204 13
-3 3 18 622 185 13
-3 2 19 1528 246 13
-3 2 18 518 186 13
-3 2 16 585 156 13
-3 2 15 2477 205 13
-3 2 14 428 124 13
-3 1 19 436 189 13
-3 1 18 993 190 13
-3 1 15 1258 151 13
-3 1 14 862 132 13
-3 1 13 4026 226 13
-4 3 20 1060 336 13
-4 2 17 835 190 13
-4 1 20 644 214 13
-4 1 19 947 205 13
-4 1 18 2797 283 13
-1 1 4 29472 1162 13
-1 1 3 1646 68 13
-2 4 11 9898 476 13
-2 3 9 2319 149 13
-2 2 8 19943 827 13
-2 2 7 3651 169 13
-2 2 6 2295 114 13
-2 1 5 1369 68 13
-3 6 16 2471 485 13
-3 5 14 2014 315 13
-3 4 12 2661 255 13
-3 3 12 9171 450 13
-3 3 11 950 149 13
-3 3 10 1131 146 13
-3 3 9 3587 225 13
-3 2 10 449 90 13
-3 2 9 32435 1343 13
-3 2 8 6505 298 13
-3 1 7 921 74 13
-4 5 14 919 334 13
-4 4 12 2108 330 13
-4 3 12 1989 237 13
-4 3 11 23717 1108 13
-4 2 11 5306 302 13
-4 2 10 3696 238 13
-5 4 13 1479 410 13
-5 3 13 3016 375 13
-5 3 12 1477 309 13
-5 2 12 3178 289 13
-6 2 14 653 280 13
-1 1 2 70048 2711 13
-1 0 1 1149 46 13
-2 2 4 3490 185 13
-2 1 3 8125 319 13
-2 0 2 21716 838 13
-3 3 6 3615 427 13
-3 2 5 5270 314 13
-3 1 4 167 82 13
-3 0 3 1424 80 13
-4 3 7 3215 528 13
-4 0 4 8782 384 13
-4 0 3 7183 488 13
-5 2 7 1799 400 13
-5 1 6 4683 420 13
-5 -1 4 3785 252 13
-5 -1 3 26180 1418 13
-6 3 10 2018 664 13
-6 1 7 1577 444 13
-6 0 6 744 334 13
-6 -1 5 1786 316 13
-6 -1 4 4286 608 13
5 -3 15 450 171 14
5 -3 14 1598 192 14
5 -3 13 430 151 14
5 -3 12 3540 256 14
5 -3 11 818 137 14
5 -4 16 496 187 14
5 -4 13 929 166 14
5 -4 12 8218 465 14
4 -3 13 1708 177 14
4 -3 12 1886 179 14
4 -3 11 3355 218 14
4 -3 10 316 103 14
4 -3 9 10202 506 14
4 -4 13 954 162 14
4 -4 12 3138 230 14
4 -4 10 1852 155 14
3 -2 9 5299 270 14
3 -2 8 7629 366 14
3 -2 7 412 61 14
3 -3 10 2700 172 14
3 -3 9 1176 106 14
3 -3 8 645 80 14
2 -2 6 14964 686 14
2 -2 5 10130 470 14
6 0 17 1697 228 14
6 -1 17 892 202 14
5 0 19 721 222 14
5 0 16 799 163 14
5 0 15 1557 182 14
5 0 14 3272 232 14
5 -1 18 1814 254 14
5 -1 17 1672 222 14
5 -1 16 2092 211 14
5 -1 15 817 160 14
5 -2 17 2085 238 14
4 0 15 7959 413 14
4 0 14 4921 283 14
4 0 13 278 122 14
4 0 12 3533 202 14
4 0 11 292 77 14
4 -1 19 558 195 14
4 -1 18 634 191 14
4 -1 16 2401 213 14
4 -1 15 1728 172 14
4 -1 14 3075 209 14
4 -1 13 2455 176 14
4 -1 12 655 102 14
3 0 13 5715 289 14
3 0 12 1315 119 14
3 0 11 8631 388 14
3 0 10 6043 276 14
3 0 9 4069 190 14
3 -1 14 431 111 14
3 -1 13 22715 989 14
3 -1 11 5004 243 14
3 -1 10 622 82 14
2 0 8 23156 949 14
2 0 7 11439 467 14
2 0 6 153 31 14
6 4 17 4678 469 14
6 3 16 546 216 14
5 4 16 1762 272 14
5 3 16 7943 492 14
5 2 18 437 184 14
4 3 18 535 212 14
4 3 16 4996 362 14
4 3 15 1017 185 14
4 3 13 8438 418 14
4 2 16 2305 231 14
4 2 15 6557 365 14
4 2 13 1287 145 14
4 2 12 1469 139 14
4 2 11 208 98 14
3 3 17 8126 507 14
3 2 13 4372 243 14
3 2 12 8023 368 14
3 2 11 282 92 14
3 2 10 8408 369 14
2 2 12 416 89 14
2 2 11 3079 164 14
2 1 8 8186 340 14
2 1 7 9084 372 14
2 1 6 15581 622 14
1 1 6 7376 295 14
7 6 14 2928 581 14
7 6 12 1813 537 14
6 6 15 3167 546 14
6 5 14 823 274 14
6 4 10 456 179 14
6 4 9 875 199 14
5 6 15 2782 524 14
5 6 13 2156 430 14
5 5 12 574 241 14
5 5 11 1698 314 14
5 4 11 858 173 14
5 4 10 704 163 14
5 4 9 855 175 14
5 4 8 2754 242 14
5 3 8 12175 513 14
4 5 11 1613 265 14
4 4 10 643 145 14
4 4 9 1689 172 14
4 3 8 10513 441 14
4 3 7 43641 1716 14
4 3 6 19211 772 14
3 3 9 16846 682 14
3 3 8 2774 151 14
3 3 7 51450 2014 14
3 2 5 3833 164 14
2 2 6 24562 973 14
2 2 5 13529 539 14
1 1 3 6583 269 14
7 -12 -3 603 248 14
6 -9 -4 569 182 14
6 -10 -3 474 176 14
6 -10 -5 616 219 14
6 -11 -5 563 218 14
6 -12 -5 793 259 14
5 -7 -2 886 115 14
5 -8 -2 1392 146 14
5 -8 -3 564 134 14
5 -8 -4 410 130 14
5 -9 -2 1558 166 14
5 -9 -3 2025 195 14
5 -9 -4 309 143 14
5 -10 -3 1319 187 14
5 -10 -4 555 166 14
5 -10 -5 432 166 14
5 -12 -4 407 196 14
5 -12 -5 1628 276 14
4 -6 -2 437 85 14
4 -7 -2 343 95 14
4 -7 -3 470 106 14
4 -8 -3 2634 176 14
4 -8 -4 288 113 14
4 -9 -3 3506 226 14
4 -9 -4 3163 222 14
4 -10 -4 717 153 14
4 -11 -4 325 161 14
3 -5 -2 12901 529 14
3 -6 -2 17514 725 14
3 -6 -3 23999 996 14
3 -7 -3 23395 978 14
3 -8 -3 285 100 14
2 -3 -1 9246 372 14
2 -4 -1 3034 126 14
2 -4 -2 418 34 14
2 -5 -2 9248 372 14
4 -3 16 2660 231 14
4 -3 15 3138 226 14
3 -2 18 3237 275 14
3 -2 17 5053 324 14
3 -2 15 1200 154 14
3 -2 12 363 100 14
3 -2 11 458 84 14
3 -3 17 342 154 14
3 -3 16 635 158 14
3 -3 15 797 153 14
3 -3 13 8151 375 14
3 -4 17 675 166 14
3 -4 15 380 127 14
3 -4 14 1429 161 14
2 -2 12 4989 239 14
2 -2 11 5845 259 14
2 -2 10 184 70 14
2 -2 9 2057 107 14
2 -3 16 2512 207 14
2 -3 15 6790 342 14
2 -3 14 463 124 14
2 -3 13 2847 178 14
2 -3 12 3070 174 14
2 -3 11 273 79 14
1 -1 7 7022 274 14
1 -1 6 21571 840 14
1 -1 5 24281 1010 14
1 -2 9 2135 102 14
4 1 20 502 207 14
4 1 18 580 173 14
3 1 17 1469 198 14
3 1 16 450 145 14
3 1 15 11614 514 14
3 1 14 11576 496 14
3 0 20 490 209 14
3 0 19 420 181 14
2 2 17 1886 230 14
2 1 19 665 191 14
2 1 17 2248 214 14
2 1 16 328 148 14
2 1 15 15610 656 14
2 1 14 288 122 14
2 1 13 254 102 14
2 1 12 2699 155 14
2 1 11 952 93 14
2 0 19 967 217 14
2 0 17 346 144 14
2 0 16 4681 274 14
2 0 15 5148 272 14
2 0 13 4082 208 14
1 1 11 12309 491 14
1 1 10 1850 103 14
1 1 9 3829 162 14
1 0 18 369 165 14
1 0 17 2647 228 14
1 0 16 5861 319 14
1 0 15 11393 497 14
1 0 14 5071 254 14
1 0 13 451 99 14
1 0 12 6125 267 14
1 0 11 6518 273 14
1 0 10 4640 197 14
1 0 9 67265 2526 14
1 0 8 925 57 14
1 0 7 11018 411 14
1 0 6 7363 274 14
4 5 20 1974 473 14
4 5 16 1176 327 14
3 6 17 1744 520 14
3 4 17 1965 319 14
3 4 15 2198 269 14
3 4 13 8392 446 14
2 4 19 4465 552 14
2 4 18 2161 393 14
2 4 17 3113 378 14
2 4 16 1185 249 14
2 4 14 2259 257 14
2 4 13 492 169 14
2 4 12 662 160 14
2 3 15 964 166 14
2 3 14 7979 395 14
2 3 12 3357 199 14
2 3 11 419 106 14
2 3 10 230 93 14
2 3 9 14906 586 14
1 4 19 933 378 14
1 4 18 2316 415 14
1 4 16 1738 294 14
1 4 14 7704 487 14
1 3 14 2675 224 14
1 3 13 358 141 14
1 3 12 1077 141 14
1 3 10 12909 523 14
1 2 10 321 77 14
1 2 9 23224 897 14
1 2 8 13088 509 14
1 2 7 31240 1194 14
1 2 6 7356 286 14
0 4 19 1718 450 14
0 4 18 2239 474 14
0 3 13 1072 164 14
0 2 9 2599 130 14
5 6 11 14552 1247 14
5 5 8 1804 409 14
5 4 6 16490 835 14
5 4 5 9473 721 14
4 4 7 1713 201 14
4 4 6 20186 974 14
3 6 13 3833 671 14
3 5 9 3789 498 14
3 4 7 42248 1766 14
3 4 6 11444 696 14
3 3 5 238 85 14
3 3 4 11523 527 14
2 5 11 687 293 14
2 4 9 29408 1166 14
2 4 8 3344 268 14
2 4 7 29139 1368 14
2 3 6 1602 94 14
2 2 3 3438 132 14
1 4 8 47280 2180 14
1 3 6 529 103 14
1 2 4 19698 696 14
5 -12 -1 779 195 14
5 -12 -2 662 201 14
5 -13 -1 809 192 14
5 -13 -2 569 217 14
5 -13 -3 1711 279 14
4 -9 -1 3152 195 14
4 -10 -2 873 142 14
4 -11 -1 373 154 14
4 -12 -1 2142 225 14
4 -12 -2 1313 200 14
4 -12 -3 798 212 14
4 -13 0 693 178 14
4 -13 -2 645 221 14
3 -7 -1 940 91 14
3 -8 -1 2254 140 14
3 -8 -2 299 84 14
3 -9 0 3050 175 14
3 -9 -1 2902 178 14
3 -9 -2 5362 263 14
3 -10 0 936 134 14
3 -10 -1 677 127 14
3 -10 -2 2990 198 14
3 -10 -3 1581 161 14
3 -11 0 5223 294 14
3 -11 -2 389 143 14
3 -11 -3 374 146 14
3 -12 -2 3876 280 14
3 -12 -3 485 154 14
3 -13 -1 1306 222 14
3 -13 -2 5017 361 14
2 -5 -1 23307 863 14
2 -6 0 4208 167 14
2 -6 -1 664 61 14
2 -7 0 6857 276 14
2 -7 -2 1448 97 14
2 -8 -1 1182 99 14
2 -8 -2 3695 179 14
2 -9 -1 642 105 14
2 -9 -2 8902 383 14
2 -10 -1 303 110 14
1 -4 -1 2406 95 14
2 -4 11 4071 211 14
2 -4 10 912 107 14
2 -5 13 13000 589 14
2 -5 12 1355 151 14
2 -6 15 421 166 14
2 -7 14 372 175 14
2 -7 13 5867 349 14
1 -2 6 39487 1500 14
1 -2 5 35358 1405 14
1 -3 10 3459 167 14
1 -3 9 1028 84 14
1 -3 8 26430 1012 14
1 -3 7 19884 757 14
1 -3 6 26596 1013 14
1 -4 12 349 111 14
1 -4 11 8840 384 14
1 -4 10 199 87 14
1 -4 9 2226 124 14
1 -4 8 392 67 14
1 -5 14 1063 170 14
1 -5 13 374 136 14
1 -5 12 933 136 14
1 -5 11 347 108 14
1 -5 10 7502 332 14
1 -6 15 1117 192 14
1 -6 14 6137 354 14
1 -6 13 9362 455 14
1 -6 12 27079 1127 14
1 -7 15 836 201 14
1 -7 14 435 181 14
2 -2 19 596 200 14
1 -1 20 795 259 14
1 -1 19 3283 325 14
1 -1 18 1740 229 14
1 -1 17 3394 274 14
1 -1 16 648 160 14
1 -1 14 21515 891 14
1 -1 12 7617 334 14
1 -1 10 14724 581 14
1 -1 9 43966 1675 14
1 -2 19 2191 305 14
1 -2 18 2674 269 14
1 -2 16 770 160 14
1 -2 12 235 94 14
1 -3 17 1750 205 14
1 -3 16 471 157 14
1 -3 14 8804 409 14
0 -1 15 4023 251 14
0 -1 14 1841 159 14
0 -1 13 9121 404 14
0 -1 12 3622 190 14
0 -1 11 7102 305 14
0 -1 10 601 80 14
0 -1 9 31557 1211 14
0 -1 8 281 49 14
0 -1 7 17961 675 14
0 -1 6 39869 1499 14
0 -1 5 8662 348 14
0 -2 20 546 237 14
0 -2 18 3139 291 14
0 -2 17 377 171 14
0 -2 14 456 128 14
0 -2 13 2581 174 14
0 -2 12 3958 202 14
0 -3 18 1735 241 14
0 -3 17 1195 203 14
0 -3 16 4365 284 14
0 -3 15 288 129 14
1 2 18 1368 241 14
1 2 17 1109 202 14
1 2 16 1297 200 14
1 2 14 3965 225 14
1 2 13 7096 312 14
0 3 19 746 314 14
0 3 18 5715 504 14
0 2 18 1675 278 14
0 2 17 1387 227 14
0 2 15 2211 204 14
0 2 14 2712 199 14
0 2 12 739 105 14
0 1 18 1894 238 14
0 1 17 784 189 14
0 1 16 13028 569 14
0 1 11 3965 181 14
0 1 10 17849 655 14
0 1 9 1958 99 14
0 1 8 1811 88 14
0 1 7 11088 396 14
0 1 6 915 42 14
-1 3 19 2388 489 14
-1 2 18 1403 282 14
-1 2 17 1384 255 14
-1 2 16 423 190 14
-1 2 15 2404 240 14
-1 1 18 501 209 14
-1 1 17 3166 292 14
-1 1 16 405 174 14
-1 1 14 567 139 14
-1 1 13 4791 240 14
-1 1 12 7959 330 14
-1 1 11 2467 143 14
-2 1 19 821 302 14
-2 1 17 5861 430 14
2 6 16 2991 561 14
1 4 11 1175 200 14
1 4 10 1753 218 14
1 3 8 41865 1403 14
0 5 15 1348 404 14
0 4 14 743 239 14
0 3 10 9910 393 14
0 3 9 60832 2081 14
0 3 8 4328 220 14
0 2 7 31707 1067 14
0 2 6 9852 339 14
0 2 5 1638 72 14
0 1 3 7582 252 14
-1 4 17 1077 374 14
-1 4 15 3920 500 14
-1 4 12 1659 411 14
-1 4 11 1864 447 14
-1 3 14 787 204 14
-1 3 13 1174 220 14
-1 3 11 9085 445 14
-1 3 10 3116 255 14
-1 3 9 8567 454 14
-1 2 9 1936 123 14
-1 2 8 51307 1711 14
-1 2 7 14686 509 14
-1 1 5 1581 66 14
-2 3 11 6232 486 14
-2 3 10 20697 1171 14
-2 2 10 3255 215 14
-2 2 9 6980 327 14
-3 2 11 5107 410 14
-4 2 13 1505 440 14
0 -2 8 6708 281 14
0 -2 7 9256 383 14
0 -2 6 387 38 14
0 -2 5 9737 419 14
0 -3 11 10099 455 14
0 -3 10 3955 196 14
0 -3 9 964 81 14
0 -3 8 889 69 14
0 -3 7 66126 2689 14
0 -4 16 843 178 14
0 -4 14 4755 292 14
0 -4 12 4861 261 14
0 -4 11 1062 114 14
0 -4 10 626 90 14
0 -5 17 358 164 14
0 -5 14 10842 542 14
0 -5 13 610 132 14
0 -6 14 339 154 14
-1 -4 16 1164 185 14
-1 -4 15 5393 327 14
-1 -4 13 344 127 14
-1 -4 12 5290 278 14
-1 -4 10 1172 108 14
-1 -5 14 1652 188 14
-1 -5 13 839 142 14
-1 -5 12 267 112 14
-1 -6 16 727 189 14
-1 -6 15 3398 272 14
-1 -1 20 1778 295 14
-1 -1 18 2524 276 14
-1 -1 17 1310 205 14
-1 -1 15 9364 456 14
-1 -1 14 290 119 14
-1 -1 13 8287 381 14
-1 -1 12 1722 133 14
-1 -1 11 16180 673 14
-1 -1 10 20783 844 14
-1 -1 9 43810 1742 14
-1 -1 8 12625 504 14
-1 -1 7 10781 423 14
-1 -1 6 4130 166 14
-1 -2 14 438 116 14
-2 -1 19 724 261 14
-2 -1 17 3433 305 14
-2 -1 16 2529 243 14
-2 -1 15 447 164 14
-2 -1 14 3230 220 14
-2 -1 13 2313 173 14
-2 -1 12 3903 210 14
-2 -2 19 1792 285 14
-2 -2 16 715 173 14
-2 -2 14 434 130 14
-2 -2 13 986 133 14
-2 -2 12 604 108 14
-2 -2 11 570 93 14
-2 -3 19 605 221 14
-2 -3 18 468 194 14
-3 -1 19 1215 305 14
-3 -2 19 540 233 14
-3 -2 16 354 168 14
-3 -3 19 1162 256 14
-3 -3 16 1896 217 14
-1 1 8 8520 361 14
-1 1 7 5147 223 14
-1 0 4 20873 818 14
-1 0 3 385 21 14
-2 3 19 3140 641 14
-2 2 16 1931 336 14
-2 2 15 903 275 14
-2 2 13 661 184 14
-2 1 12 1322 162 14
-2 1 11 2138 172 14
-2 1 8 3844 187 14
-2 0 9 1284 95 14
-2 0 8 2344 126 14
-2 0 7 23199 955 14
-2 0 6 5836 248 14
-3 2 15 1359 383 14
-3 1 15 681 271 14
-3 1 13 3389 299 14
-3 1 12 2570 254 14
-3 1 10 1983 202 14
-3 0 14 672 173 14
-3 0 13 4051 284 14
-3 0 12 2122 189 14
-3 0 11 6815 345 14
-3 0 10 989 133 14
-3 0 9 1507 133 14
-4 2 17 1936 538 14
-4 1 18 1589 549 14
-4 0 14 604 250 14
-4 0 13 492 198 14
-4 0 12 10530 589 14
-5 -1 14 870 289 14
-2 1 5 1097 104 14
-2 0 3 36527 1405 14
-3 1 7 645 182 14
-3 1 6 1228 259 14
-3 0 5 13709 555 14
-3 0 4 329 139 14
-3 -1 3 14331 559 14
-3 -1 2 55808 2332 14
-4 1 9 1072 340 14
-4 0 7 705 185 14
-4 0 6 4602 384 14
-4 -1 4 2591 223 14
-5 1 11 1555 543 14
-5 -2 4 10811 625 14
-5 -2 3 1359 386 14
-6 -1 8 4135 592 14
6 -6 11 556 168 15
6 -6 10 581 196 15
6 -6 9 685 172 15
6 -6 8 1545 172 15
6 -7 11 2208 279 15
6 -7 10 5002 375 15
6 -7 9 558 168 15
6 -7 8 301 148 15
6 -8 11 579 201 15
5 -5 9 224 108 15
5 -5 8 3526 231 15
5 -5 7 5730 320 15
5 -6 7 1234 144 15
5 -7 9 1286 182 15
4 -4 7 2178 141 15
4 -4 6 638 84 15
4 -4 5 20780 977 15
4 -5 6 767 99 15
4 -5 5 291 71 15
3 -3 5 17175 784 15
3 -3 4 11001 504 15
3 -4 5 1736 103 15
2 -2 3 17519 866 15
7 -4 14 395 180 15
6 -3 15 1618 250 15
6 -3 14 2326 254 15
6 -3 13 2263 228 15
6 -3 12 1784 194 15
6 -3 11 1217 159 15
6 -4 14 385 158 15
6 -4 12 1343 178 15
5 -3 13 498 157 15
5 -3 12 3949 250 15
5 -3 11 825 132 15
5 -3 10 1859 149 15
5 -4 14 310 153 15
5 -4 13 403 157 15
5 -4 12 7437 395 15
5 -4 11 565 132 15
5 -4 10 489 109 15
4 -2 10 3258 188 15
4 -2 9 366 85 15
4 -2 8 553 80 15
4 -2 7 4513 206 15
4 -3 11 3115 196 15
4 -3 9 10008 451 15
4 -3 8 841 87 15
4 -4 12 2984 210 15
3 -2 8 7596 334 15
3 -2 7 282 58 15
3 -2 6 2604 119 15
3 -3 9 1042 92 15
2 -1 5 25680 1054 15
2 -1 4 5876 251 15
2 -2 6 14177 578 15
7 0 14 696 236 15
7 -1 16 599 256 15
6 0 17 1742 340 15
6 0 14 6896 449 15
6 0 13 2984 276 15
6 -1 17 717 291 15
6 -1 15 1418 251 15
6 -1 14 900 200 15
5 0 16 735 247 15
5 0 15 1202 238 15
5 0 14 3220 283 15
5 0 13 9892 502 15
5 0 12 2906 221 15
5 0 11 645 135 15
5 0 10 5567 282 15
5 -1 18 1850 360 15
5 -1 17 2025 300 15
5 -1 16 1997 279 15
5 -1 15 874 206 15
5 -1 13 712 150 15
5 -1 12 8742 426 15
4 0 12 3134 209 15
4 0 9 2206 140 15
4 0 8 6766 302 15
4 -1 12 453 125 15
4 -1 11 11168 498 15
3 0 10 5495 259 15
3 0 9 3705 186 15
3 0 8 59697 2453 15
3 0 7 1640 93 15
3 0 6 3719 161 15
2 0 5 51356 2039 15
2 0 4 17127 687 15
8 3 11 3394 521 15
7 3 15 4289 661 15
7 3 12 877 362 15
7 3 11 2585 402 15
7 2 10 1850 234 15
7 2 9 1122 216 15
6 3 15 1509 440 15
6 3 14 1524 404 15
6 3 12 5176 545 15
6 3 10 1586 306 15
6 3 9 1765 312 15
6 2 14 5501 500 15
5 3 12 3868 429 15
5 3 11 561 246 15
5 2 12 2869 292 15
5 2 11 3812 290 15
5 2 10 2333 210 15
5 2 9 3534 234 15
5 2 7 2452 170 15
4 2 10 1243 165 15
4 2 9 2575 187 15
4 2 8 1631 139 15
4 2 7 871 109 15
3 1 7 2056 105 15
3 1 6 20523 820 15
3 1 5 3063 133 15
3 1 4 392 43 15
2 1 5 1361 68 15
2 1 4 5206 210 15
2 1 3 7294 288 15
6 -8 -7 1254 174 15
6 -9 -9 429 189 15
6 -10 -8 532 200 15
5 -7 -6 25270 1074 15
5 -7 -7 731 138 15
5 -8 -7 779 152 15
5 -8 -8 933 167 15
5 -9 -8 2216 215 15
5 -9 -9 1306 195 15
5 -10 -8 1069 191 15
5 -10 -9 429 182 15
5 -11 -11 506 236 15
4 -6 -5 15480 657 15
4 -6 -6 13046 566 15
4 -7 -6 18241 783 15
4 -7 -7 965 129 15
4 -8 -6 2912 186 15
4 -8 -7 1071 139 15
4 -8 -8 648 136 15
4 -9 -8 394 143 15
3 -5 -4 16183 658 15
3 -5 -5 8344 354 15
3 -6 -5 6797 297 15
3 -8 -7 6096 301 15
2 -3 -3 20143 801 15
2 -4 -3 588 39 15
2 -4 -4 15563 618 15
5 -6 13 1139 197 15
5 -6 12 4835 307 15
5 -6 11 3427 247 15
5 -7 13 533 185 15
5 -8 12 932 187 15
4 -5 12 10823 501 15
4 -5 11 1297 152 15
4 -5 9 313 96 15
4 -6 13 1083 186 15
4 -6 11 715 155 15
4 -7 13 391 172 15
4 -7 12 4228 287 15
4 -7 11 9532 471 15
4 -7 10 1279 161 15
4 -8 12 1308 186 15
3 -4 10 8704 381 15
3 -4 8 952 91 15
3 -4 7 412 67 15
3 -5 11 733 123 15
3 -5 10 437 106 15
3 -5 9 5610 262 15
3 -5 8 4478 211 15
3 -6 12 7265 374 15
3 -6 11 25320 1050 15
3 -6 10 233 115 15
3 -6 9 563 100 15
3 -7 12 353 156 15
2 -3 7 2571 119 15
2 -3 6 68483 2605 15
2 -3 5 6691 263 15
2 -4 8 3663 167 15
2 -4 7 171 60 15
2 -4 6 33944 1297 15
1 -2 4 9170 380 15
4 -2 16 2172 258 15
4 -2 15 882 178 15
4 -2 12 399 109 15
4 -3 18 527 230 15
4 -3 16 2627 270 15
4 -3 15 2981 245 15
4 -3 14 4724 289 15
3 -2 17 3698 340 15
3 -2 15 1283 183 15
3 -2 12 350 113 15
3 -2 11 247 98 15
3 -2 10 225 80 15
3 -3 16 780 197 15
3 -3 15 751 173 15
3 -3 13 7244 350 15
3 -3 12 1572 143 15
3 -4 17 544 199 15
2 -1 10 9004 370 15
2 -1 9 208 74 15
2 -1 8 38501 1467 15
2 -1 7 156 47 15
2 -1 6 5760 219 15
2 -2 13 253 112 15
2 -2 12 4314 224 15
2 -2 11 5708 259 15
2 -2 10 211 80 15
2 -2 9 1916 109 15
2 -2 8 13409 517 15
2 -3 15 5693 334 15
2 -3 14 514 148 15
2 -3 13 2446 178 15
2 -3 12 2801 172 15
1 -1 6 20810 770 15
1 -1 5 25454 945 15
1 -1 4 23972 977 15
4 2 16 1913 414 15
4 2 15 5389 518 15
4 1 16 1593 335 15
4 1 14 7847 480 15
3 2 17 1920 533 15
3 2 13 3229 351 15
3 1 17 1442 384 15
3 1 15 9057 596 15
3 1 14 10083 552 15
3 1 11 6309 307 15
3 1 10 7912 343 15
3 1 9 259 93 15
3 0 17 1176 315 15
3 0 16 1758 291 15
3 0 15 5880 397 15
3 0 14 10626 524 15
2 1 17 1249 445 15
2 1 15 12446 751 15
2 1 12 2127 193 15
2 1 11 970 136 15
2 1 10 11517 472 15
2 1 9 31388 1200 15
2 1 8 7817 316 15
2 1 7 8129 321 15
2 0 16 3954 383 15
2 0 15 4465 344 15
2 0 13 3827 246 15
2 0 10 5439 241 15
1 0 8 988 69 15
1 0 7 10535 406 15
1 0 6 6632 253 15
1 0 5 1425 58 15
5 3 6 27087 1283 15
5 3 5 1109 312 15
4 3 10 1789 271 15
4 3 9 1737 285 15
4 3 8 9568 564 15
4 3 7 37770 1720 15
4 3 6 16938 923 15
3 3 10 1838 336 15
3 3 9 15154 847 15
3 3 8 2832 358 15
3 2 5 3190 148 15
3 2 4 416 84 15
3 2 3 7886 368 15
2 2 8 214 105 15
2 2 6 20538 767 15
2 2 5 11200 459 15
1 2 7 27057 1190 15
1 1 4 13190 469 15
1 1 3 6617 237 15
5 -12 -7 400 191 15
5 -12 -8 1711 246 15
5 -13 -8 929 251 15
5 -13 -9 588 229 15
4 -9 -6 761 125 15
4 -10 -6 1399 166 15
4 -10 -7 1453 182 15
4 -11 -6 696 160 15
4 -11 -8 466 162 15
4 -12 -7 1191 197 15
4 -13 -6 2047 252 15
4 -13 -7 1574 258 15
3 -8 -5 13339 545 15
3 -9 -7 4114 227 15
3 -10 -5 448 125 15
3 -10 -6 6618 327 15
3 -10 -7 5351 290 15
3 -12 -6 1213 180 15
3 -12 -7 2462 228 15
3 -13 -7 1176 209 15
3 -13 -8 997 214 15
3 -13 -9 449 210 15
3 -14 -8 1245 265 15
3 -14 -9 2662 329 15
2 -5 -3 9421 353 15
2 -6 -3 79239 2928 15
2 -6 -4 18403 700 15
2 -7 -4 16993 656 15
2 -7 -5 52356 2006 15
2 -8 -5 3505 175 15
2 -9 -5 2684 160 15
2 -10 -6 3540 214 15
2 -12 -7 500 166 15
1 -4 -2 1319 56 15
1 -5 -3 10009 378 15
3 -7 8 542 122 15
3 -8 11 307 151 15
3 -8 10 3240 240 15
3 -8 9 3469 232 15
3 -8 8 440 133 15
3 -9 12 989 223 15
3 -9 8 3345 234 15
3 -10 11 502 206 15
3 -10 9 954 185 15
3 -10 8 967 179 15
3 -11 9 884 217 15
2 -5 6 753 76 15
2 -5 5 505 58 15
2 -6 8 7720 342 15
2 -6 7 5953 268 15
2 -6 6 6315 272 15
2 -6 5 132 63 15
2 -7 9 805 131 15
2 -7 8 1186 128 15
2 -8 10 1334 168 15
2 -8 9 2652 199 15
2 -8 8 1703 157 15
2 -8 7 1696 147 15
2 -9 10 371 157 15
2 -9 9 399 146 15
2 -9 8 372 132 15
2 -10 9 1875 206 15
1 -3 4 1534 70 15
1 -3 3 7667 320 15
1 -4 5 37340 1415 15
1 -4 4 15339 581 15
1 -5 5 13711 527 15
1 -6 6 5060 221 15
3 -5 15 512 173 15
3 -6 15 402 196 15
3 -6 14 951 192 15
2 -4 13 5400 302 15
2 -4 11 4043 222 15
2 -4 10 758 110 15
2 -5 13 11715 553 15
2 -5 12 1426 159 15
2 -5 11 230 111 15
2 -6 16 406 194 15
2 -6 14 839 189 15
2 -7 13 5300 337 15
1 -2 6 41131 1535 15
1 -2 5 36165 1353 15
1 -3 10 2944 164 15
1 -3 9 1051 93 15
1 -3 8 25269 979 15
1 -3 7 18817 712 15
1 -3 6 26424 991 15
1 -4 11 7958 364 15
1 -4 10 305 94 15
1 -4 9 2123 129 15
1 -4 8 420 72 15
1 -5 14 699 190 15
1 -5 13 476 145 15
1 -5 12 662 140 15
1 -5 11 405 116 15
1 -5 10 7086 323 15
1 -6 15 1393 218 15
1 -6 14 5203 347 15
1 -6 13 7752 421 15
1 -6 12 25568 1065 15
1 -7 15 1030 223 15
1 -7 14 667 186 15
2 -1 20 1573 402 15
2 -1 17 2164 312 15
2 -1 16 1115 220 15
2 -1 15 3651 277 15
2 -1 14 5005 288 15
2 -1 13 590 139 15
2 -2 17 4178 359 15
2 -2 16 815 194 15
1 -1 19 3273 485 15
1 -1 18 1163 350 15
1 -1 17 2830 373 15
1 -1 16 788 216 15
1 -1 14 17334 717 15
1 -1 12 6815 301 15
1 -1 11 262 99 15
1 -1 10 13573 509 15
1 -1 9 42248 1517 15
1 -1 8 37213 1330 15
1 -2 19 2464 446 15
1 -2 18 2349 381 15
1 -2 16 684 208 15
1 -2 14 309 142 15
1 -3 17 1038 255 15
1 -3 16 385 192 15
1 -3 14 7163 351 15
0 -1 16 4166 401 15
0 -1 15 3232 298 15
0 -1 14 1326 196 15
0 -1 13 7685 365 15
0 -1 12 3095 188 15
0 -1 11 6287 274 15
0 -1 10 529 94 15
0 -1 9 28253 1023 15
0 -1 8 277 60 15
0 -1 7 16089 574 15
0 -1 6 38397 1328 15
0 -1 5 7863 278 15
0 -2 18 2378 421 15
0 -2 13 2400 181 15
0 -2 12 3566 198 15
0 -2 11 196 95 15
0 -2 10 204 82 15
0 -3 18 1848 339 15
0 -3 17 1346 265 15
0 -3 16 3660 308 15
0 -3 14 2939 217 15
-1 -3 18 1923 374 15
-1 -3 16 482 217 15
-1 -3 15 4241 315 15
-1 -3 14 1892 201 15
2 2 11 2234 238 15
1 2 14 2632 469 15
1 2 13 6039 530 15
1 2 11 6414 449 15
1 1 6 6972 243 15
0 1 18 1792 574 15
0 1 16 9651 830 15
0 1 11 2586 235 15
0 1 10 13250 540 15
0 1 9 1540 143 15
0 1 8 1393 117 15
0 1 7 8009 295 15
0 1 6 578 66 15
-1 1 17 2882 795 15
-1 1 13 3082 467 15
-1 1 12 5896 499 15
-1 1 11 1439 324 15
-1 0 15 2371 408 15
-1 0 13 1294 248 15
-1 0 12 5815 346 15
-1 0 11 4669 269 15
-1 0 10 20348 737 15
-1 0 8 2999 144 15
-1 0 7 1411 88 15
-1 0 6 2349 102 15
-1 0 5 15294 516 15
-2 0 14 893 349 15
-2 0 11 16370 810 15
-2 0 10 34607 1420 15
1 -5 8 2860 155 15
1 -5 7 345 59 15
1 -6 9 3417 200 15
1 -6 8 21389 928 15
1 -7 11 1705 182 15
1 -7 9 1277 136 15
1 -8 11 2737 234 15
1 -8 10 4792 290 15
1 -8 9 321 117 15
1 -9 13 1620 226 15
1 -9 10 363 146 15
1 -10 12 700 191 15
0 -3 5 70527 2884 15
0 -3 4 2920 128 15
0 -4 6 38995 1593 15
0 -4 5 3653 157 15
0 -5 7 2129 119 15
0 -5 6 2049 108 15
0 -6 10 386 110 15
0 -6 9 4951 259 15
0 -6 8 3834 203 15
0 -6 7 3685 188 15
0 -7 11 967 156 15
0 -7 10 1580 150 15
0 -7 9 373 113 15
0 -8 13 832 194 15
0 -8 12 3620 285 15
0 -8 11 921 164 15
0 -8 10 3015 227 15
0 -8 9 2004 166 15
0 -9 14 515 220 15
0 -9 10 721 145 15
0 -2 7 8485 341 15
0 -2 6 376 40 15
0 -2 5 9957 386 15
0 -3 11 9271 412 15
0 -3 10 3406 180 15
0 -3 9 1083 93 15
0 -3 8 738 70 15
0 -4 15 514 160 15
0 -4 14 4754 303 15
0 -4 13 311 129 15
0 -4 12 4707 259 15
0 -4 11 818 118 15
0 -4 10 638 91 15
0 -5 14 9718 498 15
0 -5 13 422 139 15
-1 -3 11 1282 125 15
-1 -3 10 1921 132 15
-1 -3 9 17495 723 15
-1 -3 8 17305 703 15
-1 -3 7 14897 599 15
-1 -4 15 4130 320 15
-1 -4 13 381 145 15
-1 -4 12 4897 271 15
-1 -4 10 1010 114 15
-1 -4 9 236 85 15
-1 -5 14 1763 205 15
-1 -5 13 648 150 15
-1 -5 12 424 128 15
-1 -5 11 5905 295 15
-1 -6 15 2822 299 15
-1 -6 14 5389 356 15
-1 -6 13 16930 771 15
-1 -7 15 439 202 15
-2 -6 13 1631 207 15
-2 -7 15 3015 316 15
-1 -1 18 2838 644 15
-1 -1 15 7601 587 15
-1 -1 13 6635 411 15
-1 -1 12 1705 188 15
-1 -1 11 13871 620 15
-1 -1 10 18252 775 15
-1 -1 9 40300 1658 15
-1 -1 8 11357 481 15
-1 -1 7 9889 415 15
-1 -1 6 3742 163 15
-1 -1 5 33984 1347 15
-1 -1 4 617 33 15
-2 -1 17 2761 620 15
-2 -1 16 2110 497 15
-2 -1 15 842 358 15
-2 -1 14 2224 389 15
-2 -1 13 1616 307 15
-2 -1 12 2871 298 15
-2 -1 11 1715 211 15
-2 -1 10 7418 385 15
-2 -1 9 1697 148 15
-2 -1 8 6594 305 15
-2 -2 13 1209 218 15
-2 -2 11 445 148 15
-2 -2 10 7300 352 15
-2 -2 9 4282 223 15
-2 -2 8 5031 237 15
-2 -2 7 187 62 15
-2 -3 17 1727 392 15
-2 -3 15 2445 313 15
-3 -3 19 2119 582 15
-3 -3 16 1941 435 15
-3 -3 15 1616 356 15
-3 -3 13 1640 264 15
-3 -3 12 496 190 15
-3 -3 11 484 162 15
-3 -3 10 9103 441 15
-4 -4 14 2330 367 15
-1 0 3 299 33 15
-2 0 7 16982 788 15
-2 0 6 3902 268 15
-2 -1 3 2765 116 15
-2 -1 2 21828 840 15
-3 -1 8 935 184 15
-3 -1 6 15295 704 15
-3 -1 4 1067 203 15
-4 -1 11 1272 529 15
-4 -1 10 2137 594 15
-4 -1 9 1826 523 15
-4 -2 6 2502 256 15
-4 -2 5 452 199 15
-4 -2 3 1523 316 15
-5 -2 11 1740 614 15
-5 -2 10 1724 504 15
-5 -3 6 2786 330 15
-5 -3 4 4602 454 15
-6 -3 10 4695 793 15
7 -8 4 899 177 16
7 -8 3 401 141 16
7 -9 6 523 214 16
7 -9 5 431 171 16
7 -9 3 1661 216 16
6 -7 3 498 134 16
6 -8 4 3003 236 16
6 -8 3 468 142 16
6 -9 3 1194 184 16
5 -6 3 1093 115 16
5 -7 4 3190 211 16
5 -7 3 13143 657 16
5 -7 2 1715 147 16
5 -8 4 2411 195 16
5 -8 3 3966 255 16
4 -5 3 2406 140 16
4 -5 2 5790 283 16
4 -6 3 770 90 16
4 -6 2 1332 105 16
4 -7 3 5616 298 16
3 -4 2 4768 223 16
3 -5 2 8145 377 16
2 -3 1 2378 122 16
8 -7 9 1600 261 16
7 -6 11 1760 258 16
7 -6 10 1013 240 16
7 -6 9 8880 502 16
7 -6 8 426 153 16
7 -7 10 731 206 16
7 -7 8 630 168 16
7 -8 8 443 177 16
6 -5 8 298 119 16
6 -6 10 689 181 16
6 -6 9 753 175 16
6 -6 8 1341 164 16
6 -7 10 5445 373 16
5 -4 6 249 77 16
5 -4 5 468 78 16
5 -5 8 3713 224 16
5 -5 7 4973 263 16
5 -5 6 2031 142 16
5 -6 7 1183 137 16
5 -6 6 5518 283 16
5 -7 9 1065 168 16
4 -4 6 609 84 16
4 -4 5 19437 825 16
4 -5 7 162 81 16
4 -5 6 815 95 16
3 -3 5 16070 670 16
3 -3 4 10063 413 16
3 -4 5 1582 91 16
2 -2 3 15466 650 16
8 -3 14 906 401 16
8 -3 13 1426 368 16
8 -3 12 628 294 16
8 -3 11 630 249 16
7 -3 13 636 296 16
7 -3 12 563 251 16
7 -3 11 1405 226 16
7 -3 10 399 175 16
7 -4 11 3078 292 16
6 -2 11 420 175 16
6 -2 10 1589 198 16
6 -2 9 1280 161 16
6 -3 13 2233 335 16
6 -3 12 1974 261 16
6 -3 11 967 187 16
6 -3 10 2260 210 16
6 -4 13 521 205 16
6 -4 12 762 222 16
6 -4 11 581 186 16
5 -2 8 618 113 16
5 -2 7 12506 541 16
5 -3 11 1027 167 16
5 -3 10 1828 174 16
5 -3 9 2572 184 16
5 -3 8 236 101 16
4 -2 8 616 99 16
4 -2 7 4107 201 16
4 -2 6 3255 160 16
4 -3 9 8934 409 16
4 -3 8 793 94 16
3 -1 5 6667 280 16
3 -2 7 561 76 16
3 -2 6 2456 122 16
3 -2 5 38699 1566 16
2 -1 4 5197 210 16
2 -1 3 1849 78 16
9 1 11 4369 771 16
9 0 11 2200 552 16
8 0 13 3059 593 16
8 0 12 2657 513 16
8 0 10 941 323 16
7 1 13 3671 795 16
7 1 12 7614 857 16
7 1 9 2209 381 16
7 1 8 977 296 16
7 0 13 1336 486 16
7 0 12 5470 621 16
7 0 11 932 357 16
7 0 9 1730 278 16
7 0 8 3788 297 16
6 1 8 13799 760 16
6 1 7 8498 482 16
6 1 6 465 163 16
6 0 11 1916 337 16
6 0 8 610 165 16
6 0 7 403 124 16
5 1 6 4352 249 16
5 1 5 7962 361 16
5 0 10 4031 334 16
5 0 9 4014 280 16
5 0 8 2040 177 16
5 0 7 29198 1170 16
5 0 6 7306 320 16
4 0 8 6219 303 16
4 0 7 27248 1082 16
4 0 6 2372 131 16
4 0 5 143 60 16
3 0 6 3573 163 16
3 0 5 10656 431 16
3 0 4 92 38 16
2 0 4 16040 634 16
2 0 3 15463 602 16
1 0 2 3220 137 16
6 -8 -13 469 201 16
6 -9 -14 1924 310 16
5 -6 -10 1648 165 16
5 -7 -13 443 183 16
5 -8 -13 749 202 16
5 -8 -14 408 197 16
5 -10 -15 1049 263 16
4 -5 -8 2834 160 16
4 -6 -10 4365 244 16
4 -6 -11 2283 195 16
4 -9 -13 5070 361 16
4 -9 -14 1122 249 16
3 -4 -7 2381 124 16
3 -5 -7 25166 1034 16
3 -5 -8 9028 391 16
3 -6 -9 3793 201 16
3 -6 -10 553 111 16
3 -7 -11 949 136 16
3 -8 -12 1410 166 16
2 -3 -5 1997 88 16
2 -4 -6 379 47 16
6 -9 8 340 164 16
6 -10 7 388 170 16
5 -7 6 1326 139 16
5 -8 8 1137 166 16
5 -8 7 337 139 16
5 -8 6 1051 139 16
5 -9 9 308 150 16
5 -9 7 2125 202 16
5 -9 6 851 157 16
5 -10 8 809 178 16
5 -10 7 875 174 16
5 -11 7 408 155 16
4 -6 5 6410 286 16
4 -7 7 1823 150 16
4 -8 7 1660 162 16
4 -8 6 435 118 16
4 -8 5 6579 314 16
4 -10 8 902 179 16
4 -11 8 481 157 16
3 -5 5 956 79 16
3 -5 4 6485 266 16
3 -6 5 3990 187 16
3 -6 4 203 68 16
3 -7 5 9299 396 16
3 -8 6 370 102 16
2 -4 3 10681 418 16
2 -5 4 2882 123 16
6 -6 12 923 233 16
5 -5 12 1724 245 16
5 -5 11 2544 231 16
5 -6 13 948 243 16
5 -6 12 4045 327 16
5 -6 11 3154 275 16
5 -7 13 814 225 16
5 -8 12 679 218 16
4 -4 10 1583 151 16
4 -4 9 355 115 16
4 -4 8 235 97 16
4 -5 12 9278 481 16
4 -5 11 1415 173 16
4 -6 13 711 231 16
4 -6 11 727 183 16
4 -6 9 2312 176 16
4 -7 12 3813 311 16
4 -7 11 9148 471 16
3 -3 7 20795 808 16
3 -3 6 8766 347 16
3 -4 9 252 100 16
3 -4 8 678 98 16
3 -4 7 260 78 16
3 -5 9 5431 261 16
3 -5 8 4245 210 16
3 -6 11 24353 1001 16
3 -6 10 431 124 16
2 -2 5 8600 322 16
2 -2 4 2955 115 16
2 -3 6 68063 2567 16
2 -3 5 6513 248 16
2 -4 7 425 73 16
7 -2 15 2255 576 16
6 -2 14 1017 372 16
5 -1 12 7137 533 16
5 -1 11 1179 236 16
5 -2 16 2987 660 16
5 -2 12 476 200 16
4 -1 14 1191 466 16
4 -1 13 1899 386 16
4 -1 11 9337 505 16
4 -1 9 9878 429 16
4 -1 8 390 87 16
4 -2 16 2075 552 16
4 -2 15 910 409 16
4 -2 14 767 333 16
4 -2 11 3147 249 16
4 -3 16 1398 520 16
4 -3 15 2041 461 16
4 -3 14 4130 457 16
4 -3 13 1495 271 16
3 -1 11 3603 296 16
3 -1 10 942 152 16
3 -1 9 7511 337 16
3 -1 8 48681 1848 16
3 -1 7 21983 846 16
3 -2 9 4480 222 16
3 -3 15 1130 373 16
3 -3 13 6196 435 16
3 -3 12 1651 205 16
2 -1 8 36972 1408 16
2 -1 6 5147 208 16
2 -2 11 4183 273 16
2 -2 9 1618 130 16
2 -2 8 12248 485 16
1 -1 5 26142 982 16
1 -1 4 26059 968 16
7 2 9 1965 518 16
7 2 8 1392 472 16
5 2 7 1744 449 16
5 2 6 701 315 16
5 2 5 11549 685 16
4 1 11 1281 403 16
4 1 9 13710 756 16
4 1 8 18473 848 16
4 1 7 2467 189 16
3 1 10 5473 613 16
3 1 8 4339 358 16
3 1 7 1597 205 16
3 1 6 15753 627 16
3 1 5 2256 131 16
3 1 4 197 65 16
3 1 3 1321 73 16
2 1 7 6584 460 16
2 1 6 11656 574 16
2 1 5 977 142 16
2 1 4 4093 191 16
2 1 3 6501 248 16
4 -9 -11 406 143 16
4 -11 -12 897 192 16
4 -11 -13 1614 246 16
3 -7 -8 1142 108 16
3 -7 -9 4627 225 16
3 -8 -9 471 107 16
3 -8 -10 319 119 16
3 -9 -9 472 119 16
3 -9 -10 305 115 16
3 -9 -12 1181 181 16
3 -10 -10 288 127 16
3 -10 -11 863 160 16
3 -10 -12 2177 220 16
3 -11 -11 648 167 16
3 -11 -13 2722 282 16
3 -11 -14 616 233 16
3 -12 -13 1097 223 16
2 -5 -6 8976 341 16
2 -6 -6 2534 116 16
2 -6 -7 2190 114 16
2 -7 -7 5061 220 16
2 -7 -8 1488 109 16
2 -7 -9 1675 128 16
2 -8 -8 931 100 16
2 -8 -9 1596 130 16
2 -9 -9 686 108 16
2 -9 -11 998 142 16
2 -11 -12 2142 232 16
2 -12 -13 416 182 16
1 -3 -4 2144 85 16
1 -4 -4 589 35 16
1 -4 -5 4331 168 16
4 -9 4 841 131 16
4 -11 4 324 149 16
4 -11 3 597 152 16
4 -12 4 655 184 16
4 -13 3 2060 244 16
3 -7 3 3927 187 16
3 -8 4 7730 346 16
3 -8 3 2621 159 16
3 -9 5 5405 289 16
3 -9 4 11677 515 16
3 -9 3 4339 233 16
3 -9 2 14607 612 16
3 -10 5 1190 165 16
3 -10 4 978 155 16
3 -10 3 2744 203 16
3 -10 2 2539 187 16
3 -12 6 870 197 16
3 -12 5 1005 195 16
3 -12 4 307 147 16
2 -5 2 11896 458 16
2 -6 3 4330 182 16
2 -6 2 19575 752 16
2 -7 3 734 81 16
2 -7 2 8874 359 16
2 -8 4 30548 1223 16
2 -8 2 611 83 16
2 -9 4 390 107 16
2 -9 3 3145 181 16
2 -10 3 12607 552 16
1 -4 2 14263 558 16
1 -4 1 1348 61 16
4 -8 10 692 195 16
4 -9 10 381 171 16
3 -6 7 14448 604 16
3 -7 8 753 132 16
3 -8 10 2916 254 16
3 -8 9 3363 246 16
3 -8 8 585 139 16
3 -9 12 892 247 16
3 -9 8 3090 237 16
3 -10 9 1026 197 16
3 -10 8 904 181 16
3 -11 9 1419 222 16
2 -4 5 21188 811 16
2 -5 7 143 72 16
2 -5 6 707 82 16
2 -5 5 200 61 16
2 -6 8 7131 332 16
2 -6 7 5610 263 16
2 -6 6 5736 255 16
2 -7 9 738 143 16
2 -7 8 955 139 16
2 -8 10 1019 184 16
2 -8 9 2192 206 16
2 -8 8 1584 163 16
2 -8 7 1353 144 16
2 -10 11 586 192 16
2 -10 9 1539 216 16
2 -11 10 786 218 16
1 -3 4 1309 61 16
1 -3 3 7329 287 16
1 -4 5 37650 1413 16
1 -4 4 14605 549 16
1 -5 5 13478 525 16
1 -6 6 4631 212 16
1 -7 7 942 122 16
3 -4 13 8952 497 16
3 -4 12 543 164 16
3 -5 14 535 226 16
3 -5 13 1518 253 16
3 -6 14 1403 274 16
2 -3 10 9273 384 16
2 -3 9 1480 122 16
2 -3 8 653 85 16
2 -4 13 4401 342 16
2 -4 11 3523 221 16
2 -4 10 838 131 16
2 -4 9 421 90 16
2 -5 13 10409 551 16
2 -5 12 1231 185 16
2 -7 13 4832 371 16
1 -2 6 41137 1468 16
1 -2 5 37586 1300 16
1 -3 10 2350 166 16
1 -3 9 891 110 16
1 -3 8 23924 870 16
1 -3 7 17859 649 16
1 -3 6 26107 928 16
1 -4 11 6793 333 16
1 -4 9 2059 135 16
1 -4 8 351 84 16
1 -5 12 706 175 16
1 -5 11 464 139 16
1 -5 10 6742 307 16
1 -6 15 866 312 16
1 -6 14 4666 433 16
1 -6 13 7479 453 16
1 -6 12 21478 891 16
1 -7 16 929 324 16
1 -7 14 827 272 16
1 -7 13 563 241 16
1 -8 15 974 336 16
0 -2 4 16233 567 16
0 -3 6 8083 299 16
0 -4 8 250 87 16
0 -5 10 484 128 16
0 -6 12 1361 205 16
0 -7 14 4005 444 16
2 -1 14 3724 632 16
2 -1 12 12313 717 16
2 -1 11 1732 235 16
1 -1 12 4805 501 16
1 -1 10 10262 488 16
1 -1 9 32753 1155 16
1 -1 8 33422 1128 16
1 -2 12 915 241 16
1 -3 14 5932 533 16
0 -1 11 4253 505 16
0 -1 10 714 276 16
0 -1 9 20523 863 16
0 -1 8 252 124 16
0 -1 7 13817 481 16
0 -1 6 38262 1279 16
0 -1 5 7242 251 16
0 -2 13 1696 445 16
0 -2 12 2512 383 16
0 -2 9 11052 421 16
0 -3 16 3472 735 16
0 -3 14 2893 482 16
0 -3 13 1090 312 16
-1 -2 11 2235 363 16
-1 -2 10 1601 279 16
-1 -2 9 4227 274 16
-1 -3 14 2201 540 16
-1 -3 13 1540 418 16
-1 -3 12 1556 356 16
-2 -3 12 3493 515 16
-2 -3 11 1514 348 16
2 -10 7 348 147 16
2 -11 8 437 173 16
2 -11 6 476 150 16
2 -13 6 466 208 16
1 -5 3 13188 541 16
1 -6 3 48114 1965 16
1 -7 5 18418 799 16
1 -7 4 3352 171 16
1 -7 3 833 77 16
1 -8 6 12585 577 16
1 -8 5 7821 370 16
1 -8 4 12390 550 16
1 -9 6 5381 297 16
1 -9 5 10149 480 16
1 -9 4 5584 287 16
1 -10 8 375 164 16
1 -10 7 809 163 16
1 -10 6 2787 215 16
1 -10 5 2262 189 16
1 -11 6 351 148 16
1 -12 9 442 198 16
1 -12 8 416 200 16
1 -12 7 1131 212 16
1 -12 6 1215 199 16
0 -4 2 2373 102 16
0 -6 3 25690 1051 16
0 -8 4 823 83 16
0 -10 5 12897 608 16
1 -6 9 3023 191 16
1 -7 11 1105 197 16
1 -7 9 1082 139 16
1 -8 11 2539 260 16
1 -8 10 4593 295 16
1 -9 13 1102 291 16
1 -10 12 809 232 16
0 -2 3 195 20 16
0 -3 4 2710 111 16
0 -4 6 37521 1504 16
0 -4 5 3290 142 16
0 -5 7 2001 124 16
0 -5 6 2127 116 16
0 -6 9 4517 248 16
0 -6 8 4057 215 16
0 -6 7 3327 179 16
0 -7 11 733 181 16
0 -7 10 974 161 16
0 -7 9 445 129 16
0 -7 8 334 112 16
0 -8 12 2364 296 16
0 -8 11 884 192 16
0 -8 10 2808 237 16
0 -8 9 1391 172 16
0 -9 10 625 175 16
-1 -8 9 4008 256 16
-1 -9 10 714 178 16
-1 -10 11 562 214 16
0 -1 3 2394 98 16
0 -2 6 643 56 16
0 -3 10 2855 216 16
0 -3 9 798 119 16
0 -4 12 3161 322 16
-1 -2 5 11662 485 16
-1 -2 4 896 51 16
-1 -3 9 15081 677 16
-1 -3 8 15573 668 16
-1 -3 7 14191 598 16
-1 -3 6 5007 224 16
-1 -4 12 3797 410 16
-1 -4 10 1389 179 16
-1 -4 8 2263 155 16
-1 -5 11 4687 340 16
-1 -5 10 407 149 16
-1 -6 15 2140 580 16
-1 -6 14 3791 580 16
-1 -6 13 12424 823 16
-1 -6 12 1945 278 16
-1 -7 14 1525 425 16
-2 -4 11 767 287 16
-2 -4 10 2367 273 16
-2 -4 9 778 175 16
-2 -4 8 17983 782 16
-2 -4 7 44709 1838 16
-2 -5 15 3057 754 16
-2 -5 10 1369 212 16
-2 -6 13 1382 433 16
-2 -6 12 771 294 16
-2 -7 15 1693 627 16
-2 -7 14 1638 543 16
-3 -6 14 4841 810 16
-3 -6 11 2433 366 16
-3 -6 10 5799 445 16
-3 -7 13 1256 462 16
-1 -1 4 493 46 16
-1 -1 3 1232 56 16
-1 -1 2 19020 715 16
-2 -2 8 3937 380 16
-2 -2 6 18807 792 16
-2 -2 5 4870 219 16
-2 -2 4 264 50 16
-3 -2 4 3556 396 16
-3 -3 10 7698 816 16
-3 -3 9 6391 626 16
-3 -3 8 3465 404 16
-3 -3 7 4143 348 16
-3 -3 6 3806 255 16
-4 -3 5 8172 731 16
-4 -3 4 1089 338 16
-4 -3 3 22010 1229 16
-4 -3 2 3784 366 16
-4 -4 9 8015 806 16
-4 -4 8 17974 1120 16
-5 -4 4 7267 743 16
8 -9 -2 390 156 17
7 -9 -2 316 146 17
7 -10 0 531 183 17
7 -10 -1 1194 205 17
7 -11 -1 357 176 17
7 -11 -2 735 188 17
6 -8 -2 256 119 17
6 -9 -1 866 161 17
6 -9 -2 634 142 17
6 -10 -2 307 132 17
5 -7 0 2612 174 17
5 -7 -2 797 105 17
5 -8 -1 2384 176 17
5 -8 -2 1439 135 17
4 -5 -1 690 66 17
4 -6 -1 1176 93 17
4 -6 -2 377 65 17
4 -7 -1 1692 122 17
3 -4 -1 9094 413 17
3 -5 -1 3376 162 17
8 -8 4 330 160 17
8 -8 3 967 184 17
7 -7 3 611 149 17
7 -8 5 388 168 17
7 -8 4 842 183 17
7 -8 2 1206 175 17
7 -9 3 1460 205 17
7 -9 2 3342 263 17
6 -6 2 443 107 17
6 -7 3 467 129 17
6 -7 2 1484 146 17
6 -8 4 3272 243 17
6 -8 3 583 135 17
6 -8 2 8152 408 17
6 -9 3 1172 172 17
5 -6 3 1165 114 17
5 -6 2 922 102 17
5 -7 3 13257 596 17
5 -7 2 2126 147 17
4 -4 2 8330 355 17
4 -5 2 5873 263 17
4 -5 1 6914 297 17
4 -6 2 1293 92 17
3 -3 1 25746 1059 17
3 -4 2 5187 218 17
3 -4 1 14786 603 17
2 -2 1 18844 855 17
2 -3 1 4487 193 17
9 -6 8 2870 459 17
8 -5 7 727 200 17
8 -7 9 841 392 17
7 -5 7 1120 221 17
7 -5 6 2932 239 17
7 -6 9 7136 602 17
7 -6 6 912 175 17
6 -4 6 705 140 17
6 -5 5 2504 182 17
6 -6 8 1293 217 17
6 -6 6 2311 200 17
5 -3 5 4126 215 17
5 -3 4 10686 461 17
5 -4 5 363 103 17
5 -4 4 929 94 17
5 -5 7 4447 268 17
5 -5 6 1497 154 17
5 -5 5 765 111 17
4 -3 5 50958 2088 17
4 -3 4 6836 300 17
4 -4 5 18981 795 17
4 -4 4 10046 432 17
3 -2 3 9198 377 17
3 -3 4 10154 423 17
3 -3 3 309 41 17
2 -2 2 984 45 17
8 -1 9 1368 565 17
8 -1 8 1042 402 17
8 -1 7 2221 407 17
8 -1 6 583 293 17
8 -1 5 3072 316 17
8 -3 9 1089 388 17
7 0 5 1503 287 17
7 -1 8 1048 376 17
7 -1 7 701 290 17
7 -1 6 9490 570 17
7 -3 8 602 256 17
6 -1 7 694 263 17
6 -1 6 8540 464 17
6 -1 5 4537 266 17
6 -2 9 804 338 17
6 -2 8 751 263 17
6 -2 7 948 195 17
6 -2 6 2098 188 17
5 0 4 6103 287 17
5 -1 6 5041 292 17
5 -1 4 442 91 17
5 -2 6 498 121 17
4 0 3 4770 205 17
4 -1 4 2069 114 17
3 -1 4 12774 513 17
3 -1 3 50739 2007 17
5 -5 -15 903 193 17
5 -5 -18 535 258 17
5 -6 -17 1618 267 17
4 -4 -12 3316 210 17
4 -5 -14 602 155 17
4 -5 -15 391 175 17
4 -6 -15 1181 186 17
4 -6 -16 1731 242 17
4 -7 -19 527 241 17
3 -3 -9 6502 287 17
3 -3 -10 1916 132 17
3 -3 -11 1539 128 17
3 -4 -10 19607 820 17
3 -4 -11 254 98 17
3 -4 -12 3551 212 17
3 -5 -12 841 119 17
3 -5 -14 2479 208 17
3 -6 -15 1730 198 17
3 -6 -16 3592 289 17
2 -2 -6 2624 111 17
2 -2 -7 4354 183 17
2 -3 -8 4124 180 17
2 -3 -9 3295 159 17
2 -4 -10 5555 252 17
2 -4 -11 15284 653 17
2 -5 -13 1500 140 17
1 -2 -5 1859 80 17
6 -9 1 509 145 17
6 -10 2 3793 269 17
6 -10 1 4825 300 17
6 -11 1 334 155 17
6 -11 0 619 167 17
5 -9 2 2512 190 17
5 -9 1 9655 440 17
5 -10 2 719 157 17
5 -10 1 1362 159 17
5 -10 0 2134 176 17
5 -11 0 796 149 17
5 -12 2 373 161 17
4 -7 1 7145 308 17
4 -9 2 1892 157 17
4 -9 1 3338 195 17
4 -9 0 2193 147 17
4 -10 1 395 122 17
4 -11 1 3491 230 17
3 -5 1 2676 115 17
3 -6 1 2461 118 17
3 -6 0 862 63 17
3 -7 1 4585 203 17
3 -8 1 489 84 17
2 -4 1 999 50 17
2 -4 0 2059 88 17
7 -9 7 464 221 17
6 -7 6 755 155 17
6 -8 8 644 217 17
6 -8 6 1428 190 17
6 -10 7 538 211 17
6 -10 6 422 180 17
5 -6 5 1563 144 17
5 -7 7 355 151 17
5 -7 6 779 151 17
5 -7 5 1513 154 17
5 -8 8 674 214 17
5 -8 6 934 163 17
5 -8 5 893 147 17
5 -9 7 1752 230 17
5 -9 6 1071 184 17
5 -10 8 649 224 17
5 -10 7 423 203 17
4 -6 6 5155 260 17
4 -6 5 6817 306 17
4 -6 4 226 90 17
4 -7 7 1447 159 17
4 -8 7 1304 187 17
4 -8 6 297 136 17
4 -8 5 6321 311 17
3 -4 4 47648 1810 17
3 -4 3 11475 439 17
3 -5 5 1048 97 17
3 -5 4 6392 265 17
3 -5 3 4604 192 17
3 -6 5 4149 202 17
3 -7 5 9397 400 17
2 -3 3 246 36 17
2 -3 2 428 29 17
2 -4 3 11494 431 17
7 -4 11 1979 552 17
7 -5 10 2989 486 17
7 -6 11 1222 518 17
6 -4 9 557 266 17
6 -5 11 4814 623 17
6 -6 10 721 336 17
6 -7 11 2024 504 17
5 -3 9 1470 290 17
5 -3 7 490 145 17
5 -4 11 1347 389 17
5 -4 9 4513 377 17
5 -5 12 1445 498 17
5 -5 11 1856 444 17
5 -6 12 3422 617 17
5 -6 11 3449 520 17
5 -6 10 14227 848 17
4 -3 8 735 171 17
4 -3 7 636 132 17
4 -3 6 4378 214 17
4 -4 10 1238 333 17
4 -4 9 435 209 17
4 -4 8 330 154 17
4 -4 7 2164 166 17
4 -5 11 1102 375 17
4 -5 8 435 153 17
4 -7 12 3840 567 17
3 -2 6 2124 134 17
3 -2 5 40368 1535 17
3 -3 7 18117 726 17
3 -3 6 8477 350 17
3 -3 5 15990 622 17
3 -4 8 480 149 17
3 -4 6 378 88 17
3 -5 10 685 237 17
3 -5 9 4576 321 17
3 -6 11 17373 1075 17
2 -2 5 8326 328 17
2 -2 4 3091 129 17
2 -3 6 69211 2610 17
2 -3 5 6432 261 17
2 -4 7 280 102 17
1 -1 2 1438 59 17
7 1 5 1316 431 17
6 1 5 2678 450 17
6 1 4 6458 481 17
5 1 4 637 256 17
5 0 7 20989 1212 17
5 0 6 5928 428 17
5 -1 9 1028 428 17
5 -1 8 2148 347 17
4 1 3 5634 337 17
4 0 6 1824 274 17
4 0 5 313 148 17
4 -1 7 20196 898 17
3 0 5 8873 440 17
3 -1 8 35857 1922 17
3 -1 7 17060 810 17
3 -1 6 1296 140 17
2 0 4 12448 524 17
2 0 3 15556 546 17
1 0 2 2774 100 17
4 -8 -16 505 185 17
3 -7 -14 2640 215 17
3 -8 -14 713 149 17
3 -8 -15 386 161 17
3 -8 -16 1394 203 17
3 -9 -16 855 189 17
3 -9 -18 569 209 17
3 -10 -16 723 201 17
2 -4 -8 12940 492 17
2 -5 -9 11947 467 17
2 -5 -10 13719 545 17
2 -5 -11 1161 109 17
2 -6 -10 7738 323 17
2 -6 -11 552 99 17
2 -6 -12 3766 206 17
2 -6 -13 2163 173 17
2 -7 -13 1166 144 17
2 -7 -14 21164 882 17
2 -7 -15 841 169 17
2 -7 -16 1182 195 17
2 -8 -15 901 171 17
2 -8 -16 796 182 17
2 -9 -16 378 180 17
2 -9 -18 606 222 17
1 -3 -5 6412 249 17
1 -3 -6 14149 520 17
1 -4 -8 29661 1107 17
1 -5 -9 1528 95 17
1 -5 -10 23563 915 17
1 -6 -10 970 86 17
1 -6 -11 472 96 17
1 -7 -12 819 119 17
1 -7 -13 2827 188 17
1 -8 -14 945 151 17
1 -10 -17 396 182 17
5 -12 -2 973 178 17
4 -10 -2 842 123 17
4 -11 -1 567 140 17
4 -11 -2 369 131 17
4 -12 -1 1782 208 17
4 -12 -2 1342 183 17
4 -12 -3 1089 179 17
4 -13 -2 888 199 17
4 -13 -4 537 174 17
4 -14 -2 365 178 17
3 -7 -1 1016 79 17
3 -8 -1 1852 119 17
3 -9 0 3113 177 17
3 -9 -1 2814 164 17
3 -9 -2 4640 226 17
3 -10 0 992 132 17
3 -10 -1 567 116 17
3 -10 -2 2554 169 17
3 -10 -3 1459 130 17
3 -11 -2 604 127 17
3 -12 -1 411 144 17
3 -12 -2 4107 260 17
3 -13 -1 1870 219 17
3 -13 -2 5550 343 17
2 -5 -1 18594 705 17
2 -6 0 3964 161 17
2 -6 -1 560 51 17
2 -7 0 6724 274 17
2 -7 -1 116 56 17
2 -7 -2 1368 77 17
2 -8 -1 843 83 17
2 -9 -1 613 95 17
5 -12 4 939 214 17
4 -9 4 385 155 17
4 -10 3 7508 395 17
4 -12 4 875 204 17
4 -13 3 1389 262 17
3 -7 3 3947 198 17
3 -8 4 7839 365 17
3 -8 3 2350 164 17
3 -9 5 5260 304 17
3 -9 4 11472 517 17
3 -9 3 4307 243 17
3 -9 2 14589 618 17
3 -10 5 966 192 17
3 -10 4 797 172 17
3 -10 3 3242 227 17
3 -10 2 3091 209 17
3 -11 4 301 150 17
3 -12 6 620 240 17
3 -12 5 1067 227 17
3 -12 3 515 150 17
2 -5 2 12537 475 17
2 -6 3 4284 191 17
2 -6 2 21001 811 17
2 -7 4 9105 390 17
2 -7 3 644 93 17
2 -7 2 8907 365 17
2 -8 4 30739 1237 17
2 -8 3 308 99 17
2 -8 2 579 90 17
2 -9 4 648 137 17
2 -9 3 3223 197 17
2 -10 4 12432 567 17
2 -10 3 12898 573 17
2 -13 4 3103 311 17
1 -4 2 15711 594 17
1 -4 1 1711 72 17
1 -5 2 304 40 17
1 -6 2 4625 190 17
4 -8 9 933 235 17
3 -6 8 1599 178 17
3 -6 7 13182 530 17
3 -7 10 971 270 17
3 -7 8 833 169 17
3 -7 7 2711 201 17
3 -8 10 2523 346 17
3 -8 9 2288 291 17
3 -9 8 2458 251 17
3 -10 9 640 250 17
3 -10 8 871 218 17
3 -11 9 1239 291 17
2 -4 5 21241 773 17
2 -5 6 844 101 17
2 -5 5 225 76 17
2 -6 8 5970 314 17
2 -6 7 5146 253 17
2 -6 6 5526 247 17
2 -6 5 200 75 17
2 -7 10 808 247 17
2 -7 9 499 201 17
2 -7 8 698 172 17
2 -8 10 1021 297 17
2 -8 9 2269 267 17
2 -8 8 1567 204 17
2 -8 7 1245 161 17
2 -10 9 1338 278 17
1 -3 4 1342 67 17
1 -3 3 7581 266 17
1 -4 5 39331 1410 17
1 -4 4 15270 547 17
1 -5 5 13418 498 17
1 -6 7 373 114 17
1 -6 6 4411 207 17
1 -7 7 797 144 17
1 -7 6 14986 577 17
1 -8 8 4144 276 17
1 -9 9 2113 282 17
1 -9 8 2405 240 17
1 -10 10 824 323 17
1 -10 9 696 270 17
1 -11 10 1028 361 17
4 -3 11 2052 485 17
4 -4 12 2243 568 17
3 -3 11 1895 581 17
3 -3 10 1719 393 17
3 -3 9 710 242 17
3 -6 13 5255 778 17
2 -2 7 3863 231 17
2 -2 6 11599 411 17
2 -3 10 7056 659 17
2 -3 9 1186 282 17
2 -3 8 558 182 17
2 -4 11 2312 521 17
2 -7 13 3758 693 17
1 -1 3 551 29 17
1 -2 7 458 203 17
1 -2 6 32955 1128 17
1 -2 5 41161 1374 17
1 -3 9 910 323 17
1 -3 8 17104 764 17
1 -3 7 14784 552 17
1 -3 6 24082 817 17
1 -4 9 1465 283 17
1 -5 10 5290 484 17
1 -5 9 1174 222 17
1 -6 12 14738 1220 17
1 -6 11 1262 389 17
0 -1 2 699 27 17
0 -2 5 6872 254 17
0 -2 4 17000 577 17
0 -3 7 47224 1790 17
0 -3 6 6664 264 17
0 -4 9 2528 391 17
0 -4 7 25460 908 17
-1 -4 6 28583 995 17
-1 -5 9 1025 373 17
-1 -5 8 1075 241 17
-1 -6 10 3249 496 17
3 -12 1 466 150 17
3 -13 1 403 174 17
3 -14 1 910 206 17
2 -8 1 514 77 17
2 -9 1 2018 143 17
2 -10 1 241 115 17
2 -10 0 336 106 17
2 -11 2 9015 464 17
2 -11 1 377 135 17
2 -11 0 1042 143 17
2 -12 0 4934 305 17
2 -13 0 359 164 17
2 -13 -1 1934 210 17
1 -5 0 6239 258 17
1 -6 1 4568 197 17
1 -6 0 2814 125 17
1 -7 1 2611 132 17
1 -7 0 193 54 17
1 -8 1 5403 255 17
1 -8 0 2433 132 17
1 -9 1 4668 237 17
1 -9 0 3189 174 17
1 -10 1 2385 169 17
1 -10 0 1787 141 17
1 -11 1 7043 368 17
1 -11 0 530 122 17
1 -12 1 642 151 17
1 -12 0 678 145 17
1 -13 0 3026 254 17
1 -14 1 1260 220 17
1 -15 0 1054 237 17
2 -10 7 464 183 17
2 -11 6 364 173 17
2 -12 8 702 250 17
2 -13 6 553 241 17
1 -5 3 14128 562 17
1 -6 3 55227 2193 17
1 -7 5 17832 743 17
1 -7 4 3466 180 17
1 -8 5 7889 371 17
1 -8 4 12455 538 17
1 -9 6 4910 294 17
1 -9 5 10398 480 17
1 -9 4 5396 279 17
1 -10 7 450 180 17
1 -10 6 3154 246 17
1 -10 5 2033 201 17
1 -10 4 6438 336 17
1 -12 8 655 267 17
1 -12 7 663 250 17
1 -12 6 899 234 17
0 -4 2 2029 87 17
0 -5 3 20362 807 17
0 -6 3 27306 1098 17
0 -7 4 1266 110 17
0 -7 3 5676 251 17
0 -8 5 30250 1246 17
0 -8 4 743 111 17
0 -9 4 4693 253 17
0 -10 5 11621 550 17
0 -11 5 619 160 17
0 -13 7 641 269 17
0 -13 6 853 249 17
1 -6 9 2068 277 17
1 -8 11 1292 485 17
0 -2 2 31052 1278 17
0 -3 4 2515 117 17
0 -3 3 6378 255 17
0 -4 5 3175 160 17
0 -4 4 10827 448 17
0 -5 7 1551 168 17
0 -5 6 1925 142 17
0 -5 5 1985 121 17
0 -6 8 3143 270 17
0 -6 7 2655 209 17
0 -7 10 1187 380 17
0 -8 10 2097 431 17
0 -8 9 712 300 17
0 -8 8 2857 286 17
0 -9 9 622 256 17
0 -10 10 1384 434 17
-1 -4 5 5003 232 17
-1 -4 4 2853 140 17
-1 -5 6 7315 351 17
-1 -5 5 33639 1389 17
-1 -6 7 3619 265 17
-1 -6 6 2475 182 17
-1 -7 9 2333 376 17
-1 -7 8 949 250 17
-1 -7 7 15903 750 17
-1 -8 11 1503 568 17
-1 -8 9 3393 427 17
-1 -8 8 726 248 17
-1 -8 7 10578 549 17
-1 -9 9 932 343 17
-2 -7 6 6935 384 17
-2 -8 9 2591 487 17
-2 -8 8 1847 361 17
-2 -9 8 698 277 17
-1 -2 4 384 102 17
-1 -2 3 37294 1438 17
-1 -3 7 8936 753 17
-2 -2 1 892 56 17
-2 -3 5 1449 283 17
-2 -3 4 11444 520 17
-2 -3 3 1927 108 17
-2 -4 7 31601 1857 17
-2 -4 6 1239 270 17
-2 -4 5 1547 149 17
-2 -5 8 1321 418 17
-3 -3 2 13674 688 17
-3 -4 5 1858 386 17
-3 -4 4 7524 456 17
-3 -4 3 10279 455 17
-3 -5 6 17321 1021 17
-4 -4 2 2449 328 17
-4 -5 5 14174 1167 17
-4 -5 4 1151 305 17
7 -9 -6 666 165 18
7 -9 -7 778 170 18
7 -10 -8 382 176 18
6 -7 -6 1569 153 18
6 -8 -5 692 144 18
6 -8 -7 1772 174 18
6 -9 -7 307 139 18
5 -6 -5 4167 231 18
5 -7 -4 9659 488 18
5 -7 -5 842 114 18
5 -7 -6 26517 1273 18
5 -8 -5 1813 156 18
5 -8 -6 5846 326 18
5 -9 -6 431 129 18
4 -5 -4 6926 328 18
4 -6 -4 51808 2419 18
4 -6 -5 15604 740 18
4 -7 -5 6623 336 18
3 -4 -3 985 61 18
8 -9 -1 431 192 18
8 -11 -4 354 175 18
7 -8 -2 530 144 18
7 -8 -3 763 132 18
7 -9 -2 292 142 18
7 -9 -3 706 151 18
7 -10 -1 900 205 18
7 -11 -2 609 184 18
6 -7 -1 266 111 18
6 -8 -1 272 121 18
6 -8 -2 363 115 18
6 -9 -1 999 154 18
6 -9 -2 360 134 18
5 -6 -1 210 84 18
5 -6 -2 764 90 18
5 -7 -2 827 105 18
4 -5 -1 693 68 18
4 -6 -1 1531 103 18
3 -3 -1 31165 1258 18
3 -4 -1 10303 421 18
3 -5 -1 3839 164 18
8 -6 3 604 236 18
8 -8 3 1004 280 18
8 -8 2 456 214 18
8 -9 1 555 218 18
7 -5 2 502 150 18
7 -5 1 525 138 18
7 -6 3 1388 225 18
7 -6 2 811 173 18
7 -6 1 658 145 18
7 -7 2 5247 343 18
7 -7 1 412 147 18
7 -8 2 1237 240 18
6 -5 2 607 128 18
6 -5 1 7049 337 18
6 -6 2 471 136 18
6 -7 3 490 171 18
6 -7 2 903 163 18
5 -4 2 4123 209 18
5 -4 1 1662 115 18
5 -5 1 4574 226 18
5 -6 2 923 121 18
4 -3 1 160 56 18
4 -4 2 8566 371 18
4 -4 1 3762 174 18
4 -5 2 5920 272 18
3 -3 1 30055 1205 18
2 -2 1 23310 924 18
10 -2 3 1809 458 18
10 -3 3 1044 409 18
9 -2 5 1921 571 18
9 -2 2 5166 475 18
9 -3 3 1356 328 18
9 -5 5 942 458 18
8 -2 4 2674 426 18
8 -2 3 2849 346 18
8 -2 2 5069 370 18
8 -3 4 3056 407 18
8 -3 3 8124 532 18
7 -2 4 1505 322 18
7 -2 3 10206 549 18
7 -2 2 8669 429 18
7 -3 5 3075 418 18
7 -3 4 1981 286 18
7 -3 3 7830 429 18
6 -1 2 3159 203 18
6 -2 4 5861 386 18
6 -2 3 13790 615 18
6 -3 5 4548 391 18
6 -3 4 22738 1022 18
6 -3 3 2172 183 18
5 -1 2 25452 1010 18
5 -2 3 19545 795 18
5 -2 2 3233 164 18
5 -3 4 8430 408 18
5 -3 3 8911 389 18
4 -1 2 2104 112 18
4 -1 1 99 47 18
4 -2 3 1953 122 18
4 -2 2 4673 203 18
3 -1 2 1898 89 18
3 -1 1 6777 269 18
2 -1 1 415 23 18
4 -2 -16 1519 205 18
4 -2 -17 660 197 18
4 -2 -18 490 220 18
4 -3 -18 664 201 18
4 -3 -20 1467 307 18
4 -4 -20 496 225 18
3 -1 -12 3566 202 18
3 -1 -13 4446 251 18
3 -1 -14 888 153 18
3 -1 -15 1132 177 18
3 -2 -13 865 125 18
3 -2 -14 374 130 18
3 -2 -15 2797 222 18
3 -2 -16 742 180 18
3 -2 -18 565 221 18
3 -2 -19 1304 292 18
3 -3 -15 781 135 18
3 -3 -17 368 169 18
3 -3 -18 597 187 18
3 -3 -19 432 197 18
3 -3 -20 798 253 18
2 -1 -8 5087 216 18
2 -1 -9 195 66 18
2 -1 -11 2861 164 18
2 -1 -12 1575 141 18
2 -1 -13 266 113 18
2 -2 -10 4790 213 18
2 -2 -11 1955 125 18
2 -2 -12 10522 465 18
2 -2 -13 571 114 18
2 -2 -15 1388 176 18
2 -2 -16 2095 214 18
2 -3 -16 2850 231 18
2 -3 -17 877 177 18
2 -3 -19 3359 344 18
2 -3 -20 747 288 18
1 -1 -5 2352 102 18
1 -1 -6 1710 74 18
1 -1 -7 5834 236 18
1 -1 -8 9463 387 18
6 -10 -5 454 124 18
6 -11 -5 688 158 18
6 -12 -3 1141 204 18
6 -12 -4 446 179 18
6 -12 -5 653 174 18
5 -9 -3 2534 181 18
5 -9 -4 260 108 18
5 -10 -3 1512 165 18
5 -10 -4 508 128 18
5 -11 -5 369 134 18
5 -11 -6 487 125 18
5 -12 -5 1950 218 18
4 -7 -3 530 82 18
4 -8 -3 2922 160 18
4 -8 -4 413 88 18
4 -9 -3 4181 220 18
4 -9 -4 3878 208 18
4 -10 -4 838 125 18
4 -11 -4 613 129 18
3 -5 -2 12571 483 18
3 -6 -2 17500 682 18
3 -6 -3 22194 852 18
3 -7 -2 7054 293 18
3 -7 -3 22724 893 18
3 -8 -3 182 76 18
2 -4 -1 3092 123 18
2 -4 -2 115 30 18
2 -5 -2 8422 328 18
7 -9 1 1162 211 18
7 -11 1 431 204 18
6 -8 1 332 141 18
6 -9 2 723 196 18
6 -9 1 1010 178 18
6 -10 2 2777 300 18
6 -10 1 4639 328 18
6 -11 0 766 183 18
6 -12 0 427 177 18
5 -7 1 253 109 18
5 -8 0 226 110 18
5 -9 2 2492 228 18
5 -9 1 8563 415 18
5 -10 2 584 191 18
5 -10 1 1036 182 18
5 -10 0 2179 197 18
5 -11 1 462 187 18
4 -6 1 9178 379 18
4 -7 2 620 115 18
4 -7 1 7179 314 18
4 -7 0 528 94 18
4 -9 1 3518 220 18
3 -5 1 2537 121 18
3 -5 0 25135 950 18
3 -6 1 2489 129 18
3 -6 0 284 64 18
3 -7 1 4968 225 18
3 -8 1 419 98 18
2 -4 1 1350 61 18
2 -4 0 2045 84 18
6 -5 5 1550 274 18
6 -5 4 808 165 18
6 -6 6 1706 381 18
6 -6 5 2402 317 18
6 -7 6 803 342 18
6 -8 5 643 271 18
5 -5 6 1478 303 18
5 -5 5 639 200 18
5 -5 4 861 159 18
5 -6 6 2770 399 18
5 -6 5 1380 234 18
5 -6 4 2268 214 18
5 -7 6 851 308 18
5 -7 5 1311 241 18
5 -7 4 2346 237 18
5 -9 7 1108 466 18
5 -9 6 756 345 18
4 -4 4 8360 370 18
4 -4 3 2363 144 18
4 -5 3 2225 139 18
4 -6 5 5092 326 18
4 -8 6 965 288 18
3 -4 4 40334 1537 18
3 -4 3 11632 459 18
3 -5 4 5729 269 18
3 -5 3 4268 197 18
3 -6 5 2821 222 18
3 -7 5 6665 381 18
2 -2 2 599 42 18
2 -3 2 521 45 18
2 -4 3 11620 456 18
1 -1 1 6032 254 18
6 0 3 13154 734 18
6 -2 5 3619 393 18
5 0 3 1347 255 18
5 -2 5 1794 318 18
5 -3 6 6773 594 18
4 0 3 3683 305 18
4 0 2 13795 515 18
4 -1 4 1829 244 18
4 -1 3 12304 465 18
4 -2 5 11660 648 18
4 -3 6 3382 425 18
3 0 2 4439 184 18
3 -1 4 8601 516 18
3 -1 3 41228 1455 18
3 -2 5 31223 1495 18
3 -2 4 28272 1043 18
3 -3 6 3921 478 18
2 0 1 77335 2741 18
2 -1 3 1100 93 18
2 -2 4 1842 138 18
1 -1 2 1671 65 18
3 -6 -20 471 201 18
2 -4 -14 579 122 18
2 -4 -15 528 137 18
2 -4 -16 616 153 18
2 -5 -16 885 156 18
2 -5 -19 920 229 18
2 -6 -17 1075 179 18
2 -6 -18 706 187 18
2 -6 -19 3029 311 18
2 -7 -20 538 229 18
1 -2 -7 22305 832 18
1 -2 -8 71646 2638 18
1 -2 -9 3203 135 18
1 -3 -9 14882 558 18
1 -3 -10 5373 223 18
1 -3 -11 14865 586 18
1 -3 -12 772 99 18
1 -3 -13 1832 140 18
1 -3 -14 909 123 18
1 -4 -11 2960 144 18
1 -4 -12 2911 158 18
1 -4 -13 395 105 18
1 -4 -14 836 129 18
1 -4 -15 5711 296 18
1 -4 -16 377 141 18
1 -4 -17 907 183 18
1 -5 -16 386 139 18
1 -5 -18 639 178 18
1 -6 -17 1017 180 18
1 -6 -18 1651 221 18
1 -6 -20 807 245 18
5 -12 -8 1745 210 18
5 -13 -8 1063 213 18
5 -13 -9 473 187 18
4 -10 -6 1689 160 18
4 -11 -6 638 151 18
4 -11 -8 399 141 18
4 -12 -7 1145 184 18
4 -12 -8 383 149 18
4 -13 -6 2807 264 18
4 -13 -7 1559 230 18
4 -13 -8 659 196 18
3 -8 -5 12520 513 18
3 -10 -5 715 116 18
3 -10 -6 6679 321 18
3 -10 -7 5229 268 18
3 -12 -6 1349 175 18
3 -12 -7 2346 207 18
3 -13 -7 1408 192 18
3 -13 -8 1143 189 18
3 -14 -8 2080 244 18
3 -14 -9 2681 264 18
2 -5 -3 8394 320 18
2 -6 -3 70704 2678 18
2 -6 -4 15535 593 18
2 -7 -4 15328 593 18
2 -7 -5 43229 1650 18
2 -8 -5 3471 164 18
2 -9 -5 2498 145 18
2 -10 -6 3430 192 18
1 -4 -2 1280 57 18
1 -5 -3 8047 315 18
5 -12 -1 726 217 18
5 -12 -2 822 203 18
5 -13 -2 747 230 18
5 -13 -3 1441 265 18
4 -9 -1 3043 198 18
4 -10 -2 841 145 18
4 -11 -1 612 162 18
4 -11 -2 451 146 18
4 -12 -1 2149 249 18
4 -12 -2 1095 208 18
4 -12 -3 1719 205 18
4 -13 -1 444 198 18
4 -13 -2 1140 226 18
4 -13 -3 557 191 18
4 -13 -4 532 180 18
3 -7 -1 906 91 18
3 -8 -1 1964 136 18
3 -9 0 3361 206 18
3 -9 -1 3242 196 18
3 -9 -2 5497 266 18
3 -10 0 991 158 18
3 -10 -1 760 137 18
3 -10 -2 2960 195 18
3 -10 -3 1798 151 18
3 -11 0 6727 369 18
3 -11 -2 275 135 18
3 -12 -2 4676 308 18
3 -13 -1 1595 257 18
3 -13 -2 6017 390 18
2 -5 -1 22383 838 18
2 -6 0 4482 187 18
2 -6 -1 696 60 18
2 -7 0 7275 305 18
2 -7 -1 190 68 18
2 -7 -2 1367 82 18
2 -8 -1 1262 103 18
2 -8 -2 3604 169 18
2 -9 -1 978 117 18
2 -10 -1 259 116 18
1 -3 0 2833 118 18
1 -4 -1 2784 113 18
5 -9 4 2769 293 18
5 -10 4 550 230 18
4 -7 3 4719 241 18
4 -8 4 952 182 18
4 -8 3 16626 674 18
4 -9 4 643 209 18
4 -9 3 782 184 18
4 -10 3 7111 415 18
4 -13 3 1528 357 18
3 -6 3 364 92 18
3 -7 3 3672 202 18
3 -8 4 5566 318 18
3 -8 3 2141 181 18
3 -8 2 757 113 18
3 -9 5 4730 358 18
3 -9 4 8609 451 18
3 -9 3 3479 250 18
3 -9 2 14069 570 18
3 -10 5 1486 279 18
3 -10 4 742 234 18
3 -10 3 2545 247 18
3 -10 2 2461 219 18
3 -11 4 525 227 18
3 -12 5 1525 366 18
2 -4 2 9401 341 18
2 -5 2 13850 505 18
2 -6 3 4024 189 18
2 -6 2 22894 833 18
2 -7 4 7396 334 18
2 -7 3 796 115 18
2 -7 2 9188 361 18
2 -8 4 24739 957 18
2 -8 2 479 110 18
2 -9 4 403 173 18
2 -9 3 2664 208 18
2 -10 4 10029 528 18
2 -10 3 11610 534 18
2 -13 4 2410 422 18
1 -2 1 35050 1310 18
1 -3 1 1543 59 18
1 -4 2 17452 620 18
1 -4 1 1688 68 18
1 -5 2 132 57 18
1 -6 2 4913 201 18
1 -7 2 7810 309 18
1 -10 3 3130 252 18
5 -5 7 3575 500 18
4 -6 7 3741 480 18
3 -4 5 1018 163 18
3 -5 7 2343 409 18
3 -6 7 10668 733 18
3 -6 6 1085 245 18
3 -7 7 2003 418 18
3 -8 7 1573 416 18
3 -9 8 1970 592 18
2 -3 4 55372 1843 18
2 -4 6 22810 1114 18
2 -4 5 15717 618 18
2 -4 4 4471 186 18
2 -5 6 696 245 18
2 -6 7 4546 521 18
2 -6 6 4144 360 18
2 -8 7 929 363 18
1 -2 3 1604 74 18
1 -2 2 59533 1972 18
1 -3 4 965 105 18
1 -3 3 7985 280 18
1 -4 5 30110 1188 18
1 -4 4 13423 473 18
1 -5 5 9887 431 18
1 -5 4 21590 743 18
1 -6 6 3758 368 18
1 -6 5 368 157 18
1 -7 7 961 395 18
1 -7 6 11463 651 18
1 -9 8 1948 595 18
0 -1 1 15486 542 18
0 -2 2 37010 1243 18
0 -3 3 4900 177 18
0 -4 4 7634 303 18
0 -5 5 1595 217 18
0 -5 4 865 114 18
0 -6 5 617 186 18
0 -7 6 4646 460 18
0 -8 7 2658 568 18
3 -13 -5 1383 199 18
3 -14 -6 892 188 18
2 -9 -3 6581 314 18
2 -10 -3 1261 129 18
2 -10 -4 1958 153 18
2 -11 -4 1664 166 18
2 -12 -3 2834 233 18
2 -12 -4 2119 201 18
2 -12 -5 438 149 18
2 -12 -6 2744 211 18
2 -13 -3 473 174 18
2 -13 -5 4019 300 18
2 -13 -6 4674 316 18
1 -5 -2 4284 180 18
1 -6 -2 29137 1186 18
1 -6 -3 323 40 18
1 -7 -2 28336 1170 18
1 -7 -3 5877 251 18
1 -8 -3 10894 470 18
1 -9 -3 482 89 18
1 -10 -3 2227 157 18
1 -10 -4 1631 134 18
1 -12 -4 2661 216 18
1 -12 -5 4785 284 18
1 -13 -5 2533 239 18
1 -14 -5 1268 216 18
1 -14 -6 1061 190 18
3 -14 1 819 263 18
2 -9 1 1948 159 18
2 -11 0 938 160 18
2 -12 0 4795 316 18
2 -13 0 485 195 18
1 -6 1 4850 207 18
1 -6 0 3106 137 18
1 -7 1 3026 153 18
1 -8 1 5872 275 18
1 -8 0 2625 148 18
1 -9 1 4755 247 18
1 -9 0 3365 191 18
1 -10 2 2290 201 18
1 -10 1 2427 194 18
1 -10 0 1897 160 18
1 -11 2 1599 207 18
1 -11 1 6666 368 18
1 -12 1 669 184 18
1 -12 0 620 178 18
1 -13 2 669 234 18
1 -13 0 3034 298 18
1 -14 2 1213 336 18
1 -14 1 631 253 18
0 -4 0 17026 670 18
0 -5 0 34312 1329 18
0 -6 0 1333 73 18
0 -7 0 263 65 18
0 -8 0 1342 107 18
0 -9 0 1200 122 18
0 -10 0 342 120 18
0 -11 0 355 140 18
0 -12 0 724 170 18
0 -13 0 1242 232 18
0 -15 0 625 244 18
1 -7 4 3285 222 18
1 -8 5 5385 407 18
1 -8 4 10167 510 18
1 -9 6 2806 463 18
1 -9 5 7722 541 18
1 -10 6 2475 478 18
1 -10 5 1730 335 18
0 -2 1 391 22 18
0 -3 1 29253 1146 18
0 -4 2 2107 102 18
0 -5 3 20787 860 18
0 -5 2 10651 444 18
0 -6 3 26189 1088 18
0 -6 2 5997 266 18
0 -7 4 1095 160 18
0 -7 3 5026 261 18
0 -8 5 21536 1109 18
0 -8 4 534 173 18
0 -8 3 342 137 18
0 -9 4 4228 327 18
0 -9 3 4280 278 18
0 -10 5 8772 688 18
0 -10 4 9778 604 18
0 -11 4 1014 323 18
0 -13 5 2152 558 18
-1 -6 2 6659 297 18
-1 -7 3 11079 503 18
-1 -8 4 3787 313 18
-1 -8 3 840 155 18
-1 -9 5 4972 521 18
-1 -9 4 6260 446 18
-1 -9 3 1066 187 18
-1 -10 6 2960 586 18
-1 -10 5 6244 613 18
-1 -10 4 2454 348 18
-1 -14 5 1735 535 18
-2 -11 4 7664 711 18
-1 -2 1 1434 60 18
-1 -3 3 11530 573 18
-1 -3 2 8824 348 18
-1 -4 4 1897 278 18
-1 -4 3 10842 445 18
-1 -5 5 22981 1387 18
-2 -3 1 13748 536 18
-2 -4 3 1652 273 18
-2 -4 2 4468 211 18
-2 -5 4 21992 1299 18
-2 -6 4 13765 791 18
-2 -7 5 1443 382 18
-2 -8 6 11992 1274 18
-3 -4 1 7777 374 18
-3 -5 3 5138 577 18
-3 -6 3 1005 290 18
-3 -7 4 7469 694 18
-3 -8 5 4221 724 18
-4 -6 2 1845 371 18
-4 -6 1 3405 277 18
-4 -7 3 3801 594 18
-1 -4 6 40956 1861 19
-1 -4 5 5917 276 19
-1 -5 8 862 92 19
-1 -5 7 201 67 19
-1 -5 6 9290 432 19
-1 -6 10 3828 237 19
-1 -6 9 16619 810 19
-1 -6 8 419 92 19
-1 -7 12 2173 209 19
-1 -7 10 1823 169 19
-1 -7 9 3005 202 19
-1 -8 14 715 204 19
-1 -8 13 434 180 19
-1 -8 12 2156 221 19
-1 -8 11 3615 269 19
-1 -9 14 1723 240 19
-2 -7 11 1184 162 19
-2 -8 13 2785 269 19
-2 -8 11 2043 203 19
-2 -8 10 1649 177 19
-2 -9 11 580 170 19
-1 -2 5 12927 533 19
-1 -2 4 1027 51 19
-2 -3 8 32254 1348 19
-2 -3 7 12389 518 19
-2 -3 6 60941 2473 19
-2 -3 5 2052 90 19
-2 -4 10 3582 185 19
-2 -4 9 1179 95 19
-2 -4 8 21941 923 19
-2 -4 7 49690 2050 19
-3 -4 9 6440 301 19
-3 -4 8 2636 144 19
-3 -5 13 411 139 19
-3 -5 12 2474 187 19
-3 -5 11 273 104 19
-3 -5 10 364 102 19
-3 -5 9 959 103 19
-3 -6 15 2254 242 19
-3 -6 14 7872 439 19
-3 -6 13 2276 197 19
-3 -6 12 473 124 19
-3 -6 11 3287 205 19
-4 -5 11 1356 146 19
-4 -6 16 421 185 19
-4 -6 15 687 214 19
-4 -6 14 1547 201 19
-4 -6 13 574 154 19
-4 -6 10 822 128 19
-4 -7 16 798 239 19
-4 -7 15 712 214 19
-4 -7 14 587 194 19
-4 -7 12 681 150 19
-4 -8 15 826 202 19
-4 -8 14 1005 225 19
-5 -6 15 1597 270 19
-5 -6 14 617 201 19
-5 -7 15 459 210 19
-5 -7 14 1300 220 19
-2 -1 7 9145 381 19
-2 -1 6 38127 1542 19
-2 -1 5 1631 73 19
-3 -2 12 972 136 19
-3 -2 11 308 107 19
-3 -2 10 6837 315 19
-3 -2 9 851 95 19
-3 -2 8 12760 541 19
-3 -2 7 4558 204 19
-3 -2 6 4777 205 19
-4 -2 14 1109 204 19
-4 -2 11 5244 279 19
-4 -2 10 3217 193 19
-4 -3 16 892 226 19
-4 -3 13 338 149 19
-4 -3 11 418 118 19
-5 -3 16 996 268 19
-5 -3 14 525 201 19
-5 -3 11 2809 210 19
-5 -3 10 4491 258 19
-5 -4 14 711 198 19
-6 -4 15 640 253 19
-6 -4 12 436 168 19
-1 1 9 1077 108 19
-1 1 8 7706 322 19
-1 0 4 19322 750 19
-1 0 3 663 29 19
-2 2 16 2825 537 19
-2 2 15 1300 427 19
-2 1 18 1528 436 19
-2 1 17 8041 710 19
-2 1 12 1280 215 19
-2 1 11 1727 201 19
-2 0 9 1104 96 19
-2 0 8 2605 134 19
-2 0 7 23070 915 19
-2 0 6 5712 238 19
-2 0 5 9170 369 19
-3 1 15 839 345 19
-3 1 14 924 313 19
-3 1 13 4127 425 19
-3 1 12 2721 329 19
-3 0 14 600 217 19
-3 0 13 4228 322 19
-3 0 12 1919 212 19
-3 0 11 6918 355 19
-3 0 10 718 139 19
-3 0 9 1558 134 19
-3 0 8 365 93 19
-4 1 18 2555 679 19
-4 0 12 10988 637 19
-4 0 11 13416 696 19
-4 0 10 624 173 19
-5 0 18 1749 551 19
-5 0 12 1934 378 19
9 -6 5 506 206 19
9 -6 4 426 188 19
9 -8 3 759 242 19
9 -9 1 1163 279 19
8 -6 5 925 190 19
8 -6 4 1269 209 19
8 -6 3 606 194 19
8 -7 2 594 186 19
8 -8 3 941 228 19
8 -8 1 2315 272 19
7 -5 4 792 147 19
7 -5 2 748 142 19
7 -6 4 949 160 19
7 -6 3 1778 178 19
7 -6 2 844 154 19
7 -6 1 744 150 19
7 -7 3 466 157 19
7 -7 2 5371 323 19
7 -7 1 690 144 19
6 -4 3 1569 141 19
6 -4 2 1634 140 19
6 -5 2 622 114 19
6 -5 1 7138 343 19
6 -6 2 493 115 19
6 -6 1 338 103 19
5 -4 3 36600 1512 19
5 -4 2 4436 213 19
5 -4 1 1666 114 19
5 -5 1 4579 220 19
4 -3 2 2183 108 19
4 -3 1 141 52 19
4 -4 2 8482 351 19
4 -4 1 3757 165 19
3 -2 1 31968 1261 19
3 -3 1 27756 1096 19
2 -2 1 4656 207 19
-2 -4 6 2327 101 19
-2 -4 5 2812 118 19
-2 -4 4 1159 56 19
-2 -5 7 6598 273 19
-2 -5 6 1453 83 19
-2 -5 5 303 47 19
-3 -6 9 582 92 19
-3 -6 8 1589 117 19
-3 -6 7 2151 125 19
-3 -6 6 1981 111 19
-3 -7 11 1587 144 19
-3 -7 10 1806 151 19
-3 -7 9 1927 146 19
-3 -7 8 13495 567 19
-3 -7 7 5328 246 19
-3 -8 10 2593 187 19
-3 -8 9 2535 175 19
-3 -8 8 9690 429 19
-3 -9 10 833 141 19
-4 -7 9 348 116 19
-4 -8 12 728 150 19
-4 -8 11 1031 155 19
-4 -8 10 3024 209 19
-4 -8 9 1483 150 19
-4 -9 12 410 159 19
-4 -9 10 272 129 19
-4 -10 12 1306 198 19
-4 -10 10 357 137 19
-5 -10 10 429 158 19
-2 -2 5 6231 234 19
-2 -2 4 470 31 19
-2 -2 3 6156 242 19
-3 -3 7 5696 233 19
-3 -3 6 5736 228 19
-3 -3 5 8172 311 19
-3 -3 4 3525 137 19
-4 -4 10 324 109 19
-4 -4 9 13790 557 19
-4 -4 8 26477 1032 19
-4 -4 7 3359 164 19
-4 -4 6 138 66 19
-4 -5 8 5466 246 19
-5 -4 9 1358 137 19
-5 -4 8 11084 459 19
-5 -5 13 796 162 19
-5 -5 10 310 128 19
-5 -5 9 888 121 19
-5 -5 7 11144 459 19
-5 -6 10 281 119 19
-6 -5 12 511 160 19
-6 -5 9 2075 172 19
-6 -6 15 1002 239 19
-6 -6 8 990 135 19
-6 -7 12 322 156 19
-7 -6 15 707 254 19
-7 -6 12 842 208 19
-7 -7 14 421 198 19
-7 -7 12 408 202 19
-7 -7 10 542 178 19
-2 -1 3 2826 109 19
-3 -1 7 239 67 19
-3 -1 6 22007 846 19
-3 -1 5 532 57 19
-3 -1 4 1186 63 19
-4 -1 10 3260 204 19
-4 -1 9 3005 184 19
-4 -1 8 3712 193 19
-4 -1 7 21094 819 19
-4 -1 6 1186 96 19
-4 -2 7 18511 719 19
-4 -2 6 3806 173 19
-4 -2 5 746 65 19
-5 -1 11 9192 517 19
-5 -1 10 2287 240 19
-5 -1 9 2207 219 19
-5 -2 11 2448 214 19
-5 -2 10 542 154 19
-5 -2 9 801 140 19
-5 -2 8 1043 136 19
-5 -2 6 650 107 19
-6 -1 11 1454 346 19
-6 -2 15 870 320 19
-6 -2 12 958 278 19
-6 -2 11 840 243 19
-6 -2 10 1107 228 19
-6 -2 9 480 190 19
-6 -2 8 5542 347 19
-6 -3 10 5367 331 19
-6 -3 9 628 164 19
-6 -3 8 3630 240 19
-7 -3 12 649 278 19
-7 -3 11 1376 299 19
-7 -3 9 546 243 19
-7 -3 8 1216 230 19
-8 -4 11 1695 326 19
-8 -4 10 2569 377 19
0 2 7 28861 1257 19
-1 2 10 12050 633 19
-1 2 9 1970 264 19
-1 2 8 52227 2335 19
-1 1 6 1336 75 19
-1 1 5 1472 79 19
-1 1 4 25809 953 19
-2 2 12 7374 589 19
-2 2 11 1087 346 19
-2 2 10 2610 413 19
-2 1 7 914 115 19
-2 1 6 10523 430 19
-2 1 5 1222 152 19
-3 1 9 1207 214 19
-3 1 7 609 226 19
-3 1 6 1186 294 19
-4 1 9 869 374 19
-5 1 13 1557 582 19
8 -10 3 451 218 19
8 -10 1 1250 262 19
8 -10 0 1227 287 19
7 -8 2 1686 201 19
7 -8 1 1075 189 19
7 -9 3 1375 221 19
7 -9 2 3119 282 19
7 -9 1 1089 212 19
7 -9 0 3816 300 19
7 -10 0 678 202 19
6 -7 2 1347 152 19
6 -7 1 470 132 19
6 -7 0 2054 175 19
6 -8 2 8386 411 19
6 -8 0 492 138 19
6 -9 2 1028 173 19
6 -9 1 738 173 19
6 -9 0 1825 197 19
6 -10 2 3546 274 19
6 -10 1 4577 315 19
6 -11 2 440 169 19
5 -6 2 1027 112 19
5 -6 1 22126 880 19
5 -6 0 2581 157 19
5 -7 2 2019 151 19
5 -7 1 381 108 19
5 -7 0 2810 175 19
5 -9 1 9417 438 19
5 -9 -1 1339 147 19
4 -5 1 7068 287 19
4 -5 0 18156 704 19
4 -6 1 8854 363 19
4 -6 0 2840 144 19
4 -7 1 7320 314 19
4 -7 0 888 97 19
3 -4 1 16015 597 19
3 -5 1 2713 117 19
3 -5 0 24132 898 19
2 -3 0 33366 1285 19
-1 -4 3 13835 546 19
-1 -5 3 2410 99 19
-2 -5 4 34925 1322 19
-2 -6 5 502 66 19
-2 -6 4 19958 767 19
-2 -7 6 9433 394 19
-2 -7 5 1899 113 19
-2 -7 4 4182 185 19
-2 -8 6 19577 796 19
-2 -8 5 1098 110 19
-2 -9 7 2221 171 19
-2 -9 6 785 125 19
-2 -10 6 8061 387 19
-2 -11 7 900 165 19
-3 -8 6 18553 762 19
-3 -9 8 2274 186 19
-3 -9 7 2847 191 19
-3 -9 6 6188 304 19
-3 -9 5 3161 186 19
-3 -10 9 822 163 19
-3 -10 8 1660 182 19
-3 -10 7 4479 268 19
-3 -10 6 6603 337 19
-3 -10 5 2022 167 19
-3 -12 9 805 192 19
-3 -12 8 541 191 19
-3 -12 7 402 152 19
-4 -10 7 2952 221 19
-4 -11 8 541 172 19
-4 -13 7 1083 213 19
-2 -3 3 2525 103 19
-2 -3 2 35959 1418 19
-3 -4 5 3473 145 19
-3 -4 4 10561 401 19
-3 -5 5 14492 562 19
-3 -5 4 2522 112 19
-4 -5 5 25981 1020 19
-4 -6 7 1675 126 19
-4 -6 6 574 94 19
-4 -6 5 8983 373 19
-4 -6 4 203 74 19
-4 -7 6 2024 139 19
-5 -6 7 1123 121 19
-5 -6 6 3413 194 19
-5 -7 9 4025 253 19
-5 -7 8 1607 161 19
-5 -7 7 664 125 19
-5 -7 6 1223 135 19
-5 -7 5 5855 278 19
-5 -8 9 5030 303 19
-5 -8 8 386 140 19
-5 -8 7 9727 448 19
-5 -8 6 2550 178 19
-5 -9 8 579 149 19
-6 -7 7 1195 152 19
-6 -8 8 1319 180 19
-6 -8 7 401 153 19
-6 -9 10 438 160 19
-6 -9 9 935 191 19
-6 -9 8 372 169 19
-6 -9 7 2816 235 19
-6 -10 8 378 183 19
-6 -11 9 454 180 19
-7 -9 8 559 199 19
-7 -10 9 1511 240 19
-7 -10 8 1535 249 19
-8 -11 8 1268 256 19
-3 -2 4 6938 249 19
-3 -2 3 60959 2103 19
-4 -3 5 15934 579 19
-4 -3 4 2023 96 19
-4 -3 3 33763 1204 19
-5 -3 6 3441 165 19
-5 -3 5 1344 105 19
-5 -4 6 1229 103 19
-5 -4 5 4379 193 19
-5 -4 4 12502 469 19
-6 -4 9 9127 412 19
-6 -4 8 1955 167 19
-6 -4 5 573 110 19
-6 -5 6 8015 341 19
-6 -5 5 303 103 19
-6 -5 4 1237 123 19
-7 -5 8 3582 252 19
-7 -5 7 1219 172 19
-7 -5 6 1560 174 19
-7 -5 5 761 141 19
-7 -6 4 263 116 19
-8 -5 7 1598 259 19
-8 -6 7 963 209 19
-8 -6 6 743 183 19
-8 -7 9 487 208 19
-8 -7 7 427 186 19
-9 -6 7 516 252 19
-9 -7 12 695 280 19
-3 -1 3 16044 546 19
-3 -1 2 72008 2422 19
-4 -1 4 3244 146 19
-4 -1 3 13956 492 19
-4 -2 1 3288 134 19
-5 -1 4 4898 324 19
-5 -2 4 14581 518 19
-5 -2 3 2205 142 19
-5 -2 2 5791 262 19
-6 -1 8 4867 434 19
-6 -1 5 2109 402 19
-6 -2 4 1158 212 19
-6 -3 2 439 146 19
-7 -1 10 1275 422 19
-7 -1 8 1236 435 19
-7 -2 6 2103 393 19
-7 -2 5 1535 373 19
-7 -2 4 1471 446 19
-7 -3 5 1034 219 19
-7 -3 3 833 269 19
-8 -3 7 2412 410 19
-8 -3 5 3063 450 19
-8 -4 3 1458 327 19
-9 -4 7 1285 400 19
-9 -4 6 1101 445 19
-2 -4 2 5774 245 19
-2 -5 2 1495 70 19
-3 -6 4 648 68 19
-3 -6 3 1704 93 19
-3 -7 4 13138 566 19
-3 -7 3 761 76 19
-4 -7 4 156 75 19
-4 -8 4 2138 146 19
-4 -8 3 703 96 19
-4 -9 5 688 118 19
-4 -9 4 259 102 19
-4 -9 3 6984 340 19
-4 -10 4 611 128 19
-4 -11 5 7325 397 19
-5 -9 4 890 125 19
-5 -10 7 2927 244 19
-5 -10 6 826 163 19
-5 -10 5 1167 162 19
-5 -10 4 961 144 19
-5 -11 5 359 150 19
-5 -11 4 1237 177 19
-5 -11 3 313 135 19
-5 -12 6 437 172 19
-6 -11 7 2268 256 19
-6 -11 6 3226 291 19
-3 -3 2 18525 718 19
-3 -4 2 131 32 19
-4 -4 3 729 57 19
-4 -5 3 362 61 19
-4 -5 2 6099 253 19
-5 -5 4 2832 146 19
-5 -5 3 2228 129 19
-5 -6 4 229 87 19
-5 -6 3 1158 101 19
-5 -6 2 11729 494 19
-6 -6 4 1890 143 19
-6 -7 4 1197 134 19
-6 -8 4 550 120 19
-7 -7 4 353 126 19
-7 -8 6 403 144 19
-7 -8 5 1239 171 19
-7 -8 4 541 148 19
-7 -9 5 497 147 19
-7 -9 3 1015 158 19
-8 -9 5 930 206 19
-9 -9 5 435 210 19
-3 -2 1 13104 527 19
-4 -3 2 5897 250 19
-4 -3 1 277 57 19
-5 -3 3 675 95 19
-5 -3 2 7280 326 19
-5 -4 2 9882 427 19
-6 -4 3 1673 149 19
-6 -4 2 4371 243 19
-6 -4 1 1288 156 19
-6 -5 2 280 102 19
-6 -5 1 624 117 19
-7 -4 4 520 183 19
-7 -4 3 3236 266 19
-7 -5 3 1482 191 19
-7 -5 1 939 182 19
-7 -6 1 1788 196 19
-7 -6 0 1703 212 19
-8 -5 4 482 234 19
-8 -6 3 606 216 19
-8 -6 2 2326 298 19
-8 -7 1 15016 790 19
-8 -7 0 3218 352 19
-9 -6 3 1556 333 19
-9 -7 3 1237 312 19
-9 -8 0 3318 445 19
-10 -7 2 4962 719 19
-11 -8 3 1939 514 19
-1 -1 -1 55296 2084 19
-2 -1 0 59822 2308 19
-2 -2 -2 13241 517 19
-3 -2 -1 306 54 19
-3 -2 -2 8641 439 19
-3 -3 -3 7694 317 19
-3 -3 -4 11381 637 19
-4 -2 -1 8502 501 19
-4 -3 -2 966 115 19
-4 -3 -3 2030 289 19
-4 -4 -4 6204 350 19
-4 -4 -5 1976 415 19
-5 -3 -1 1437 194 19
-5 -3 -2 9908 689 19
-5 -4 -3 2927 280 19
-5 -4 -4 3023 486 19
-5 -5 -5 1022 329 19
-6 -3 0 817 305 19
-6 -5 -4 1092 356 19
-6 -6 -6 2014 586 19
-8 -5 -1 2626 562 19
-4 -1 -1 4435 217 20
-5 -1 -1 10048 456 20
-5 -1 -2 317 35 20
-6 -1 -1 1488 87 20
-6 -1 -2 3159 157 20
-7 -1 -1 190 64 20
-7 -1 -2 2261 133 20
-8 -1 -1 1226 106 20
-8 -1 -2 1230 111 20
-8 -2 -2 3594 201 20
-9 -1 -2 463 106 20
-9 -2 -3 1040 122 20
-10 -1 -2 511 131 20
-10 -1 -3 262 120 20
-10 -2 -2 439 114 20
-10 -2 -3 1219 150 20
-11 -2 -2 300 134 20
-11 -3 -3 2103 210 20
-12 -3 -3 335 159 20
-4 -1 -3 7943 323 20
-5 0 -3 1717 78 20
-5 -1 -3 1234 62 20
-5 -1 -4 1139 67 20
-6 -1 -4 9501 404 20
-6 -1 -5 3458 168 20
-7 -1 -4 1164 91 20
-7 -1 -5 1915 123 20
-7 -1 -6 3809 201 20
-8 -1 -5 474 96 20
-8 -1 -6 4316 234 20
-8 -1 -7 9004 429 20
-9 -1 -6 444 114 20
-9 -2 -7 1318 147 20
-10 -1 -6 2625 200 20
-10 -2 -6 440 130 20
-11 -3 -9 557 158 20
-3 0 -4 354 36 20
-5 0 -6 7611 333 20
-5 0 -7 26911 1116 20
-5 -1 -7 4316 208 20
-6 1 -6 9660 428 20
-6 0 -8 654 119 20
-6 -1 -8 14295 618 20
-7 1 -7 625 127 20
-7 1 -8 1159 162 20
-7 0 -8 3457 218 20
-7 0 -9 2031 186 20
-7 0 -10 766 164 20
-7 -1 -8 503 111 20
-7 -1 -9 1862 167 20
-8 1 -9 2153 237 20
-8 0 -10 565 185 20
-8 -1 -10 658 169 20
-9 0 -11 1676 299 20
-9 -1 -11 4199 363 20
-9 -1 -12 2092 327 20
-10 0 -11 976 268 20
-10 0 -12 810 310 20
-2 1 -3 1513 68 20
-3 2 -4 33593 1327 20
-3 2 -5 28470 1127 20
-3 1 -5 6425 268 20
-3 1 -6 1352 100 20
-4 3 -5 34987 1407 20
-4 3 -6 2697 223 20
-4 2 -5 11617 476 20
-4 2 -6 2215 152 20
-4 2 -7 2513 202 20
-4 1 -6 2745 139 20
-4 1 -7 19324 787 20
-5 3 -6 6982 350 20
-5 3 -9 1351 351 20
-5 2 -7 8858 412 20
-6 3 -8 3113 314 20
-6 3 -10 765 374 20
-6 2 -9 621 212 20
-6 2 -10 1629 303 20
-7 6 -9 3403 906 20
-7 5 -10 2398 669 20
-7 4 -11 2298 584 20
-7 3 -11 1614 411 20
-3 1 7 1191 70 20
-3 1 6 1944 90 20
-3 1 5 43035 1696 20
-4 1 9 1405 107 20
-4 1 8 146 68 20
-4 1 7 5056 219 20
-5 2 11 499 130 20
-5 2 10 9648 441 20
-5 2 9 2045 141 20
-5 1 11 1780 159 20
-5 1 9 645 94 20
-5 1 8 457 67 20
-6 2 14 504 182 20
-6 2 12 3716 256 20
-6 2 11 3238 220 20
-6 2 10 2323 168 20
-6 1 10 784 118 20
-7 3 14 1072 222 20
-7 3 13 641 185 20
-7 2 13 1629 208 20
-7 1 14 1000 202 20
-7 1 12 427 142 20
-8 2 13 557 182 20
-8 1 17 553 218 20
-9 3 15 571 239 20
-4 -1 -2 128 25 20
-5 -2 -3 251 38 20
-6 -2 -3 13535 523 20
-6 -2 -4 284 52 20
-7 -2 -3 614 60 20
-7 -2 -4 4146 188 20
-7 -3 -4 161 66 20
-8 -2 -4 2189 132 20
-8 -3 -4 2012 126 20
-8 -3 -5 8646 376 20
-9 -3 -4 7776 352 20
-9 -3 -5 1153 124 20
-9 -3 -6 2527 174 20
-9 -4 -5 292 111 20
-9 -4 -6 1347 136 20
-10 -3 -5 422 123 20
-10 -4 -5 6910 345 20
-10 -4 -6 328 122 20
-10 -5 -6 413 120 20
-11 -3 -5 327 132 20
-11 -3 -6 280 126 20
-11 -4 -6 321 129 20
-12 -4 -5 310 141 20
-12 -4 -8 411 161 20
-3 -1 -3 1508 64 20
-3 -1 -4 679 34 20
-4 -1 -4 1497 64 20
-4 -2 -5 2901 119 20
-5 -2 -5 16589 631 20
-5 -2 -6 1280 83 20
-5 -2 -7 2970 144 20
-6 -2 -6 344 72 20
-6 -2 -7 257 82 20
-6 -2 -8 576 90 20
-6 -3 -7 5261 233 20
-6 -3 -8 1987 128 20
-7 -2 -8 2548 162 20
-7 -3 -7 8453 358 20
-7 -3 -8 327 100 20
-7 -3 -9 247 105 20
-7 -4 -9 241 99 20
-8 -3 -8 529 111 20
-8 -3 -9 357 120 20
-8 -3 -10 341 139 20
-8 -3 -11 2533 231 20
-8 -4 -9 451 120 20
-8 -4 -10 1199 157 20
-9 -2 -9 942 154 20
-9 -2 -10 446 153 20
-9 -3 -9 367 130 20
-9 -3 -10 858 164 20
-9 -4 -9 416 118 20
-9 -4 -10 1105 161 20
-10 -3 -10 789 173 20
-10 -4 -14 868 320 20
-1 0 -2 2259 95 20
-2 0 -4 17194 646 20
-2 -1 -4 6382 238 20
-3 0 -5 11073 426 20
-3 0 -6 3267 145 20
-3 -1 -5 3170 126 20
-3 -1 -6 20842 801 20
-3 -1 -7 1693 106 20
-3 -2 -7 7644 307 20
-4 0 -7 23431 904 20
-4 0 -8 4602 232 20
-4 -1 -7 2587 134 20
-4 -1 -8 18953 744 20
-4 -1 -9 11843 512 20
-4 -2 -8 1516 114 20
-4 -2 -9 2249 157 20
-5 0 -8 1740 130 20
-5 0 -9 3807 238 20
-5 0 -10 3224 275 20
-5 -1 -9 1261 139 20
-5 -1 -10 5711 321 20
-5 -2 -9 3437 193 20
-5 -2 -10 1912 175 20
-5 -2 -11 2257 246 20
-5 -2 -12 1907 307 20
-5 -3 -11 511 160 20
-6 0 -11 1197 249 20
-6 -1 -11 528 205 20
-6 -1 -13 3336 468 20
-6 -2 -14 4329 534 20
-6 -3 -12 4768 358 20
-6 -3 -14 785 329 20
-6 -4 -14 863 347 20
-7 0 -12 3715 441 20
-7 0 -13 828 392 20
-7 -1 -12 6213 493 20
-7 -1 -13 4380 523 20
-7 -2 -12 646 212 20
-7 -2 -14 765 316 20
-7 -3 -14 641 293 20
-7 -3 -15 3817 568 20
-8 0 -13 1891 424 20
-8 -4 -16 1803 525 20
-1 1 -2 1141 47 20
-1 1 -3 209 44 20
-1 0 -4 11188 401 20
-2 3 -4 42447 1897 20
-2 2 -4 1847 113 20
-2 2 -5 5313 314 20
-2 1 -5 17230 618 20
-2 1 -6 3241 228 20
-2 0 -7 6348 354 20
-3 4 -5 1330 289 20
-3 3 -5 9296 426 20
-3 3 -6 5296 396 20
-3 3 -7 10666 856 20
-3 2 -7 530 212 20
-3 2 -8 3653 462 20
-3 1 -8 31493 1396 20
-3 1 -9 5168 524 20
-3 0 -10 2986 468 20
-4 4 -7 1619 386 20
-4 2 -10 1928 472 20
-4 1 -11 6469 807 20
-3 0 5 19292 720 20
-3 -1 5 441 36 20
-4 0 6 6424 247 20
-4 -1 7 24856 945 20
-4 -1 6 1335 71 20
-5 0 8 835 82 20
-5 -1 9 2949 160 20
-5 -1 8 356 76 20
-5 -1 7 3349 151 20
-5 -2 8 1695 103 20
-6 0 10 264 91 20
-6 0 9 2480 152 20
-6 -1 11 1743 162 20
-6 -1 10 2007 153 20
-6 -1 9 2908 166 20
-6 -1 8 7107 303 20
-6 -2 10 872 125 20
-6 -2 9 562 104 20
-7 0 10 396 111 20
-7 -1 12 3330 249 20
-7 -1 11 255 124 20
-7 -1 10 1323 140 20
-7 -2 12 563 149 20
-7 -2 11 287 132 20
-8 0 13 1079 196 20
-8 -1 12 661 171 20
-8 -1 11 534 134 20
-9 -1 15 593 228 20
-9 -1 14 447 179 20
-9 -1 13 746 194 20
-4 -2 -1 12564 507 20
-5 -3 -2 14957 578 20
-6 -3 -1 917 63 20
-6 -3 -2 247 51 20
-7 -3 -2 1508 93 20
-7 -4 -2 330 68 20
-7 -4 -3 2580 132 20
-8 -4 -2 4048 197 20
-8 -4 -3 1432 114 20
-8 -5 -3 538 88 20
-9 -4 -2 705 106 20
-9 -4 -3 1570 136 20
-9 -5 -2 760 110 20
-9 -5 -4 3759 216 20
-10 -4 -3 5334 289 20
-11 -5 -3 1294 173 20
-11 -5 -4 1910 200 20
-11 -6 -2 513 137 20
-11 -6 -5 332 145 20
-3 -2 -3 10324 399 20
-4 -3 -4 886 50 20
-5 -3 -4 616 52 20
-5 -3 -5 1526 86 20
-6 -3 -5 13368 529 20
-6 -4 -5 18967 744 20
-6 -4 -6 258 80 20
-7 -3 -6 943 98 20
-7 -4 -5 8225 347 20
-7 -4 -7 3568 198 20
-7 -5 -6 22768 918 20
-8 -4 -7 821 126 20
-8 -5 -7 440 117 20
-8 -6 -8 2105 181 20
-9 -5 -9 1074 171 20
-9 -6 -7 406 127 20
-9 -6 -9 2393 223 20
-9 -6 -10 1054 187 20
-9 -7 -8 593 150 20
-9 -7 -9 1183 182 20
-10 -5 -9 340 164 20
-10 -6 -7 691 165 20
-10 -7 -8 1537 206 20
-10 -7 -10 586 186 20
-10 -8 -9 525 198 20
-11 -6 -8 808 192 20
-11 -6 -9 364 170 20
-11 -6 -10 437 189 20
-11 -7 -9 501 184 20
-2 -2 -4 4844 170 20
-3 -2 -5 4254 156 20
-3 -3 -5 457 36 20
-3 -3 -6 1282 69 20
-4 -3 -6 24355 874 20
-4 -3 -7 49924 1794 20
-4 -3 -8 11027 419 20
-4 -4 -7 2095 113 20
-4 -4 -8 39182 1410 20
-5 -3 -8 12830 486 20
-5 -3 -9 984 115 20
-5 -4 -8 2879 152 20
-5 -4 -9 1091 120 20
-5 -4 -10 802 131 20
-5 -5 -10 245 115 20
-6 -3 -10 759 135 20
-6 -4 -9 990 120 20
-6 -4 -11 663 149 20
-6 -5 -9 375 99 20
-6 -5 -10 560 127 20
-6 -5 -11 508 136 20
-6 -6 -10 8633 389 20
-6 -6 -11 634 161 20
-6 -6 -12 741 202 20
-7 -3 -11 2042 199 20
-7 -4 -11 2484 209 20
-7 -5 -10 1781 168 20
-7 -6 -11 2160 197 20
-7 -6 -12 1535 217 20
-7 -6 -14 2264 369 20
-7 -6 -15 1034 385 20
-7 -7 -12 760 192 20
-7 -7 -14 1609 322 20
-8 -4 -13 560 225 20
-8 -6 -12 683 183 20
-8 -7 -13 1676 280 20
-8 -7 -15 1997 401 20
-9 -5 -14 634 267 20
-9 -6 -13 1351 263 20
-9 -8 -14 651 282 20
-1 -1 -3 8573 286 20
-1 -1 -4 13740 465 20
-1 -2 -4 20477 690 20
-2 -1 -6 12790 438 20
-2 -1 -7 5269 230 20
-2 -2 -6 25894 874 20
-2 -3 -7 6972 262 20
-2 -3 -8 52408 1865 20
-2 -3 -9 10788 585 20
-2 -4 -8 2910 191 20
-2 -4 -9 24562 1077 20
-3 -2 -10 5544 386 20
-3 -3 -8 2798 141 20
-3 -3 -9 13108 504 20
-3 -3 -10 1036 211 20
-3 -3 -11 819 290 20
-3 -4 -10 445 170 20
-3 -4 -11 2338 346 20
-3 -6 -11 3605 385 20
-3 -6 -12 16710 1050 20
-3 -7 -12 1040 397 20
-4 -1 -11 1147 281 20
-4 -3 -11 2391 256 20
-4 -3 -13 3918 575 20
-4 -4 -11 353 173 20
-4 -4 -13 1366 391 20
-4 -5 -13 677 327 20
-5 -1 -14 4722 919 20
-5 -4 -14 1333 416 20
-5 -6 -15 1238 500 20
-4 -3 -2 1112 56 20
-5 -4 -3 3418 150 20
-6 -4 -3 7951 337 20
-6 -5 -3 5417 242 20
-6 -5 -4 1601 102 20
-7 -5 -3 257 73 20
-7 -5 -4 336 80 20
-7 -6 -4 5480 266 20
-7 -6 -5 497 94 20
-8 -6 -5 1245 129 20
-8 -7 -5 2503 179 20
-9 -7 -5 266 116 20
-9 -8 -5 530 132 20
-10 -7 -4 676 133 20
-10 -7 -5 437 124 20
-10 -8 -6 576 144 20
-11 -9 -6 769 175 20
-11 -9 -7 344 163 20
-12 -9 -5 340 163 20
-2 -2 -3 4182 172 20
-3 -3 -4 14644 569 20
-4 -4 -5 3178 139 20
-4 -4 -6 26001 1045 20
-4 -5 -5 3695 160 20
-5 -4 -6 21777 880 20
-5 -5 -6 5702 250 20
-5 -5 -7 38680 1570 20
-5 -6 -6 1627 108 20
-6 -5 -7 748 96 20
-6 -5 -8 882 112 20
-6 -6 -8 244 102 20
-6 -6 -9 1188 136 20
-6 -7 -7 1740 129 20
-6 -7 -9 2500 185 20
-7 -6 -8 1025 130 20
-7 -7 -8 270 117 20
-7 -7 -9 1048 145 20
-7 -7 -10 2342 221 20
-7 -8 -9 1527 178 20
-7 -8 -10 1180 175 20
-7 -8 -11 501 168 20
-8 -7 -9 6124 344 20
-8 -7 -10 432 162 20
-8 -7 -11 1434 216 20
-8 -8 -9 1096 173 20
-8 -8 -10 1638 199 20
-8 -8 -11 374 186 20
-8 -9 -12 616 215 20
-9 -8 -9 419 148 20
-9 -8 -10 352 158 20
-9 -8 -11 617 184 20
-9 -9 -11 435 191 20
-1 -2 -3 42029 1654 20
-2 -3 -5 111 45 20
-2 -4 -5 11361 470 20
-2 -4 -6 135 67 20
-3 -4 -6 15679 647 20
-3 -4 -7 50510 2068 20
-3 -4 -8 8404 379 20
-3 -5 -7 4868 231 20
-3 -5 -8 27572 1155 20
-3 -6 -7 1534 129 20
-3 -6 -8 841 134 20
-4 -6 -10 699 170 20
-4 -6 -11 11994 677 20
-4 -7 -10 4270 308 20
-4 -7 -11 22774 1161 20
-4 -8 -9 2474 226 20
-4 -8 -10 711 207 20
-4 -8 -11 524 252 20
-4 -8 -12 2087 394 20
-5 -6 -11 14731 730 20
-5 -6 -12 2518 319 20
-5 -6 -13 1266 341 20
-5 -7 -10 489 146 20
-5 -7 -11 2459 278 20
-5 -7 -13 939 351 20
-5 -8 -11 1459 240 20
-5 -8 -14 1520 448 20
-5 -9 -12 1390 314 20
-5 -9 -13 1939 442 20
-5 -9 -14 1396 493 20
-5 -10 -12 794 340 20
-6 -7 -14 1912 434 20
-6 -8 -12 1141 261 20
-6 -8 -14 884 370 20
0 -2 -1 2403 96 20
0 -4 -2 3091 189 20
0 -5 -3 4298 367 20
0 -6 -3 5032 516 20
-1 -3 -6 347 106 20
-1 -4 -5 512 77 20
-1 -4 -7 12607 759 20
-1 -5 -5 30631 1216 20
-1 -5 -6 976 170 20
-1 -6 -6 5968 397 20
-1 -6 -7 11200 755 20
-1 -7 -5 4443 322 20
-1 -7 -6 8870 593 20
-1 -7 -7 7561 684 20
-1 -8 -5 10730 692 20
-1 -9 -6 1515 440 20
-2 -7 -9 1199 291 20
-2 -8 -10 1628 528 20
-2 -9 -10 5949 972 20
9 12 -2 387 181 21
9 11 -2 360 168 21
9 11 -3 740 182 21
9 10 -4 401 159 21
8 12 -3 1258 213 21
8 11 -5 350 175 21
8 10 -3 285 141 21
8 10 -4 683 161 21
7 10 -2 679 135 21
7 10 -3 1530 177 21
7 10 -4 429 136 21
7 9 -3 823 140 21
6 8 -2 406 100 21
6 7 -2 7101 363 21
5 7 -2 9072 444 21
5 6 -1 5230 258 21
5 6 -2 11446 542 21
4 5 -1 276 45 21
4 5 -2 5856 272 21
3 4 -1 10275 481 21
9 11 3 521 165 21
9 10 2 887 161 21
8 11 2 1551 183 21
8 10 1 514 128 21
8 9 2 308 124 21
8 8 1 3256 208 21
7 9 1 1351 140 21
7 8 2 288 109 21
7 8 1 14610 653 21
7 7 1 1193 121 21
6 8 2 6369 304 21
6 7 2 2128 139 21
6 7 1 18149 781 21
6 7 0 44385 1870 21
6 6 1 7218 322 21
5 7 1 19554 830 21
5 6 1 15683 663 21
5 6 0 5856 255 21
4 5 1 424 46 21
3 4 1 98324 4020 21
10 10 7 1504 339 21
9 12 9 1358 376 21
9 12 8 1160 355 21
9 11 7 1573 311 21
9 11 6 2074 313 21
9 11 5 398 173 21
8 12 8 976 345 21
8 12 6 1295 251 21
8 11 7 788 247 21
8 10 6 600 195 21
8 9 5 326 147 21
7 11 6 406 187 21
7 10 7 1339 254 21
7 9 6 423 168 21
7 9 5 391 130 21
7 8 6 794 145 21
7 8 5 546 129 21
7 8 4 400 109 21
6 10 5 508 136 21
6 8 5 994 132 21
6 7 5 2044 159 21
6 7 4 3158 185 21
6 6 4 1578 119 21
5 8 4 407 92 21
5 7 5 6417 308 21
5 7 4 14771 630 21
5 6 4 14348 608 21
5 6 3 853 87 21
4 6 4 1068 83 21
4 6 3 693 65 21
4 5 3 617 63 21
3 4 3 472 42 21
3 4 2 356 33 21
3 3 2 8673 347 21
2 3 2 6183 250 21
7 12 10 2398 527 21
7 11 10 1243 471 21
6 12 9 2304 444 21
6 10 10 1380 500 21
6 10 9 9483 770 21
5 12 10 2692 544 21
5 12 9 2148 499 21
5 11 9 5923 616 21
5 11 8 3464 419 21
5 10 8 2478 348 21
5 9 9 2577 424 21
5 9 8 2315 308 21
5 8 8 869 260 21
5 8 7 631 176 21
4 12 10 1999 599 21
4 12 8 4487 539 21
4 10 9 1504 449 21
4 10 8 1552 333 21
4 9 7 804 202 21
4 8 8 2376 308 21
4 8 6 448 113 21
4 7 7 730 176 21
4 7 6 1133 143 21
4 6 6 11973 520 21
3 10 8 1336 353 21
3 9 7 1299 250 21
3 9 6 5951 345 21
3 7 6 9716 449 21
3 7 5 15655 640 21
3 6 6 10718 483 21
3 6 5 12819 525 21
3 5 5 1529 109 21
2 6 5 872 106 21
2 6 4 1764 102 21
2 5 4 3539 161 21
2 4 4 266 48 21
2 4 3 94593 3719 21
2 3 3 2266 96 21
1 3 2 432 22 21
1 2 2 2284 90 21
0 5 -11 414 115 21
0 4 -9 3798 189 21
0 3 -7 69961 2798 21
-1 8 -15 848 269 21
-1 7 -13 719 214 21
-1 7 -15 1462 259 21
-1 6 -10 593 132 21
-1 6 -11 965 155 21
-1 6 -12 19475 898 21
-1 6 -13 6988 420 21
-1 6 -14 3976 338 21
-1 5 -9 1327 131 21
-1 5 -10 5659 298 21
-1 5 -12 682 152 21
-1 5 -14 458 187 21
-1 5 -16 698 206 21
-1 5 -17 474 222 21
-1 4 -8 249 86 21
-1 4 -9 1737 135 21
-1 4 -11 7187 353 21
-1 4 -14 7159 417 21
-1 4 -15 888 194 21
-1 3 -7 18331 754 21
-1 3 -8 24293 1008 21
-1 3 -9 734 99 21
-1 3 -10 2717 161 21
-2 5 -13 7645 475 21
10 10 -3 367 146 21
9 9 -1 901 145 21
9 8 0 4807 277 21
9 8 -2 2558 193 21
9 8 -3 897 138 21
8 7 0 4361 233 21
8 7 -1 20769 860 21
8 7 -2 538 112 21
8 6 -2 2738 162 21
7 7 -2 3579 186 21
7 6 -1 2142 130 21
7 6 -2 1440 108 21
6 6 -1 16627 664 21
6 6 -2 2656 131 21
6 5 -1 531 65 21
5 5 -1 250 49 21
4 4 -1 4944 196 21
4 3 -1 576 30 21
3 3 -1 15059 632 21
10 8 5 430 196 21
9 8 3 390 135 21
9 7 3 2347 198 21
9 7 2 880 139 21
8 8 4 327 124 21
8 7 4 488 138 21
8 7 3 2543 176 21
8 7 2 603 115 21
8 6 3 955 128 21
8 6 2 293 105 21
7 7 3 5118 247 21
7 6 3 2742 162 21
7 6 2 435 93 21
7 5 2 2279 137 21
6 6 3 520 77 21
6 6 2 2251 121 21
6 5 3 5617 245 21
6 5 2 5857 246 21
5 5 2 9411 368 21
5 4 2 1359 78 21
5 4 1 702 51 21
4 4 2 46420 1725 21
4 3 1 4413 168 21
3 3 1 2351 93 21
10 9 8 758 318 21
10 8 8 849 341 21
10 7 8 1269 434 21
9 8 8 618 305 21
9 7 9 1281 409 21
9 7 8 1125 337 21
8 10 9 1089 358 21
8 8 9 1178 403 21
8 8 7 699 238 21
8 7 9 5010 607 21
8 7 8 611 297 21
7 9 8 1462 296 21
7 7 6 504 144 21
7 5 6 15340 692 21
6 7 7 844 194 21
6 7 6 2165 181 21
6 6 6 2160 185 21
6 5 5 2256 161 21
6 4 5 14089 580 21
5 6 6 1276 145 21
5 5 6 4012 236 21
5 5 5 1385 119 21
5 4 5 10368 429 21
5 4 4 5016 219 21
5 3 4 343 72 21
4 4 5 2355 130 21
4 4 4 9042 360 21
4 3 3 2974 127 21
3 3 3 9716 371 21
2 2 2 13975 524 21
4 8 9 2940 527 21
4 5 7 1208 253 21
4 4 7 1392 351 21
3 7 8 3892 525 21
3 6 7 975 256 21
3 5 7 3287 403 21
3 5 6 577 133 21
3 4 6 10616 544 21
2 9 8 1475 462 21
2 6 6 6854 381 21
2 5 6 5449 377 21
2 4 5 7146 316 21
2 3 4 2645 118 21
1 5 5 34175 1469 21
1 4 4 578 84 21
1 3 3 4150 154 21
2 6 -17 512 179 21
2 5 -15 5429 337 21
2 4 -15 3038 238 21
2 4 -17 385 191 21
1 6 -15 2268 257 21
1 5 -13 746 149 21
1 5 -14 1508 194 21
1 4 -12 5145 263 21
1 4 -13 472 130 21
1 4 -15 4232 290 21
1 4 -16 997 195 21
1 3 -9 18972 731 21
1 3 -10 2115 125 21
1 3 -11 1838 129 21
1 3 -12 2386 162 21
1 3 -13 901 132 21
1 3 -14 2043 180 21
1 3 -15 4487 282 21
1 3 -16 418 159 21
1 2 -8 216 46 21
1 2 -9 6195 250 21
1 2 -10 2190 123 21
1 2 -11 2765 150 21
0 4 -14 3988 269 21
0 4 -16 765 197 21
0 3 -11 8782 378 21
0 3 -13 1003 142 21
0 2 -7 9100 342 21
0 2 -8 6171 246 21
0 2 -9 13549 532 21
11 9 -5 349 164 21
11 8 -4 628 187 21
10 7 -4 623 160 21
9 7 -4 497 137 21
9 7 -6 439 138 21
8 7 -5 251 117 21
8 6 -3 1278 126 21
8 6 -5 540 118 21
8 6 -6 606 122 21
8 5 -5 908 119 21
7 6 -3 3973 199 21
7 6 -4 225 94 21
7 5 -3 2127 131 21
7 5 -4 4122 201 21
7 5 -5 622 97 21
6 5 -3 1752 105 21
6 5 -4 1731 106 21
6 4 -3 2041 109 21
5 4 -2 10256 395 21
5 4 -3 434 52 21
5 4 -4 13711 529 21
4 3 -2 6059 236 21
4 3 -3 35337 1340 21
12 9 0 479 189 21
12 7 1 424 205 21
11 8 -1 509 197 21
11 6 0 319 154 21
10 7 0 875 169 21
10 7 -1 562 166 21
10 6 0 653 150 21
10 5 -1 620 151 21
9 7 0 270 133 21
9 6 0 1897 174 21
9 6 -1 305 122 21
9 5 0 1028 141 21
9 5 -1 1514 151 21
8 6 0 1510 136 21
8 5 1 4150 221 21
8 5 0 1112 123 21
8 4 -1 276 95 21
7 5 0 2148 131 21
7 5 -1 947 87 21
7 4 0 1834 119 21
7 4 -1 13421 541 21
6 4 0 386 66 21
6 4 -1 2029 105 21
6 3 -1 2497 114 21
5 3 0 383 46 21
4 3 0 11348 423 21
3 2 0 8402 346 21
11 5 4 1258 277 21
11 5 3 703 228 21
11 4 3 907 225 21
10 4 4 724 217 21
10 4 3 3617 286 21
9 5 5 5577 364 21
9 5 4 2874 226 21
9 4 4 1827 217 21
9 4 3 983 160 21
8 5 3 276 114 21
8 4 4 10218 448 21
8 4 3 1255 137 21
7 4 4 4359 225 21
7 4 3 2396 146 21
7 4 2 265 76 21
7 3 3 217 95 21
7 3 2 1399 109 21
6 4 3 8136 317 21
6 3 2 158 70 21
5 3 3 4188 171 21
5 3 2 16540 594 21
5 2 2 3474 142 21
4 2 2 12733 453 21
8 6 9 1132 484 21
8 3 6 1016 314 21
7 4 8 917 426 21
7 4 7 2889 362 21
7 3 7 4158 520 21
7 1 5 1180 320 21
7 1 4 709 174 21
6 5 8 706 328 21
6 4 7 23031 1090 21
6 3 7 3575 497 21
6 3 6 15357 719 21
6 3 5 8281 356 21
6 1 5 1886 317 21
6 1 4 5850 317 21
6 0 3 9265 430 21
5 4 6 13677 556 21
5 3 6 23284 1003 21
5 3 5 1029 125 21
5 2 5 9831 452 21
5 2 4 780 103 21
5 1 4 894 150 21
4 3 5 5085 223 21
4 2 4 18350 628 21
4 1 4 538 131 21
4 1 3 6188 228 21
4 0 2 13771 471 21
3 1 3 1187 74 21
2 1 2 1080 44 21
2 0 1 73178 2411 21
12 6 -5 392 162 21
11 6 -4 384 160 21
11 5 -6 567 167 21
10 4 -4 339 133 21
9 5 -3 429 114 21
9 5 -4 710 120 21
9 5 -5 1723 153 21
9 4 -3 377 114 21
9 4 -4 1014 131 21
8 5 -3 241 85 21
8 4 -3 1817 137 21
8 4 -4 1102 114 21
8 3 -4 436 102 21
7 4 -2 528 78 21
7 4 -3 4542 220 21
7 3 -3 1129 95 21
6 3 -2 685 66 21
6 3 -3 2122 110 21
5 3 -2 8240 340 21
5 2 -2 8507 351 21
4 2 -2 2679 117 21
13 6 1 503 228 21
11 5 1 495 172 21
11 3 1 585 193 21
11 3 -1 518 153 21
10 4 1 867 157 21
10 4 -1 677 146 21
9 4 0 370 121 21
9 3 1 799 136 21
9 3 0 2188 171 21
8 3 0 505 102 21
8 3 -1 514 87 21
7 3 1 7665 337 21
7 3 0 173 77 21
7 2 0 805 90 21
6 3 1 1066 72 21
6 2 0 1734 97 21
5 2 0 523 47 21
4 1 0 3224 129 21
3 1 0 49603 2055 21
10 2 3 857 265 21
10 0 1 963 271 21
9 3 5 1068 299 21
9 2 3 565 203 21
9 1 3 557 230 21
9 0 1 1266 236 21
8 2 4 928 226 21
8 1 3 2407 261 21
8 1 2 1118 176 21
8 0 3 584 257 21
8 0 2 3993 330 21
8 0 1 464 160 21
7 2 3 292 120 21
7 1 3 411 151 21
7 1 2 1722 158 21
7 0 2 2281 211 21
7 0 1 604 128 21
6 2 3 11234 489 21
6 1 2 2777 162 21
6 0 2 693 129 21
6 0 1 10371 455 21
5 0 1 1967 114 21
4 1 2 154 49 21
4 0 1 373 53 21
3 0 1 4043 166 21
7 -2 2 6837 728 21
6 -2 1 1022 232 21
5 0 4 3990 464 21
5 -1 2 18399 859 21
5 -3 0 9074 676 21
5 -4 -2 4906 458 21
4 -1 2 988 202 21
4 -2 0 8336 369 21
4 -3 -1 20995 996 21
3 -1 1 4278 187 21
3 -2 0 21172 908 21
3 -3 -1 18441 1017 21
2 -1 0 2389 97 21
2 -2 -1 1196 72 21
11 5 -6 639 172 22
11 4 -7 352 165 22
10 4 -5 544 136 22
9 4 -4 705 128 22
9 4 -5 278 118 22
9 3 -5 378 108 22
9 3 -6 330 115 22
8 4 -4 1029 116 22
8 3 -4 323 92 22
8 3 -5 3731 223 22
7 3 -3 1248 99 22
7 3 -4 399 77 22
6 3 -3 2115 116 22
6 2 -3 1194 81 22
6 2 -4 1131 76 22
5 2 -2 7666 353 22
5 2 -3 2513 125 22
4 2 -2 2695 131 22
13 2 -3 460 156 22
12 2 -5 370 150 22
12 1 -5 1243 204 22
11 1 -4 459 147 22
10 2 -3 346 112 22
10 2 -4 409 117 22
10 1 -3 640 130 22
10 1 -4 4993 293 22
9 2 -2 336 98 22
9 1 -3 2040 157 22
8 1 -2 2811 162 22
8 1 -3 18808 816 22
7 1 -2 7699 341 22
7 1 -3 2285 123 22
6 1 -2 43509 1794 22
5 1 -1 26714 1085 22
5 1 -2 11219 458 22
10 1 1 392 146 22
10 0 1 1007 188 22
10 0 -1 873 157 22
9 1 1 1085 135 22
9 0 1 1242 167 22
9 0 0 409 121 22
9 -1 0 439 138 22
9 -1 -1 389 125 22
9 -2 -2 296 134 22
8 1 1 1035 103 22
8 0 1 243 108 22
8 0 0 3618 205 22
7 0 0 410 84 22
7 0 -1 3239 161 22
7 -1 0 1439 113 22
7 -1 -1 590 90 22
6 -1 -1 2870 146 22
5 0 0 4207 181 22
5 -1 -1 3426 153 22
4 0 0 46916 1861 22
3 0 0 1233 55 22
10 1 6 2119 471 22
10 1 5 724 363 22
10 -1 3 1266 375 22
9 1 5 1567 315 22
9 0 5 2819 506 22
9 0 3 505 162 22
9 -1 3 494 248 22
8 1 6 2886 420 22
8 1 4 575 175 22
8 0 5 1321 326 22
8 0 4 897 237 22
8 0 3 575 175 22
8 -1 4 2365 367 22
7 1 5 959 238 22
7 1 4 1059 154 22
7 0 4 571 193 22
7 0 3 957 145 22
7 -1 2 2595 195 22
6 1 4 6211 305 22
6 1 3 1327 94 22
6 0 3 11503 497 22
6 0 2 1254 91 22
6 -1 2 2710 175 22
5 1 4 593 95 22
5 1 3 851 82 22
5 0 3 977 101 22
5 0 2 4762 209 22
5 -1 2 19678 791 22
4 0 2 16312 653 22
3 0 1 3829 151 22
2 0 1 68437 2695 22
3 14 -4 1850 296 22
3 13 -2 2767 303 22
3 13 -3 485 179 22
3 12 -2 3126 269 22
3 11 -3 2227 199 22
3 11 -4 493 152 22
3 10 -2 1977 164 22
3 10 -3 2250 176 22
3 10 -4 1737 160 22
2 12 -3 548 181 22
2 11 -2 1157 171 22
2 11 -4 8399 451 22
2 11 -5 2210 242 22
2 10 -2 473 128 22
2 10 -3 439 130 22
2 9 -2 6797 326 22
2 9 -4 2140 160 22
2 8 -2 750 94 22
2 8 -3 2036 131 22
2 7 -1 585 68 22
2 7 -2 10753 452 22
2 7 -3 160 57 22
1 6 -2 5596 239 22
1 6 -3 3379 152 22
1 5 -1 2010 89 22
1 5 -2 10235 409 22
1 4 -1 2359 97 22
12 2 -7 375 150 22
11 2 -6 331 143 22
10 2 -6 308 123 22
10 1 -6 1172 147 22
10 1 -7 675 135 22
9 2 -5 1272 125 22
9 2 -6 293 102 22
9 2 -7 271 97 22
9 1 -5 3759 210 22
9 1 -6 303 108 22
8 2 -6 227 72 22
8 1 -5 2890 163 22
8 1 -6 1972 134 22
7 1 -4 13235 537 22
7 1 -5 2667 137 22
6 1 -4 6615 266 22
5 1 -3 35315 1347 22
4 1 -3 16303 647 22
11 -2 -7 380 135 22
10 -1 -3 1070 163 22
10 -1 -4 438 137 22
10 -2 -4 668 155 22
9 -1 -4 1066 134 22
9 -2 -4 1450 160 22
9 -2 -5 584 126 22
8 -1 -3 942 113 22
8 -1 -4 514 101 22
8 -2 -3 2627 173 22
8 -2 -5 352 99 22
7 -1 -3 8555 355 22
7 -1 -4 428 80 22
7 -2 -4 1920 126 22
7 -2 -5 538 82 22
6 -1 -2 1618 94 22
6 -1 -3 2286 115 22
5 -1 -2 33053 1244 22
5 -1 -3 2845 120 22
4 -1 -2 2027 83 22
11 -2 1 1728 409 22
10 -3 -1 671 238 22
10 -5 -1 1823 535 22
9 -2 1 1463 290 22
9 -2 0 367 170 22
9 -3 1 714 320 22
9 -3 0 893 266 22
9 -3 -1 915 213 22
9 -3 -2 1149 194 22
8 -2 1 693 192 22
8 -2 0 372 142 22
8 -3 0 1968 266 22
8 -5 -3 509 230 22
7 -1 1 2237 155 22
7 -2 0 288 121 22
7 -2 -1 2050 143 22
7 -3 0 1378 208 22
7 -3 -1 3251 223 22
7 -4 -2 555 170 22
6 -2 -1 9856 402 22
6 -3 -1 794 124 22
6 -3 -2 6609 298 22
5 -2 0 10648 425 22
5 -2 -1 4257 186 22
5 -3 -2 5794 250 22
4 -1 0 662 50 22
4 -2 -1 37861 1446 22
3 -1 0 10911 408 22
8 -1 5 1539 514 22
8 -2 4 2672 553 22
7 1 6 2988 384 22
6 0 5 1247 315 22
6 -2 3 10271 693 22
6 -3 2 5702 541 22
5 1 5 6666 409 22
5 0 4 4089 285 22
5 -1 3 3193 245 22
5 -2 2 2122 229 22
4 1 5 10251 666 22
4 1 4 784 102 22
4 0 4 24260 1142 22
4 0 3 3181 147 22
4 -1 3 10098 531 22
4 -1 2 1542 94 22
4 -2 2 2543 267 22
3 1 4 338 138 22
3 0 3 8444 355 22
3 -1 2 961 101 22
3 -2 1 21423 846 22
2 0 2 456 41 22
2 -1 1 93 37 22
1 0 1 4974 174 22
4 11 -7 382 156 22
4 11 -9 346 150 22
3 12 -8 517 189 22
3 11 -10 530 179 22
3 11 -11 416 179 22
3 10 -6 5255 300 22
3 10 -7 2797 224 22
3 10 -8 1107 174 22
3 10 -9 458 158 22
3 9 -5 2509 169 22
3 9 -6 4666 253 22
3 9 -7 1844 174 22
3 9 -8 1862 174 22
3 8 -5 4755 227 22
3 8 -6 14998 617 22
2 11 -7 568 164 22
2 10 -6 5551 319 22
2 9 -6 655 133 22
2 9 -7 1526 162 22
2 8 -5 991 114 22
2 8 -6 15712 649 22
2 8 -8 2434 177 22
2 7 -4 2890 145 22
2 7 -5 1612 112 22
2 7 -6 7665 329 22
2 7 -7 6399 290 22
2 6 -3 851 59 22
2 6 -4 16391 629 22
2 6 -5 290 66 22
2 5 -4 30363 1123 22
1 5 -3 1797 78 22
1 5 -4 17595 658 22
1 4 -3 12792 478 22
1 4 -4 2692 107 22
11 3 -10 342 153 22
10 3 -9 409 152 22
10 2 -10 538 151 22
10 1 -10 412 151 22
9 3 -9 557 130 22
9 1 -9 490 131 22
8 2 -8 302 111 22
8 2 -9 2622 182 22
8 2 -10 248 118 22
8 1 -8 239 103 22
8 1 -9 2128 166 22
8 1 -10 259 119 22
7 2 -6 2744 146 22
7 2 -8 183 89 22
7 1 -8 1186 109 22
6 2 -7 1127 91 22
6 1 -6 208 63 22
6 1 -7 302 71 22
6 1 -8 6753 291 22
5 1 -5 115 45 22
5 1 -6 111 51 22
4 1 -4 3942 157 22
4 1 -5 164 33 22
10 -2 -9 350 154 22
9 -2 -8 547 152 22
9 -2 -9 343 138 22
9 -2 -10 432 142 22
8 -2 -8 290 108 22
7 -1 -5 2934 159 22
7 -1 -6 181 82 22
7 -1 -7 583 94 22
7 -2 -7 2549 161 22
7 -2 -8 1255 124 22
6 -1 -5 223 66 22
5 -1 -4 8985 348 22
4 -1 -4 3098 124 22
10 -5 -7 650 238 22
10 -5 -9 564 220 22
9 -4 -4 349 168 22
9 -5 -6 406 194 22
9 -5 -7 1031 224 22
9 -5 -8 667 191 22
9 -6 -7 747 278 22
8 -4 -5 347 136 22
8 -4 -6 436 134 22
8 -5 -5 801 196 22
8 -5 -6 1704 224 22
8 -5 -8 627 172 22
8 -6 -7 999 257 22
8 -6 -8 616 217 22
7 -3 -3 503 107 22
7 -3 -4 3456 188 22
7 -3 -5 3016 172 22
7 -5 -6 2840 227 22
7 -5 -7 809 160 22
7 -5 -8 268 129 22
6 -3 -3 469 90 22
6 -3 -4 971 96 22
6 -4 -5 478 105 22
6 -4 -6 796 113 22
5 -2 -3 386 55 22
5 -3 -3 6944 273 22
5 -3 -4 15387 569 22
5 -3 -5 2446 117 22
4 -2 -2 3768 145 22
4 -2 -3 2124 89 22
4 -3 -4 2935 125 22
3 -2 -2 1616 66 22
3 -2 -3 3259 119 22
2 -1 -1 3018 114 22
8 -5 0 2355 602 22
7 -5 -1 1012 346 22
7 -5 -2 934 267 22
7 -6 -4 1391 333 22
7 -7 -5 1114 448 22
6 -4 0 539 262 22
6 -5 -1 6365 569 22
6 -5 -3 945 199 22
6 -6 -4 704 275 22
5 -3 0 10099 411 22
5 -4 -2 5244 250 22
5 -5 -1 5622 565 22
5 -5 -2 836 266 22
5 -6 -3 4009 483 22
5 -6 -4 4063 375 22
5 -6 -5 2460 273 22
5 -7 -6 15721 907 22
4 -3 -1 22879 779 22
4 -4 -3 188 83 22
4 -5 -2 4545 412 22
4 -5 -3 4120 291 22
4 -5 -4 4136 229 22
4 -6 -4 29551 1379 22
4 -6 -5 9757 527 22
4 -7 -6 7715 632 22
3 -2 0 27035 906 22
3 -3 -1 20452 694 22
3 -3 -2 10246 355 22
3 -4 -3 391 86 22
3 -5 -4 9447 410 22
2 -2 -1 1358 57 22
2 -3 -2 9149 314 22
9 -1 -11 311 148 22
8 0 -10 419 118 22
7 0 -8 1015 104 22
7 0 -9 364 100 22
7 0 -10 525 110 22
7 -1 -10 379 110 22
7 -1 -12 511 126 22
6 0 -7 1759 107 22
6 0 -9 2426 144 22
6 -1 -9 707 95 22
6 -1 -10 894 111 22
5 0 -6 5597 239 22
5 0 -7 3152 147 22
5 -1 -7 153 60 22
5 -1 -8 339 62 22
4 0 -5 7667 318 22
4 0 -6 5962 248 22
3 0 -4 565 36 22
10 -4 -12 688 198 22
9 -4 -9 461 155 22
9 -5 -11 539 198 22
8 -4 -11 947 177 22
7 -3 -8 1224 127 22
7 -4 -8 1964 171 22
7 -4 -9 353 123 22
7 -4 -11 979 160 22
7 -5 -9 724 145 22
7 -5 -10 1235 182 22
6 -3 -8 3094 176 22
6 -3 -9 391 87 22
6 -4 -8 819 114 22
6 -4 -9 426 113 22
6 -4 -10 3231 208 22
5 -2 -5 513 54 22
5 -2 -6 5041 219 22
5 -3 -7 3919 190 22
5 -3 -8 1078 97 22
4 -2 -5 708 54 22
4 -2 -6 140 39 22
3 -2 -4 2731 112 22
3 -2 -5 6547 258 22
7 -7 -7 5259 605 22
7 -7 -9 559 266 22
6 -6 -6 4146 368 22
6 -6 -7 2096 268 22
6 -6 -8 769 189 22
6 -7 -7 2242 405 22
6 -7 -8 741 260 22
5 -5 -5 6600 352 22
5 -5 -6 2051 174 22
5 -5 -7 305 122 22
5 -6 -6 928 221 22
5 -6 -9 1188 185 22
5 -7 -10 644 229 22
4 -4 -4 549 95 22
4 -4 -5 6587 298 22
4 -4 -6 7943 349 22
4 -5 -5 329 108 22
4 -5 -6 3268 204 22
4 -5 -7 2189 162 22
4 -6 -7 1574 203 22
4 -6 -8 483 154 22
3 -3 -3 30115 1234 22
3 -3 -4 8249 344 22
3 -4 -5 1158 95 22
3 -4 -6 3425 169 22
3 -5 -6 336 101 22
2 -2 -2 1274 56 22
2 -2 -3 399 23 22
2 -3 -4 30049 1221 22
2 -5 -4 655 238 22
2 -5 -5 1762 182 22
2 -6 -6 1454 328 22
2 -6 -7 1304 227 22
1 -3 -3 2412 112 22
1 -4 -4 418 128 22
1 -4 -5 2859 147 22
1 -5 -5 3421 384 22
1 -5 -6 27813 1291 22
1 -6 -7 5011 543 22
1 -6 -8 5366 457 22
1 -7 -10 1945 445 22
0 -2 -3 6987 275 22
0 -3 -4 685 87 22
0 -3 -5 5414 223 22
0 -4 -6 2574 190 22
0 -4 -7 2507 152 22
0 -5 -7 1633 312 22
0 -5 -8 16278 851 22
0 -6 -9 4820 580 22
0 -7 -12 1342 526 22
-1 -4 -7 12205 841 22
-2 5 6 8832 406 23
-2 4 5 34142 1546 23
-3 7 9 4912 265 23
-3 7 8 957 98 23
-3 6 8 4214 220 23
-3 6 7 1253 94 23
-3 5 7 25423 1164 23
-3 5 6 578 58 23
-4 10 13 319 153 23
-4 9 12 598 146 23
-4 9 11 397 131 23
-4 9 10 390 126 23
-4 8 10 515 116 23
-4 7 9 612 105 23
-4 7 8 1977 143 23
-5 11 14 787 212 23
-5 11 12 436 171 23
-5 10 13 711 192 23
-5 10 12 453 158 23
-1 5 4 5321 220 23
-1 4 3 34520 1437 23
-2 11 10 1475 160 23
-2 11 9 912 132 23
-2 11 8 1390 156 23
-2 10 9 1395 138 23
-2 10 7 335 110 23
-2 9 8 2137 147 23
-2 9 7 266 92 23
-2 8 7 627 86 23
-2 8 6 491 82 23
-2 7 6 327 63 23
-2 7 5 39300 1649 23
-2 6 5 17724 729 23
-2 6 4 13159 546 23
-3 13 9 405 172 23
-3 12 11 4450 306 23
-3 12 10 830 163 23
-3 12 9 846 154 23
-3 11 10 393 131 23
-3 10 8 3170 203 23
-3 10 7 4184 241 23
-3 9 8 2938 179 23
-3 9 7 3108 181 23
-3 9 6 289 89 23
-4 13 12 356 155 23
-4 12 10 395 146 23
0 15 8 1054 369 23
0 14 9 511 223 23
0 14 8 4371 441 23
0 14 7 994 295 23
0 13 6 836 262 23
0 12 9 692 170 23
0 12 8 933 186 23
0 12 6 508 175 23
0 11 8 2272 197 23
0 11 7 2637 205 23
0 11 6 1819 189 23
0 10 7 329 113 23
0 10 6 1611 154 23
0 10 5 2690 193 23
0 9 6 316 98 23
0 8 6 1876 117 23
0 8 4 3206 172 23
0 7 5 1419 93 23
0 7 4 75132 3083 23
0 6 4 18461 760 23
0 6 3 10682 444 23
0 5 3 6788 277 23
0 4 3 1375 59 23
0 4 2 4961 200 23
0 3 2 8928 385 23
-1 14 8 3802 384 23
-1 14 7 2895 346 23
-1 14 6 1144 271 23
-1 13 8 726 199 23
-1 13 7 1065 220 23
-1 13 5 2034 272 23
-1 12 6 1141 187 23
-1 12 5 3128 270 23
-1 10 6 9586 444 23
-1 10 5 7321 357 23
-1 10 4 1199 138 23
-1 9 5 1709 128 23
4 12 10 1877 593 23
3 14 7 2095 715 23
3 12 11 1265 369 23
3 12 10 3571 540 23
3 12 9 847 400 23
3 12 8 10974 892 23
3 11 10 7031 584 23
3 11 9 2176 400 23
3 11 7 2810 427 23
3 11 6 1150 355 23
3 10 8 1416 320 23
3 9 7 1796 274 23
2 14 7 6734 769 23
2 12 7 761 285 23
2 11 7 2800 317 23
2 11 6 1752 313 23
2 11 5 3311 402 23
2 10 7 1777 219 23
2 10 5 1628 262 23
2 10 4 852 262 23
2 9 6 961 168 23
2 8 7 339 117 23
2 8 6 1267 150 23
2 8 5 2215 183 23
2 8 4 349 144 23
2 7 6 986 118 23
2 7 5 2817 177 23
2 7 4 3520 202 23
2 6 5 900 100 23
1 7 4 9666 400 23
1 6 3 29775 1178 23
1 5 3 952 66 23
1 5 2 1078 69 23
1 4 3 4321 178 23
1 4 2 79773 3158 23
-2 -1 7 8926 365 23
-2 -1 6 37848 1490 23
-2 -1 5 1659 74 23
-3 -1 11 2979 175 23
-3 -1 10 24001 1003 23
-3 -1 9 13005 543 23
-3 -1 8 1539 90 23
-3 -2 10 5810 277 23
-3 -2 9 480 91 23
-3 -2 8 11677 494 23
-4 -1 15 654 157 23
-4 -1 14 660 139 23
-4 -1 13 1127 139 23
-4 -1 12 1509 135 23
-4 -1 11 2009 138 23
-4 -1 10 3626 183 23
-4 -2 14 1098 173 23
-4 -2 11 5027 261 23
-4 -2 10 2996 177 23
-4 -2 9 2842 159 23
-4 -3 13 548 148 23
-5 -2 13 570 136 23
-5 -3 16 1071 245 23
-5 -3 14 525 173 23
-5 -3 12 385 138 23
-5 -3 11 2722 199 23
-6 -4 16 513 246 23
-6 -4 15 710 234 23
-2 5 4 647 38 23
-2 4 3 332 30 23
-3 7 5 38164 1511 23
-3 6 5 5589 230 23
-3 6 4 4274 180 23
-3 5 4 12136 467 23
-4 9 6 535 106 23
-4 8 7 542 95 23
-4 8 6 2560 150 23
-4 7 6 14602 595 23
-4 7 5 5881 259 23
-5 12 11 326 163 23
-5 12 10 592 148 23
-5 12 8 1105 200 23
-5 10 9 720 133 23
-5 10 8 1155 144 23
-5 10 7 2174 172 23
-5 9 8 2037 158 23
-5 9 7 347 101 23
-5 8 8 942 105 23
-5 8 7 672 102 23
-5 8 6 5033 246 23
-6 11 9 328 138 23
-6 10 9 357 126 23
-6 10 8 445 134 23
-6 10 7 607 130 23
-1 6 3 348 44 23
-1 5 2 4150 160 23
-1 4 2 686 36 23
-1 3 1 21439 889 23
-2 12 7 455 147 23
-2 12 6 2127 219 23
-2 12 5 368 149 23
-2 11 4 1441 170 23
-2 10 5 1958 152 23
-2 10 4 1582 145 23
-2 9 5 2364 143 23
-2 9 3 5827 270 23
-2 7 3 943 80 23
-2 7 2 1357 89 23
-2 6 3 65315 2453 23
-2 6 2 6236 247 23
-3 14 8 1380 256 23
-3 14 7 499 220 23
-3 14 6 548 223 23
-3 13 7 732 199 23
-3 13 6 968 208 23
-3 13 5 1064 204 23
-3 12 6 1133 181 23
-3 12 5 1653 198 23
-3 12 4 4316 298 23
-3 11 4 655 140 23
-3 10 5 455 112 23
-3 10 4 937 127 23
-3 10 3 1162 144 23
-3 9 4 1260 117 23
-4 13 7 1573 224 23
-4 13 6 1583 234 23
-4 12 4 875 187 23
1 14 6 4552 601 23
1 14 4 1258 496 23
1 13 4 2799 518 23
1 13 3 3124 576 23
1 12 5 509 243 23
1 12 4 4927 473 23
1 12 3 1301 360 23
1 12 2 2695 496 23
1 11 2 1636 344 23
0 13 4 2174 395 23
0 12 4 2395 295 23
0 12 3 2817 342 23
0 12 2 2056 360 23
0 12 1 2389 459 23
0 11 3 684 201 23
0 11 2 465 201 23
0 10 3 1310 167 23
0 10 2 1748 201 23
0 9 2 6210 311 23
0 9 1 5166 299 23
0 8 1 938 128 23
0 7 2 569 85 23
0 7 1 2793 150 23
0 6 2 84838 3231 23
0 6 1 4788 203 23
0 5 1 8827 343 23
0 4 1 107 29 23
0 3 1 11961 452 23
-1 13 2 701 331 23
-1 13 1 7002 707 23
-1 13 0 2184 518 23
-1 12 3 4313 355 23
-1 12 1 4092 420 23
-1 11 2 851 193 23
-1 11 1 647 216 23
-1 10 2 2655 210 23
-1 10 1 3090 237 23
-1 10 0 946 212 23
-1 9 1 4005 229 23
-1 9 0 2141 202 23
-1 8 0 1743 143 23
3 8 5 1284 303 23
3 8 4 7290 649 23
3 7 6 9306 528 23
3 7 5 11868 685 23
3 7 4 4312 533 23
3 6 5 8882 556 23
3 5 5 1114 297 23
2 10 2 1831 408 23
2 9 2 820 311 23
2 8 2 966 278 23
2 7 3 53776 2071 23
2 7 2 34217 1531 23
2 6 3 9582 405 23
2 6 2 1847 238 23
2 5 3 5371 243 23
2 5 2 4984 320 23
2 4 3 61081 2285 23
1 6 -1 2715 373 23
1 5 1 794 70 23
1 5 0 31468 1219 23
1 4 1 226 50 23
1 4 0 5720 263 23
1 3 1 26729 936 23
-3 -1 6 23538 873 23
-3 -1 5 487 39 23
-3 -1 4 1454 61 23
-4 -1 8 4081 177 23
-4 -1 7 24914 939 23
-4 -1 6 1441 74 23
-4 -2 7 19098 738 23
-5 -1 11 11675 494 23
-5 -1 10 3121 171 23
-5 -1 9 2859 150 23
-5 -1 8 298 74 23
-5 -2 10 529 98 23
-5 -2 9 834 107 23
-5 -2 8 1480 108 23
-6 -1 11 2222 161 23
-6 -1 10 2299 153 23
-6 -2 12 1439 166 23
-6 -2 11 958 138 23
-6 -2 10 1021 127 23
-6 -2 9 422 106 23
-6 -2 8 7911 342 23
-7 -1 12 4700 272 23
-7 -2 12 796 149 23
-7 -3 12 550 169 23
-7 -3 11 1467 171 23
-8 -2 16 388 185 23
-8 -3 11 633 176 23
-9 -1 15 681 189 23
-3 4 4 17430 662 23
-3 4 3 601 38 23
-3 3 3 28561 1114 23
-4 5 5 430 59 23
-4 5 4 5654 229 23
-4 4 4 574 51 23
-5 7 7 701 104 23
-5 7 6 21603 879 23
-5 6 6 2264 133 23
-5 6 5 3761 183 23
-5 5 6 3162 154 23
-5 5 5 9503 387 23
-6 8 8 485 128 23
-6 8 7 1200 140 23
-6 8 6 322 116 23
-6 7 8 660 119 23
-6 7 7 3184 192 23
-6 7 6 1816 147 23
-6 6 7 4313 219 23
-6 6 6 8243 363 23
-6 6 5 19484 795 23
-7 9 9 826 167 23
-7 9 7 819 153 23
-7 8 7 1326 158 23
-7 7 8 627 135 23
-7 7 7 7909 385 23
-8 10 8 326 161 23
-8 8 9 472 149 23
-8 8 7 292 141 23
-9 9 8 434 173 23
-2 4 2 104 28 23
-2 3 1 7773 309 23
-3 7 3 20359 806 23
-3 6 3 19339 749 23
-3 6 2 15454 605 23
-3 5 2 11175 424 23
-4 10 5 920 134 23
-4 9 4 3355 204 23
-4 9 3 3484 212 23
-4 8 4 436 98 23
-4 8 3 2665 162 23
-4 7 4 1015 93 23
-4 7 3 338 84 23
-4 7 2 340 93 23
-4 6 2 405 75 23
-5 12 6 2007 236 23
-5 12 5 2362 250 23
-5 11 5 304 145 23
-5 11 3 458 162 23
-5 10 4 318 149 23
-5 10 3 1295 184 23
-5 9 5 1298 145 23
-5 9 3 2375 183 23
-5 8 4 319 111 23
-5 8 3 678 115 23
-5 7 2 801 98 23
-6 12 5 430 193 23
-6 11 6 378 148 23
-6 11 5 900 175 23
-6 10 5 408 160 23
-6 10 3 517 162 23
-6 9 4 1106 148 23
-7 12 5 436 186 23
-7 12 4 573 226 23
-1 6 1 22976 826 23
-1 5 1 38019 1337 23
-1 5 0 6148 228 23
-1 4 0 7561 265 23
-1 3 0 27873 986 23
-2 12 2 1738 272 23
-2 11 2 537 166 23
-2 9 1 524 124 23
-2 9 0 4332 248 23
-2 8 1 946 105 23
-2 8 0 840 117 23
-2 7 0 6039 250 23
-2 6 1 636 59 23
-2 6 0 3888 164 23
-2 5 0 1148 65 23
-3 14 0 1368 350 23
-3 13 2 4315 417 23
-3 13 1 1093 332 23
-3 12 2 3447 301 23
-3 11 2 459 157 23
-3 11 0 4345 344 23
-3 11 -1 538 256 23
-3 10 1 494 144 23
-3 10 0 780 168 23
-3 10 -1 1726 231 23
-3 9 1 2314 169 23
-3 9 0 2314 186 23
-3 8 1 1891 130 23
-3 8 0 4123 207 23
-3 7 -1 3942 194 23
-4 13 2 566 246 23
-4 12 2 845 210 23
-4 12 1 904 252 23
-4 11 -1 2513 307 23
-4 10 0 392 147 23
-4 9 -1 2622 214 23
1 10 1 3376 393 23
1 10 0 3416 511 23
0 12 -1 5519 816 23
0 9 -1 4298 423 23
0 8 -1 887 208 23
0 8 -2 1208 326 23
0 7 -1 7836 362 23
0 6 -1 4408 210 23
0 6 -2 3945 294 23
0 5 -1 921 88 23
0 5 -2 6095 315 23
0 4 -1 6376 227 23
0 3 -1 24473 819 23
-1 11 -2 1148 443 23
-1 10 -2 1738 385 23
-1 10 -3 1967 534 23
-1 9 -3 8535 701 23
-1 9 -4 2817 685 23
-1 8 -2 463 190 23
-1 8 -3 1618 325 23
-1 8 -4 7240 730 23
-1 7 -2 4976 265 23
-1 7 -4 2119 395 23
-1 6 -2 3029 172 23
-1 6 -3 39139 1487 23
-1 5 -3 9042 380 23
-1 4 -2 14415 491 23
-1 3 -2 29578 999 23
-2 10 -3 7778 650 23
-2 10 -4 6670 767 23
-2 8 -4 19367 1023 23
-2 8 -5 1336 435 23
-2 7 -4 6347 429 23
-2 7 -5 802 347 23
-2 5 -4 1330 167 23
-3 4 2 295 32 23
-3 3 2 10965 466 23
-4 5 3 6883 293 23
-4 5 2 8043 346 23
-4 4 2 205 44 23
-5 6 3 7562 346 23
-5 6 2 600 82 23
-5 5 3 131 65 23
-5 5 2 1730 107 23
-6 8 5 942 127 23
-6 8 4 990 127 23
-6 7 3 816 117 23
-6 6 4 1064 111 23
-6 6 3 376 92 23
-7 9 4 510 164 23
-7 8 5 593 135 23
-7 8 4 480 128 23
-7 8 3 741 144 23
-7 7 5 2509 184 23
-7 7 4 818 136 23
-7 7 3 276 116 23
-8 10 4 359 166 23
-8 8 5 338 141 23
-2 4 0 2082 87 23
-2 3 0 34812 1365 23
-3 6 1 170 56 23
-3 6 0 193 65 23
-3 5 0 22768 909 23
-3 4 0 528 46 23
-4 8 1 722 115 23
-4 7 1 1677 122 23
-4 7 0 537 100 23
-4 7 -1 5894 287 23
-4 6 1 1251 91 23
-4 6 0 2553 143 23
-4 6 -1 7206 323 23
-4 5 0 16589 675 23
-5 10 1 440 149 23
-5 10 0 1845 215 23
-5 9 1 938 154 23
-5 9 -1 6690 384 23
-5 8 1 2370 172 23
-5 7 0 2245 159 23
-5 7 -1 467 118 23
-5 6 -1 18330 766 23
-6 11 0 667 221 23
-6 10 -1 3407 342 23
-6 9 1 700 168 23
-6 9 0 1426 195 23
-6 9 -1 746 182 23
-6 8 0 385 130 23
-6 7 -1 266 127 23
-7 10 1 945 203 23
-7 9 0 2967 275 23
-7 9 -1 990 211 23
-7 8 -1 610 181 23
-8 10 0 1127 248 23
-8 10 -1 557 253 23
-1 4 -1 1438 71 23
-1 3 -1 1472 66 23
-1 2 -1 37822 1501 23
-2 8 -2 301 142 23
-2 7 -2 6186 322 23
-2 6 -2 16613 709 23
-2 5 -2 10854 463 23
-2 5 -3 2869 163 23
-2 4 -2 8097 344 23
-2 4 -3 9466 406 23
-2 3 -2 343 47 23
-3 10 -3 1648 409 23
-3 9 -3 2941 363 23
-3 9 -4 6765 640 23
-3 8 -3 1391 232 23
-3 8 -4 4412 458 23
-3 7 -2 407 121 23
-3 7 -3 3039 235 23
-3 7 -4 11716 654 23
-3 6 -2 39715 1645 23
-3 5 -3 3482 193 23
-3 5 -4 4467 260 23
-3 4 -3 10102 433 23
-4 10 -3 5240 540 23
-4 9 -3 717 247 23
-4 8 -3 13040 677 23
-4 8 -5 3586 503 23
-4 7 -3 4319 279 23
-4 6 -5 4277 347 23
-5 9 -4 2673 393 23
-5 8 -4 1432 272 23
-5 8 -5 644 315 23
-5 7 -5 833 278 23
-5 7 -6 943 352 23
-5 6 -5 898 227 23
-6 8 -6 1097 396 23
-6 7 -6 936 325 23
-1 4 -4 7891 591 23
-1 3 -3 4702 217 23
-1 2 -3 920 95 23
-1 1 -2 1319 58 23
-2 4 -5 14371 826 23
-2 3 -4 46482 1830 23
-2 3 -5 3921 384 23
-2 2 -4 1899 134 23
-2 2 -5 3610 452 23
-2 1 -4 3067 188 23
-3 3 -6 6079 498 23
-3 2 -5 26999 1121 23
-3 2 -6 1320 336 23
-3 1 -5 4307 260 23
-3 0 -5 7134 438 23
-4 4 -7 1171 357 23
-4 2 -7 1942 452 23
-4 1 -6 2372 258 23
-4 1 -7 14733 1127 23
-5 1 -7 20112 1127 23
6 11 16 668 198 24
5 11 16 1979 250 24
5 11 15 1107 189 24
5 10 14 802 162 24
5 10 13 448 146 24
5 10 12 733 148 24
5 9 13 2872 227 24
5 9 12 1227 154 24
5 8 11 1727 159 24
4 9 12 414 125 24
4 8 12 2966 204 24
4 8 11 1057 127 24
4 8 10 1196 122 24
4 7 10 6079 317 24
4 7 9 260 82 24
3 7 9 185 78 24
3 6 9 564 74 24
3 6 8 1155 86 24
3 6 7 1736 102 24
3 5 7 5362 252 24
2 4 5 10482 490 24
4 13 15 3930 319 24
4 13 14 366 164 24
4 13 13 487 164 24
3 14 14 698 188 24
3 13 13 295 143 24
3 12 12 4046 281 24
3 11 12 6333 345 24
3 11 11 1219 152 24
3 10 11 2310 175 24
3 10 10 374 121 24
2 13 16 3128 315 24
2 13 14 1436 222 24
2 12 12 2260 224 24
2 11 13 3281 238 24
2 11 12 2162 200 24
2 11 11 1264 167 24
2 10 12 2705 200 24
2 10 11 15588 702 24
2 10 10 4318 245 24
2 9 11 3069 187 24
2 9 10 13102 587 24
2 8 9 3620 187 24
2 8 8 1297 100 24
2 7 7 165 58 24
1 7 7 13780 586 24
1 6 7 17866 743 24
1 6 6 7705 326 24
1 5 6 1046 58 24
1 5 5 35907 1458 24
1 4 4 736 40 24
2 14 10 539 210 24
2 12 8 565 164 24
1 14 11 1064 291 24
1 13 10 528 200 24
1 12 11 3511 276 24
1 12 10 1363 192 24
1 12 9 13689 691 24
1 12 8 1430 215 24
1 11 10 567 149 24
1 11 8 1071 163 24
1 10 9 3093 197 24
1 10 7 996 140 24
1 9 7 6417 303 24
1 9 6 1774 136 24
1 8 6 1317 105 24
1 7 5 6583 286 24
1 6 4 4517 192 24
0 13 11 864 248 24
0 12 10 2409 278 24
0 12 9 764 228 24
0 11 10 859 165 24
0 11 9 662 165 24
0 11 8 1982 220 24
0 10 8 1712 167 24
0 9 8 210 104 24
0 9 7 1546 138 24
0 8 7 2412 147 24
0 8 6 1881 131 24
0 7 6 3191 160 24
0 7 5 1305 91 24
0 6 5 4646 204 24
0 5 4 2998 131 24
0 4 3 1059 50 24
2 14 4 1346 434 24
2 13 4 4763 577 24
2 13 3 1155 518 24
2 13 2 1863 537 24
2 12 4 3762 402 24
2 12 3 3285 470 24
2 12 2 2216 516 24
2 11 2 804 306 24
2 10 3 528 152 24
1 15 6 1726 539 24
1 14 6 3905 581 24
1 13 4 1797 554 24
1 13 3 2902 736 24
1 12 5 736 279 24
1 12 4 4919 512 24
1 12 3 1252 411 24
1 10 4 4834 311 24
1 10 3 2063 270 24
1 10 2 1128 300 24
1 8 3 3428 184 24
1 8 2 14852 641 24
1 7 2 1800 123 24
1 7 1 14929 638 24
1 6 2 3572 159 24
1 6 1 17835 712 24
0 13 6 1007 435 24
0 13 5 5540 695 24
0 12 5 3749 495 24
0 12 4 1937 469 24
0 10 5 2415 255 24
0 10 4 547 234 24
0 9 4 2539 212 24
0 8 4 2964 181 24
0 7 3 31045 1229 24
0 6 3 10764 438 24
0 6 2 66348 2588 24
0 5 2 7805 319 24
0 4 2 5100 204 24
0 3 1 11593 454 24
0 2 1 1015 46 24
-1 12 6 1080 401 24
-1 10 5 5960 478 24
-1 8 4 7302 396 24
12 2 6 435 187 24
12 2 5 389 181 24
12 1 5 601 228 24
11 0 6 539 195 24
11 0 4 662 220 24
10 1 5 1454 185 24
10 0 4 306 152 24
9 2 3 547 124 24
9 1 5 2104 175 24
9 1 4 421 121 24
9 0 5 4716 285 24
8 1 4 707 114 24
8 1 3 2795 177 24
8 0 4 722 119 24
8 0 3 1041 129 24
8 0 2 4277 240 24
7 1 4 1168 98 24
7 1 3 540 89 24
7 0 3 1057 106 24
7 0 2 3270 178 24
6 1 3 1479 87 24
6 1 2 2900 143 24
6 0 3 15595 646 24
6 0 2 1405 96 24
5 1 2 265 39 24
5 0 2 5274 223 24
4 0 2 18076 715 24
4 0 1 743 38 24
3 0 1 3920 163 24
4 11 17 1652 191 24
4 10 16 1082 169 24
3 11 18 799 175 24
3 11 17 2162 237 24
3 11 16 961 166 24
3 10 16 336 137 24
3 10 13 1385 142 24
3 9 15 2086 174 24
3 9 14 4272 243 24
3 9 13 2798 182 24
3 8 13 572 109 24
3 8 12 2727 163 24
2 10 15 485 145 24
2 10 14 2511 191 24
2 9 15 370 130 24
2 9 14 4588 253 24
2 8 14 1845 148 24
2 8 13 886 119 24
2 8 12 465 100 24
2 8 11 680 102 24
2 7 12 46632 1849 24
2 7 11 6907 300 24
2 7 10 304 76 24
2 6 10 958 78 24
2 6 9 797 72 24
2 6 8 6796 275 24
2 5 8 8627 335 24
1 5 7 310 39 24
1 4 7 22777 879 24
1 4 6 265 33 24
1 3 5 22215 946 24
1 12 16 831 175 24
1 12 15 476 140 24
1 12 13 2892 249 24
1 12 12 360 150 24
1 11 13 4418 274 24
1 11 12 1914 188 24
1 11 11 9087 435 24
1 10 10 3645 209 24
0 13 15 1286 250 24
0 12 15 416 177 24
0 12 13 2446 252 24
0 11 14 687 170 24
0 11 13 1646 203 24
0 11 12 881 171 24
0 10 13 3144 231 24
0 10 12 7828 383 24
0 10 11 2493 195 24
0 9 12 2521 183 24
0 9 11 15870 653 24
0 8 11 714 108 24
0 8 10 1291 111 24
0 8 9 559 93 24
0 7 9 155 74 24
0 7 8 1124 92 24
0 6 8 24268 931 24
0 6 7 2584 120 24
0 5 7 2671 112 24
0 5 6 15773 591 24
0 4 5 301 31 24
0 3 4 1275 55 24
-1 12 14 1466 262 24
-1 11 14 1543 233 24
-1 11 13 1029 214 24
-1 10 15 855 168 24
-1 10 14 395 160 24
-1 10 13 3220 252 24
-1 12 9 1722 316 24
-1 12 8 984 311 24
-1 10 7 7829 456 24
-1 9 8 1319 153 24
-1 9 7 3640 243 24
-1 9 6 1419 189 24
-1 8 6 12055 512 24
-1 7 7 3973 188 24
-1 7 6 1394 115 24
-1 7 5 3693 192 24
-1 6 6 1390 95 24
-1 6 5 248 76 24
-1 6 4 18196 704 24
-1 5 5 5478 222 24
-1 5 4 5976 243 24
-1 4 4 425 45 24
-1 4 3 51290 1953 24
-1 3 3 3464 134 24
-2 12 11 820 334 24
-2 12 10 837 366 24
-2 11 11 838 249 24
-2 11 10 1313 289 24
-2 11 9 720 289 24
-2 11 8 1327 339 24
-2 10 9 781 234 24
-2 9 9 467 162 24
-2 9 8 1304 209 24
-2 9 7 568 196 24
-2 8 8 624 142 24
-2 8 7 730 156 24
-2 7 7 3336 200 24
-2 7 6 431 118 24
-2 6 6 1918 128 24
-3 12 11 4258 642 24
-3 10 11 634 288 24
1 10 1 1983 518 24
1 7 0 10591 576 24
1 6 0 18618 738 24
1 5 -1 784 205 24
1 4 -1 1555 136 24
0 10 2 1462 502 24
0 9 2 6278 490 24
0 7 1 1493 262 24
0 6 1 3465 211 24
0 5 1 6428 246 24
0 5 0 21399 1008 24
0 4 0 10113 438 24
0 3 0 19307 683 24
0 2 0 538 29 24
0 1 0 7304 257 24
-1 8 3 7386 473 24
-1 7 2 18611 952 24
-1 6 2 20422 877 24
-1 5 2 2898 154 24
-1 5 1 24417 1298 24
-1 4 2 430 56 24
-1 4 1 1136 150 24
-2 6 3 55691 2463 24
11 1 11 939 225 24
11 1 10 1690 258 24
11 0 10 498 198 24
10 1 9 326 157 24
10 0 7 312 149 24
10 -1 8 448 176 24
9 0 8 731 141 24
9 0 7 1979 188 24
8 1 7 9555 422 24
8 1 6 4389 231 24
8 0 8 339 118 24
8 0 7 286 114 24
8 0 6 279 116 24
7 1 6 4066 195 24
7 1 5 1711 118 24
7 0 7 249 99 24
7 0 6 16239 657 24
7 0 5 1740 127 24
6 0 6 15160 599 24
6 0 5 881 84 24
6 0 4 1162 84 24
5 0 5 430 56 24
5 0 4 7511 289 24
4 0 4 36257 1348 24
4 0 3 4947 190 24
3 0 3 13828 541 24
3 0 2 6278 247 24
5 8 18 2244 233 24
4 9 19 901 186 24
4 9 16 652 170 24
4 8 19 570 170 24
4 8 18 1965 218 24
4 8 17 516 159 24
4 8 15 595 145 24
4 7 16 725 159 24
4 7 15 3008 212 24
3 9 19 700 171 24
3 8 17 1492 191 24
3 8 15 1995 180 24
3 7 17 1416 180 24
3 7 16 2612 212 24
3 7 15 1584 159 24
3 7 14 2079 161 24
3 7 13 3066 186 24
3 6 15 2290 173 24
3 6 14 3244 192 24
3 6 13 6811 312 24
3 6 12 32599 1302 24
3 6 11 5989 263 24
2 6 13 530 100 24
2 6 12 24014 965 24
2 5 12 4670 216 24
2 5 11 1102 91 24
2 5 10 167 66 24
2 5 9 247 51 24
2 4 10 183 55 24
2 4 9 44307 1679 24
2 4 8 5124 204 24
1 3 6 450 35 24
1 11 18 2031 256 24
1 11 16 372 166 24
1 10 15 403 150 24
1 9 16 1513 192 24
1 9 15 2355 209 24
1 9 14 2911 211 24
1 9 13 285 117 24
1 8 14 1749 162 24
1 8 13 1311 143 24
1 7 13 2232 161 24
1 7 12 1794 139 24
1 6 11 15407 617 24
0 11 17 480 198 24
0 10 19 462 193 24
0 10 16 657 182 24
0 9 17 665 192 24
0 9 15 2486 218 24
0 8 15 848 151 24
0 7 15 3936 245 24
0 7 14 1525 155 24
0 7 13 38003 1523 24
0 7 12 2816 175 24
0 6 13 16052 668 24
0 6 12 980 110 24
0 6 11 4115 199 24
0 5 10 1077 88 24
0 5 9 11146 439 24
0 5 8 24144 929 24
0 4 8 23952 899 24
0 4 7 4191 165 24
0 3 6 552 36 24
0 3 5 7209 281 24
-1 7 8 7307 294 24
-1 6 8 7002 274 24
-1 6 7 7854 303 24
-1 5 7 7758 290 24
-1 5 6 39885 1421 24
-1 4 6 3523 135 24
-1 4 5 3997 150 24
-1 3 5 5826 205 24
-1 3 4 1709 66 24
-2 12 14 1100 332 24
-2 11 14 964 248 24
-2 10 14 1709 241 24
-2 10 13 2913 292 24
-2 9 13 2021 229 24
-2 9 12 9108 460 24
-2 9 11 428 164 24
-2 7 11 490 117 24
-2 7 10 599 120 24
-2 7 9 996 127 24
-2 6 11 273 93 24
-2 6 10 6173 271 24
-2 6 9 7071 295 24
-2 5 9 9676 374 24
-2 5 8 186 77 24
-2 5 7 11847 443 24
-3 11 14 823 333 24
-3 10 16 638 252 24
-3 10 14 1361 322 24
-3 9 16 538 220 24
-3 9 14 1674 291 24
-3 9 12 773 238 24
-3 8 15 463 188 24
-3 8 14 533 184 24
-3 8 13 636 164 24
-3 8 12 884 190 24
-3 7 14 1767 214 24
-3 7 13 287 143 24
-3 7 12 292 144 24
-3 7 11 427 150 24
-4 9 14 1104 337 24
-1 2 2 4092 138 24
-1 1 2 65211 2161 24
-2 5 4 237 100 24
-2 4 5 31741 1070 24
-2 4 4 10816 379 24
-2 3 4 33588 1127 24
-2 3 3 12325 427 24
-2 2 4 4837 172 24
-3 10 7 3229 562 24
-3 9 7 2667 420 24
-3 8 7 3987 387 24
-3 8 6 3452 448 24
-3 7 7 466 193 24
-3 6 7 708 153 24
-3 6 5 4006 362 24
-3 5 7 16234 600 24
-3 5 6 358 138 24
-3 5 5 5160 329 24
-3 4 6 2819 163 24
-3 4 5 638 145 24
-3 3 6 4915 205 24
-3 3 5 520 109 24
-4 9 9 1232 411 24
-4 7 9 887 266 24
-4 7 8 1182 353 24
-4 6 7 1370 341 24
-4 5 8 1509 243 24
-4 5 7 1983 298 24
-4 5 6 1960 415 24
-4 4 8 944 190 24
-4 4 7 1029 236 24
-5 7 10 1691 427 24
-5 5 10 627 292 24
-5 5 9 2844 495 24
-5 4 10 5694 481 24
2 8 19 1884 242 24
2 8 18 372 160 24
2 7 18 2889 253 24
2 7 17 525 162 24
2 6 16 2934 213 24
1 9 20 491 194 24
1 8 20 991 237 24
1 8 18 372 169 24
1 7 20 512 190 24
1 7 18 377 171 24
1 7 17 3062 248 24
1 7 16 920 152 24
1 7 15 1310 152 24
1 6 19 2571 247 24
1 6 18 919 187 24
1 6 17 3084 241 24
1 6 16 2444 191 24
1 6 15 789 135 24
1 6 14 7864 385 24
1 6 13 19125 847 24
1 5 15 326 121 24
1 5 13 298 93 24
1 5 12 1214 106 24
1 4 12 3666 182 24
1 4 11 1630 103 24
1 4 10 2543 126 24
1 4 9 14484 598 24
1 3 8 55254 2267 24
-1 7 16 570 145 24
-1 7 15 1438 165 24
-1 7 14 688 130 24
-1 6 14 5932 304 24
-1 6 13 5509 278 24
-1 6 12 9062 406 24
-1 5 11 3550 183 24
-1 5 10 21590 884 24
-1 5 9 1439 91 24
-1 4 10 3409 164 24
-1 4 9 36327 1457 24
-1 4 8 28172 1121 24
-1 3 8 12063 481 24
-1 3 7 1456 72 24
-2 9 18 755 222 24
-2 8 16 740 186 24
-2 8 15 578 165 24
-2 7 19 397 199 24
-2 7 16 1147 190 24
-2 7 15 473 157 24
-2 7 14 19030 847 24
-2 6 17 971 179 24
-2 6 15 2467 211 24
-2 6 14 4318 268 24
-2 6 13 1833 170 24
-2 5 14 1195 146 24
-2 5 13 1245 138 24
-2 5 11 852 109 24
-3 7 18 543 233 24
-3 7 16 601 190 24
-1 1 3 1740 73 24
-2 3 7 939 73 24
-2 3 6 10094 422 24
-2 2 6 2259 109 24
-2 2 5 1268 72 24
-3 5 11 4691 272 24
-3 5 10 2109 175 24
-3 4 10 14568 640 24
-3 4 9 14260 623 24
-3 3 9 5058 254 24
-3 3 7 2569 154 24
-4 6 14 1978 296 24
-4 6 13 867 235 24
-4 6 11 1672 270 24
-4 5 11 4948 366 24
-4 5 10 3746 318 24
-4 4 12 2387 251 24
-4 4 10 651 188 24
-4 3 12 2114 226 24
-4 3 11 21919 1017 24
-5 9 15 1661 466 24
-5 6 15 1645 402 24
-5 5 15 789 359 24
-5 4 13 815 303 24
-5 4 11 4309 471 24
-2 1 3 7003 278 24
-2 0 3 24520 959 24
-2 -1 4 167 59 24
-3 2 4 1891 234 24
-3 1 5 25843 1052 24
-3 0 5 11233 520 24
-3 -1 6 13482 600 24
-4 1 7 3033 295 24
-4 -1 8 3116 345 24
-4 -1 7 12974 895 24
-5 2 9 1833 387 24
-5 -1 10 2446 535 24
-5 -2 11 2758 562 24
11 3 -4 353 135 25
11 2 -5 809 166 25
11 1 -4 472 144 25
10 2 -3 378 123 25
10 1 -4 5795 352 25
10 1 -5 644 136 25
9 2 -4 2879 195 25
9 1 -5 3849 241 25
8 2 -3 740 102 25
8 2 -4 373 86 25
8 1 -3 18856 911 25
8 1 -4 821 105 25
7 2 -3 5226 263 25
7 1 -3 2356 139 25
7 1 -4 13150 626 25
6 1 -2 43745 1992 25
6 1 -3 229 54 25
5 1 -2 11040 508 25
4 1 -2 476 34 25
12 0 -2 334 149 25
12 -1 -2 299 145 25
12 -2 -4 344 159 25
10 0 -1 1218 146 25
10 0 -3 292 111 25
10 -1 -3 1342 149 25
9 0 -2 956 114 25
9 -1 -1 486 101 25
8 0 -2 2617 150 25
8 -1 -1 219 89 25
8 -1 -2 3042 174 25
7 0 -1 3405 167 25
7 0 -2 2809 143 25
7 -1 -1 780 80 25
7 -1 -2 912 85 25
6 0 -1 14709 613 25
6 -1 -2 1683 91 25
5 0 -1 2407 107 25
4 0 -1 430 31 25
11 -2 1 1437 239 25
11 -3 1 1188 267 25
11 -3 0 513 202 25
10 -2 2 682 200 25
10 -2 1 1052 197 25
10 -2 0 474 156 25
10 -3 2 1420 277 25
9 -1 1 616 128 25
9 -2 2 4052 300 25
9 -2 1 1884 192 25
9 -3 1 717 194 25
9 -3 0 390 153 25
8 -2 2 4538 277 25
8 -2 1 527 124 25
8 -2 0 361 106 25
8 -3 0 2203 177 25
7 -1 2 3035 171 25
7 -1 1 2960 164 25
7 -2 1 207 95 25
7 -2 0 432 91 25
6 -1 1 370 71 25
6 -1 0 464 52 25
6 -2 0 142 71 25
5 -1 1 127 53 25
5 -1 0 4794 204 25
5 -2 0 11895 495 25
4 -1 1 99 35 25
4 -1 0 633 41 25
3 -1 0 10858 431 25
9 0 7 1359 401 25
9 -1 6 803 312 25
9 -1 5 1905 314 25
9 -2 5 1199 368 25
9 -2 4 937 247 25
8 1 7 6015 518 25
8 1 6 2941 286 25
8 0 5 1224 185 25
8 -1 6 842 314 25
8 -1 5 1939 278 25
8 -2 4 2451 293 25
7 1 5 1309 137 25
7 0 6 10474 641 25
7 0 5 1053 172 25
7 -2 4 901 214 25
7 -3 4 1554 314 25
6 0 5 670 145 25
6 0 4 510 107 25
6 -2 4 4707 328 25
6 -2 3 10460 476 25
5 0 4 5170 239 25
5 -1 3 3883 189 25
5 -2 3 14267 610 25
4 0 3 4169 181 25
4 -1 2 2047 102 25
3 0 2 5425 216 25
3 -1 2 1659 78 25
6 12 -4 540 182 25
6 12 -5 349 172 25
5 12 -6 385 180 25
5 11 -4 943 174 25
5 10 -4 441 134 25
5 10 -5 1024 159 25
4 12 -4 580 202 25
4 11 -5 4496 328 25
4 11 -6 2350 266 25
4 10 -4 426 132 25
4 10 -6 2672 234 25
4 9 -3 5008 269 25
4 9 -4 303 102 25
4 9 -5 441 122 25
4 8 -3 312 86 25
4 8 -4 1534 127 25
3 9 -3 1315 138 25
3 9 -4 870 132 25
3 9 -5 1854 167 25
3 8 -3 2826 167 25
3 8 -4 1093 116 25
3 8 -5 4254 230 25
3 7 -3 431 79 25
3 7 -4 9976 435 25
3 6 -2 2430 114 25
3 6 -3 1062 75 25
2 6 -2 9550 399 25
2 6 -3 847 68 25
2 5 -2 923 56 25
2 5 -3 793 55 25
2 4 -2 4593 186 25
1 3 -1 20878 858 25
11 0 -6 1336 167 25
10 0 -5 3081 209 25
10 0 -6 548 123 25
9 0 -4 1003 118 25
9 0 -5 4797 246 25
9 0 -6 186 85 25
9 -1 -6 436 111 25
8 0 -4 15363 629 25
8 0 -5 5356 246 25
8 -1 -4 387 91 25
8 -1 -6 169 75 25
7 0 -3 2213 117 25
7 0 -4 10659 433 25
7 -1 -4 400 72 25
7 -1 -5 2982 148 25
6 0 -3 56921 2173 25
6 0 -4 16206 625 25
6 -1 -3 2163 104 25
6 -1 -4 736 63 25
5 0 -2 664 40 25
5 0 -3 25042 961 25
4 0 -2 124976 5000 25
11 -3 -2 330 159 25
11 -5 -4 424 172 25
10 -5 -3 390 186 25
9 -3 -2 984 138 25
9 -3 -3 223 106 25
9 -3 -4 241 114 25
9 -4 -4 377 132 25
8 -2 -1 165 77 25
8 -2 -2 4498 222 25
8 -3 -3 1537 135 25
8 -4 -3 267 113 25
7 -2 -1 2570 138 25
7 -2 -3 1859 110 25
7 -3 -3 755 96 25
6 -2 -1 10527 418 25
6 -2 -2 11708 459 25
6 -3 -2 7538 314 25
6 -3 -3 352 71 25
5 -2 -1 4492 183 25
5 -2 -2 4700 188 25
4 -1 -1 1086 49 25
4 -2 -2 3755 146 25
3 -1 -1 59035 2301 25
10 -4 3 919 339 25
9 -4 2 530 244 25
9 -4 1 1811 278 25
9 -6 -1 1239 301 25
8 -3 2 466 176 25
8 -4 0 768 154 25
8 -5 0 2523 297 25
8 -5 -1 428 177 25
7 -3 2 2419 207 25
7 -3 1 425 121 25
7 -4 2 7520 482 25
7 -4 1 1449 194 25
7 -5 0 798 188 25
7 -5 -1 631 160 25
7 -6 -1 1768 271 25
6 -3 2 5157 280 25
6 -3 1 3887 210 25
6 -4 1 2201 195 25
6 -4 0 767 124 25
6 -5 0 1687 202 25
6 -5 -1 7077 357 25
5 -3 1 3344 176 25
5 -3 0 12487 494 25
5 -4 0 1610 135 25
4 -2 1 353 59 25
4 -2 0 11772 453 25
4 -3 0 3537 158 25
3 -2 0 30407 1142 25
2 -1 0 2542 103 25
7 -2 6 4090 597 25
6 1 7 6207 537 25
6 -1 6 6316 603 25
6 -2 5 2618 356 25
6 -3 4 16595 929 25
5 0 6 4837 439 25
5 -2 4 16010 771 25
5 -3 4 6847 631 25
5 -3 3 6244 388 25
5 -4 3 22362 1292 25
4 -1 4 1231 170 25
4 -2 4 12424 801 25
4 -2 3 1320 144 25
4 -3 3 22027 1121 25
3 -1 3 32421 1168 25
3 -2 3 5797 415 25
3 -2 2 1271 94 25
3 -3 2 2908 283 25
2 -1 2 1294 68 25
6 11 -9 425 183 25
6 10 -8 361 169 25
6 10 -9 442 163 25
5 10 -7 2212 220 25
5 10 -8 1875 217 25
5 10 -10 601 168 25
5 9 -6 473 129 25
5 9 -7 2375 203 25
5 9 -8 545 146 25
5 9 -9 540 157 25
5 9 -11 488 165 25
5 8 -7 7210 348 25
5 8 -9 4043 253 25
4 9 -7 797 149 25
4 9 -8 1264 176 25
4 9 -9 370 135 25
4 8 -6 585 122 25
4 8 -7 5540 285 25
4 8 -8 398 122 25
4 8 -9 802 154 25
4 8 -10 2326 200 25
4 7 -5 1313 107 25
4 7 -6 1678 129 25
4 7 -7 5115 251 25
4 7 -8 4566 242 25
3 7 -6 330 97 25
3 7 -7 4264 221 25
3 6 -5 14736 581 25
3 6 -6 1594 110 25
3 6 -7 1694 121 25
3 6 -8 1207 110 25
3 5 -4 1890 87 25
3 5 -5 12757 491 25
3 5 -6 22209 849 25
2 5 -4 30451 1151 25
2 4 -3 2809 112 25
2 4 -4 996 54 25
2 4 -5 2163 95 25
12 0 -9 492 167 25
11 -1 -11 332 157 25
10 1 -9 292 126 25
9 1 -9 489 135 25
9 -1 -10 421 125 25
8 0 -6 2809 159 25
8 -1 -9 294 103 25
7 0 -6 210 75 25
7 0 -7 1420 108 25
7 -1 -7 618 86 25
6 0 -5 9093 359 25
6 0 -6 1760 98 25
5 0 -4 899 55 25
5 0 -5 451 48 25
4 0 -3 11444 453 25
4 0 -4 12729 494 25
10 -3 -8 401 157 25
10 -5 -7 764 193 25
9 -3 -5 468 131 25
9 -3 -6 425 128 25
9 -3 -7 255 122 25
9 -3 -8 310 128 25
9 -4 -9 597 144 25
8 -3 -7 2053 159 25
8 -4 -6 266 119 25
8 -4 -8 270 122 25
7 -2 -4 1800 119 25
7 -2 -5 382 84 25
7 -3 -5 3152 176 25
7 -3 -6 1093 111 25
7 -3 -7 196 83 25
6 -2 -4 1029 80 25
6 -2 -5 1494 94 25
6 -3 -5 178 73 25
6 -3 -6 6473 281 25
5 -2 -3 640 49 25
5 -2 -4 1576 81 25
4 -2 -3 2068 88 25
4 -2 -4 684 46 25
3 -1 -2 9300 373 25
9 -6 -5 386 177 25
8 -5 -2 2426 210 25
8 -5 -4 289 119 25
8 -6 -6 4356 298 25
8 -8 -5 698 258 25
7 -5 -3 691 128 25
7 -5 -4 333 119 25
7 -6 -4 1882 188 25
7 -6 -5 485 145 25
7 -7 -4 507 204 25
7 -7 -5 1577 225 25
6 -4 -2 831 103 25
6 -4 -3 284 88 25
6 -5 -3 1213 123 25
6 -5 -4 3088 178 25
6 -6 -4 928 142 25
6 -6 -5 14071 574 25
5 -4 -2 6229 253 25
5 -4 -3 167 74 25
5 -5 -3 294 94 25
4 -3 -2 205 49 25
4 -3 -3 2584 103 25
4 -4 -2 124 58 25
3 -2 -1 9080 317 25
3 -2 -2 2285 84 25
3 -3 -2 10384 371 25
2 -2 -1 1745 64 25
6 -6 0 891 296 25
6 -9 -4 1030 389 25
5 -5 1 3008 341 25
5 -5 0 1585 194 25
5 -6 1 9053 873 25
5 -6 0 1303 327 25
5 -6 -2 379 157 25
5 -7 -3 1999 250 25
4 -4 1 2311 195 25
4 -4 0 262 88 25
4 -5 0 10915 534 25
4 -5 -1 344 122 25
4 -6 -2 402 162 25
4 -7 -3 564 221 25
4 -8 -3 1322 455 25
3 -3 0 1060 68 25
3 -4 -1 6755 251 25
3 -5 -1 1821 190 25
3 -5 -2 7426 297 25
3 -6 -2 9477 523 25
3 -6 -3 12370 524 25
3 -7 -3 8609 638 25
3 -7 -4 3509 331 25
2 -2 0 23844 800 25
2 -3 0 26346 880 25
2 -3 -1 7037 245 25
2 -4 -1 1615 111 25
2 -5 -3 5021 211 25
1 -1 0 55960 2097 25
1 -2 -1 5194 173 25
10 -4 -12 564 174 25
9 -2 -10 267 128 25
9 -3 -11 589 142 25
8 -2 -8 218 104 25
8 -3 -9 1534 155 25
8 -3 -11 983 155 25
7 -2 -7 2871 166 25
7 -2 -8 1158 116 25
7 -2 -9 541 102 25
7 -3 -8 1405 129 25
7 -3 -9 458 108 25
7 -3 -10 631 120 25
6 -2 -7 856 85 25
6 -2 -8 684 87 25
5 -1 -6 7506 315 25
5 -2 -6 5399 239 25
5 -2 -7 2116 115 25
4 -1 -4 3284 138 25
4 -1 -5 212 37 25
3 -1 -4 209 28 25
9 -6 -8 400 177 25
9 -6 -9 328 162 25
8 -6 -7 1451 198 25
8 -6 -8 501 161 25
8 -6 -9 450 149 25
8 -7 -8 608 171 25
7 -5 -6 3054 201 25
7 -5 -7 1187 138 25
7 -6 -7 1104 154 25
7 -6 -10 662 143 25
6 -4 -5 566 89 25
6 -4 -6 895 98 25
6 -4 -7 2736 159 25
6 -5 -7 1423 131 25
6 -5 -8 1146 123 25
6 -6 -7 2805 201 25
6 -6 -8 754 137 25
5 -4 -5 1015 89 25
5 -4 -6 334 75 25
5 -5 -6 2219 143 25
5 -5 -7 397 90 25
5 -5 -8 4764 235 25
4 -3 -4 2915 129 25
4 -3 -5 19841 787 25
4 -4 -5 6396 273 25
4 -4 -6 7915 332 25
3 -2 -3 3214 127 25
3 -3 -4 7337 289 25
3 -3 -5 1058 50 25
2 -2 -3 323 20 25
6 -8 -5 694 275 25
6 -8 -7 916 251 25
5 -7 -4 5616 388 25
5 -7 -5 596 181 25
5 -7 -6 15602 750 25
5 -7 -7 611 152 25
5 -8 -5 1244 305 25
5 -8 -6 3260 362 25
5 -8 -7 758 218 25
5 -8 -8 642 209 25
5 -9 -8 1580 343 25
5 -9 -9 705 268 25
4 -5 -3 5033 247 25
4 -6 -4 32316 1371 25
4 -6 -5 10182 471 25
4 -6 -6 8771 408 25
4 -7 -5 4264 311 25
4 -7 -6 11102 559 25
4 -7 -7 726 150 25
4 -8 -6 2329 314 25
3 -4 -3 395 62 25
3 -5 -4 12218 522 25
3 -5 -5 6145 278 25
3 -6 -5 4271 241 25
2 -3 -2 11033 447 25
2 -3 -3 15148 599 25
2 -4 -3 221 56 25
2 -4 -4 11858 492 25
1 -2 -2 3526 143 25
2 -7 -4 8719 760 25
2 -7 -5 30858 1582 25
1 -4 -2 338 127 25
1 -4 -3 37392 1438 25
1 -5 -3 6026 424 25
1 -5 -4 3849 225 25
1 -6 -4 10535 860 25
1 -6 -6 829 147 25
1 -7 -6 1522 373 25
1 -7 -7 3139 368 25
0 -1 -1 41410 1578 25
0 -2 -2 727 39 25
0 -3 -3 6773 277 25
0 -3 -4 1176 64 25
0 -4 -4 62668 2736 25
0 -4 -5 220 82 25
0 -5 -5 7877 521 25
0 -5 -6 11621 569 25
0 -6 -7 1752 323 25
0 -6 -8 17339 909 25
-1 14 12 801 209 26
-1 13 11 453 181 26
-1 12 11 384 159 26
-1 12 10 11878 643 26
-1 11 10 556 144 26
-1 9 8 1902 143 26
-1 9 7 4495 246 26
-1 8 6 14402 687 26
-1 7 6 1523 96 26
-1 6 6 1399 81 26
-1 6 5 348 47 26
-1 5 5 6184 283 26
-1 5 4 5647 261 26
-2 13 12 859 193 26
-2 12 11 928 181 26
-2 12 10 543 159 26
-2 12 9 1228 164 26
-2 11 11 943 168 26
-2 11 10 1806 182 26
-2 11 9 1302 159 26
-2 10 9 1544 151 26
0 15 8 2171 249 26
0 14 8 5822 375 26
0 14 7 886 193 26
0 13 6 1545 196 26
0 13 5 7048 402 26
0 12 6 735 141 26
0 12 5 5510 310 26
0 11 6 2413 176 26
0 11 5 479 114 26
0 10 6 1920 137 26
0 10 5 3567 200 26
0 10 4 1429 128 26
0 9 5 489 82 26
0 9 4 3866 196 26
0 8 4 3564 173 26
0 7 4 69576 2863 26
0 7 3 38674 1599 26
0 6 3 11205 458 26
0 5 3 6748 275 26
0 5 2 8359 346 26
0 4 2 5453 238 26
-1 15 9 817 197 26
-1 15 8 476 186 26
-1 15 7 711 193 26
-1 15 6 498 180 26
-1 14 8 5065 338 26
-1 14 7 4569 319 26
-1 14 6 836 190 26
-1 13 7 1622 189 26
-1 13 6 1041 167 26
-1 12 6 1638 161 26
-1 12 5 4256 259 26
-1 11 5 471 105 26
-1 10 4 1600 123 26
3 15 5 735 320 26
3 15 4 810 304 26
3 14 6 3317 356 26
3 14 5 4440 405 26
3 14 3 923 354 26
3 13 5 412 192 26
3 13 3 3602 382 26
2 15 5 610 220 26
2 14 4 870 231 26
2 13 4 5825 385 26
2 13 3 1493 248 26
2 13 2 1008 247 26
2 12 4 5591 333 26
2 12 3 4409 303 26
2 12 2 3386 285 26
2 11 4 583 134 26
2 11 3 688 141 26
2 11 2 399 152 26
2 10 4 1299 140 26
2 10 3 273 118 26
2 10 2 831 143 26
2 9 4 475 75 26
2 9 3 4100 216 26
2 9 2 852 119 26
1 13 4 3618 286 26
1 13 3 4153 316 26
1 13 2 978 201 26
1 12 3 1035 178 26
1 12 2 4290 289 26
1 11 3 253 124 26
1 11 2 2376 190 26
1 10 3 3003 186 26
1 10 2 1465 143 26
1 9 2 587 97 26
1 9 1 373 93 26
1 8 2 21768 909 26
1 8 1 168 74 26
1 7 2 1881 107 26
1 7 1 22164 920 26
1 6 2 3740 163 26
1 6 1 23119 946 26
1 5 2 1327 62 26
1 5 1 1245 65 26
6 14 5 1561 599 26
6 11 5 1590 427 26
5 14 4 1519 491 26
5 14 2 2246 627 26
5 13 3 1096 434 26
5 13 2 3164 601 26
5 11 5 1214 285 26
5 11 3 858 354 26
5 11 2 1266 408 26
5 10 5 1390 278 26
5 10 4 6359 526 26
5 10 3 1321 353 26
4 12 3 3233 358 26
4 12 2 3055 416 26
4 12 1 3018 478 26
4 11 2 1264 284 26
4 10 1 1287 290 26
4 9 4 1348 182 26
4 9 3 473 167 26
4 9 2 2158 282 26
4 8 3 4376 288 26
4 7 3 1723 181 26
3 9 2 633 139 26
3 9 1 742 165 26
3 8 2 1832 151 26
3 8 1 14839 655 26
3 7 3 11949 493 26
3 7 2 47223 1861 26
3 7 1 868 139 26
3 6 3 6002 260 26
3 6 2 25008 994 26
2 6 1 87697 3445 26
2 5 1 7562 311 26
2 4 2 226 36 26
2 4 1 6491 264 26
1 3 0 25580 993 26
1 2 1 4987 207 26
-1 1 9 1366 85 26
-1 1 8 9490 382 26
-1 1 7 6062 243 26
-2 3 20 504 233 26
-2 2 19 631 228 26
-2 2 16 2055 208 26
-2 2 15 1486 169 26
-2 1 16 462 171 26
-2 1 14 261 121 26
-2 1 12 1887 139 26
-2 1 11 2377 141 26
-2 1 9 365 52 26
-3 2 19 1385 271 26
-3 2 18 416 192 26
-3 2 16 615 165 26
-3 2 15 2915 214 26
-3 1 15 1354 171 26
-3 1 14 947 150 26
-3 1 13 4869 258 26
-4 3 20 1603 274 26
-4 1 18 1929 294 26
-1 8 5 9435 384 26
-1 7 4 64118 2462 26
-1 6 3 410 45 26
-1 5 3 7818 303 26
-1 4 2 734 40 26
-2 14 9 2240 226 26
-2 14 8 375 168 26
-2 14 7 501 167 26
-2 13 8 343 148 26
-2 13 7 1121 180 26
-2 13 6 4918 308 26
-2 12 7 345 133 26
-2 12 6 3055 212 26
-2 12 5 288 128 26
-2 11 7 696 119 26
-2 11 5 376 111 26
-2 10 6 3561 192 26
-2 10 5 1791 136 26
-2 9 6 345 80 26
-2 9 5 2350 135 26
-2 8 5 3048 147 26
-2 7 4 14675 575 26
-3 14 9 2642 253 26
-3 14 8 1395 210 26
-3 14 7 634 174 26
-3 13 9 511 150 26
-3 13 8 1171 172 26
-3 13 7 1053 173 26
-3 13 6 1183 190 26
-3 12 7 1975 185 26
-3 12 6 1392 167 26
-3 11 6 260 115 26
-3 10 5 469 106 26
-4 13 7 1638 205 26
0 15 2 576 228 26
0 14 3 381 175 26
0 13 4 3541 260 26
0 13 3 639 165 26
0 12 3 3251 223 26
0 12 2 1828 194 26
0 12 1 4721 297 26
0 11 3 1384 140 26
0 11 1 796 142 26
0 10 3 1812 134 26
0 10 2 2508 164 26
0 9 2 8942 373 26
0 9 1 7990 341 26
0 8 1 1420 101 26
0 7 2 566 62 26
0 7 1 3327 148 26
0 6 1 5320 210 26
0 5 1 9474 354 26
0 4 1 153 23 26
-1 15 2 530 219 26
-1 13 4 2022 207 26
-1 13 3 454 157 26
-1 13 2 1131 192 26
-1 13 1 8650 487 26
-1 12 3 6354 331 26
-1 12 1 4965 305 26
-1 11 3 1551 150 26
-1 11 2 1179 142 26
-1 11 1 650 136 26
-1 10 3 1824 132 26
-1 10 2 3466 193 26
-1 10 1 4174 224 26
-1 9 1 5843 264 26
-1 8 1 405 79 26
-1 7 1 11135 436 26
-2 13 2 1109 194 26
-2 13 1 1620 238 26
-2 12 1 1345 188 26
3 13 0 923 456 26
3 13 -1 5550 701 26
3 13 -2 2629 701 26
3 12 1 1451 316 26
3 12 0 1332 361 26
2 13 0 2080 423 26
2 12 0 5373 446 26
2 12 -2 5060 613 26
2 11 0 437 209 26
2 11 -2 1099 372 26
2 10 -1 559 235 26
2 9 1 6615 310 26
2 9 0 4118 257 26
2 9 -1 525 194 26
1 14 -3 2342 617 26
1 13 0 7933 562 26
1 13 -1 3197 450 26
1 12 0 4331 341 26
1 12 -1 2273 333 26
1 11 0 336 159 26
1 11 -2 3355 386 26
1 11 -3 737 366 26
1 10 0 4003 251 26
1 10 -1 1910 220 26
1 10 -2 2649 285 26
1 9 0 4548 241 26
1 9 -1 2160 190 26
1 9 -2 2560 243 26
1 8 0 887 109 26
1 8 -1 771 123 26
1 8 -2 2732 203 26
1 7 0 16387 639 26
1 7 -1 1047 107 26
1 6 0 29931 1146 26
1 6 -1 5157 222 26
1 5 0 49217 1867 26
1 4 0 9192 349 26
0 11 -3 8668 630 26
0 8 -2 1776 149 26
0 4 -1 8934 338 26
5 9 2 2224 409 26
5 8 3 2771 391 26
5 8 2 16518 1132 26
5 7 3 2846 428 26
4 9 0 2199 400 26
4 7 1 38887 1794 26
4 6 2 10017 552 26
4 5 2 1302 312 26
3 7 -1 11501 676 26
3 6 0 11430 547 26
3 6 -1 12953 809 26
3 5 1 1933 151 26
3 4 1 87626 3660 26
2 6 -2 8619 475 26
2 5 -1 16742 644 26
2 5 -2 621 260 26
2 4 0 1192 81 26
2 4 -1 8109 407 26
2 3 1 8103 290 26
2 3 0 1651 117 26
1 3 -1 26064 916 26
1 2 0 13855 489 26
-2 1 7 1272 63 26
-2 1 6 16966 633 26
-3 2 11 8230 340 26
-3 1 10 3828 178 26
-3 1 9 1953 103 26
-3 1 8 126 51 26
-4 2 14 267 126 26
-4 2 13 3509 208 26
-4 2 11 8480 357 26
-4 1 13 613 125 26
-4 1 10 188 80 26
-5 2 16 954 183 26
-5 2 13 261 119 26
-5 1 16 1140 184 26
-5 1 15 403 155 26
-5 1 14 807 148 26
-5 1 13 3510 223 26
-5 1 11 2166 148 26
-6 3 18 416 189 26
-6 2 18 423 185 26
-6 2 17 709 184 26
-6 1 19 511 242 26
-7 2 17 450 173 26
-2 6 4 14231 545 26
-2 5 4 611 44 26
-2 5 3 8078 310 26
-2 4 3 392 34 26
-3 9 7 3705 197 26
-3 8 6 4421 209 26
-3 8 5 11740 488 26
-3 7 6 242 68 26
-3 7 5 42774 1669 26
-3 7 4 5214 223 26
-3 6 5 6642 266 26
-3 6 4 5069 207 26
-4 11 9 310 134 26
-4 10 7 1593 155 26
-4 10 6 1564 153 26
-4 9 6 603 111 26
-4 8 7 910 110 26
-4 8 6 2810 163 26
-4 8 5 602 98 26
-4 7 5 6607 285 26
-5 13 9 480 208 26
-5 13 8 854 220 26
-5 12 10 504 167 26
-5 12 8 1752 211 26
-5 11 9 391 144 26
-5 11 8 324 142 26
-5 10 9 882 161 26
-5 10 8 1196 166 26
-5 10 7 2165 188 26
-5 9 6 375 122 26
-6 12 10 499 179 26
-1 6 2 29190 1096 26
-1 5 1 37192 1391 26
-1 4 1 2049 84 26
-2 12 4 1997 196 26
-2 10 3 1010 131 26
-2 9 3 6255 285 26
-2 9 2 8234 364 26
-2 8 2 3520 173 26
-2 8 1 892 102 26
-2 7 2 1431 90 26
-2 6 2 6552 255 26
-2 6 1 624 62 26
-2 5 1 21760 814 26
-3 13 2 4908 378 26
-3 12 4 4749 299 26
-3 12 2 4078 295 26
-3 11 4 965 146 26
-3 11 3 267 129 26
-3 11 2 510 152 26
-3 10 3 1625 150 26
-3 10 2 2952 198 26
-3 9 2 5023 252 26
-3 8 2 320 88 26
-4 13 4 541 178 26
-4 13 2 1399 250 26
-4 12 4 1295 191 26
-4 12 3 1673 210 26
-4 12 2 1679 222 26
-4 11 2 493 154 26
-4 10 2 790 141 26
-5 13 3 1488 264 26
-5 13 2 635 228 26
-5 12 2 816 193 26
-1 14 -1 912 305 26
-1 14 -2 1284 391 26
-1 11 -1 5568 336 26
-1 11 -2 523 219 26
-1 11 -3 1005 260 26
-1 10 -1 2234 189 26
-1 10 -2 2026 213 26
-1 10 -3 2916 291 26
-1 9 -1 4104 222 26
-1 9 -3 10989 505 26
-1 8 -1 5444 241 26
-1 8 -2 561 117 26
-1 7 -1 2551 135 26
-1 7 -2 6751 281 26
-1 6 -1 4462 180 26
-1 6 -2 4753 197 26
-1 5 -1 16646 594 26
-1 4 -1 1591 66 26
-1 3 -1 1932 71 26
-2 13 -4 3486 518 26
-2 11 -2 7330 426 26
-2 11 -3 460 221 26
-2 10 -1 285 138 26
-2 10 -3 9080 494 26
-2 9 -1 1595 148 26
-2 9 -2 4392 246 26
-2 9 -3 2330 216 26
-2 8 -1 253 98 26
-2 8 -2 475 116 26
-2 7 -2 8491 339 26
-2 6 -2 20462 750 26
-3 14 -1 860 282 26
-3 13 -2 588 270 26
-3 11 -2 720 211 26
-3 10 -3 1939 253 26
-3 9 -3 3232 236 26
-4 13 -3 850 352 26
-4 12 -4 791 317 26
2 11 -4 7770 1015 26
2 8 -2 773 212 26
1 10 -4 1820 470 26
1 10 -5 4778 842 26
1 9 -4 5230 536 26
1 9 -5 3151 684 26
1 8 -3 1088 226 26
1 8 -4 3105 421 26
1 7 -3 8973 453 26
1 7 -4 1392 331 26
1 6 -2 4818 212 26
1 6 -3 2637 237 26
1 5 -2 9001 332 26
1 4 -1 2799 106 26
0 10 -5 9028 792 26
0 9 -4 3134 374 26
0 8 -5 20888 1136 26
0 7 -3 4042 217 26
0 7 -4 813 213 26
0 7 -5 5825 536 26
0 6 -3 20880 738 26
0 6 -4 1785 221 26
0 5 -3 16017 561 26
0 5 -4 748 196 26
0 4 -2 1915 89 26
0 4 -3 6114 238 26
0 3 -2 1041 58 26
0 2 -1 563 25 26
-1 10 -6 1926 510 26
-1 9 -5 7412 565 26
-1 9 -6 4223 570 26
-1 8 -5 5277 449 26
-1 8 -6 7536 688 26
-1 7 -5 12058 636 26
-1 7 -6 10912 795 26
-1 6 -6 2257 433 26
-1 5 -4 19237 690 26
-1 5 -5 8896 488 26
-1 4 -4 11063 416 26
-1 3 -3 7214 253 26
-2 6 -6 3471 394 26
-2 4 2 166 27 26
-2 4 1 2948 124 26
-2 3 1 8562 382 26
-3 7 3 21669 916 26
-3 6 3 20809 856 26
-3 6 2 16908 706 26
-3 5 2 12044 496 26
-4 9 4 3820 222 26
-4 9 3 3582 217 26
-4 8 4 414 92 26
-4 8 3 2821 169 26
-4 7 4 1170 92 26
-4 7 3 418 83 26
-4 7 2 570 87 26
-4 6 2 515 70 26
-5 12 5 2197 234 26
-5 10 4 645 146 26
-5 10 3 1776 178 26
-5 9 5 1563 146 26
-5 9 3 2361 187 26
-5 8 4 648 111 26
-5 8 3 352 110 26
-6 12 6 418 159 26
-6 12 5 545 185 26
-6 12 4 370 184 26
-6 12 3 902 205 26
-6 11 5 519 175 26
-6 11 3 410 165 26
-6 10 5 369 140 26
-6 10 3 828 151 26
-6 9 4 1338 157 26
-7 12 4 550 234 26
-7 10 4 781 158 26
-1 3 0 26865 1136 26
-2 7 0 6878 297 26
-2 6 0 4116 180 26
-2 5 0 1127 64 26
-2 5 -1 19986 796 26
-2 4 0 1991 85 26
-3 11 0 5489 335 26
-3 10 0 1055 156 26
-3 9 0 3119 195 26
-3 8 0 4760 239 26
-3 7 0 332 84 26
-3 7 -1 4705 230 26
-3 6 0 205 66 26
-3 6 -1 2558 139 26
-4 13 0 522 222 26
-4 11 -1 2903 282 26
-4 10 -1 417 164 26
-4 10 -2 7780 449 26
-4 9 0 2194 178 26
-4 9 -1 3240 229 26
-4 9 -2 1368 190 26
-4 7 -1 7158 330 26
-5 13 -1 583 247 26
-5 11 1 2466 238 26
-5 10 0 1872 211 26
-5 10 -1 1164 199 26
-5 10 -2 443 199 26
-5 9 -1 7964 415 26
-6 12 -2 579 266 26
-6 10 -1 3736 321 26
-1 4 -2 17157 701 26
-1 3 -2 32382 1302 26
-2 8 -4 21944 1028 26
-2 8 -5 897 272 26
-2 7 -4 6501 368 26
-2 6 -3 3725 206 26
-2 6 -4 536 139 26
-2 5 -3 3563 183 26
-2 5 -4 1799 152 26
-2 4 -3 11155 472 26
-3 10 -5 898 350 26
-3 9 -4 7565 494 26
-3 9 -5 3003 411 26
-3 8 -4 5839 382 26
-3 8 -5 5229 440 26
-3 7 -4 14081 664 26
-3 7 -5 6061 420 26
-3 7 -6 951 320 26
-3 6 -5 2669 255 26
-3 5 -4 5634 285 26
-4 8 -5 4068 387 26
-4 6 -5 4373 325 26
-5 9 -6 1195 356 26
-5 9 -7 1393 521 26
-5 8 -6 1034 334 26
-5 7 -6 1361 314 26
-1 2 -3 1292 80 26
-1 1 -2 1211 55 26
-2 4 -6 23019 1366 26
-2 3 -5 4966 356 26
-2 2 -4 2159 146 26
-2 1 -3 1323 80 26
-3 5 -7 1728 464 26
-3 3 -6 4918 497 26
-3 2 -5 30417 1391 26
-3 1 -4 9697 424 26
-3 1 -5 4082 477 26
-4 4 -7 1755 396 26
-4 2 -6 2765 394 26
-5 2 -7 7800 909 26
-5 1 -6 3761 507 26
-6 3 -8 3276 763 26
-6 1 -6 8170 656 26
8 11 -7 1176 231 27
7 11 -5 679 171 27
7 10 -4 540 143 27
7 10 -7 425 162 27
7 9 -5 316 131 27
6 10 -5 558 138 27
6 9 -4 3703 241 27
6 8 -4 344 108 27
6 8 -5 835 128 27
5 9 -4 695 123 27
5 8 -4 2518 172 27
5 8 -5 590 111 27
4 7 -3 6443 321 27
4 6 -3 7175 342 27
4 6 -4 262 66 27
3 5 -2 332 35 27
3 5 -3 8694 399 27
3 4 -2 113 29 27
10 12 0 563 196 27
9 13 0 598 231 27
9 11 0 404 174 27
8 12 -1 1544 208 27
7 11 -1 983 152 27
7 9 0 1780 159 27
7 9 -1 248 114 27
7 9 -2 388 112 27
7 8 -1 7468 364 27
6 9 0 509 97 27
6 9 -1 1259 130 27
6 8 -1 214 94 27
6 8 -2 416 94 27
6 7 -1 2592 154 27
5 7 0 200 82 27
5 7 -1 9722 425 27
5 6 0 6037 270 27
5 6 -1 5159 232 27
4 6 0 57592 2379 27
4 5 0 2984 133 27
4 5 -1 328 43 27
3 4 0 325 33 27
3 4 -1 11427 468 27
10 12 5 1030 310 27
8 14 4 682 288 27
8 10 3 403 162 27
7 11 4 599 194 27
7 10 4 857 190 27
7 10 3 2366 226 27
7 9 4 1010 173 27
6 9 4 1145 158 27
6 9 3 1642 162 27
6 8 3 511 127 27
6 8 2 5933 295 27
6 7 3 2936 179 27
6 7 2 1895 137 27
5 8 3 4028 220 27
5 7 3 3711 197 27
5 7 2 6912 314 27
5 6 2 7337 324 27
4 7 2 48323 1991 27
4 6 2 15233 636 27
4 5 2 2387 118 27
3 4 1 112721 4478 27
2 3 1 9582 394 27
7 11 8 2786 609 27
7 11 7 3971 515 27
6 12 7 2927 480 27
6 11 7 744 339 27
5 12 7 5405 595 27
5 11 8 4797 603 27
5 11 6 1639 297 27
5 9 6 790 230 27
5 8 6 561 205 27
4 12 8 2915 703 27
4 11 7 782 328 27
4 11 6 2593 363 27
4 10 6 791 255 27
4 9 6 448 216 27
4 9 5 1477 188 27
4 8 5 331 140 27
4 7 5 2230 183 27
4 7 4 5176 243 27
4 6 5 2627 180 27
3 10 6 2186 332 27
3 9 6 5658 435 27
3 8 5 1120 170 27
3 7 5 13538 601 27
3 7 4 6283 285 27
3 6 4 468 89 27
3 5 4 18310 731 27
3 5 3 15334 616 27
2 6 4 1409 114 27
2 6 3 13806 555 27
2 5 3 8462 347 27
2 4 3 91101 3604 27
1 3 2 401 30 27
-1 2 -4 9376 369 27
-1 2 -5 44452 1764 27
-1 2 -6 46533 1832 27
-1 2 -7 1122 62 27
-1 1 -4 30182 1228 27
-1 1 -5 30214 1181 27
-2 5 -13 9254 486 27
-2 4 -9 338 101 27
-2 4 -10 811 115 27
-2 4 -11 3188 203 27
-2 4 -13 4721 289 27
-2 3 -8 797 94 27
-2 3 -9 1613 123 27
-2 3 -10 9213 416 27
-2 3 -12 2373 180 27
-2 2 -7 5630 244 27
-2 2 -8 12915 541 27
-2 2 -9 1889 119 27
-2 2 -10 258 82 27
-3 6 -13 5343 390 27
-3 6 -14 820 235 27
-3 6 -15 658 204 27
-3 5 -12 726 173 27
-3 5 -13 1823 228 27
-3 5 -15 431 194 27
-3 5 -17 551 226 27
-3 4 -11 575 140 27
-3 4 -13 8304 461 27
-3 4 -14 1169 199 27
-3 3 -10 1958 159 27
-3 3 -11 1790 167 27
-3 3 -12 1055 167 27
-3 3 -13 5597 340 27
-3 3 -14 442 160 27
10 11 -4 375 159 27
10 10 -4 379 150 27
9 10 -4 510 148 27
9 9 -3 272 133 27
8 10 -4 514 136 27
8 9 -5 769 147 27
7 8 -4 576 114 27
7 7 -3 3144 180 27
6 6 -2 3147 157 27
6 6 -3 701 84 27
6 6 -4 2134 122 27
5 6 -2 11960 478 27
5 5 -2 11213 445 27
5 5 -3 2258 109 27
4 5 -2 6128 240 27
4 4 -2 3638 146 27
3 3 -1 16517 663 27
3 3 -2 18504 749 27
11 10 3 577 238 27
10 11 1 505 197 27
10 9 -1 382 150 27
10 8 1 392 172 27
10 8 0 1151 193 27
9 9 2 327 161 27
9 8 0 4470 279 27
8 9 1 272 127 27
8 8 2 541 132 27
8 8 1 2755 207 27
8 8 0 262 122 27
8 7 1 1609 158 27
8 7 0 4226 236 27
8 6 0 1406 137 27
7 8 1 13551 567 27
7 7 1 872 123 27
7 7 0 2622 166 27
7 6 1 5097 244 27
7 6 0 2443 150 27
7 5 0 1816 118 27
6 7 1 17877 711 27
6 6 1 7046 299 27
6 6 0 757 89 27
6 5 1 1356 96 27
5 5 1 255 63 27
5 5 0 4962 202 27
5 4 0 65625 2466 27
4 4 1 2562 105 27
4 4 0 2364 97 27
4 3 0 11268 420 27
3 3 0 1543 64 27
10 10 7 1629 552 27
10 8 5 673 307 27
8 10 6 812 287 27
8 8 7 1110 388 27
8 8 6 625 282 27
8 7 5 1612 280 27
8 7 4 512 183 27
8 6 5 891 247 27
8 6 4 546 173 27
7 7 6 590 280 27
7 7 4 4471 276 27
7 6 4 3908 260 27
6 8 5 939 173 27
6 7 5 1451 196 27
6 7 4 2643 191 27
6 6 5 1934 212 27
6 6 4 1183 148 27
6 6 3 555 93 27
6 5 4 923 140 27
6 5 3 5131 242 27
6 4 3 6368 287 27
5 7 4 11672 489 27
5 6 4 11612 483 27
5 5 4 924 118 27
5 5 3 4916 219 27
5 4 3 3138 158 27
4 5 3 594 78 27
4 4 3 316 69 27
4 4 2 47682 1810 27
4 3 2 1136 68 27
3 3 2 8602 327 27
2 2 1 937 40 27
5 9 8 1789 482 27
5 7 7 1825 394 27
4 6 6 12454 675 27
4 5 6 7450 585 27
4 5 5 2227 180 27
4 4 5 1944 240 27
3 9 7 1948 381 27
3 7 6 10040 578 27
3 6 6 9924 641 27
3 5 5 1064 173 27
3 4 5 1287 276 27
3 4 4 1886 113 27
3 3 4 9584 430 27
2 8 6 1804 314 27
2 7 6 907 318 27
2 6 5 747 185 27
2 5 5 8660 503 27
2 3 3 1912 86 27
1 5 4 12026 506 27
1 4 3 3789 149 27
1 3 3 2533 122 27
1 2 2 2378 90 27
0 4 -16 431 180 27
0 3 -11 9497 395 27
0 3 -13 1395 142 27
0 3 -14 3398 218 27
0 3 -15 335 135 27
0 3 -16 3607 259 27
0 3 -17 1271 202 27
0 3 -18 1368 232 27
0 2 -8 6374 246 27
0 2 -9 14089 541 27
0 2 -10 198 72 27
0 2 -11 175 81 27
0 2 -12 3878 196 27
0 2 -13 2442 161 27
0 1 -5 8516 342 27
0 1 -6 41459 1555 27
-1 4 -14 9204 452 27
-1 4 -15 1293 190 27
-1 3 -11 2018 145 27
-1 3 -12 2279 163 27
-1 3 -13 2391 181 27
-1 3 -14 7822 383 27
-1 3 -17 1390 221 27
-1 2 -9 2016 110 27
-1 2 -10 9482 387 27
-1 2 -11 554 100 27
-1 2 -12 215 102 27
-1 2 -16 575 168 27
-2 3 -16 2424 241 27
-2 3 -17 1729 265 27
9 8 -9 1017 198 27
9 7 -7 417 146 27
8 8 -8 374 156 27
8 7 -7 305 141 27
8 7 -8 479 130 27
8 6 -7 1634 160 27
8 6 -8 277 135 27
8 6 -9 388 137 27
7 7 -6 1915 158 27
7 7 -7 332 125 27
7 6 -6 482 110 27
7 6 -7 247 111 27
7 6 -8 268 121 27
7 5 -7 1633 139 27
6 6 -5 818 96 27
6 6 -6 4632 227 27
6 5 -5 307 83 27
6 5 -6 8875 380 27
6 5 -7 310 93 27
6 4 -6 364 74 27
5 5 -5 3986 179 27
5 4 -4 13994 541 27
5 4 -5 4791 199 27
4 4 -4 236 45 27
4 3 -4 2088 92 27
3 3 -3 21140 830 27
3 2 -3 57649 2350 27
11 8 -3 610 216 27
11 8 -4 443 194 27
11 7 -4 432 198 27
11 7 -5 338 164 27
10 7 -2 5291 352 27
10 7 -4 899 167 27
9 8 -2 2594 225 27
9 7 -3 1378 171 27
9 7 -4 631 135 27
9 6 -2 663 147 27
9 6 -3 612 144 27
9 6 -4 525 127 27
9 5 -3 300 122 27
9 5 -4 553 132 27
8 7 -2 453 132 27
8 6 -2 2826 187 27
8 6 -3 1086 131 27
7 6 -2 1466 125 27
7 5 -1 929 101 27
7 5 -2 182 87 27
7 5 -3 1951 129 27
7 4 -3 4446 210 27
6 5 -2 268 69 27
6 4 -1 2007 113 27
6 4 -2 5480 231 27
5 4 -2 10074 385 27
5 3 -2 8719 333 27
4 3 -1 283 36 27
4 3 -2 6343 241 27
3 2 -1 14239 575 27
11 4 0 377 186 27
10 6 0 407 152 27
10 5 1 416 167 27
10 5 0 483 160 27
9 7 3 1632 224 27
9 7 2 556 161 27
9 6 3 1979 242 27
9 6 1 300 130 27
9 5 1 324 143 27
9 5 0 521 134 27
9 4 1 440 138 27
9 4 0 307 123 27
8 5 2 943 142 27
8 5 1 3490 200 27
8 5 0 1060 111 27
8 4 2 3243 212 27
8 4 0 3476 190 27
8 3 0 399 110 27
7 5 2 2021 147 27
7 5 1 3372 171 27
7 4 1 1109 112 27
7 4 0 1663 112 27
7 3 1 6566 278 27
7 3 0 284 80 27
6 5 2 5147 219 27
6 4 1 15818 585 27
6 3 1 905 88 27
6 3 0 1209 77 27
5 3 1 2459 110 27
5 3 0 526 45 27
5 2 0 298 44 27
4 3 1 4491 165 27
4 2 1 13836 491 27
4 2 0 443 30 27
3 2 1 538 28 27
10 4 5 3926 730 27
10 3 4 1129 446 27
9 8 8 2147 620 27
9 5 5 5135 557 27
9 4 4 1644 356 27
9 3 4 5761 580 27
8 4 4 9280 537 27
8 3 5 4831 675 27
8 3 4 1233 312 27
8 2 4 1383 397 27
7 5 6 13409 870 27
7 5 5 3126 315 27
7 4 5 5284 459 27
7 4 4 3310 263 27
7 3 5 12075 857 27
7 3 4 489 222 27
7 2 4 2121 381 27
7 1 2 1412 192 27
6 6 6 2373 302 27
6 5 5 1825 207 27
6 4 5 12570 658 27
6 4 4 2570 186 27
6 3 5 6406 574 27
6 3 4 1655 214 27
6 2 3 8976 399 27
6 1 2 1976 168 27
5 5 5 828 162 27
5 4 4 3676 183 27
5 3 3 3164 151 27
4 4 4 5949 237 27
4 3 3 2527 113 27
4 2 3 3825 169 27
4 2 2 12415 428 27
3 3 3 8275 287 27
3 2 2 13263 450 27
3 1 2 16628 558 27
2 2 2 14586 490 27
2 1 1 15447 511 27
1 1 1 57400 2155 27
11 5 -8 332 161 27
10 6 -7 467 154 27
10 6 -9 395 150 27
10 5 -8 374 157 27
9 5 -5 1658 169 27
9 5 -7 837 139 27
9 4 -6 1746 166 27
9 4 -7 1340 164 27
8 5 -5 1027 126 27
8 5 -7 2423 177 27
8 4 -6 775 121 27
7 4 -4 762 93 27
7 4 -5 5387 263 27
7 4 -6 3360 187 27
7 3 -5 1085 96 27
7 3 -6 773 91 27
6 4 -4 294 68 27
6 3 -4 12911 553 27
6 3 -5 363 68 27
5 3 -3 1020 64 27
5 3 -4 6756 285 27
5 2 -4 18751 771 27
4 2 -3 2152 94 27
3 2 -2 422 28 27
11 6 -2 343 159 27
11 5 -2 570 184 27
11 4 -3 358 175 27
11 4 -4 390 158 27
10 5 -1 641 161 27
10 4 -1 720 175 27
10 3 -3 347 144 27
9 5 -1 1605 164 27
9 4 -1 636 141 27
9 4 -2 2034 179 27
8 3 -1 500 110 27
8 3 -2 779 113 27
8 3 -3 298 102 27
8 2 -3 1179 114 27
7 3 -1 354 88 27
7 3 -2 168 80 27
7 2 -2 506 83 27
6 3 -1 2186 117 27
6 2 -2 2769 135 27
5 2 -1 4089 171 27
4 2 -1 3925 159 27
3 1 -1 24981 1028 27
11 3 3 1503 487 27
10 4 3 2807 454 27
10 2 1 860 312 27
10 1 1 921 327 27
10 0 -1 915 325 27
9 4 3 940 243 27
9 3 1 663 172 27
9 2 1 615 199 27
9 2 0 502 178 27
9 1 1 833 286 27
8 2 2 1855 248 27
8 2 1 482 156 27
8 1 1 811 209 27
8 1 0 1433 189 27
7 2 1 1757 152 27
7 2 0 902 103 27
7 0 -1 2756 187 27
6 2 1 1755 123 27
6 1 1 1072 123 27
6 0 -1 14250 604 27
5 1 1 9564 408 27
5 1 0 248 61 27
4 1 1 4653 200 27
4 1 0 3051 130 27
7 -1 1 1652 419 27
7 -4 -3 2096 449 27
6 0 2 856 271 27
6 -3 -2 6433 484 27
5 0 2 3255 333 27
5 -2 0 7902 605 27
5 -2 -1 3180 224 27
5 -3 -2 3886 346 27
4 0 2 10472 600 27
4 -1 0 526 83 27
4 -2 -1 27845 1137 27
3 -1 0 8683 346 27
3 -2 -1 6107 279 27
3 -3 -2 7586 453 27
2 0 1 56494 2160 27
2 -1 0 1476 76 27
1 15 -2 1012 242 28
1 14 -2 760 188 28
1 14 -3 2554 274 28
1 13 -3 349 156 28
1 13 -4 555 165 28
1 13 -5 928 201 28
1 12 -4 616 152 28
1 11 -2 4673 286 28
1 11 -3 1281 161 28
1 11 -4 605 147 28
1 10 -2 3286 210 28
1 10 -3 2822 195 28
1 9 -2 3581 204 28
1 9 -3 1306 118 28
1 8 -2 4009 211 28
1 7 -2 3790 187 28
0 11 -3 12374 645 28
0 10 -2 187 93 28
0 9 -2 366 85 28
0 8 -2 1760 117 28
0 7 -2 131 57 28
0 5 -1 1339 68 28
0 4 -1 426 27 28
5 13 -2 1746 233 28
4 14 -1 537 182 28
4 14 -2 362 172 28
4 14 -4 363 171 28
4 13 -1 1894 217 28
4 12 -1 5976 344 28
4 12 -3 2801 229 28
4 11 -3 1156 152 28
3 13 -2 3605 266 28
3 12 -1 4242 264 28
3 12 -2 4029 258 28
3 11 -3 2605 186 28
3 10 -1 6360 312 28
3 10 -2 2376 163 28
3 10 -3 2624 170 28
3 9 -1 5419 265 28
3 9 -2 675 100 28
3 9 -3 1529 122 28
3 8 -2 181 72 28
2 9 -2 8435 379 28
2 8 -1 1195 89 28
2 8 -2 997 81 28
2 7 -1 587 62 28
2 7 -2 13089 549 28
2 6 -1 1880 92 28
2 6 -2 11660 478 28
1 4 -1 2885 127 28
7 14 1 995 343 28
7 13 1 1446 374 28
7 13 0 1460 315 28
6 15 3 715 295 28
6 13 2 761 266 28
6 13 0 454 221 28
6 12 2 1176 269 28
6 12 1 1079 213 28
6 12 0 2375 269 28
6 10 -1 1439 190 28
5 12 2 2133 237 28
5 11 2 864 182 28
5 11 1 411 156 28
5 11 0 2346 213 28
5 10 1 664 152 28
5 10 -1 425 137 28
5 9 1 1675 173 28
5 9 0 473 122 28
4 9 1 1800 144 28
4 9 0 4097 220 28
4 8 1 1121 118 28
4 7 0 6122 281 28
4 7 -1 13528 575 28
3 7 1 1260 97 28
3 7 0 18834 780 28
3 6 1 6455 279 28
3 6 0 16122 665 28
2 5 1 8082 326 28
2 4 0 1772 77 28
7 10 3 1838 413 28
6 12 7 3568 666 28
6 11 6 1236 382 28
6 9 4 856 319 28
6 9 3 1203 288 28
5 13 8 1231 462 28
5 12 8 1518 512 28
5 12 7 5327 607 28
5 11 8 2994 639 28
5 11 6 1742 362 28
5 10 5 1108 282 28
5 10 4 6527 427 28
5 9 5 3589 379 28
5 8 3 3201 264 28
5 7 2 4209 274 28
4 9 5 1571 215 28
4 8 4 506 144 28
4 7 4 4311 277 28
4 7 3 1808 155 28
4 7 2 41019 1622 28
4 6 2 11885 498 28
3 7 5 12889 581 28
3 7 4 6332 290 28
3 6 4 250 100 28
3 6 3 6833 293 28
3 5 2 1339 89 28
2 5 3 8747 357 28
2 4 2 267 43 28
2 3 1 9276 366 28
1 2 1 4579 190 28
-3 2 0 32117 1262 28
-4 3 0 4597 190 28
-4 2 0 13463 536 28
-4 2 -1 690 43 28
-5 4 1 337 71 28
-5 3 0 15712 651 28
-5 3 -1 4798 210 28
-6 5 1 10367 462 28
-6 4 1 180 79 28
-6 4 0 725 98 28
-6 4 -1 3192 174 28
-6 3 0 185 84 28
-6 3 -1 5367 252 28
-7 5 1 735 131 28
-7 5 0 1298 142 28
-7 5 -1 512 121 28
-7 4 0 228 109 28
-7 4 -1 1655 147 28
-8 6 1 341 150 28
-8 5 1 665 165 28
-8 5 0 3831 260 28
-8 4 0 955 156 28
-8 4 -1 362 138 28
-9 6 1 1163 214 28
-9 6 -1 348 171 28
4 13 -7 975 205 28
3 13 -6 560 177 28
3 13 -7 348 170 28
3 12 -5 316 151 28
3 12 -8 992 175 28
3 11 -7 398 141 28
3 10 -5 1835 160 28
3 10 -6 5904 307 28
2 13 -6 2807 249 28
2 13 -7 662 180 28
2 11 -4 11345 506 28
2 11 -5 3790 236 28
2 10 -3 388 101 28
2 10 -5 9508 429 28
2 10 -6 7709 366 28
2 9 -4 2637 157 28
2 9 -5 6514 301 28
2 9 -6 738 105 28
2 8 -3 2640 139 28
2 8 -4 439 81 28
2 8 -5 1029 101 28
2 7 -3 231 62 28
2 7 -4 3594 165 28
1 8 -4 5492 237 28
1 6 -3 4190 170 28
1 5 -2 11406 435 28
1 5 -3 1905 83 28
1 4 -2 6413 259 28
7 13 -3 565 239 28
7 13 -4 958 256 28
7 12 -4 591 232 28
6 12 -4 675 198 28
6 11 -4 642 180 28
6 11 -6 3048 276 28
6 10 -3 468 155 28
6 10 -5 480 151 28
5 11 -4 1300 171 28
5 10 -2 4098 240 28
5 10 -3 736 146 28
5 10 -4 743 142 28
5 10 -5 1060 159 28
5 9 -4 804 132 28
5 8 -3 997 124 28
5 8 -4 2553 168 28
4 9 -2 426 99 28
4 9 -3 6710 305 28
4 8 -2 474 94 28
4 8 -3 747 99 28
4 8 -4 1826 134 28
4 7 -2 240 80 28
4 7 -3 7079 300 28
4 7 -4 295 83 28
3 7 -3 684 70 28
3 6 -2 3005 133 28
3 6 -3 1533 88 28
3 5 -3 8868 342 28
2 4 -1 11317 427 28
2 4 -2 5553 212 28
8 10 -2 728 297 28
8 10 -3 600 291 28
7 10 1 642 297 28
7 9 0 1149 289 28
7 8 -1 5302 440 28
7 8 -2 1309 249 28
7 7 -3 1724 277 28
6 9 1 1055 197 28
6 9 0 360 155 28
6 8 -2 548 151 28
6 7 0 26747 1173 28
6 7 -1 1982 210 28
6 7 -2 5164 304 28
6 6 -3 848 154 28
5 8 1 451 131 28
5 7 0 296 120 28
5 7 -1 8709 378 28
5 6 0 4500 241 28
5 6 -1 3979 211 28
5 6 -2 10337 430 28
5 5 -2 8308 354 28
4 6 0 54958 2089 28
4 5 0 2655 137 28
4 5 -1 177 71 28
4 4 -2 3360 152 28
3 4 0 501 52 28
3 4 -1 11300 432 28
2 3 0 3162 120 28
2 2 -1 1319 53 28
6 7 3 1732 470 28
5 7 4 10864 695 28
5 5 2 5462 514 28
4 7 5 2472 293 28
4 5 2 1718 129 28
4 4 2 28982 1400 28
4 4 1 1655 146 28
4 3 0 7389 371 28
3 6 5 10914 532 28
3 5 4 17445 745 28
3 4 2 220 64 28
3 3 1 1363 90 28
2 3 2 4941 182 28
2 2 1 553 44 28
1 2 2 2295 87 28
-3 2 -1 30540 1150 28
-3 2 -2 2200 89 28
-4 3 -2 2204 97 28
-4 2 -2 4809 185 28
-4 2 -3 2184 93 28
-5 4 -3 36605 1399 28
-5 3 -2 991 78 28
-5 3 -3 10998 431 28
-6 4 -2 1766 126 28
-6 4 -3 1904 131 28
-6 4 -4 6948 306 28
-6 3 -3 2551 145 28
-6 3 -4 31184 1215 28
-7 5 -2 613 118 28
-7 5 -3 244 118 28
-7 5 -4 999 136 28
-7 5 -5 295 121 28
-8 6 -3 1461 175 28
-8 6 -4 1689 189 28
-8 6 -5 1007 164 28
-8 5 -4 1375 180 28
-8 4 -3 966 160 28
-8 4 -4 283 124 28
-9 7 -3 467 186 28
-9 5 -5 1343 193 28
-10 5 -4 697 197 28
1 12 -7 1372 202 28
1 12 -8 539 189 28
1 12 -9 445 182 28
1 11 -7 310 147 28
1 11 -9 445 163 28
1 11 -11 1346 216 28
1 10 -6 3503 224 28
1 10 -7 3395 229 28
1 10 -8 929 151 28
1 10 -9 784 165 28
1 9 -6 6969 328 28
1 9 -7 4598 250 28
1 9 -9 1617 170 28
1 8 -5 21285 859 28
1 8 -6 3880 203 28
1 8 -7 13925 584 28
1 8 -8 1829 148 28
1 7 -5 781 85 28
1 7 -6 11930 489 28
1 6 -5 886 73 28
1 5 -4 19311 734 28
0 11 -8 425 157 28
0 11 -9 786 178 28
0 11 -10 716 191 28
0 8 -6 1235 118 28
0 8 -7 5140 253 28
0 7 -6 6627 286 28
0 6 -5 870 73 28
0 5 -4 1218 69 28
0 4 -3 8615 342 28
5 11 -8 458 192 28
5 11 -10 475 189 28
5 10 -7 3003 266 28
5 10 -8 2597 257 28
5 10 -9 414 174 28
5 9 -7 2249 227 28
5 9 -8 664 170 28
4 11 -8 410 165 28
4 10 -6 3709 259 28
4 10 -7 2664 233 28
4 9 -6 5239 290 28
4 9 -7 1082 158 28
4 9 -8 1550 187 28
4 9 -10 321 158 28
4 8 -6 778 135 28
4 8 -7 6546 328 28
4 8 -9 829 160 28
3 9 -7 2611 189 28
3 8 -5 6000 280 28
3 8 -6 17002 705 28
3 7 -4 12742 516 28
3 7 -5 2634 149 28
3 7 -7 5517 266 28
3 6 -4 494 66 28
3 6 -5 17551 697 28
3 6 -6 1868 122 28
2 6 -5 391 62 28
2 5 -3 857 54 28
2 5 -4 34538 1293 28
2 5 -5 272 48 28
2 4 -3 3365 133 28
2 4 -4 1056 57 28
9 9 -8 982 349 28
8 11 -7 1229 312 28
8 9 -9 706 280 28
7 10 -8 1330 267 28
7 9 -6 571 179 28
7 9 -8 534 213 28
7 8 -5 1034 214 28
7 8 -7 481 199 28
7 8 -8 1748 298 28
7 8 -9 525 219 28
7 7 -6 1043 224 28
7 7 -7 555 199 28
7 7 -8 579 204 28
7 7 -9 473 210 28
7 7 -10 728 229 28
6 8 -4 482 142 28
6 8 -5 565 145 28
6 8 -7 549 159 28
6 7 -4 983 156 28
6 7 -6 728 156 28
6 7 -7 722 153 28
6 7 -8 1657 192 28
6 6 -5 516 144 28
6 6 -6 2789 216 28
6 6 -7 563 153 28
6 6 -8 978 165 28
5 7 -4 220 103 28
5 7 -5 5687 264 28
5 7 -6 851 123 28
5 6 -4 348 102 28
5 6 -5 227 104 28
5 6 -6 3090 180 28
5 5 -4 2153 142 28
5 5 -5 2986 169 28
5 5 -6 6463 285 28
5 5 -7 9589 398 28
4 5 -3 259 70 28
4 5 -4 737 81 28
4 5 -5 24483 894 28
4 4 -3 656 67 28
4 4 -4 172 69 28
3 4 -2 274 43 28
3 4 -3 14260 508 28
3 3 -3 20330 720 28
3 3 -4 3372 131 28
2 2 -2 2105 76 28
9 8 -2 2414 714 28
8 7 -1 12152 1095 28
8 5 -7 2108 464 28
7 7 0 2114 399 28
7 6 -1 873 389 28
7 6 -2 941 319 28
7 6 -3 2517 331 28
7 5 -3 1681 349 28
7 5 -4 2099 382 28
7 4 -5 2813 466 28
7 4 -6 2264 391 28
6 6 0 888 241 28
6 5 -2 723 192 28
6 5 -3 922 182 28
6 5 -4 1249 150 28
6 4 -2 2740 375 28
6 4 -3 1004 254 28
6 4 -4 374 187 28
6 3 -4 7166 561 28
6 3 -6 5679 416 28
5 5 0 3339 205 28
5 4 -2 6669 292 28
5 3 -2 5667 357 28
5 3 -3 530 153 28
5 3 -4 3828 216 28
4 4 0 1804 107 28
4 3 -2 4818 190 28
4 3 -3 31154 1051 28
4 2 -3 1591 121 28
3 3 0 1339 66 28
3 2 -1 10829 369 28
2 2 0 5745 194 28
2 1 -2 23396 784 28
4 10 -12 854 219 28
3 10 -10 514 171 28
3 9 -10 462 164 28
3 9 -12 416 172 28
3 8 -10 2030 195 28
2 10 -11 1568 218 28
2 9 -11 432 159 28
2 9 -13 439 167 28
2 8 -8 3023 199 28
2 8 -9 4508 264 28
2 8 -10 1553 166 28
2 8 -11 1796 196 28
2 7 -7 7982 373 28
2 7 -8 321 105 28
2 7 -11 1447 163 28
2 6 -8 1587 127 28
2 6 -9 1739 133 28
2 5 -6 1405 85 28
1 6 -7 5121 240 28
1 5 -6 8920 375 28
1 4 -4 3141 133 28
1 4 -5 5817 244 28
1 4 -6 41501 1689 28
1 3 -4 9126 387 28
6 9 -9 878 207 28
6 8 -11 870 237 28
5 8 -9 4664 305 28
5 8 -10 1560 204 28
5 7 -8 1548 171 28
5 7 -9 3937 262 28
5 7 -10 540 159 28
5 7 -11 1009 185 28
5 7 -12 577 173 28
5 6 -8 914 143 28
5 6 -11 2104 218 28
4 7 -9 564 132 28
4 6 -6 571 100 28
4 6 -7 1529 132 28
4 6 -9 293 120 28
4 6 -10 814 134 28
4 5 -8 5204 257 28
4 5 -9 987 126 28
3 5 -6 25132 1016 28
3 5 -7 1482 107 28
3 4 -5 3106 142 28
3 4 -6 1006 81 28
3 4 -7 26717 1082 28
3 4 -8 2599 143 28
2 3 -3 2410 98 28
2 3 -4 16153 629 28
2 3 -5 2032 88 28
7 6 -10 512 232 28
7 5 -7 1530 286 28
7 5 -8 2208 367 28
7 4 -9 2943 444 28
7 4 -10 969 376 28
7 4 -11 2267 446 28
6 5 -6 5501 345 28
6 5 -9 1606 236 28
6 4 -8 1098 225 28
6 4 -9 6342 447 28
6 4 -10 3912 357 28
6 3 -8 2903 349 28
6 3 -9 681 259 28
6 3 -10 4312 429 28
5 4 -5 3334 205 28
5 4 -6 779 127 28
5 4 -8 8194 407 28
5 3 -6 2973 209 28
5 3 -7 2621 205 28
5 3 -8 1513 184 28
5 3 -9 1292 182 28
4 3 -4 1814 116 28
4 3 -5 14721 619 28
4 3 -6 1013 102 28
4 2 -6 3019 176 28
4 2 -7 15291 656 28
4 2 -8 372 113 28
3 2 -4 6627 279 28
3 2 -5 750 66 28
2 1 -3 2679 110 28
2 1 -4 309 29 28
5 1 -7 2025 373 28
4 1 -4 2462 295 28
4 1 -6 985 134 28
4 0 -7 1282 305 28
4 0 -8 6151 474 28
3 0 -5 12218 578 28
3 0 -6 5468 273 28
3 -1 -9 1140 261 28
2 0 -3 26820 1045 28
2 0 -4 7944 314 28
2 -1 -6 9665 455 28
2 -1 -7 703 116 28
2 -2 -9 7411 553 28
1 0 -2 3764 142 28
1 -1 -4 25650 995 28
0 0 20 468 194 29
0 0 18 306 144 29
0 0 17 2203 217 29
0 0 16 3225 242 29
0 0 15 259 123 29
0 0 14 3410 211 29
0 0 13 366 93 29
0 0 12 376 79 29
0 0 11 3605 187 29
0 0 10 47505 2165 29
0 0 9 39633 1793 29
0 0 8 1683 85 29
0 0 7 2982 144 29
0 0 6 47456 2353 29
-1 0 18 2658 245 29
-1 0 17 3884 284 29
-1 0 16 7953 447 29
-1 0 15 3324 227 29
-1 0 13 2380 159 29
-1 0 12 8859 440 29
-1 0 11 7375 358 29
-1 -1 20 1637 248 29
-1 -1 19 493 177 29
-1 -1 18 2749 251 29
-1 -1 17 1384 177 29
-1 -1 16 411 137 29
-1 -1 15 9381 500 29
-1 -1 13 8742 444 29
-1 -1 12 1843 127 29
-1 -2 20 1870 271 29
-1 -2 19 663 203 29
-2 -1 19 1142 204 29
-2 -1 17 3883 292 29
-2 0 9 1382 80 29
-2 -1 11 2426 129 29
-2 -1 10 10522 451 29
-2 -1 9 2213 111 29
-2 -1 8 7930 329 29
-2 -1 7 8917 365 29
-3 0 14 697 115 29
-3 0 13 4755 247 29
-3 -1 16 4274 270 29
-3 -1 15 260 107 29
-3 -1 14 3875 219 29
-3 -1 13 2192 156 29
-3 -1 12 12738 566 29
-3 -1 11 2975 165 29
-3 -1 10 24426 1037 29
-3 -2 12 932 107 29
-3 -2 11 323 77 29
-4 0 18 469 173 29
-4 0 17 762 169 29
-4 -1 18 1142 206 29
-4 -1 17 2029 217 29
-4 -1 16 324 130 29
-4 -1 15 544 139 29
-4 -1 14 582 130 29
-4 -1 13 993 120 29
-4 -2 17 839 168 29
-4 -2 14 1324 150 29
-5 -1 19 473 198 29
-5 -1 17 987 190 29
-2 0 5 9639 386 29
-2 0 4 8552 342 29
-3 0 8 414 49 29
-3 0 7 241 53 29
-3 0 6 7381 309 29
-3 -1 6 20654 843 29
-4 0 10 426 89 29
-4 0 9 280 82 29
-4 0 8 7184 318 29
-4 -1 10 3318 179 29
-4 -1 9 2953 161 29
-4 -1 8 3365 170 29
-5 0 12 1974 176 29
-5 0 11 1885 160 29
-5 0 10 344 101 29
-5 -1 13 6485 344 29
-5 -1 11 8606 411 29
-5 -1 10 2095 162 29
-5 -2 10 373 110 29
-6 0 13 3496 299 29
-6 0 12 3384 272 29
-6 -1 13 625 172 29
-6 -2 12 964 170 29
-7 -1 14 1312 276 29
-2 1 4 63 30 29
-3 2 7 2045 105 29
-3 2 6 3123 151 29
-3 1 5 37577 1480 29
-3 0 4 452 47 29
-4 2 8 856 111 29
-4 1 7 3589 181 29
-4 1 6 1113 103 29
-5 3 11 621 180 29
-5 3 10 672 207 29
-5 2 10 6934 376 29
-5 2 9 1216 186 29
-5 2 8 897 181 29
-5 0 7 1971 160 29
-6 4 13 883 342 29
-6 3 12 8324 639 29
-6 3 10 2167 373 29
-6 2 12 2439 283 29
-6 2 11 2004 299 29
-6 2 10 1843 289 29
-7 3 14 1322 410 29
-7 2 11 2438 455 29
9 7 13 797 227 29
9 6 14 436 203 29
9 6 13 1307 240 29
9 6 11 980 224 29
9 5 14 529 201 29
9 4 10 790 172 29
8 6 12 607 174 29
8 4 10 1016 160 29
7 6 12 1682 189 29
7 5 10 1923 177 29
7 4 11 2670 197 29
7 4 10 871 132 29
7 4 8 787 122 29
7 3 8 304 102 29
6 5 10 373 112 29
6 4 9 1086 117 29
6 4 8 2965 175 29
6 4 7 31219 1302 29
6 3 8 1858 132 29
6 3 7 4965 242 29
5 4 8 3055 166 29
5 3 8 13890 582 29
5 3 7 221 70 29
5 3 6 34728 1424 29
4 3 6 23125 934 29
4 2 5 3087 132 29
3 2 4 423 35 29
-1 -1 8 12147 466 29
-1 -1 7 10455 401 29
-1 -1 6 3845 156 29
-1 -1 5 33145 1370 29
-1 -2 11 2588 134 29
-1 -2 10 2288 114 29
-1 -2 9 5855 235 29
-1 -2 8 228 44 29
-1 -2 7 31964 1225 29
-2 -2 16 796 141 29
-2 -2 14 426 107 29
-2 -2 13 1229 115 29
-2 -2 12 501 87 29
-2 -2 11 458 80 29
-2 -2 10 8473 348 29
-2 -2 9 4774 200 29
-2 -3 19 562 173 29
-2 -3 18 307 147 29
-2 -3 17 1470 171 29
-2 -3 16 247 120 29
-2 -3 15 2106 174 29
-2 -3 14 370 111 29
-2 -3 12 4764 230 29
-2 -3 11 1802 113 29
-2 -4 18 484 152 29
-2 -4 17 733 154 29
-2 -4 15 3324 220 29
-3 -2 19 378 146 29
-3 -3 19 736 206 29
-3 -3 16 1905 185 29
-3 -3 15 1762 173 29
-3 -3 14 254 115 29
-3 -4 17 835 174 29
-3 -4 16 976 170 29
-2 -1 5 1553 66 29
-2 -2 5 5695 215 29
-3 -2 9 781 73 29
-3 -2 8 12310 481 29
-3 -2 7 4128 172 29
-3 -2 6 4293 172 29
-3 -3 8 4282 184 29
-3 -3 7 5189 214 29
-4 -2 11 5344 249 29
-4 -2 10 2900 160 29
-4 -2 9 2476 133 29
-4 -3 11 318 98 29
-4 -3 9 13297 538 29
-4 -4 11 1232 122 29
-4 -4 10 363 99 29
-5 -2 13 236 111 29
-5 -3 14 435 140 29
-5 -3 13 263 121 29
-5 -3 11 2698 183 29
-5 -3 10 4606 239 29
-5 -4 14 952 152 29
-5 -4 11 317 113 29
-5 -5 13 967 160 29
-6 -3 17 425 187 29
-6 -4 15 930 206 29
-6 -4 13 308 150 29
-6 -6 15 406 196 29
-2 -1 3 2722 105 29
-3 -1 4 1228 66 29
-3 -2 4 6487 253 29
-4 -1 6 1183 89 29
-4 -2 6 3308 155 29
-4 -2 5 626 77 29
-5 -1 7 2093 150 29
-5 -2 8 864 119 29
-5 -2 6 629 112 29
-5 -3 7 2714 168 29
-5 -3 6 2671 169 29
-6 -1 10 1339 184 29
-6 -1 9 1871 202 29
-6 -2 8 5234 312 29
-6 -2 7 587 171 29
-6 -3 9 584 153 29
-6 -3 8 2635 219 29
-6 -3 7 549 149 29
-6 -4 8 1015 165 29
-7 -3 11 706 225 29
-7 -3 9 814 229 29
-7 -3 8 1246 279 29
-7 -4 10 787 225 29
-7 -4 9 2415 292 29
-7 -5 8 2673 320 29
-8 -4 12 682 264 29
-8 -4 10 2866 470 29
-1 0 1 775 28 29
-2 1 3 9755 350 29
-2 0 2 19566 697 29
-3 2 5 4849 202 29
-3 2 4 2046 208 29
-3 0 3 1287 81 29
-3 -1 2 43432 1570 29
-4 4 7 1359 391 29
-4 3 7 3617 268 29
-4 3 6 627 295 29
-4 0 4 7463 336 29
-4 -1 3 11411 522 29
-5 3 8 622 289 29
-5 2 7 1269 268 29
-5 1 6 5048 373 29
-5 -1 4 4386 376 29
-6 1 7 1125 346 29
-6 0 6 1146 387 29
10 4 14 861 251 29
10 3 13 464 183 29
10 2 12 1408 232 29
9 3 14 1409 225 29
9 3 10 856 167 29
9 2 14 531 177 29
9 2 13 718 172 29
9 2 11 318 155 29
9 1 11 4609 321 29
8 3 13 564 155 29
8 3 11 3096 234 29
8 3 10 623 141 29
8 2 13 3448 260 29
8 2 10 351 140 29
8 1 10 819 144 29
7 3 11 2549 192 29
7 3 10 402 112 29
7 2 11 1537 150 29
7 2 10 2020 159 29
7 2 9 1193 127 29
7 2 8 2446 165 29
7 1 10 249 100 29
7 1 9 2259 163 29
7 1 8 829 110 29
6 2 8 476 90 29
6 2 7 424 84 29
6 1 9 229 85 29
6 1 8 16178 645 29
6 1 7 10901 443 29
5 2 8 150 68 29
5 2 7 3172 147 29
5 1 8 136 67 29
5 1 7 4903 205 29
5 1 6 5952 240 29
4 1 6 7614 288 29
4 1 5 16028 596 29
3 1 4 542 35 29
1 -4 18 572 188 29
0 -2 11 269 67 29
0 -2 10 180 64 29
0 -2 9 13627 527 29
0 -2 8 6224 244 29
0 -2 7 8728 332 29
0 -2 6 434 39 29
0 -3 16 4377 268 29
0 -3 14 3783 220 29
0 -3 13 1298 127 29
0 -3 11 9739 405 29
0 -3 10 3617 168 29
0 -3 9 883 74 29
0 -3 8 1054 65 29
0 -4 16 1039 168 29
0 -4 14 5327 286 29
0 -4 13 398 111 29
0 -4 12 4527 228 29
0 -4 11 877 104 29
0 -5 16 334 147 29
0 -5 14 10333 489 29
0 -6 16 341 160 29
-1 -4 16 1128 183 29
-1 -4 15 5135 294 29
-1 -4 13 282 116 29
-1 -4 12 4948 245 29
-1 -5 18 355 172 29
-1 -2 5 12211 474 29
-1 -2 4 1052 49 29
-2 -3 9 901 81 29
-2 -3 8 30159 1161 29
-2 -3 7 11551 447 29
-2 -3 6 58511 2186 29
-2 -4 11 680 102 29
-2 -4 10 3064 162 29
-2 -4 9 1097 94 29
-2 -4 8 19850 781 29
-3 -4 13 2445 184 29
-3 -4 10 345 96 29
-3 -4 9 5683 259 29
-3 -5 15 1822 208 29
-3 -5 14 737 159 29
-3 -5 13 645 141 29
-3 -5 12 2287 173 29
-3 -5 11 318 108 29
-3 -5 10 289 106 29
-3 -6 16 990 213 29
-3 -6 15 2309 248 29
-3 -6 14 6841 396 29
-3 -6 13 1583 190 29
-3 -6 12 289 128 29
-3 -6 11 2553 194 29
-3 -7 15 1281 221 29
-3 -7 13 1100 191 29
-4 -5 16 1941 248 29
-4 -6 16 379 179 29
-4 -6 15 417 203 29
-4 -6 14 1260 198 29
-4 -6 13 392 160 29
-4 -7 16 1090 244 29
-4 -7 15 680 218 29
-4 -8 15 662 212 29
-5 -6 16 559 233 29
-5 -6 15 1785 256 29
-5 -7 14 965 230 29
-2 -2 4 408 26 29
-2 -2 3 5720 202 29
-2 -3 3 2471 91 29
-3 -2 5 881 50 29
-3 -3 6 4977 191 29
-3 -3 5 7423 276 29
-3 -3 4 3286 132 29
-3 -4 5 2854 125 29
-4 -3 7 18069 669 29
-4 -3 6 915 76 29
-4 -4 8 21157 783 29
-4 -4 7 3021 154 29
-4 -4 6 163 80 29
-4 -5 8 4008 199 29
-4 -6 6 437 97 29
-5 -4 9 874 129 29
-5 -4 8 7882 344 29
-5 -5 10 367 115 29
-5 -5 9 631 124 29
-5 -5 7 7637 340 29
-5 -6 10 346 127 29
-5 -6 9 265 118 29
-5 -6 8 552 138 29
-5 -6 7 607 132 29
-5 -7 8 1447 172 29
-6 -4 10 3410 244 29
-6 -5 9 1596 196 29
-6 -5 8 338 141 29
-6 -6 8 600 175 29
-6 -7 9 1103 221 29
-6 -7 8 1129 228 29
-6 -8 10 523 209 29
-6 -9 9 775 249 29
-7 -5 11 474 204 29
-7 -6 12 559 225 29
-7 -7 13 882 235 29
-7 -8 11 620 268 29
-7 -8 10 1392 297 29
-2 -2 1 960 46 29
-2 -3 1 14709 500 29
-3 -1 3 14688 500 29
-3 -3 2 15150 514 29
-4 -2 3 1438 111 29
-4 -3 3 20989 724 29
-4 -3 2 3081 216 29
-4 -4 3 450 92 29
-4 -4 2 2035 163 29
-4 -5 2 3264 201 29
-4 -6 2 1250 160 29
-5 -2 5 2440 160 29
-5 -3 4 3261 217 29
-5 -4 4 7031 327 29
-5 -5 4 1529 166 29
-5 -5 3 919 213 29
-5 -6 3 553 199 29
-6 -4 5 633 208 29
-6 -6 5 540 226 29
-6 -6 4 1318 292 29
-6 -6 3 772 329 29
-6 -7 4 843 294 29
-7 -4 6 1775 366 29
-7 -4 5 2902 525 29
-8 -5 7 1654 464 29
-8 -6 7 1093 421 29
-1 -3 8 17601 725 29
-1 -3 7 15198 623 29
-1 -3 6 5708 238 29
-1 -4 10 1115 100 29
-1 -4 9 217 73 29
-1 -4 8 2402 127 29
-1 -4 7 2370 118 29
-1 -5 12 308 110 29
-1 -5 11 5368 279 29
-1 -5 10 364 91 29
-1 -5 9 1255 106 29
-1 -5 8 915 82 29
-1 -6 14 4719 312 29
-1 -6 13 16126 762 29
-1 -6 12 2128 178 29
-1 -6 11 538 119 29
-1 -6 10 3209 199 29
-1 -7 16 1022 216 29
-1 -7 15 1130 200 29
-1 -7 14 1720 217 29
-1 -7 12 1483 180 29
-1 -7 11 290 111 29
-1 -8 14 460 184 29
-1 -8 13 380 170 29
-1 -9 14 1379 214 29
-2 -6 13 1772 186 29
-2 -6 12 733 141 29
-2 -7 15 2399 265 29
-2 -7 14 2577 260 29
-2 -7 13 1077 185 29
-2 -7 12 407 142 29
-2 -8 15 1069 237 29
-2 -8 14 590 204 29
-1 -2 3 559 28 29
-1 -3 3 14218 558 29
-2 -3 5 1945 84 29
-2 -4 6 1793 92 29
-2 -4 5 2146 101 29
-2 -4 4 1074 59 29
-2 -5 7 5570 243 29
-2 -5 6 1259 87 29
-2 -5 5 201 60 29
-2 -6 6 1137 88 29
-3 -5 8 554 85 29
-3 -5 7 1404 110 29
-3 -5 6 21914 898 29
-3 -6 9 462 109 29
-3 -6 8 1229 119 29
-3 -6 7 2053 137 29
-3 -6 6 1437 113 29
-3 -7 10 1137 143 29
-3 -7 9 1268 148 29
-3 -7 8 10408 471 29
-3 -7 7 4338 233 29
-3 -8 9 2191 186 29
-3 -8 8 7294 374 29
-4 -6 10 676 123 29
-4 -6 9 305 116 29
-4 -7 9 525 135 29
-4 -7 8 3608 236 29
-4 -8 12 364 176 29
-4 -8 11 557 172 29
-4 -8 10 1984 210 29
-4 -8 9 957 169 29
-4 -9 12 488 186 29
-4 -9 10 362 157 29
-4 -10 12 620 234 29
-5 -7 12 561 157 29
-5 -8 13 551 186 29
-5 -8 11 553 178 29
-5 -8 10 1241 203 29
-1 -2 1 1404 60 29
-2 -3 2 43733 1749 29
-2 -4 2 5469 231 29
-2 -5 2 1143 77 29
-3 -4 3 12588 528 29
-3 -5 4 1874 114 29
-3 -5 3 7497 329 29
-3 -6 3 1101 114 29
-3 -7 3 324 115 29
-4 -5 4 481 104 29
-4 -6 5 6254 312 29
-4 -6 4 275 112 29
-4 -6 3 4629 268 29
-4 -7 5 1012 146 29
-4 -7 3 4543 288 29
-4 -8 4 1385 196 29
-5 -7 6 736 171 29
-5 -7 5 3588 283 29
-5 -8 6 1330 227 29
-5 -8 4 1490 274 29
-5 -9 4 795 276 29
-5 -10 6 737 263 29
-5 -10 4 784 317 29
-6 -7 6 485 233 29
-6 -9 7 1622 341 29
-6 -11 6 1328 539 29
-7 -10 6 1490 486 29
0 -5 -2 5350 365 29
-1 -2 0 12942 501 29
-1 -5 -1 814 116 29
-1 -6 -1 14230 635 29
-1 -7 -1 13385 649 29
-1 -7 -2 830 393 29
-1 -8 -2 11596 929 29
-1 -10 -2 2419 534 29
-2 -3 0 1364 105 29
-2 -4 0 1028 96 29
-2 -5 0 867 104 29
-2 -6 -1 52471 2618 29
-2 -7 -1 942 307 29
-2 -9 -1 4837 556 29
-3 -6 0 9091 578 29
-3 -7 0 10250 659 29
-4 -7 1 8864 625 29
-4 0 6 6297 290 30
-4 -1 6 1393 79 30
-5 -1 8 460 73 30
-5 -1 7 3374 173 30
-6 0 9 2547 161 30
-6 -1 10 2501 170 30
-6 -1 9 3147 188 30
-6 -1 8 7188 363 30
-7 -1 12 4475 295 30
-7 -1 11 279 118 30
-7 -1 10 1067 135 30
-8 -1 12 989 166 30
-8 -1 10 591 128 30
-8 -2 12 382 144 30
-8 -2 11 557 137 30
-9 0 14 350 168 30
-9 -1 13 774 186 30
-4 -1 3 17801 730 30
-5 -1 4 7000 291 30
-6 -1 6 149 55 30
-6 -1 5 3622 171 30
-6 -1 4 6941 305 30
-7 -1 6 183 78 30
-7 -1 5 2628 151 30
-7 -2 5 2092 126 30
-8 -1 6 1945 147 30
-8 -2 6 252 98 30
-9 -1 9 383 115 30
-9 -1 6 398 113 30
-9 -2 6 425 112 30
-10 -1 7 343 139 30
-3 0 1 166 20 30
-4 0 2 190639 7593 30
-5 0 2 575 55 30
-6 0 3 62192 2557 30
-6 0 2 297 78 30
-6 -1 2 45742 1883 30
-7 0 3 2266 144 30
-7 0 2 2201 142 30
-7 -1 3 2051 128 30
-7 -1 2 7118 323 30
-8 0 4 13559 602 30
-8 -1 3 16134 700 30
-9 0 5 3915 243 30
-9 0 4 1155 158 30
-9 0 3 1598 180 30
-9 -1 4 325 125 30
-9 -1 3 1640 175 30
-10 0 5 2488 255 30
-10 -1 5 622 166 30
-10 -1 4 4601 318 30
-11 0 6 911 224 30
-11 -1 5 392 173 30
-12 0 6 496 240 30
-12 -1 5 753 289 30
-2 1 1 3037 121 30
-3 1 1 79100 3092 30
-4 2 2 4033 177 30
-4 1 1 553 57 30
-5 3 2 4668 249 30
-5 2 2 4340 202 30
-5 1 1 3477 165 30
-6 3 3 247 118 30
-6 3 2 5226 330 30
-6 2 2 9278 409 30
-6 2 1 6578 354 30
-6 1 1 2290 151 30
-7 4 3 1464 300 30
-7 3 3 795 173 30
-7 2 1 1926 245 30
-7 1 1 537 140 30
-8 4 4 486 243 30
-8 3 3 1083 253 30
-8 2 2 3755 323 30
-8 1 2 2228 203 30
-9 5 5 908 343 30
-9 4 4 943 326 30
-9 3 3 546 274 30
-9 2 2 712 259 30
-10 2 3 1102 329 30
-10 2 1 1281 416 30
3 5 21 1725 340 30
3 4 17 1920 253 30
3 3 20 520 194 30
3 3 18 385 191 30
3 3 17 8577 502 30
3 2 17 1657 214 30
2 5 21 1161 294 30
2 4 19 4360 366 30
2 4 18 2939 281 30
2 4 17 3067 272 30
2 4 16 949 172 30
2 3 17 7351 423 30
2 3 16 1218 161 30
2 3 15 808 146 30
2 3 14 7688 382 30
2 3 12 3723 201 30
2 2 16 4312 272 30
2 2 14 1617 152 30
2 2 13 4336 235 30
2 2 12 593 103 30
2 2 11 2878 158 30
1 3 14 2985 187 30
1 3 13 545 108 30
1 3 12 1214 114 30
1 2 14 3831 215 30
1 2 13 8037 367 30
1 2 11 8199 356 30
1 2 10 538 72 30
1 2 9 24433 991 30
1 2 8 14603 592 30
1 1 8 222 40 30
1 1 7 20882 826 30
1 1 6 7556 303 30
-3 -1 3 15831 663 30
-4 -1 4 4180 165 30
-5 -2 6 935 64 30
-5 -2 5 4446 181 30
-5 -2 4 17805 684 30
-6 -2 7 1164 88 30
-6 -2 6 166 63 30
-6 -3 6 9984 408 30
-7 -3 8 1529 124 30
-7 -3 7 863 97 30
-7 -3 6 775 88 30
-8 -2 9 2194 163 30
-8 -2 8 230 90 30
-8 -3 9 719 121 30
-8 -3 8 579 111 30
-8 -3 7 3086 184 30
-8 -4 8 368 108 30
-9 -3 9 713 128 30
-9 -4 10 762 148 30
-9 -4 8 411 120 30
-9 -5 9 1229 155 30
-10 -3 11 432 139 30
-10 -3 10 289 136 30
-10 -4 11 476 175 30
-10 -4 10 325 142 30
-3 -1 1 24889 969 30
-4 -1 2 255 31 30
-5 -2 2 8121 312 30
-6 -2 3 1156 79 30
-6 -2 2 2914 135 30
-6 -3 2 664 66 30
-7 -2 4 3440 163 30
-7 -2 3 5637 246 30
-7 -3 3 972 92 30
-8 -2 4 228 96 30
-8 -2 3 794 102 30
-8 -3 4 528 96 30
-8 -3 3 396 99 30
-8 -4 3 1592 130 30
-9 -2 5 1128 131 30
-9 -2 4 2264 172 30
-9 -3 5 430 112 30
-9 -4 4 744 126 30
-9 -4 3 247 117 30
-10 -2 5 296 127 30
-10 -3 3 401 147 30
-10 -4 5 319 131 30
-11 -2 6 449 159 30
-11 -4 3 402 173 30
-12 -5 4 496 176 30
-3 -1 0 55751 2066 30
-4 -1 0 2904 120 30
-5 0 1 2355 110 30
-5 -1 0 156 63 30
-6 0 1 13005 516 30
-6 -2 0 1368 101 30
-7 -2 0 634 111 30
-7 -2 -1 1138 142 30
-7 -3 -1 4991 258 30
-8 -1 1 753 141 30
-8 -1 0 889 174 30
-8 -3 0 332 120 30
-9 -2 0 495 184 30
-9 -3 0 1795 209 30
-10 -1 0 590 293 30
-10 -4 -1 822 256 30
-2 1 0 1826 75 30
-3 3 1 19315 879 30
-3 2 1 8372 303 30
-3 1 0 9159 329 30
-3 0 -1 2427 108 30
-4 3 1 20714 928 30
-4 2 0 7586 415 30
-4 1 0 719 65 30
-4 0 -1 188 78 30
-5 4 2 5116 407 30
-5 2 0 8425 484 30
-5 0 -1 1185 129 30
-6 4 2 1030 294 30
-6 3 1 967 262 30
-6 0 -1 7350 372 30
-6 0 -2 1508 385 30
-7 3 1 2635 397 30
-7 1 -1 1649 389 30
2 1 17 2257 218 30
2 1 16 384 147 30
2 1 15 14550 632 30
2 0 19 1009 220 30
2 0 17 421 152 30
2 0 16 4867 294 30
2 0 15 4115 259 30
2 -1 19 555 209 30
2 -1 17 2090 224 30
2 -1 16 1407 178 30
1 2 20 480 179 30
1 1 21 393 187 30
1 1 18 832 172 30
1 1 17 579 163 30
1 1 16 8567 415 30
1 1 15 5196 274 30
1 1 13 519 102 30
1 1 12 6976 299 30
1 0 18 966 166 30
1 0 17 2726 228 30
1 0 16 5441 308 30
1 0 15 11076 490 30
1 0 14 5102 262 30
1 0 13 366 99 30
1 0 12 6041 264 30
1 0 11 6630 279 30
1 0 10 4375 188 30
1 0 9 72999 2739 30
1 0 8 1377 72 30
1 0 7 11518 429 30
1 -1 20 530 215 30
1 -1 19 2778 273 30
-3 -2 5 601 43 30
-3 -2 4 7299 289 30
-4 -2 6 4135 166 30
-4 -3 6 1007 65 30
-4 -3 5 16297 621 30
-5 -3 8 3359 162 30
-5 -3 7 4084 182 30
-5 -3 6 4387 186 30
-6 -3 9 939 108 30
-6 -3 8 4744 225 30
-6 -4 10 5799 288 30
-6 -4 9 10740 463 30
-6 -4 8 1560 124 30
-6 -4 7 255 84 30
-6 -5 9 2378 160 30
-6 -5 8 245 94 30
-7 -4 11 2979 213 30
-7 -4 10 712 138 30
-7 -4 9 3976 227 30
-7 -5 10 938 138 30
-8 -4 12 369 142 30
-8 -4 11 1237 171 30
-8 -5 13 310 148 30
-8 -5 10 986 156 30
-9 -5 11 381 169 30
-3 -2 2 833 42 30
-4 -2 3 2895 115 30
-5 -3 4 6394 250 30
-5 -3 3 806 59 30
-5 -3 2 8598 336 30
-5 -4 3 427 57 30
-6 -3 4 11939 476 30
-6 -4 4 255 70 30
-6 -4 3 1833 110 30
-7 -4 5 5186 244 30
-7 -4 4 796 98 30
-7 -5 5 779 105 30
-7 -5 4 3582 194 30
-8 -4 6 698 110 30
-8 -5 6 360 105 30
-8 -5 5 541 122 30
-8 -5 4 544 114 30
-8 -6 5 565 125 30
-9 -4 6 1638 165 30
-9 -5 7 604 138 30
-9 -5 5 1367 167 30
-3 -2 0 8129 287 30
-4 -2 0 180 36 30
-4 -3 0 10798 385 30
-5 -3 1 376 52 30
-5 -3 0 241 58 30
-5 -4 0 61498 2187 30
-6 -3 1 2078 110 30
-6 -3 0 981 89 30
-6 -4 1 1690 100 30
-6 -4 0 404 81 30
-7 -4 1 11320 440 30
-7 -4 0 1312 122 30
-7 -5 0 1730 136 30
-7 -6 0 1950 147 30
-8 -3 1 271 102 30
-8 -4 0 2775 193 30
-8 -5 0 947 141 30
-8 -5 -1 2549 205 30
-8 -6 0 1271 156 30
-9 -4 1 656 144 30
-9 -5 2 273 121 30
-9 -5 1 1237 166 30
-9 -5 0 846 169 30
-9 -6 0 1067 192 30
-9 -7 0 346 170 30
-10 -4 1 664 191 30
-10 -5 1 518 185 30
-10 -5 0 652 208 30
-10 -6 1 371 175 30
-10 -7 1 443 200 30
-10 -7 0 537 225 30
-10 -8 0 859 242 30
-11 -8 1 638 255 30
-12 -7 3 834 256 30
-2 -1 -1 13984 469 30
-3 -1 -1 551 44 30
-3 -2 -2 8155 284 30
-3 -3 -2 6550 231 30
-4 -1 -1 3596 138 30
-4 -2 -2 7726 282 30
-4 -3 -2 752 76 30
-5 -2 -2 2200 143 30
-5 -3 -2 10724 390 30
-5 -3 -3 2251 227 30
-5 -4 -3 1887 176 30
-5 -5 -3 3131 199 30
-6 -2 -2 977 155 30
-6 -3 -2 433 112 30
-6 -4 -3 4672 301 30
-6 -4 -4 1682 370 30
-6 -5 -3 3160 238 30
-6 -6 -4 936 277 30
-7 -2 -2 430 200 30
-7 -3 -2 608 169 30
-7 -4 -3 1988 261 30
-7 -4 -4 2690 489 30
-7 -6 -4 3570 419 30
-7 -7 -4 2447 390 30
-8 -2 -2 1751 323 30
-8 -4 -3 1100 300 30
-8 -4 -4 8348 837 30
-8 -7 -4 943 350 30
-9 -4 -3 895 374 30
-9 -5 -4 1988 547 30
-10 -4 -3 3019 595 30
-3 -3 3 19947 826 30
-4 -3 4 1999 92 30
-4 -4 4 238 46 30
-5 -4 5 4401 201 30
-5 -4 4 12552 532 30
-5 -5 5 3702 181 30
-6 -5 6 8065 372 30
-6 -5 5 234 83 30
-6 -6 7 527 99 30
-6 -6 6 3929 219 30
-6 -6 5 745 99 30
-7 -5 7 1238 121 30
-7 -6 7 245 108 30
-7 -6 6 419 112 30
-7 -7 8 272 127 30
-7 -7 7 285 120 30
-7 -7 6 1345 150 30
-7 -8 7 402 124 30
-8 -6 7 1440 158 30
-8 -7 9 516 154 30
-8 -7 7 848 148 30
-8 -8 8 347 160 30
-8 -8 7 433 136 30
-8 -9 8 575 186 30
-9 -8 9 567 201 30
-3 -3 1 16364 633 30
-4 -3 1 368 37 30
-4 -4 1 5049 204 30
-5 -4 2 9783 396 30
-5 -5 2 9963 411 30
-6 -5 2 288 78 30
-6 -5 1 460 86 30
-6 -6 2 2745 157 30
-6 -6 1 14910 630 30
-7 -6 3 3594 200 30
-7 -6 2 1640 135 30
-7 -6 1 1994 154 30
-7 -7 2 3035 193 30
-7 -8 2 1038 144 30
-8 -6 3 874 127 30
-8 -6 2 2462 185 30
-8 -7 3 2237 186 30
-8 -7 2 605 146 30
-8 -7 1 16016 721 30
-8 -8 3 291 131 30
-9 -7 3 786 167 30
-9 -8 3 769 165 30
-9 -8 2 2040 227 30
-10 -8 4 523 160 30
-10 -10 2 429 193 30
-11 -8 3 604 214 30
-3 -3 -1 1874 87 30
-3 -4 -1 118443 4804 30
-4 -3 -1 4156 182 30
-4 -4 -1 2055 110 30
-4 -5 -1 206 64 30
-4 -5 -2 1728 117 30
-5 -4 -1 554 77 30
-5 -5 -1 236 84 30
-5 -5 -2 6565 312 30
-5 -6 -2 5564 285 30
-5 -7 -2 4919 277 30
-6 -5 -1 855 109 30
-6 -5 -2 3662 228 30
-6 -6 -1 5387 279 30
-6 -6 -2 1367 168 30
-6 -7 -2 1413 183 30
-6 -7 -3 1734 244 30
-6 -8 -2 4430 306 30
-7 -7 -1 1043 171 30
-7 -7 -2 1238 197 30
-7 -7 -3 3608 349 30
-7 -8 -2 418 193 30
-8 -7 -3 1058 311 30
-8 -8 -1 2411 271 30
-1 -2 -1 4904 186 30
-1 -4 -2 51688 2019 30
-1 -5 -2 810 103 30
-1 -6 -3 19640 1231 30
-1 -7 -3 53535 2826 30
-2 -3 -2 3949 166 30
-2 -4 -2 371 49 30
-2 -5 -3 4953 326 30
-2 -6 -3 8901 495 30
-2 -7 -3 55529 2535 30
-2 -8 -3 1179 253 30
-3 -5 -3 8108 390 30
-3 -6 -3 4467 258 30
-3 -6 -4 685 335 30
-3 -7 -4 4157 473 30
-3 -8 -4 6157 624 30
-3 -10 -4 4010 620 30
-4 -5 -4 9100 664 30
-4 -7 -4 3231 404 30
-4 -8 -4 908 273 30
-5 -7 -4 10128 660 30
-5 -9 -5 1849 599 30
-6 -8 -5 1395 491 30
-2 -1 -6 16027 759 31
-2 -1 -7 9083 414 31
-2 -1 -8 8442 388 31
-3 -1 -9 439 62 31
-3 -1 -10 8137 391 31
-3 -1 -11 7280 362 31
-3 -1 -12 256 86 31
-3 -2 -13 4649 258 31
-4 -1 -12 239 96 31
-4 -1 -13 341 113 31
-4 -1 -14 9820 518 31
-4 -1 -16 1695 188 31
-4 -2 -12 1353 124 31
-4 -2 -13 1240 130 31
-4 -2 -15 6593 377 31
-4 -2 -16 2055 203 31
-5 -1 -16 1593 193 31
-5 -1 -17 339 154 31
-5 -1 -18 365 166 31
-5 -2 -15 382 137 31
-5 -2 -16 1694 195 31
-5 -2 -18 567 156 31
-5 -2 -19 417 177 31
-5 -3 -16 8879 503 31
-6 -3 -18 358 163 31
-1 -1 -6 7439 316 31
-1 -1 -7 19441 795 31
-1 -1 -8 194 34 31
-1 -1 -9 3625 158 31
-1 -2 -8 13902 566 31
-1 -2 -9 23387 961 31
-1 -2 -10 233 60 31
-1 -2 -11 7822 344 31
-1 -3 -14 2834 177 31
-2 -2 -11 2907 145 31
-2 -2 -12 642 83 31
-2 -2 -13 4628 232 31
-2 -2 -14 1825 138 31
-2 -2 -16 3953 241 31
-2 -2 -17 2094 193 31
-2 -3 -12 3768 184 31
-2 -3 -14 8085 381 31
-2 -3 -15 947 126 31
-2 -3 -16 1211 140 31
-2 -3 -17 7807 414 31
-2 -4 -16 1203 142 31
-2 -4 -17 3582 252 31
-2 -4 -18 3065 247 31
-2 -4 -19 4470 325 31
-3 -3 -17 9527 479 31
-3 -3 -19 505 159 31
-3 -4 -20 445 174 31
-3 -5 -20 432 174 31
1 -2 -11 228 87 31
1 -2 -12 2906 176 31
1 -2 -14 3186 211 31
1 -2 -15 2028 193 31
1 -2 -17 1082 201 31
1 -2 -18 1160 239 31
1 -3 -13 1046 121 31
1 -3 -14 744 134 31
1 -3 -15 731 151 31
1 -3 -16 434 152 31
1 -3 -17 404 165 31
1 -3 -19 2970 347 31
1 -4 -17 951 208 31
1 -4 -19 717 260 31
1 -4 -20 742 297 31
0 -1 -5 5128 216 31
0 -1 -6 947 44 31
0 -2 -8 2622 117 31
0 -2 -9 2788 133 31
0 -2 -10 2623 133 31
0 -2 -11 14443 610 31
0 -2 -12 736 86 31
0 -3 -13 1448 126 31
0 -3 -15 5029 281 31
0 -3 -16 960 157 31
0 -3 -17 845 166 31
0 -3 -18 4106 321 31
0 -4 -16 409 132 31
0 -4 -18 2937 279 31
0 -4 -19 999 227 31
0 -4 -20 1739 283 31
3 1 -11 1925 276 31
3 1 -12 6879 509 31
3 1 -13 1585 284 31
3 1 -14 2354 351 31
3 1 -16 2750 445 31
3 0 -12 1547 262 31
3 0 -13 2925 340 31
3 0 -14 540 252 31
3 0 -17 2201 460 31
3 0 -18 1077 418 31
3 -1 -12 2268 301 31
3 -1 -13 2790 328 31
3 -1 -14 899 278 31
3 -1 -18 1274 368 31
3 -2 -15 2018 362 31
3 -2 -19 1185 385 31
2 1 -8 4790 228 31
2 1 -9 1212 121 31
2 1 -10 6260 304 31
2 1 -11 1433 151 31
2 0 -8 1473 113 31
2 0 -9 825 104 31
2 0 -10 29573 1190 31
2 0 -11 14065 608 31
2 -1 -8 2969 151 31
2 -1 -11 1589 145 31
2 -1 -12 1191 148 31
1 0 -4 18511 727 31
1 0 -5 15431 606 31
1 0 -6 2634 111 31
-2 2 -1 17042 712 31
-3 3 -1 24391 965 31
-3 2 -1 27715 1090 31
-4 4 -1 3173 147 31
-4 4 -2 6897 296 31
-5 4 -1 1342 101 31
-5 4 -2 3456 171 31
-5 3 -1 4184 185 31
-6 6 -2 416 116 31
-6 5 -1 5769 289 31
-6 5 -2 512 106 31
-6 4 -1 2675 158 31
-6 4 -2 1552 119 31
-7 7 -2 3135 270 31
-7 7 -4 439 159 31
-7 6 -1 470 145 31
-7 6 -2 630 147 31
-7 6 -3 1118 155 31
-7 5 -1 519 120 31
-7 5 -2 273 123 31
-8 8 -3 597 211 31
-8 7 -4 382 160 31
-8 6 -3 595 168 31
-9 7 -1 772 227 31
-9 6 -2 773 188 31
-2 -2 -7 164 33 31
-2 -2 -8 196 40 31
-2 -2 -9 4448 180 31
-2 -3 -10 450 55 31
-3 -3 -10 2523 122 31
-3 -3 -11 972 82 31
-3 -3 -12 609 86 31
-3 -3 -13 4576 221 31
-3 -4 -12 758 85 31
-3 -4 -13 10908 465 31
-4 -4 -13 2111 142 31
-4 -4 -15 2218 165 31
-4 -4 -16 2715 195 31
-4 -4 -17 5187 302 31
-4 -4 -18 6284 359 31
-4 -4 -19 335 138 31
-4 -5 -15 501 118 31
-4 -5 -16 1016 143 31
-4 -6 -20 2239 249 31
-5 -4 -16 1719 165 31
-5 -5 -16 1442 157 31
-5 -5 -20 1748 231 31
-5 -6 -17 876 168 31
-5 -6 -18 365 148 31
-5 -6 -19 469 152 31
-6 -5 -19 955 179 31
-6 -6 -19 1466 212 31
-1 -3 -8 53644 1981 31
-1 -3 -9 9851 380 31
-1 -3 -10 16247 627 31
-1 -4 -9 12788 496 31
-1 -4 -10 2302 118 31
-1 -4 -11 1350 97 31
-1 -4 -12 3199 164 31
-1 -4 -13 461 94 31
-1 -4 -14 10034 429 31
-1 -4 -16 1193 145 31
-1 -5 -12 1044 103 31
-1 -5 -13 315 96 31
-1 -5 -15 471 121 31
-1 -6 -15 832 139 31
-1 -6 -16 1682 183 31
-1 -6 -17 2418 225 31
-1 -6 -18 498 182 31
-1 -6 -19 1948 248 31
-1 -6 -20 401 186 31
-1 -7 -17 1758 224 31
-1 -7 -19 476 189 31
-1 -7 -20 509 218 31
-1 -8 -20 1391 263 31
-2 -5 -14 1197 114 31
-2 -6 -15 319 115 31
-2 -6 -16 2574 195 31
-2 -6 -17 7881 408 31
-2 -6 -18 1177 191 31
-2 -6 -19 602 160 31
-2 -6 -21 2024 288 31
-2 -7 -16 1294 163 31
-2 -7 -17 369 163 31
-2 -7 -18 2146 234 31
-2 -8 -19 1388 237 31
2 -4 -15 586 203 31
2 -5 -13 1145 239 31
2 -5 -14 700 230 31
2 -5 -19 1463 382 31
2 -6 -14 3378 395 31
2 -6 -15 1765 349 31
2 -6 -17 832 344 31
2 -6 -19 3236 558 31
1 -2 -6 224 46 31
1 -2 -7 16998 655 31
1 -2 -8 58472 2229 31
1 -3 -7 1312 76 31
1 -3 -8 9384 373 31
1 -3 -9 10361 413 31
1 -3 -10 3503 177 31
1 -4 -9 25285 977 31
1 -4 -10 2457 150 31
1 -4 -11 1875 144 31
1 -4 -12 1729 151 31
1 -5 -10 13100 548 31
1 -5 -11 2252 173 31
1 -5 -13 3461 236 31
1 -6 -12 6397 352 31
1 -6 -13 2928 258 31
1 -6 -14 3710 296 31
1 -6 -15 4781 358 31
1 -6 -17 532 248 31
1 -7 -13 1543 241 31
1 -7 -14 639 227 31
1 -7 -15 604 238 31
1 -7 -17 719 279 31
1 -7 -18 1521 349 31
1 -8 -15 1773 306 31
1 -8 -17 720 330 31
3 2 -8 7308 533 31
3 1 -8 629 274 31
3 1 -9 7488 482 31
3 0 -8 534 230 31
3 0 -9 746 244 31
3 -1 -10 1840 261 31
3 -2 -9 22962 1201 31
3 -3 -10 903 323 31
3 -3 -11 679 303 31
2 1 -5 674 106 31
2 1 -6 21855 790 31
2 0 -5 5548 257 31
2 0 -6 3614 163 31
2 -1 -5 712 134 31
2 -1 -6 8330 332 31
2 -2 -6 1081 142 31
2 -2 -7 2221 142 31
2 -3 -6 6457 393 31
1 0 -3 711 34 31
1 -1 -3 1277 54 31
-3 1 -1 5816 235 31
-4 2 -1 517 39 31
-4 2 -2 4444 170 31
-4 1 -1 307 31 31
-5 2 -1 247 51 31
-5 2 -2 3327 138 31
-6 3 -1 5029 219 31
-6 3 -2 8231 340 31
-6 3 -3 2081 119 31
-6 2 -1 1698 96 31
-6 2 -2 138 64 31
-6 2 -3 15201 590 31
-7 3 -1 484 95 31
-7 3 -2 3417 184 31
-7 3 -3 8866 381 31
-7 2 -2 9962 411 31
-7 2 -3 13347 538 31
-8 4 -3 1091 139 31
-8 3 -2 690 119 31
-8 3 -3 8875 405 31
-8 3 -4 2837 184 31
-8 2 -2 5593 271 31
-8 2 -3 2927 175 31
-9 3 -2 4059 256 31
-9 3 -3 807 141 31
-9 3 -4 769 142 31
-9 2 -2 4898 275 31
-10 5 -3 588 186 31
-10 5 -4 318 150 31
-10 3 -2 2018 217 31
-10 3 -3 874 173 31
-11 4 -4 392 163 31
-2 -2 -5 15347 637 31
-3 -2 -6 23831 920 31
-3 -2 -7 8828 339 31
-3 -2 -8 13145 502 31
-3 -3 -8 4024 165 31
-4 -3 -8 12878 499 31
-4 -3 -9 2009 104 31
-4 -3 -10 2672 135 31
-4 -3 -11 4122 190 31
-4 -4 -10 829 76 31
-5 -3 -10 448 84 31
-5 -3 -11 427 84 31
-5 -4 -10 1043 95 31
-5 -4 -11 1139 108 31
-5 -4 -12 7290 328 31
-5 -5 -13 544 114 31
-5 -5 -14 232 106 31
-6 -4 -12 628 118 31
-6 -4 -14 1878 168 31
-6 -4 -15 1503 179 31
-6 -4 -16 5499 322 31
-6 -5 -12 292 105 31
-6 -5 -13 379 120 31
-6 -5 -14 667 139 31
-6 -5 -15 289 139 31
-6 -6 -15 3574 248 31
-6 -6 -16 835 183 31
-7 -4 -14 286 140 31
-7 -5 -15 1170 176 31
-7 -5 -17 381 163 31
-7 -6 -14 3400 243 31
-7 -6 -15 1244 187 31
-7 -6 -16 486 164 31
-1 -2 -5 2351 98 31
-2 -3 -7 10474 399 31
-2 -4 -8 4542 182 31
-2 -4 -9 42744 1637 31
-2 -4 -10 301 67 31
-2 -5 -10 219 74 31
-2 -5 -11 901 98 31
-3 -5 -10 232 73 31
-3 -5 -11 314 85 31
-3 -5 -12 640 98 31
-3 -5 -13 316 100 31
-3 -6 -11 5376 252 31
-3 -6 -12 29206 1174 31
-3 -6 -13 6210 301 31
-3 -6 -14 2532 183 31
-3 -6 -15 1699 171 31
-3 -6 -16 3139 239 31
-3 -6 -17 1387 192 31
-3 -7 -14 1696 169 31
-3 -7 -15 1405 169 31
-3 -7 -16 2293 222 31
-3 -7 -17 1051 202 31
-3 -8 -17 1237 216 31
-4 -6 -13 696 117 31
-4 -6 -15 1986 182 31
-4 -7 -13 5320 280 31
-4 -7 -15 2628 207 31
-4 -7 -16 359 170 31
-4 -7 -17 2846 259 31
-4 -8 -15 539 159 31
-4 -8 -18 1860 239 31
-5 -8 -18 1332 234 31
-5 -10 -18 438 186 31
0 -2 -4 162 18 31
0 -2 -5 2266 82 31
0 -3 -5 6221 219 31
0 -3 -6 479 39 31
0 -3 -7 2074 86 31
0 -4 -7 3514 142 31
0 -4 -8 20275 735 31
0 -4 -9 7136 276 31
0 -4 -10 26170 953 31
0 -5 -9 8747 339 31
0 -5 -10 798 97 31
0 -5 -12 897 114 31
0 -6 -10 210 97 31
0 -6 -11 2901 176 31
0 -6 -12 437 122 31
0 -6 -13 10637 458 31
0 -6 -14 1170 160 31
0 -6 -15 516 141 31
0 -7 -12 2101 186 31
0 -7 -13 23775 951 31
0 -7 -14 876 173 31
0 -7 -15 2344 238 31
0 -7 -17 768 201 31
0 -8 -15 489 206 31
0 -8 -20 936 332 31
0 -9 -15 1446 295 31
0 -9 -17 641 300 31
-1 -5 -7 263 48 31
-1 -5 -8 345 58 31
-1 -5 -9 29489 1066 31
-1 -5 -10 8156 314 31
-1 -6 -9 1533 107 31
-1 -6 -10 290 85 31
-1 -6 -11 12815 493 31
-1 -6 -12 4927 234 31
-1 -7 -10 264 95 31
-1 -7 -11 2893 174 31
-1 -7 -12 1197 141 31
-1 -7 -13 1430 160 31
-1 -7 -14 2185 183 31
-1 -8 -13 1083 161 31
-1 -8 -14 1132 179 31
-1 -8 -16 650 199 31
-1 -8 -17 381 184 31
-1 -9 -14 1470 232 31
-1 -9 -15 1380 236 31
-1 -9 -16 925 220 31
-1 -11 -18 1023 398 31
-2 -9 -16 757 179 31
-2 -9 -17 400 192 31
-2 -10 -14 1101 222 31
3 -6 -13 2202 606 31
3 -6 -14 2239 555 31
2 -4 -8 6875 389 31
2 -4 -9 4705 292 31
2 -5 -9 5534 413 31
2 -5 -10 7829 463 31
2 -5 -11 974 203 31
2 -6 -9 4917 501 31
2 -6 -10 4644 435 31
2 -6 -12 2397 349 31
1 -2 -4 18763 631 31
1 -3 -5 4334 163 31
1 -3 -6 10613 366 31
1 -4 -5 2263 138 31
1 -4 -6 2053 116 31
1 -5 -6 24889 953 31
1 -5 -7 4923 235 31
1 -6 -7 4869 328 31
1 -6 -8 4429 277 31
1 -6 -10 567 145 31
1 -7 -8 5162 421 31
1 -7 -9 1134 243 31
1 -7 -10 1635 244 31
1 -7 -11 492 202 31
1 -8 -11 1306 311 31
1 -9 -12 932 381 31
1 -9 -13 2150 433 31
1 -10 -13 3803 577 31
-3 -3 -6 1422 66 31
-3 -4 -7 47859 1947 31
-3 -4 -8 11011 457 31
-4 -4 -8 42044 1723 31
-4 -5 -8 523 64 31
-4 -5 -9 197 67 31
-4 -5 -11 2275 141 31
-4 -6 -11 19528 860 31
-5 -6 -10 1394 115 31
-5 -6 -11 20348 899 31
-5 -6 -12 4420 244 31
-5 -6 -13 2924 200 31
-5 -6 -14 1157 140 31
-5 -7 -12 814 124 31
-5 -7 -13 1457 156 31
-5 -7 -14 894 148 31
-5 -8 -14 1653 182 31
-6 -6 -12 1254 135 31
-6 -7 -12 3761 238 31
-6 -7 -14 3279 238 31
-6 -7 -15 720 163 31
-6 -7 -16 3025 262 31
-6 -8 -14 1109 161 31
-6 -8 -17 846 207 31
-6 -9 -16 340 152 31
-7 -7 -14 1365 184 31
-7 -8 -15 1244 195 31
-7 -8 -17 812 203 31
-1 -3 -4 2292 94 31
-1 -3 -5 22960 890 31
-2 -5 -7 20544 817 31
-2 -5 -8 7720 319 31
-2 -6 -8 6117 268 31
-2 -6 -9 776 85 31
-2 -6 -10 719 96 31
-2 -7 -11 5837 284 31
-2 -7 -12 35093 1442 31
-3 -7 -9 167 83 31
-3 -7 -10 3171 176 31
-3 -8 -11 269 111 31
-3 -8 -12 2127 170 31
-3 -8 -13 725 129 31
-3 -9 -13 1839 191 31
-3 -9 -14 2809 242 31
-3 -9 -15 1373 199 31
-3 -11 -16 686 232 31
-3 -11 -17 2335 311 31
-4 -8 -13 1915 160 31
-4 -9 -11 242 114 31
-4 -9 -13 2715 215 31
-4 -9 -14 311 146 31
-4 -9 -15 302 151 31
-4 -10 -13 2442 224 31
-4 -10 -16 672 197 31
-4 -11 -17 741 245 31
-5 -11 -15 840 204 31
-5 -11 -16 1937 269 31
0 -3 -4 1497 66 31
0 -4 -5 495 47 31
0 -5 -7 2023 120 31
0 -6 -8 17546 751 31
0 -7 -10 1158 158 31
0 -8 -10 907 186 31
0 -8 -11 632 194 31
0 -9 -12 1575 325 31
0 -10 -13 2096 449 31
-1 -5 -5 43293 1764 31
-1 -6 -6 7677 336 31
-1 -6 -7 17191 720 31
-1 -7 -6 9488 432 31
-1 -7 -7 11648 515 31
-1 -7 -8 327 102 31
-1 -8 -10 689 152 31
-1 -9 -8 1280 228 31
-1 -9 -10 1395 229 31
-1 -9 -11 1701 247 31
-1 -10 -9 1493 356 31
-1 -10 -10 2142 362 31
-1 -10 -12 2344 356 31
-1 -10 -13 712 281 31
-1 -11 -11 7742 744 31
-1 -11 -12 1999 411 31
-1 -11 -13 3270 494 31
-1 -12 -11 2699 593 31
-1 -12 -13 2539 554 31
-2 -9 -8 945 164 31
-2 -10 -9 1658 254 31
-2 -10 -10 3788 323 31
-2 -10 -11 11617 645 31
-2 -11 -10 982 300 31
-2 -11 -11 1025 304 31
-2 -11 -12 1545 319 31
-2 -11 -13 2583 364 31
-2 -12 -11 1489 396 31
-2 -12 -12 1416 438 31
-2 -13 -16 2804 622 31
-3 -12 -10 3593 469 31
0 -2 -1 1832 75 31
0 -3 -2 7190 282 31
0 -4 -2 2891 207 31
0 -4 -3 579 61 31
0 -5 -3 4092 283 31
0 -6 -4 12519 683 31
0 -7 -5 1046 272 31
0 -8 -6 1426 365 31
-1 -3 0 16431 634 31
-1 -4 -1 305 61 31
-1 -5 -2 907 85 31
-1 -6 -2 1946 253 31
-1 -6 -3 19019 783 31
-1 -7 -3 58013 2780 31
-1 -8 -4 11519 771 31
-1 -9 -5 947 359 31
-1 -10 -6 8165 933 31
-2 -6 -1 55459 2286 31
-2 -7 -1 696 298 31
-2 -7 -2 31813 1404 31
-2 -8 -2 863 340 31
-2 -9 -3 2570 488 31
-2 -10 -4 1428 455 31
-5 1 2 34193 1559 32
-6 1 3 2316 124 32
-6 1 2 1825 103 32
-7 1 3 9856 476 32
-7 1 2 781 83 32
-8 2 3 3581 213 32
-8 1 3 1424 120 32
-8 1 2 2984 182 32
-9 2 4 1852 160 32
-9 1 4 1364 142 32
-10 2 4 950 150 32
-10 2 3 1204 162 32
-10 1 4 508 137 32
-10 1 3 1522 170 32
-11 2 5 332 167 32
-12 2 4 468 164 32
-12 1 4 592 169 32
-4 0 0 45299 1904 32
-4 0 -1 885 44 32
-5 0 0 4509 187 32
-5 0 -1 2045 94 32
-6 0 0 334 40 32
-6 0 -1 11964 502 32
-7 0 0 633 60 32
-7 0 -1 909 81 32
-8 0 0 4558 220 32
-8 0 -1 514 91 32
-8 0 -2 5549 272 32
-9 1 0 520 103 32
-9 1 -1 1003 125 32
-9 0 0 299 86 32
-9 0 -1 1838 143 32
-10 0 -1 1172 147 32
-11 1 -1 534 154 32
-12 1 -2 509 190 32
-3 0 -2 5983 241 32
-4 0 -2 18237 727 32
-5 0 -3 1453 86 32
-6 0 -3 16331 685 32
-6 0 -4 1107 97 32
-7 1 -3 271 90 32
-7 0 -3 960 95 32
-7 0 -4 865 107 32
-8 1 -4 3529 219 32
-8 1 -5 2223 197 32
-8 0 -4 765 122 32
-8 0 -5 1633 165 32
-9 2 -4 776 168 32
-9 2 -5 1584 209 32
-9 1 -5 1940 220 32
-9 0 -5 4483 295 32
-10 1 -4 687 152 32
-10 1 -5 556 182 32
-10 1 -6 599 207 32
-10 -1 -6 2086 240 32
-11 1 -6 462 231 32
-11 0 -6 656 230 32
-2 1 -2 1967 82 32
-3 2 -2 2224 98 32
-3 2 -3 7887 323 32
-3 1 -3 52419 2081 32
-4 3 -3 28752 1140 32
-4 3 -4 4538 247 32
-4 2 -3 1898 101 32
-4 2 -4 15587 633 32
-4 1 -4 1606 102 32
-5 3 -4 8253 380 32
-5 3 -5 2917 247 32
-5 2 -4 20639 833 32
-5 2 -5 1506 160 32
-6 4 -4 4033 269 32
-6 4 -6 715 280 32
-6 3 -5 3409 262 32
-6 2 -5 2964 209 32
-6 2 -6 1523 227 32
-6 1 -6 7201 382 32
-7 5 -6 2400 422 32
-7 5 -7 1402 570 32
-7 3 -8 1143 401 32
-7 2 -6 3852 309 32
-7 1 -8 928 318 32
-8 3 -7 958 344 32
-8 2 -7 651 257 32
-8 1 -9 1049 467 32
-1 3 8 12243 500 32
-1 3 7 1615 80 32
-1 2 6 318 33 32
-1 2 5 1439 64 32
-2 7 16 947 209 32
-2 6 16 454 167 32
-2 6 15 2401 226 32
-2 6 14 4177 275 32
-2 6 13 1640 170 32
-2 5 14 812 142 32
-2 5 13 1304 144 32
-2 5 12 276 105 32
-2 5 11 857 111 32
-2 5 10 12268 529 32
-2 4 11 14442 619 32
-2 4 10 5138 238 32
-2 4 9 8048 344 32
-2 3 8 4269 181 32
-3 7 18 559 216 32
-3 7 16 741 199 32
-3 7 14 2159 216 32
-3 6 16 3436 275 32
-3 6 15 1410 188 32
-3 6 14 2931 226 32
-3 6 13 3137 220 32
-3 5 14 2641 201 32
-4 8 17 463 207 32
-4 6 16 1964 227 32
-6 0 1 15854 610 32
-6 -1 1 4315 176 32
-6 -1 0 97 43 32
-7 0 1 3457 156 32
-7 -1 0 299 61 32
-8 -1 1 1112 92 32
-8 -1 0 2036 122 32
-9 -2 1 174 86 32
-10 0 1 1099 135 32
-10 -1 2 228 106 32
-10 -1 1 272 107 32
-10 -1 0 441 112 32
-11 -1 0 287 124 32
-3 -1 -1 941 42 32
-4 -1 -2 132 29 32
-5 -1 -2 99 41 32
-6 -1 -2 3221 141 32
-6 -1 -3 1385 84 32
-6 -2 -2 1795 89 32
-7 -1 -2 2272 120 32
-7 -1 -3 420 83 32
-7 -2 -3 376 80 32
-8 -1 -3 2951 167 32
-8 -2 -4 1969 147 32
-9 -1 -4 495 115 32
-9 -2 -3 776 120 32
-9 -2 -5 343 116 32
-9 -3 -4 6726 327 32
-10 -1 -3 388 123 32
-10 -2 -3 765 146 32
-10 -3 -3 286 119 32
-10 -3 -4 1856 184 32
-11 -1 -4 361 157 32
-11 -3 -5 336 164 32
-11 -4 -4 529 155 32
-12 -2 -3 335 148 32
-12 -2 -5 330 163 32
-12 -4 -4 1109 221 32
-12 -4 -5 386 177 32
-3 -1 -3 1429 65 32
-4 -1 -3 7959 305 32
-4 -1 -4 1174 77 32
-5 0 -4 6828 278 32
-5 -1 -4 998 83 32
-5 -1 -5 8556 352 32
-5 -2 -5 13735 542 32
-6 0 -5 795 111 32
-6 -1 -5 2958 164 32
-6 -1 -6 311 124 32
-6 -2 -5 553 95 32
-6 -2 -6 254 116 32
-7 0 -6 11323 520 32
-7 -1 -6 2592 199 32
-7 -1 -8 748 254 32
-7 -2 -6 323 122 32
-7 -3 -7 5573 337 32
-8 -1 -7 6466 405 32
-8 -2 -7 944 189 32
-8 -3 -7 490 179 32
-8 -3 -8 524 232 32
-9 -2 -7 1006 212 32
-9 -2 -9 793 359 32
-10 -2 -8 584 252 32
-10 -3 -9 773 294 32
-11 -1 -10 1487 494 32
-2 2 -3 10428 413 32
-2 1 -3 1108 68 32
-2 0 -3 15619 554 32
-3 4 -4 27992 1434 32
-3 3 -4 6514 382 32
-3 2 -4 22313 842 32
-3 2 -5 23583 1248 32
-3 1 -4 9062 336 32
-3 1 -5 4038 296 32
-3 0 -5 6844 340 32
-4 4 -5 10840 724 32
-4 3 -5 34436 1517 32
-4 2 -6 1733 325 32
-4 1 -6 2267 270 32
-4 0 -6 1294 199 32
-5 2 -7 7442 625 32
-5 1 -7 19991 1039 32
-5 0 -7 19875 963 32
-6 1 -8 4011 476 32
-1 1 5 2187 89 32
-2 2 10 4450 195 32
-2 2 9 11251 435 32
-2 2 8 24068 894 32
-2 2 7 4606 177 32
-2 1 8 4948 193 32
-2 1 7 1248 58 32
-3 4 17 567 161 32
-3 4 16 1100 178 32
-3 4 15 343 123 32
-3 3 15 1218 150 32
-3 3 13 328 110 32
-3 3 12 12935 533 32
-3 3 11 1550 116 32
-3 2 13 634 117 32
-3 2 12 280 92 32
-3 2 11 7635 319 32
-3 2 10 389 76 32
-4 5 20 829 242 32
-4 5 19 554 210 32
-4 4 17 363 152 32
-4 4 15 340 133 32
-4 3 17 1318 189 32
-4 3 14 274 119 32
-4 3 13 274 110 32
-4 2 16 1508 179 32
-4 2 14 278 112 32
-5 4 19 720 204 32
-5 4 17 608 173 32
-5 3 16 449 144 32
-4 -1 2 131 28 32
-4 -1 1 51597 2049 32
-5 -1 2 11713 443 32
-6 -1 3 251 51 32
-6 -1 2 45454 1721 32
-7 -1 4 14250 568 32
-7 -1 3 2501 127 32
-7 -2 3 5683 242 32
-7 -2 2 383 62 32
-8 -1 4 894 100 32
-8 -1 3 19955 809 32
-8 -2 4 403 87 32
-8 -2 3 1260 105 32
-8 -2 2 410 84 32
-9 -1 4 293 102 32
-9 -1 3 2355 152 32
-9 -2 4 2623 169 32
-10 -1 4 5844 312 32
-10 -2 4 308 116 32
-11 -1 4 529 141 32
-11 -2 6 534 158 32
-11 -2 5 715 163 32
-11 -2 4 298 132 32
-12 -1 5 1288 208 32
-12 -2 4 557 155 32
-5 -2 0 312 35 32
-5 -2 -1 1567 73 32
-6 -2 0 1653 83 32
-6 -2 -1 1903 96 32
-7 -2 0 745 74 32
-7 -2 -1 2157 120 32
-7 -3 0 278 60 32
-7 -3 -1 7735 323 32
-8 -2 -1 745 93 32
-8 -3 0 467 89 32
-9 -3 0 1848 143 32
-9 -3 -1 687 116 32
-9 -3 -2 443 113 32
-9 -4 -2 814 126 32
-10 -4 -1 820 137 32
-10 -4 -2 733 150 32
-12 -4 -2 1119 211 32
-13 -4 -2 423 196 32
-13 -5 -2 869 221 32
-3 -1 -2 21128 741 32
-3 -2 -2 11958 416 32
-4 -2 -2 12536 438 32
-4 -2 -3 5660 208 32
-5 -2 -3 161 53 32
-5 -3 -3 4127 164 32
-5 -3 -4 342 68 32
-6 -2 -4 287 76 32
-6 -3 -4 2086 120 32
-6 -4 -4 3670 173 32
-7 -3 -5 15909 611 32
-7 -4 -4 4842 223 32
-7 -4 -5 6606 296 32
-7 -4 -6 290 115 32
-8 -3 -5 6813 318 32
-8 -4 -4 11843 476 32
-8 -4 -5 299 138 32
-8 -4 -6 14355 609 32
-9 -3 -6 1858 205 32
-9 -4 -4 2129 176 32
-9 -4 -5 624 146 32
-9 -4 -6 815 183 32
-9 -5 -5 5895 328 32
-9 -5 -6 363 165 32
-12 -5 -8 1018 308 32
-2 -1 -3 8768 299 32
-2 -2 -3 3299 120 32
-3 -1 -4 432 57 32
-3 -2 -4 350 58 32
-3 -3 -4 11070 383 32
-4 -2 -5 1991 115 32
-4 -3 -5 5058 209 32
-4 -3 -6 14396 608 32
-4 -4 -5 2249 141 32
-4 -4 -6 15911 712 32
-5 -2 -7 2093 237 32
-5 -3 -6 21986 791 32
-5 -3 -8 7040 603 32
-5 -4 -6 13821 540 32
-5 -4 -7 1247 238 32
-5 -4 -8 1286 452 32
-5 -5 -6 3832 254 32
-5 -5 -7 24283 1139 32
-5 -6 -6 961 212 32
-6 -3 -7 3428 244 32
-6 -3 -8 1494 292 32
-6 -3 -9 2106 479 32
-6 -4 -7 21083 865 32
-6 -4 -8 1942 316 32
-6 -5 -7 425 204 32
-6 -7 -7 1298 313 32
-7 -2 -9 1084 369 32
-7 -6 -8 851 307 32
-8 -4 -10 1175 429 32
-8 -6 -9 2899 441 32
-8 -7 -9 3873 581 32
-9 -7 -10 1407 443 32
-4 -2 1 3467 150 32
-5 -2 1 3830 165 32
-6 -2 1 162 41 32
-6 -3 2 837 57 32
-6 -3 1 1968 101 32
-7 -3 1 365 69 32
-7 -4 2 518 72 32
-8 -3 2 672 92 32
-8 -3 1 561 84 32
-8 -4 2 354 86 32
-8 -4 1 226 87 32
-9 -4 3 413 103 32
-9 -4 2 2389 166 32
-9 -4 1 693 120 32
-10 -4 2 233 114 32
-10 -4 1 730 128 32
-10 -5 1 536 141 32
-11 -6 3 420 152 32
-13 -5 2 344 166 32
-3 -2 -1 172 24 32
-4 -3 -1 4166 167 32
-5 -3 -1 2362 104 32
-5 -3 -2 15460 616 32
-5 -4 -1 543 51 32
-6 -3 -2 218 57 32
-6 -4 -1 15236 621 32
-6 -4 -2 141 65 32
-7 -4 -1 866 87 32
-7 -4 -2 283 81 32
-7 -5 -1 3395 175 32
-7 -5 -2 2274 143 32
-7 -5 -3 252 96 32
-8 -5 -1 3525 194 32
-8 -5 -2 850 119 32
-8 -5 -3 433 115 32
-8 -6 -2 246 114 32
-8 -6 -3 1136 141 32
-9 -5 -2 649 128 32
-9 -6 -3 2578 205 32
-9 -7 -2 1179 160 32
-9 -7 -3 1924 202 32
-10 -6 -2 349 130 32
-10 -7 -2 706 171 32
-10 -7 -4 459 185 32
-11 -7 -2 476 175 32
-2 -2 -2 12766 502 32
-3 -3 -2 7971 319 32
-3 -3 -3 8758 363 32
-4 -4 -3 305 66 32
-4 -4 -4 7755 337 32
-4 -5 -3 534 80 32
-5 -4 -4 4800 227 32
-5 -5 -4 1184 120 32
-5 -5 -5 1149 130 32
-5 -6 -3 686 104 32
-5 -6 -4 10723 491 32
-5 -6 -5 4087 269 32
-6 -5 -4 1421 125 32
-6 -5 -5 2083 171 32
-6 -6 -4 1462 145 32
-6 -6 -5 2223 199 32
-6 -6 -6 1785 222 32
-6 -7 -4 2355 203 32
-6 -7 -5 1439 214 32
-6 -7 -6 1860 291 32
-7 -7 -7 915 252 32
-8 -7 -5 1732 229 32
-8 -7 -6 433 211 32
-9 -9 -7 1051 406 32
-9 -11 -6 3248 593 32
-10 -10 -7 1426 529 32
-1 -2 -1 4486 169 32
-1 -3 -1 27041 1040 32
-1 -4 -1 249 100 32
-2 -3 -3 1445 84 32
-2 -4 -2 437 47 32
-2 -4 -3 53302 2202 32
-2 -5 -2 4973 244 32
-2 -5 -3 4951 373 32
-2 -6 -1 53811 2191 32
-2 -6 -2 1347 260 32
-2 -7 -1 843 250 32
-3 -5 -4 14380 658 32
-3 -5 -5 1462 320 32
-3 -6 -3 4075 242 32
-3 -7 -3 9795 604 32
-3 -7 -4 2799 493 32
-3 -8 -2 1631 311 32
-3 -8 -3 13482 1012 32
-4 -6 -5 2172 272 32
-4 -6 -6 9276 758 32
-4 -7 -5 1623 360 32
-1 0 -6 7010 336 33
-1 0 -7 10820 495 33
-1 0 -8 856 59 33
-1 0 -9 63974 2908 33
-1 0 -10 4556 223 33
-2 0 -10 6017 293 33
-2 0 -11 168 77 33
-2 0 -13 3970 232 33
-2 0 -15 4607 288 33
-2 0 -16 4831 312 33
-2 0 -18 541 156 33
-2 0 -19 1337 208 33
-2 -1 -12 3122 178 33
-2 -1 -13 365 96 33
-2 -1 -14 303 113 33
-2 -1 -15 16400 822 33
-2 -1 -17 2311 209 33
-3 0 -15 6739 390 33
-3 0 -16 1788 192 33
-3 0 -17 1014 187 33
-3 0 -20 518 185 33
-3 -1 -14 11911 602 33
-3 -1 -15 12843 659 33
-3 -1 -16 405 146 33
-3 -1 -17 1772 198 33
-4 -1 -18 704 172 33
1 2 -19 582 208 33
1 2 -20 1280 262 33
1 1 -18 2612 240 33
1 1 -19 381 180 33
1 1 -20 1816 246 33
0 2 -15 418 125 33
0 2 -17 351 153 33
0 2 -18 2587 256 33
0 2 -19 424 180 33
0 1 -7 15968 650 33
0 1 -8 327 46 33
0 1 -9 28567 1185 33
0 1 -10 684 74 33
0 1 -11 6871 309 33
0 1 -12 3249 175 33
0 1 -13 8315 386 33
0 1 -14 1841 148 33
0 1 -15 3116 212 33
0 1 -16 5022 297 33
0 1 -17 472 142 33
0 1 -18 2452 223 33
0 1 -20 445 184 33
-1 1 -19 2858 263 33
-1 1 -20 1149 209 33
3 5 -15 998 309 33
3 4 -16 972 249 33
3 3 -14 359 143 33
3 3 -15 1096 207 33
3 3 -16 1320 236 33
2 5 -15 3349 371 33
2 4 -11 461 124 33
2 4 -12 367 143 33
2 4 -13 2651 232 33
2 4 -15 2430 262 33
2 3 -11 1593 141 33
2 3 -12 3656 223 33
2 3 -15 1812 205 33
2 3 -17 1233 210 33
2 2 -9 3922 189 33
2 2 -10 6880 313 33
2 2 -11 450 95 33
1 4 -12 3959 240 33
1 4 -13 284 129 33
1 3 -9 14957 631 33
1 3 -10 1721 124 33
1 3 -11 1350 124 33
1 2 -6 17325 706 33
1 2 -7 31249 1280 33
1 2 -8 150 57 33
1 2 -9 5358 240 33
1 2 -10 1899 113 33
1 1 -5 32023 1276 33
3 7 -11 1104 403 33
3 6 -10 4041 456 33
3 6 -11 1158 336 33
2 8 -13 1665 517 33
2 6 -8 811 247 33
2 6 -9 1013 239 33
2 6 -10 647 231 33
2 5 -7 2872 240 33
2 5 -8 1553 184 33
2 5 -10 1039 154 33
2 4 -6 994 111 33
2 4 -7 31376 1261 33
2 4 -8 13960 589 33
1 8 -8 984 348 33
1 8 -9 1539 446 33
1 8 -11 2372 436 33
1 7 -8 739 287 33
1 7 -9 1700 297 33
1 7 -10 863 273 33
1 6 -7 2608 258 33
1 6 -9 8982 495 33
1 5 -6 5357 280 33
1 5 -8 866 116 33
1 4 -5 3921 187 33
1 4 -6 31705 1253 33
1 3 -4 7463 303 33
1 3 -5 3295 147 33
1 2 -3 36037 1423 33
1 2 -4 862 46 33
-3 -1 -2 20521 866 33
-4 -1 -2 142 33 33
-5 -1 -3 1209 69 33
-5 -2 -3 148 46 33
-6 -2 -3 13540 563 33
-6 -2 -4 199 65 33
-7 -2 -3 420 91 33
-7 -2 -4 3640 191 33
-8 -2 -4 1944 154 33
-8 -2 -5 253 104 33
-8 -3 -4 1420 140 33
-8 -3 -5 7869 375 33
-9 -2 -4 282 118 33
-9 -3 -4 5503 322 33
-9 -3 -5 861 150 33
-9 -3 -6 1898 185 33
-9 -4 -5 674 139 33
-10 -3 -4 1453 211 33
-10 -3 -5 362 160 33
-10 -4 -5 4314 322 33
-10 -4 -6 294 143 33
0 -1 -8 2150 92 33
0 -1 -9 2206 97 33
0 -1 -10 18646 719 33
0 -1 -11 4023 177 33
0 -1 -12 173 74 33
0 -1 -13 316 81 33
0 -1 -16 13732 597 33
0 -1 -17 1025 145 33
0 -1 -18 1964 191 33
0 -1 -20 507 167 33
0 -2 -15 2574 161 33
0 -2 -17 1135 149 33
0 -2 -18 2269 194 33
-1 -1 -11 12661 501 33
-1 -1 -12 6926 291 33
-1 -1 -13 787 90 33
-1 -1 -14 187 89 33
-1 -1 -15 5570 272 33
-1 -1 -16 9257 424 33
-1 -1 -17 364 131 33
-1 -1 -18 753 149 33
-1 -1 -19 283 135 33
-1 -2 -16 1901 154 33
-1 -2 -17 1443 147 33
-1 -2 -18 966 155 33
-1 -2 -20 320 153 33
3 2 -19 426 214 33
3 1 -14 2973 205 33
3 1 -16 3427 267 33
3 1 -18 667 207 33
3 1 -19 1156 244 33
3 1 -20 456 219 33
3 0 -15 274 121 33
3 0 -16 978 171 33
3 0 -17 2577 249 33
3 0 -18 1103 216 33
3 0 -19 1202 216 33
2 2 -16 407 155 33
2 2 -19 1134 240 33
2 1 -10 9366 381 33
2 1 -11 1871 127 33
2 1 -12 3483 186 33
2 1 -13 1938 148 33
2 1 -14 3341 200 33
2 1 -15 784 144 33
2 1 -16 2175 205 33
2 1 -17 3183 254 33
2 1 -19 916 200 33
2 0 -10 47979 1837 33
2 0 -11 22215 867 33
2 0 -12 240 89 33
2 0 -13 525 106 33
2 0 -14 368 107 33
2 0 -15 1496 149 33
2 0 -16 593 144 33
2 0 -17 1105 181 33
2 0 -18 566 163 33
1 1 -8 11474 438 33
1 1 -9 40299 1533 33
1 1 -10 18797 727 33
1 0 -5 17078 651 33
1 0 -6 2698 106 33
1 0 -7 1667 72 33
1 0 -8 3777 149 33
1 0 -9 322 53 33
1 0 -10 24695 942 33
1 0 -11 6697 274 33
6 2 -15 1349 366 33
5 4 -14 960 366 33
5 3 -14 892 295 33
4 4 -11 624 242 33
4 4 -14 1687 309 33
4 3 -13 491 189 33
4 2 -10 1825 184 33
4 2 -11 3403 246 33
4 1 -10 2189 177 33
3 3 -8 2783 185 33
3 3 -9 5996 297 33
3 3 -10 7038 341 33
3 3 -11 617 133 33
3 2 -7 2912 154 33
3 2 -8 8903 374 33
3 2 -9 743 105 33
3 2 -10 4750 241 33
3 1 -7 224 67 33
3 1 -8 1217 95 33
2 3 -8 22776 882 33
2 2 -6 22821 877 33
2 2 -7 155 65 33
2 1 -5 1557 75 33
2 1 -6 35972 1366 33
1 1 -3 324 21 33
4 5 -8 2461 459 33
4 4 -7 1859 382 33
4 3 -6 660 279 33
3 5 -6 13221 893 33
3 5 -7 1083 264 33
3 4 -5 1918 339 33
3 4 -6 506 205 33
3 3 -5 4469 293 33
3 2 -4 3999 270 33
2 7 -7 5249 624 33
2 6 -6 1002 319 33
2 4 -5 1257 144 33
2 3 -4 9032 356 33
2 2 -3 3396 154 33
1 8 -7 7155 793 33
1 7 -6 6906 619 33
1 5 -4 12848 627 33
1 4 -3 8863 421 33
1 4 -4 2058 117 33
1 3 -3 12399 443 33
1 2 -2 45445 1582 33
-3 -2 -3 10329 412 33
-4 -2 -3 6007 229 33
-5 -3 -4 269 49 33
-5 -3 -5 1392 73 33
-6 -3 -5 13442 526 33
-6 -4 -5 19261 751 33
-6 -4 -6 409 77 33
-7 -4 -5 8076 347 33
-7 -5 -6 22485 897 33
-8 -4 -6 19050 782 33
-8 -4 -7 771 121 33
-9 -6 -8 254 127 33
-9 -6 -9 2550 218 33
-9 -7 -8 731 154 33
-10 -6 -7 666 176 33
-10 -6 -8 396 151 33
-10 -7 -8 993 210 33
-10 -7 -10 676 175 33
-10 -8 -9 562 175 33
-11 -6 -8 511 206 33
-11 -6 -10 381 179 33
-11 -7 -10 402 174 33
-1 -2 -8 15203 577 33
-1 -2 -9 24846 943 33
-1 -2 -10 864 68 33
-1 -2 -11 8899 356 33
-1 -3 -10 18264 702 33
-1 -3 -11 506 69 33
-1 -3 -12 1493 102 33
-1 -3 -13 948 100 33
-1 -3 -14 3452 186 33
-1 -3 -15 289 111 33
-1 -4 -14 12421 523 33
-1 -4 -16 2224 172 33
-1 -4 -17 411 133 33
-1 -4 -18 1794 196 33
-1 -4 -19 1587 199 33
-1 -4 -20 379 166 33
-1 -4 -21 779 191 33
-2 -3 -12 4186 192 33
-2 -3 -13 218 91 33
-2 -3 -14 9910 426 33
-2 -3 -15 1429 135 33
-2 -3 -16 1305 146 33
-2 -3 -17 9763 467 33
-2 -4 -15 230 106 33
-2 -4 -16 1285 148 33
-2 -4 -17 4561 272 33
-2 -4 -18 3500 248 33
-2 -4 -19 6017 361 33
-2 -5 -18 414 146 33
-2 -5 -20 415 167 33
-2 -5 -21 1367 229 33
-2 -6 -21 2989 289 33
-3 -5 -20 510 177 33
3 -2 -19 951 245 33
3 -3 -20 483 235 33
2 -2 -15 1599 165 33
2 -2 -16 2275 199 33
2 -2 -17 378 144 33
2 -2 -18 506 161 33
2 -2 -19 684 200 33
2 -2 -21 417 188 33
2 -3 -16 3600 241 33
2 -3 -17 849 166 33
2 -3 -19 3197 296 33
2 -3 -20 937 214 33
2 -4 -19 1760 244 33
2 -4 -20 639 204 33
2 -4 -21 533 219 33
1 -1 -7 5549 213 33
1 -1 -8 9312 353 33
1 -1 -9 1436 78 33
1 -1 -10 178 61 33
1 -1 -11 2874 143 33
1 -1 -12 8971 376 33
1 -1 -13 5353 253 33
1 -1 -14 664 112 33
1 -1 -16 784 144 33
1 -2 -9 2668 115 33
1 -2 -10 17306 672 33
1 -2 -11 318 72 33
1 -2 -12 3735 181 33
1 -2 -14 4365 226 33
1 -2 -15 3041 195 33
1 -2 -17 1393 174 33
1 -2 -18 1694 194 33
1 -2 -19 438 163 33
1 -3 -15 1139 133 33
1 -3 -16 613 131 33
1 -3 -17 519 134 33
1 -3 -19 3188 273 33
6 -1 -19 1443 342 33
5 1 -17 1004 299 33
5 0 -14 507 190 33
5 0 -15 777 205 33
5 0 -17 704 253 33
5 -1 -14 702 179 33
5 -1 -16 666 217 33
5 -2 -16 579 207 33
5 -2 -19 597 257 33
4 1 -13 789 155 33
4 1 -14 737 162 33
4 1 -15 693 185 33
4 0 -10 237 99 33
4 0 -11 12568 516 33
4 0 -12 9344 420 33
4 0 -14 603 156 33
4 -1 -12 242 115 33
4 -2 -13 2493 190 33
3 1 -11 2390 152 33
3 0 -8 287 72 33
3 0 -9 1431 102 33
3 0 -10 1020 105 33
3 0 -11 6775 289 33
3 0 -12 2131 147 33
3 -1 -9 1544 104 33
3 -1 -10 3137 156 33
3 -1 -12 3178 176 33
3 -1 -13 3990 208 33
2 0 -5 9834 348 33
2 0 -6 5901 214 33
2 0 -7 22994 815 33
2 0 -8 2546 109 33
2 -1 -6 14341 503 33
2 -1 -7 1143 56 33
1 0 -4 20162 750 33
7 1 -12 1911 641 33
7 1 -14 1484 500 33
7 -2 -11 1822 526 33
6 1 -9 1825 481 33
6 1 -10 860 367 33
6 1 -11 1020 335 33
6 0 -9 1045 390 33
6 -1 -10 645 295 33
5 4 -10 3163 508 33
5 3 -9 742 346 33
5 3 -10 3745 407 33
5 2 -8 886 303 33
5 1 -7 1348 329 33
5 1 -9 1872 250 33
5 1 -10 1880 246 33
5 0 -7 1498 283 33
5 -2 -8 693 172 33
4 3 -8 1980 248 33
4 2 -7 10189 471 33
4 2 -8 336 133 33
4 1 -6 957 162 33
4 1 -7 13382 524 33
4 1 -8 2167 160 33
4 0 -6 3227 196 33
4 0 -7 663 115 33
4 -1 -6 974 125 33
3 2 -6 2892 143 33
3 1 -5 307 73 33
3 1 -6 16679 573 33
3 0 -4 479 66 33
3 0 -5 13950 479 33
2 1 -4 624 40 33
2 0 -3 37032 1248 33
1 -4 -14 835 110 33
1 -4 -15 5846 310 33
1 -5 -18 373 160 33
1 -6 -20 1264 231 33
1 -6 -21 681 194 33
0 -2 -6 11477 496 33
0 -2 -7 36700 1519 33
0 -2 -8 2863 126 33
0 -2 -9 3206 141 33
0 -3 -9 90501 3675 33
0 -3 -10 14685 608 33
0 -3 -11 430 69 33
0 -3 -13 1984 132 33
0 -3 -14 225 95 33
0 -4 -11 209 59 33
0 -4 -12 160 80 33
0 -4 -13 710 98 33
0 -4 -14 512 104 33
0 -4 -15 1439 141 33
0 -4 -16 280 119 33
0 -4 -17 330 129 33
0 -4 -18 4270 287 33
0 -4 -19 1515 201 33
0 -5 -15 803 126 33
0 -5 -16 284 117 33
0 -5 -17 282 129 33
0 -5 -18 1744 197 33
0 -6 -17 1381 176 33
0 -6 -18 8407 469 33
0 -6 -19 1362 208 33
-1 -6 -19 2521 235 33
4 -3 -16 366 151 33
4 -3 -17 754 206 33
4 -3 -18 751 210 33
4 -3 -20 888 284 33
4 -4 -15 326 153 33
4 -4 -20 702 232 33
4 -5 -20 917 273 33
4 -6 -18 571 204 33
3 -2 -13 576 112 33
3 -2 -15 2514 199 33
3 -3 -12 10773 476 33
3 -3 -14 365 120 33
3 -3 -15 676 144 33
3 -3 -17 339 148 33
3 -4 -13 419 113 33
3 -4 -16 1664 179 33
3 -4 -17 456 153 33
3 -4 -18 781 177 33
3 -4 -19 442 177 33
3 -5 -17 311 156 33
3 -5 -18 426 171 33
2 -2 -8 22456 894 33
2 -2 -9 10482 431 33
2 -2 -10 4589 206 33
2 -2 -11 1782 114 33
2 -3 -9 3239 150 33
2 -3 -10 59307 2376 33
2 -3 -11 10046 429 33
2 -3 -13 351 96 33
1 -1 -4 31613 1348 33
1 -1 -5 1894 80 33
6 -2 -12 3488 447 33
6 -3 -12 8602 713 33
5 -1 -11 1337 223 33
5 -2 -9 1131 195 33
5 -2 -10 6351 406 33
5 -2 -11 698 194 33
5 -2 -12 3057 289 33
5 -3 -10 885 213 33
5 -3 -11 626 194 33
5 -3 -12 789 219 33
5 -3 -13 3218 306 33
5 -4 -11 4796 373 33
4 -1 -9 1121 132 33
4 -2 -8 890 123 33
4 -2 -9 9908 457 33
4 -2 -10 3878 229 33
4 -3 -9 1972 166 33
3 -1 -6 1644 100 33
3 -1 -7 1039 86 33
3 -2 -6 3412 164 33
3 -2 -7 2079 119 33
3 -2 -8 6935 306 33
3 -3 -7 3403 168 33
2 -1 -4 190 34 33
2 -1 -5 1541 71 33
6 -3 -8 2013 542 33
5 -1 -6 2831 491 33
5 -2 -6 3220 500 33
5 -3 -7 3080 383 33
5 -4 -7 3202 448 33
4 -3 -5 14989 814 33
4 -4 -5 4329 414 33
4 -6 -5 7834 836 33
4 -7 -6 10359 855 33
3 -2 -3 2243 241 33
3 -2 -4 2240 134 33
3 -3 -3 17902 1007 33
3 -3 -4 6612 308 33
3 -4 -4 11959 568 33
3 -5 -4 9780 576 33
2 -2 -2 794 85 33
2 -3 -2 8106 410 33
1 -1 -1 5214 204 33
1 -2 -1 3921 156 33
-1 11 -4 313 133 34
-1 10 -4 5967 349 34
-1 9 -3 13294 657 34
-1 9 -4 5716 318 34
-1 8 -3 2415 153 34
-1 8 -4 11922 587 34
-1 7 -3 640 78 34
-1 7 -4 3405 184 34
-1 6 -2 4070 196 34
-1 6 -3 46845 2133 34
-1 5 -2 119 39 34
-1 4 -2 13721 648 34
-2 13 -4 3110 298 34
-2 13 -5 787 192 34
-2 13 -6 618 212 34
-2 11 -3 432 145 34
-2 11 -5 388 140 34
-2 11 -6 304 151 34
-2 10 -3 11657 608 34
-2 10 -4 11627 609 34
-2 9 -3 2583 179 34
-2 8 -4 29182 1394 34
-3 12 -5 730 201 34
-3 12 -6 583 196 34
2 14 -4 400 186 34
2 13 -6 2078 262 34
2 12 -3 559 159 34
1 14 -3 2210 269 34
1 14 -5 562 190 34
1 13 -3 638 160 34
1 13 -5 1065 186 34
1 12 -4 647 154 34
1 11 -2 4722 268 34
1 11 -3 1224 152 34
1 10 -2 3741 216 34
1 10 -3 2832 183 34
1 10 -4 3250 206 34
1 9 -2 3479 190 34
1 9 -3 1273 117 34
1 9 -4 8528 397 34
1 8 -2 4482 216 34
1 8 -3 1381 105 34
1 7 -2 3783 177 34
1 7 -3 13271 567 34
1 6 -2 6401 272 34
5 13 -3 1328 321 34
4 14 -2 514 248 34
4 13 -1 1177 288 34
4 13 -3 503 211 34
4 12 -1 3986 362 34
4 12 -3 2359 263 34
4 11 -3 885 182 34
3 15 0 594 249 34
3 13 0 1465 250 34
3 13 -1 4827 376 34
3 13 -2 2656 277 34
3 12 0 1166 204 34
3 12 -1 3732 288 34
3 12 -2 3165 276 34
3 11 0 1673 182 34
3 10 0 2048 178 34
3 10 -1 5364 297 34
3 10 -2 1837 173 34
3 9 -1 4795 254 34
3 9 -2 674 117 34
2 10 0 217 107 34
2 9 0 4763 241 34
2 9 -1 873 109 34
2 8 0 240 84 34
2 8 -1 1439 110 34
2 7 0 9169 394 34
2 7 -1 427 75 34
2 6 0 237 57 34
2 6 -1 1979 104 34
1 5 0 45617 1812 34
1 4 0 9490 383 34
1 3 0 24417 998 34
5 14 4 3298 689 34
5 14 2 1312 529 34
5 13 2 2780 510 34
5 12 2 2322 440 34
5 11 2 869 366 34
4 14 6 6893 1013 34
4 13 3 1905 431 34
4 12 3 2261 405 34
4 12 2 2854 365 34
4 11 4 3626 509 34
4 11 2 665 251 34
4 9 2 2683 300 34
3 15 7 2119 598 34
3 14 7 2501 686 34
3 14 6 2843 597 34
3 11 6 954 402 34
3 11 5 759 316 34
3 11 4 703 250 34
3 10 5 10485 747 34
3 10 4 4235 390 34
3 10 3 3760 307 34
3 9 3 4714 316 34
3 9 2 635 151 34
3 8 3 15255 730 34
3 8 2 1359 161 34
3 7 2 37267 1526 34
2 11 5 3952 364 34
2 10 5 1662 250 34
2 10 4 912 171 34
2 9 5 598 203 34
2 9 4 451 154 34
2 8 4 608 144 34
2 8 3 1192 134 34
2 7 3 65499 2569 34
2 7 2 50422 1981 34
2 6 2 2511 136 34
2 6 1 89704 3554 34
2 5 1 7890 323 34
1 5 2 1708 80 34
1 4 2 86356 3410 34
1 3 1 33246 1291 34
-3 1 0 12816 523 34
-4 1 0 639 45 34
-4 1 -1 380 32 34
-5 1 0 5516 233 34
-5 1 -1 155 49 34
-6 2 0 289 73 34
-6 2 -1 1772 105 34
-6 1 0 398 75 34
-6 1 -1 468 73 34
-7 2 0 393 101 34
-7 2 -1 268 91 34
-7 1 -1 3593 191 34
-7 1 -2 3833 195 34
-8 3 0 2925 195 34
-8 2 0 507 121 34
-8 2 -1 861 127 34
-8 2 -2 5579 287 34
-9 3 -1 1501 171 34
-9 3 -2 4103 268 34
-9 2 -1 2156 205 34
-9 2 -2 6031 335 34
-9 1 -2 347 142 34
-10 3 0 396 182 34
-10 3 -2 1768 231 34
-10 2 0 569 185 34
-10 2 -1 1154 212 34
-10 2 -2 816 189 34
-10 1 -3 1288 207 34
-11 4 0 522 229 34
-11 3 0 465 221 34
-11 3 -1 666 235 34
-11 2 -1 1386 258 34
-11 2 -2 645 198 34
-12 3 -1 703 226 34
-12 2 0 570 273 34
1 12 -7 973 184 34
1 12 -8 600 185 34
1 12 -9 472 164 34
1 11 -7 493 141 34
1 10 -6 3237 210 34
1 10 -7 3165 212 34
1 9 -6 6038 293 34
0 13 -6 890 173 34
0 13 -7 721 184 34
0 11 -6 636 138 34
0 11 -9 627 163 34
0 10 -5 13013 565 34
0 10 -7 279 123 34
0 9 -6 1429 136 34
0 8 -4 595 87 34
0 8 -5 30908 1232 34
0 8 -6 1016 110 34
0 8 -7 5287 256 34
0 7 -4 1375 92 34
0 7 -5 10548 431 34
0 7 -6 6607 287 34
0 6 -3 25500 977 34
0 6 -4 2739 122 34
0 6 -5 906 72 34
0 5 -3 19688 756 34
0 5 -4 1237 66 34
0 4 -2 2071 87 34
0 4 -3 9224 364 34
-1 12 -8 724 171 34
-1 11 -8 366 140 34
-1 10 -7 502 132 34
4 14 -5 877 222 34
4 13 -7 618 231 34
4 11 -5 5240 356 34
4 11 -6 3170 287 34
4 11 -7 360 174 34
4 11 -8 472 182 34
3 13 -6 773 201 34
3 12 -5 757 167 34
3 11 -4 707 161 34
3 11 -6 360 143 34
3 10 -4 2192 184 34
3 10 -5 1217 168 34
3 10 -6 5149 300 34
3 10 -7 2927 229 34
3 9 -4 933 126 34
3 9 -5 2503 177 34
3 9 -6 4825 265 34
3 8 -4 1375 126 34
3 8 -5 5478 263 34
3 8 -6 15715 641 34
2 9 -4 2783 164 34
2 9 -5 6367 297 34
2 8 -3 2704 149 34
2 8 -4 205 88 34
2 8 -5 984 107 34
2 7 -4 3494 166 34
2 6 -3 1030 76 34
2 6 -4 18984 734 34
1 4 -2 6893 257 34
1 3 -2 9471 372 34
7 12 -4 1350 474 34
6 12 0 1273 487 34
6 12 -2 2937 480 34
6 10 -2 699 322 34
6 10 -3 621 302 34
6 9 -4 2858 371 34
5 12 -1 1856 331 34
5 11 0 2069 334 34
5 11 -1 1058 265 34
5 10 -2 2953 308 34
5 10 -3 672 228 34
5 9 -2 2019 256 34
5 9 -4 690 184 34
5 8 -3 896 187 34
5 8 -4 1695 215 34
4 10 0 2067 236 34
4 9 0 3069 242 34
4 9 -1 1143 174 34
4 9 -2 292 133 34
4 8 -2 498 127 34
4 8 -3 576 130 34
4 7 -1 9986 442 34
4 7 -3 5880 281 34
4 6 -3 6001 276 34
3 7 0 15990 632 34
3 7 -1 15501 610 34
3 6 0 13540 532 34
3 6 -1 20077 775 34
3 6 -2 2806 142 34
3 5 -1 30803 1172 34
2 5 0 1750 84 34
2 4 0 1931 84 34
2 4 -1 12307 466 34
1 2 0 13894 541 34
5 9 2 2950 507 34
4 9 4 1509 473 34
4 8 3 3712 462 34
4 7 2 33092 1576 34
4 6 1 579 264 34
4 5 0 1847 252 34
3 10 6 2992 537 34
3 8 4 7896 514 34
3 7 4 4391 475 34
3 7 3 9772 498 34
3 6 3 3973 377 34
3 6 2 20304 811 34
3 5 2 916 226 34
3 5 1 1706 138 34
2 8 6 1196 363 34
2 7 5 3394 344 34
2 6 4 1495 215 34
2 5 3 5781 285 34
2 3 1 5568 223 34
1 4 3 3537 145 34
1 2 1 4111 149 34
-3 1 -1 7291 291 34
-3 1 -2 2416 99 34
-4 1 -2 2549 103 34
-5 1 -2 32471 1204 34
-5 1 -3 5878 229 34
-6 2 -2 159 64 34
-6 2 -3 18257 707 34
-6 2 -4 8612 345 34
-6 1 -4 236 70 34
-7 2 -3 15465 624 34
-7 2 -4 1971 136 34
-7 1 -3 361 94 34
-7 1 -5 297 99 34
-8 2 -3 3078 195 34
-8 2 -4 3750 218 34
-8 2 -5 1196 144 34
-8 1 -4 4150 228 34
-8 1 -5 3175 198 34
-9 3 -3 499 153 34
-9 3 -4 1121 156 34
-9 2 -4 1029 157 34
-9 2 -5 1519 174 34
-9 1 -5 2662 210 34
-10 3 -6 374 171 34
-10 2 -6 649 165 34
-10 1 -4 623 174 34
-10 1 -5 445 167 34
-10 1 -6 460 167 34
-11 3 -7 375 181 34
-1 11 -10 1422 222 34
-1 11 -11 464 195 34
-1 10 -9 1235 189 34
-1 10 -10 705 193 34
-1 10 -12 394 195 34
-1 9 -8 2880 205 34
-1 9 -9 2474 204 34
-1 8 -7 325 112 34
-1 8 -8 4144 234 34
-1 8 -10 5095 290 34
-1 7 -6 17617 717 34
-1 7 -7 1228 119 34
-1 7 -8 4419 225 34
-1 7 -9 1152 134 34
-1 6 -5 603 73 34
-1 6 -6 5165 225 34
-1 6 -7 372 88 34
-1 6 -8 22920 925 34
-1 5 -5 14258 547 34
-1 5 -6 247 60 34
-1 5 -7 194 70 34
-1 4 -4 15874 603 34
-1 4 -5 39727 1525 34
-2 11 -9 647 186 34
-2 11 -10 766 199 34
-2 10 -9 2130 214 34
-2 10 -12 659 198 34
-2 9 -9 351 151 34
-2 9 -10 350 157 34
-2 9 -13 946 200 34
-2 8 -8 1712 159 34
-2 8 -9 2419 191 34
-2 8 -10 1186 163 34
-2 8 -11 2458 211 34
-2 7 -8 1391 133 34
-2 7 -9 832 122 34
-2 6 -7 6071 267 34
-3 10 -11 410 205 34
3 11 -10 489 202 34
3 10 -9 442 186 34
3 10 -10 637 202 34
2 11 -11 540 192 34
2 10 -11 1788 239 34
2 9 -7 2123 186 34
2 9 -11 368 176 34
2 8 -8 2775 197 34
2 8 -9 4033 250 34
2 8 -10 1737 184 34
2 8 -11 1951 202 34
2 7 -6 9270 399 34
2 7 -7 7284 335 34
2 7 -8 388 120 34
2 6 -6 1277 100 34
1 11 -11 1061 217 34
1 10 -10 694 164 34
1 9 -9 1689 177 34
1 8 -7 13136 561 34
1 8 -8 1693 153 34
1 7 -6 11738 484 34
1 7 -7 20821 841 34
1 7 -8 2005 144 34
1 6 -4 42464 1628 34
1 6 -5 788 76 34
1 6 -6 2687 138 34
1 6 -7 5209 233 34
1 5 -4 20011 752 34
1 5 -5 37377 1414 34
1 5 -6 9243 367 34
1 4 -4 3262 130 34
1 4 -5 6101 235 34
1 3 -3 18482 710 34
7 10 -8 1507 442 34
6 11 -7 1611 359 34
6 10 -7 913 306 34
6 9 -7 1637 328 34
6 9 -9 740 282 34
5 11 -8 794 234 34
5 10 -5 810 207 34
5 10 -6 717 214 34
5 10 -7 2502 295 34
5 10 -8 1773 273 34
5 9 -6 505 175 34
5 9 -7 1974 249 34
5 8 -6 2170 218 34
5 8 -7 6090 368 34
5 8 -9 3557 297 34
5 8 -10 1340 241 34
5 7 -6 915 168 34
5 7 -7 472 164 34
5 7 -8 1006 193 34
5 7 -9 2986 266 34
5 7 -10 393 180 34
4 9 -8 1633 198 34
4 8 -4 1532 145 34
4 8 -6 773 148 34
4 8 -7 5369 290 34
4 7 -5 1123 135 34
4 7 -6 1580 151 34
4 7 -7 4436 245 34
4 7 -8 3891 238 34
4 6 -5 7111 309 34
4 6 -6 393 113 34
4 6 -7 1270 139 34
3 6 -3 1532 95 34
3 6 -5 16417 613 34
3 6 -6 1801 120 34
3 5 -4 2271 117 34
3 5 -5 13436 501 34
3 5 -6 23312 854 34
2 4 -2 6022 215 34
2 4 -3 3411 129 34
2 4 -4 1098 58 34
2 3 -3 2432 92 34
2 3 -4 16107 564 34
7 7 -6 1258 448 34
6 8 -3 732 296 34
6 7 -2 4481 575 34
6 7 -4 651 312 34
6 6 -4 1411 374 34
6 6 -6 2503 373 34
6 5 -6 4913 522 34
6 4 -8 1115 367 34
5 7 -1 6865 458 34
5 6 -2 7390 460 34
5 6 -3 415 193 34
5 5 -3 1415 260 34
5 5 -4 1739 230 34
5 5 -5 2312 222 34
5 4 -4 7830 515 34
5 4 -5 2910 292 34
5 4 -6 725 196 34
4 5 -2 4150 207 34
4 5 -3 235 92 34
4 4 -2 1998 185 34
4 4 -3 422 114 34
4 3 -4 1014 139 34
4 3 -5 10189 397 34
3 4 -1 9302 327 34
3 3 -2 14523 496 34
3 3 -3 19435 660 34
3 2 -4 5694 211 34
2 2 -1 1026 50 34
2 2 -2 1997 74 34
1 1 -1 53665 2022 34
1 9 -14 1041 226 34
1 8 -11 2733 239 34
1 8 -12 1797 218 34
1 8 -13 428 181 34
1 8 -14 687 191 34
1 7 -10 1479 155 34
1 6 -9 16716 747 34
0 9 -11 351 149 34
0 8 -10 3291 234 34
0 8 -11 859 165 34
0 8 -12 3238 262 34
0 8 -13 823 192 34
0 8 -14 1839 247 34
0 7 -9 405 113 34
0 7 -10 1467 156 34
0 7 -11 1068 150 34
0 7 -12 1795 196 34
0 7 -13 6318 389 34
0 7 -14 5093 360 34
0 6 -8 4058 209 34
0 6 -9 4988 257 34
0 6 -10 423 114 34
0 6 -11 1691 161 34
0 6 -12 1661 177 34
0 5 -7 2224 122 34
0 5 -8 210 77 34
0 5 -9 1186 109 34
0 5 -10 813 111 34
0 4 -5 3754 161 34
0 4 -6 41706 1697 34
0 4 -7 37215 1526 34
0 4 -8 204 66 34
0 3 -4 3217 140 34
0 3 -5 76848 3130 34
0 3 -6 9550 395 34
4 10 -12 1150 255 34
4 8 -10 1886 227 34
4 8 -11 582 196 34
4 8 -12 582 203 34
4 8 -14 1210 279 34
4 8 -15 823 266 34
4 7 -12 529 187 34
3 9 -13 469 183 34
3 8 -10 1909 196 34
3 8 -12 723 191 34
3 8 -13 561 198 34
3 7 -8 11149 505 34
3 7 -9 1422 163 34
3 7 -10 1192 173 34
3 7 -11 993 174 34
3 7 -13 1281 215 34
3 6 -8 1250 135 34
3 6 -9 398 128 34
3 6 -10 6725 346 34
3 6 -11 2705 217 34
3 6 -13 1409 200 34
3 5 -8 415 104 34
3 5 -9 587 118 34
2 6 -9 1674 141 34
2 5 -6 1263 88 34
2 5 -7 6491 284 34
2 5 -8 2595 150 34
2 4 -5 2374 110 34
2 4 -6 1973 106 34
2 4 -7 51186 2048 34
2 4 -8 21407 876 34
1 2 -3 37101 1540 34
1 2 -4 1127 51 34
6 7 -8 2142 355 34
6 7 -9 1149 349 34
6 6 -8 697 302 34
6 6 -10 602 278 34
6 5 -9 1296 383 34
6 4 -10 3175 538 34
5 6 -6 1743 212 34
5 6 -7 786 175 34
5 6 -8 669 181 34
5 5 -7 6917 428 34
5 5 -9 864 202 34
5 4 -8 6912 457 34
5 4 -9 564 230 34
5 4 -10 3983 378 34
4 4 -7 2446 183 34
4 4 -8 19932 871 34
4 4 -9 9805 477 34
4 3 -7 14351 644 34
4 3 -8 2916 211 34
4 3 -9 10482 518 34
3 3 -4 3303 155 34
3 3 -5 7429 324 34
3 3 -6 5036 234 34
3 2 -5 742 72 34
3 2 -6 3688 182 34
3 2 -7 3655 188 34
2 2 -3 6157 250 34
2 2 -4 141 38 34
5 2 -8 1167 382 34
5 1 -10 1754 541 34
4 1 -6 891 364 34
4 1 -7 15117 877 34
4 1 -8 2283 293 34
3 1 -4 526 162 34
3 1 -5 211 104 34
3 0 -6 5293 390 34
3 -1 -9 1229 311 34
3 -1 -10 2967 343 34
2 1 -2 15306 592 34
2 0 -4 5723 247 34
2 0 -5 8338 334 34
2 -1 -6 9759 509 34
2 -1 -7 659 131 34
2 -2 -8 13732 922 34
2 -2 -9 5945 479 34
1 0 -2 3390 133 34
1 -1 -4 25312 974 34
