#------------------------------------------------------------------------------
#$Date: 2019-11-03 13:50:43 +0200 (Sun, 03 Nov 2019) $
#$Revision: 221578 $
#$URL: file:///home/coder/svn-repositories/cod/cif/4/12/84/4128475.cif $
#------------------------------------------------------------------------------
#
# This file is available in the Crystallography Open Database (COD),
# http://www.crystallography.net/
#
# All data on this site have been placed in the public domain by the
# contributors.
#
data_4128475
loop_
_publ_author_name
'Arz, Marius I.'
'Annibale, Vincent T.'
'Kelly, Nicole L.'
'Hanna, John V.'
'Manners, Ian'
_publ_section_title
;
 Ring-Opening Polymerization of Cyclic Phosphonates: Access to Inorganic
 Polymers with a P<sup>V</sup>-O Main Chain.
;
_journal_issue                   7
_journal_name_full               'Journal of the American Chemical Society'
_journal_page_first              2894
_journal_page_last               2899
_journal_paper_doi               10.1021/jacs.8b13435
_journal_volume                  141
_journal_year                    2019
_chemical_formula_moiety         'C9 H13 O3 P'
_chemical_formula_sum            'C9 H13 O3 P'
_chemical_formula_weight         200.16
_space_group_crystal_system      monoclinic
_space_group_IT_number           11
_space_group_name_Hall           '-P 2yb'
_space_group_name_H-M_alt        'P 1 21/m 1'
_atom_sites_solution_hydrogens   mixed
_atom_sites_solution_primary     dual
_audit_creation_date             2018-05-31
_audit_creation_method
;
Olex2 1.2
(compiled 2018.05.29 svn.r3508 for OlexSys, GUI svn.r5506)
;
_cell_angle_alpha                90
_cell_angle_beta                 98.998(2)
_cell_angle_gamma                90
_cell_formula_units_Z            2
_cell_length_a                   7.9568(3)
_cell_length_b                   7.0412(3)
_cell_length_c                   8.3981(3)
_cell_measurement_reflns_used    2686
_cell_measurement_temperature    100(2)
_cell_measurement_theta_max      27.65
_cell_measurement_theta_min      2.46
_cell_volume                     464.72(3)
_computing_molecular_graphics    'Olex2 (Dolomanov et al., 2009)'
_computing_publication_material  'Olex2 (Dolomanov et al., 2009)'
_computing_structure_refinement  'ShelXL (Sheldrick, 2015)'
_computing_structure_solution    'ShelXT (Sheldrick, 2015)'
_diffrn_ambient_temperature      100.01
_diffrn_measured_fraction_theta_full 1.000
_diffrn_measured_fraction_theta_max 1.000
_diffrn_measurement_device_type  'Bruker APEX-II CCD'
_diffrn_measurement_method       '\f and \w scans'
_diffrn_radiation_monochromator  graphite
_diffrn_radiation_type           MoK\a
_diffrn_radiation_wavelength     0.71073
_diffrn_reflns_av_R_equivalents  0.0171
_diffrn_reflns_av_unetI/netI     0.0150
_diffrn_reflns_Laue_measured_fraction_full 1.000
_diffrn_reflns_Laue_measured_fraction_max 1.000
_diffrn_reflns_limit_h_max       8
_diffrn_reflns_limit_h_min       -10
_diffrn_reflns_limit_k_max       9
_diffrn_reflns_limit_k_min       -9
_diffrn_reflns_limit_l_max       10
_diffrn_reflns_limit_l_min       -10
_diffrn_reflns_number            4501
_diffrn_reflns_point_group_measured_fraction_full 1.000
_diffrn_reflns_point_group_measured_fraction_max 1.000
_diffrn_reflns_theta_full        25.242
_diffrn_reflns_theta_max         27.654
_diffrn_reflns_theta_min         2.455
_diffrn_standards_number         0
_exptl_absorpt_coefficient_mu    0.266
_exptl_absorpt_correction_T_max  0.7456
_exptl_absorpt_correction_T_min  0.6593
_exptl_absorpt_correction_type   multi-scan
_exptl_absorpt_process_details
'SADABS-2014/5 (Bruker,2014/5) was used for absorption correction. wR2(int) was 0.0548 before and 0.0298 after correction. The Ratio of minimum to maximum transmission is 0.8843. The \l/2 correction factor is Not present.'
_exptl_crystal_colour            colourless
_exptl_crystal_density_diffrn    1.430
_exptl_crystal_description       block
_exptl_crystal_F_000             212
_exptl_crystal_size_max          0.32
_exptl_crystal_size_mid          0.27
_exptl_crystal_size_min          0.25
_refine_diff_density_max         0.469
_refine_diff_density_min         -0.449
_refine_diff_density_rms         0.057
_refine_ls_extinction_method     none
_refine_ls_goodness_of_fit_ref   1.045
_refine_ls_hydrogen_treatment    mixed
_refine_ls_matrix_type           full
_refine_ls_number_parameters     86
_refine_ls_number_reflns         1177
_refine_ls_number_restraints     0
_refine_ls_restrained_S_all      1.045
_refine_ls_R_factor_all          0.0308
_refine_ls_R_factor_gt           0.0282
_refine_ls_shift/su_max          0.000
_refine_ls_shift/su_mean         0.000
_refine_ls_structure_factor_coef Fsqd
_refine_ls_weighting_details
'w=1/[\s^2^(Fo^2^)+(0.0447P)^2^+0.2388P] where P=(Fo^2^+2Fc^2^)/3'
_refine_ls_weighting_scheme      calc
_refine_ls_wR_factor_gt          0.0787
_refine_ls_wR_factor_ref         0.0804
_reflns_Friedel_coverage         0.000
_reflns_number_gt                1081
_reflns_number_total             1177
_reflns_threshold_expression     'I > 2\s(I)'
_cod_data_source_file            ja8b13435_si_002.cif
_cod_data_source_block           MesPO(OH)2
_cod_database_code               4128475
_shelx_shelxl_version_number     2018/3
_shelx_space_group_comment
;
The symmetry employed for this shelxl refinement is uniquely defined
by the following loop, which should always be used as a source of
symmetry information in preference to the above space-group names.
They are only intended as comments.
;
_shelx_estimated_absorpt_t_max   0.936
_shelx_estimated_absorpt_t_min   0.920
_olex2_refinement_description
;
1. Fixed Uiso
 At 1.2 times of:
  All C(H) groups
 At 1.5 times of:
  All C(H,H,H) groups, All O(H) groups
2. Others
 Fixed Sof: H7A(0.5) H7B(0.5) H7C(0.5) H8A(0.5) H8B(0.5) H8C(0.5)
3.a Aromatic/amide H refined with riding coordinates:
 C3(H3), C5(H5)
3.b Idealised Me refined as rotating group:
 C7(H7A,H7B,H7C), C8(H8A,H8B,H8C)
3.c Idealised tetrahedral OH refined as rotating group:
 O1(H1)
;
_shelx_res_file
;
TITL MesPO(OH)2_a.res in P2(1)/m
    MesPO(OH)2.res
    created by SHELXL-2018/3 at 19:37:46 on 31-May-2018
REM Old TITL MesPO(OH)2 in P2(1)/m
REM SHELXT solution in P2(1)/m: R1 0.070, Rweak 0.004, Alpha 0.023
REM <I/s> 3.958 for 4 systematic absences, Orientation as input
REM Formula found by SHELXT: C9 O3 P
CELL 0.71073 7.9568 7.0412 8.3981 90 98.998 90
ZERR 2 0.0003 0.0003 0.0003 0 0.002 0
LATT 1
SYMM -X,0.5+Y,-Z
SFAC C H O P
UNIT 18 26 6 2

L.S. 8
PLAN  20
SIZE 0.25 0.27 0.32
TEMP -173.14
BOND
list 4
fmap 2
ACTA
REM <olex2.extras>
REM <HklSrc "%.\\MesPO(OH)2.hkl">
REM </olex2.extras>

WGHT    0.044700    0.238800
FVAR       0.99351
P1    4    0.499647    0.250000    0.870599    10.50000    0.00952    0.00964 =
         0.01429    0.00000    0.00250    0.00000
O1    3    0.616071    0.421115    0.842357    11.00000    0.01366    0.01181 =
         0.01946   -0.00208    0.00513   -0.00231
AFIX 147
H1    2    0.577839    0.520795    0.878403    11.00000   -1.50000
AFIX   0
O2    3    0.454370    0.250000    1.038033    10.50000    0.01524    0.01202 =
         0.01506    0.00000    0.00316    0.00000
C1    1    0.316676    0.250000    0.715450    10.50000    0.01044    0.00855 =
         0.01563    0.00000    0.00256    0.00000
C2    1    0.346992    0.250000    0.553138    10.50000    0.01130    0.00930 =
         0.01702    0.00000    0.00363    0.00000
C3    1    0.208093    0.250000    0.429211    10.50000    0.01456    0.01279 =
         0.01533    0.00000    0.00398    0.00000
AFIX  43
H3    2    0.228314    0.250000    0.320680    10.50000   -1.20000
AFIX   0
C4    1    0.041148    0.250000    0.458963    10.50000    0.01258    0.01083 =
         0.01894    0.00000    0.00158    0.00000
C5    1    0.013949    0.250000    0.618570    10.50000    0.00981    0.01400 =
         0.02033    0.00000    0.00392    0.00000
AFIX  43
H5    2   -0.099728    0.250000    0.640196    10.50000   -1.20000
AFIX   0
C6    1    0.146986    0.250000    0.748023    10.50000    0.01244    0.01016 =
         0.01748    0.00000    0.00455    0.00000
C7    1    0.522529    0.250000    0.505432    10.50000    0.01167    0.01506 =
         0.01724    0.00000    0.00543    0.00000
PART -1
AFIX 137
H7A   2    0.513162    0.225501    0.389508    10.50000   -1.50000
H7B   2    0.591879    0.150607    0.565316    10.50000   -1.50000
H7C   2    0.576313    0.373892    0.530552    10.50000   -1.50000
AFIX   0
PART 0
C8    1   -0.106447    0.250000    0.322833    10.50000    0.01380    0.02076 =
         0.01964    0.00000   -0.00042    0.00000
PART -1
AFIX 137
H8A   2   -0.189105    0.346744    0.343064    10.50000   -1.50000
H8B   2   -0.161008    0.124851    0.315444    10.50000   -1.50000
H8C   2   -0.065312    0.278404    0.221372    10.50000   -1.50000
AFIX   0
PART 0
C9    1    0.096406    0.250000    0.914578    10.50000    0.01197    0.02720 =
         0.01803    0.00000    0.00601    0.00000
H9A   2    0.138355    0.136378    0.976048    11.00000    0.02358
H9B   2   -0.027653    0.250000    0.900415    10.50000    0.01943
HKLF 4




REM  MesPO(OH)2_a.res in P2(1)/m
REM wR2 = 0.0804, GooF = S = 1.045, Restrained GooF = 1.045 for all data
REM R1 = 0.0282 for 1081 Fo > 4sig(Fo) and 0.0308 for all 1177 data
REM 86 parameters refined using 0 restraints

END

WGHT      0.0447      0.2387

REM Highest difference peak  0.469,  deepest hole -0.449,  1-sigma level  0.057
Q1    1   0.4045  0.2500  0.7896  10.50000  0.05    0.47
Q2    1  -0.0310  0.2500  0.3910  10.50000  0.05    0.38
Q3    1   0.0856  0.2500  0.6807  10.50000  0.05    0.35
Q4    1   0.2829  0.2500  0.4937  10.50000  0.05    0.34
Q5    1   0.3369  0.2500  0.6368  10.50000  0.05    0.31
Q6    1   0.0344  0.2500  0.5428  10.50000  0.05    0.28
Q7    1   0.1231  0.2500  0.8288  10.50000  0.05    0.27
Q8    1   0.1211  0.2500  0.4487  10.50000  0.05    0.25
Q9    1   0.4313  0.2500  0.5337  10.50000  0.05    0.24
Q10   1   0.2432  0.2500  0.7360  10.50000  0.05    0.24
Q11   1   0.5622  0.3495  0.8611  11.00000  0.05    0.24
Q12   1   0.4741  0.2500  0.9591  10.50000  0.05    0.23
Q13   1   0.4749  0.2500  1.0744  10.50000  0.05    0.14
Q14   1   0.5950  0.4706  0.8289  11.00000  0.05    0.14
Q15   1   0.6466  0.4055  0.7805  11.00000  0.05    0.14
Q16   1   0.4071  0.1807  1.0356  11.00000  0.05    0.13
Q17   1   0.6417  0.4619  0.8934  11.00000  0.05    0.13
Q18   1   0.6936  0.5244  0.9978  11.00000  0.05    0.12
Q19   1   0.7159  0.4435  0.9056  11.00000  0.05    0.11
Q20   1   0.2202  0.2500  0.3847  10.50000  0.05    0.11
;
_shelx_res_checksum              65680
_shelx_hkl_file
;
  -1   0   0 1339.17   20.40
  -1   0   0 1419.16   19.40
  -2   0   0 2752.12   38.10
  -2   0   0 2766.52   37.70
  -2   0   0 2740.73   38.40
  -2   0   0 2707.03   37.50
  -3   0   0  254.77    4.00
  -3   0   0  258.17    5.40
  -3   0   0  256.97    4.30
  -3   0   0  254.07    4.20
  -4   0   0    4.10    0.60
  -4   0   0    2.70    1.20
  -4   0   0    2.80    0.60
  -4   0   0    2.70    0.40
  -5   0   0  100.49    2.60
  -5   0   0  104.09    2.70
  -5   0   0  102.39    4.10
  -5   0   0  102.39    2.30
  -6   0   0  300.87    5.10
  -6   0   0  274.07    7.50
  -6   0   0  284.07    5.60
  -6   0   0  293.97    5.70
  -7   0   0  261.97    5.40
  -7   0   0  253.67    7.60
  -7   0   0  255.07    5.50
  -8   0   0  274.27    6.00
  -8   0   0  274.47    8.30
  -8   0   0  266.27    5.80
  -9   0   0   28.90    3.40
 -10   0   0  121.89    6.40
   0  -1   0    4.70    0.40
  -1  -1   0  938.91   14.00
  -1   1   0  980.70   13.40
  -2  -1   0  109.19    2.40
  -2  -1   0  106.09    2.10
  -2  -1   0  113.49    2.10
  -2   1   0  114.19    2.00
  -3  -1   0    4.40    0.50
  -3  -1   0    4.00    0.50
  -3  -1   0    5.20    0.70
  -3  -1   0    4.40    0.90
  -3   1   0    4.80    0.40
  -3   1   0    4.30    0.50
   3   1   0    4.60    0.40
  -3   1   0    3.50    1.10
  -4  -1   0   27.80    1.10
  -4  -1   0   29.50    1.20
  -4  -1   0   28.30    2.00
  -4  -1   0   30.90    1.40
  -4   1   0   30.20    1.20
  -4   1   0   26.40    2.10
  -4   1   0   30.50    1.00
  -5  -1   0   15.00    2.00
  -5  -1   0   15.00    1.10
  -5  -1   0   14.90    1.00
  -5  -1   0   14.20    1.20
  -5   1   0   14.40    2.10
  -5   1   0   16.50    1.10
  -5   1   0   15.80    0.80
  -6  -1   0    1.50    1.40
  -6  -1   0    1.90    0.60
  -6  -1   0    1.00    0.50
  -6  -1   0    2.00    0.80
  -6   1   0    1.10    0.70
  -6   1   0    6.30    2.00
  -6   1   0    2.00    0.40
  -6   1   0    0.70    0.60
  -7  -1   0  219.28    4.70
  -7  -1   0  210.98    5.10
  -7  -1   0  212.18    6.60
  -7  -1   0  216.68    4.50
  -7   1   0  220.98    7.20
  -7   1   0  221.48    4.80
  -7   1   0  207.18    4.90
  -8  -1   0    1.40    0.90
  -8  -1   0    0.30    1.60
  -8  -1   0    1.50    0.70
  -8   1   0    2.30    1.60
  -8   1   0    2.50    0.80
  -9  -1   0    1.50    1.00
  -9  -1   0    4.20    1.90
  -9   1   0    3.70    2.20
 -10  -1   0   78.59    5.00
 -10   1   0   76.49    5.50
   0  -2   0 9999.00  133.99
   0   2   0 9739.33  133.79
  -1  -2   0    0.20    0.30
  -1  -2   0    0.10    0.40
   1   2   0    2.20    0.40
  -1   2   0    0.40    0.60
  -2  -2   0 1478.95   21.60
   2   2   0 1479.95   20.80
  -3  -2   0  808.02   12.10
  -3  -2   0  798.32   11.90
  -3  -2   0  824.92   11.80
   3   2   0  831.72   11.00
  -3   2   0  833.62   11.40
  -3   2   0  813.62   13.40
  -4  -2   0  678.23   10.40
  -4  -2   0  672.93   11.20
  -4  -2   0  704.13   10.30
   4   2   0  696.33    9.30
  -4   2   0  690.43   10.00
  -4   2   0  682.13   12.40
  -5  -2   0  827.62   12.90
  -5  -2   0  803.92   13.70
  -5  -2   0  827.92   12.30
  -5  -2   0  835.92   12.50
  -5   2   0  824.42   12.10
  -5   2   0  826.92   15.00
  -6  -2   0  519.15    9.20
  -6  -2   0  511.75   10.30
  -6  -2   0  515.45    8.60
  -6  -2   0  493.85    8.40
  -6   2   0  511.15   11.30
  -6   2   0  518.55    8.30
  -7  -2   0  151.08    3.80
  -7  -2   0  146.49    4.30
  -7  -2   0  147.29    5.30
  -7  -2   0  146.09    3.80
  -7   2   0  148.29    5.90
  -7   2   0  148.19    4.50
  -8  -2   0   41.10    3.30
  -8  -2   0   46.30    2.60
  -8   2   0   44.20    4.30
  -8   2   0   48.30    2.50
  -9  -2   0    9.10    1.60
  -9  -2   0    5.80    1.90
  -9   2   0   10.50    2.80
 -10  -2   0   47.90    3.10
 -10   2   0   40.00    4.60
   0  -3   0    0.60    0.40
   0   3   0    0.90    0.40
   0   3   0    1.20    0.60
  -1  -3   0 1679.13   23.10
  -1  -3   0 1666.73   23.50
  -1   3   0 1710.83   23.00
  -1   3   0 1666.63   23.40
   1   3   0 1633.84   22.70
  -2  -3   0  462.95    7.60
  -2  -3   0  466.65    7.20
   2   3   0  476.45    7.10
  -2   3   0  476.15    8.30
  -3  -3   0  333.17    5.70
  -3  -3   0  349.37    6.00
  -3   3   0  346.97    7.20
   3   3   0  347.37    5.30
  -4  -3   0    2.10    0.70
  -4  -3   0    2.90    0.70
  -4  -3   0    0.90    0.80
  -4   3   0    2.90    1.40
   4   3   0    2.90    0.40
  -5  -3   0   14.20    1.30
  -5  -3   0   16.60    1.80
  -5  -3   0   15.80    1.30
  -5   3   0   13.30    2.20
  -5   3   0   18.30    1.10
  -6  -3   0  149.69    3.90
  -6  -3   0  151.08    3.70
  -6  -3   0  148.69    4.30
  -6  -3   0  140.39    4.50
  -6   3   0  134.99    3.90
  -6   3   0  146.09    5.80
  -7  -3   0   15.50    1.80
  -7  -3   0   13.80    2.20
  -7  -3   0   13.60    1.50
  -7  -3   0   15.80    1.50
  -7   3   0   13.40    2.60
  -7   3   0   16.20    2.00
  -8  -3   0    6.20    1.60
  -8  -3   0    8.10    1.50
  -8   3   0    3.60    2.20
  -9  -3   0   11.50    1.80
  -9   3   0   12.30    3.00
  -9   3   0   11.20    1.70
   0  -4   0 3879.71   53.99
   0   4   0 3766.32   53.69
  -1  -4   0   56.89    2.30
  -1  -4   0   56.69    1.90
   1   4   0   52.89    2.00
  -1   4   0   55.49    2.40
  -1   4   0   58.19    2.00
  -2  -4   0  786.12   11.60
  -2  -4   0  800.82   12.40
  -2   4   0  781.32   12.50
   2   4   0  765.22   11.50
  -2   4   0  762.82   12.80
  -3  -4   0  351.46    6.60
  -3   4   0  364.76    7.60
  -3   4   0  343.97    7.30
   3   4   0  349.87    5.80
  -4  -4   0  396.86    7.50
  -4  -4   0  392.56    7.30
   4   4   0  393.26    6.20
  -4   4   0  403.46    8.40
  -4   4   0  412.36    9.00
  -5  -4   0  471.55    8.70
  -5  -4   0  467.75    8.40
  -5   4   0  480.25    9.60
  -5   4   0  462.45   10.40
  -6  -4   0  356.56    7.30
  -6  -4   0  350.86    7.60
  -6  -4   0  341.77    6.90
  -6   4   0  354.56    8.00
  -6   4   0  339.67    9.10
  -7  -4   0  121.79    4.00
  -7  -4   0  125.89    4.40
  -7   4   0  128.59    4.70
  -7   4   0  125.29    5.90
  -8  -4   0   49.90    3.10
  -8  -4   0   43.30    2.50
  -8   4   0   44.00    4.40
  -9  -4   0    0.00    1.10
  -9   4   0    0.50    2.10
   0  -5   0   -0.30    0.50
   0   5   0   -1.20    0.70
  -1  -5   0  145.69    3.60
   1  -5   0  153.28    3.90
  -1   5   0  152.28    3.60
  -1   5   0  151.48    4.30
   1   5   0  149.49    3.80
  -2  -5   0   18.30    1.80
  -2  -5   0   17.70    1.30
   2   5   0   17.50    1.40
  -2   5   0   18.00    2.00
  -2   5   0   19.50    1.80
  -3  -5   0    0.50    0.80
  -3   5   0    1.00    1.10
   3   5   0    0.10    0.50
  -3   5   0    1.20    1.10
  -4  -5   0    7.60    1.30
  -4  -5   0    8.10    1.30
  -4   5   0    4.20    1.50
  -4   5   0    5.20    1.60
  -5  -5   0    6.50    1.20
  -5  -5   0    9.70    1.40
  -5   5   0    6.90    1.70
  -5   5   0    7.70    1.90
  -6  -5   0   -1.00    0.70
  -6  -5   0   -0.30    0.70
  -6  -5   0    0.20    0.80
  -6   5   0    3.00    1.80
  -6   5   0   -0.90    1.30
  -7  -5   0  164.78    5.30
  -7  -5   0  166.78    5.00
  -7   5   0  159.58    6.60
  -7   5   0  163.28    5.60
  -8  -5   0    4.20    1.50
  -8  -5   0    1.00    1.00
  -8   5   0    4.20    1.60
  -8   5   0   -0.80    1.60
   0  -6   0 2902.01   40.00
   0   6   0 2884.91   40.20
   1  -6   0  265.37    6.00
  -1  -6   0  271.67    5.80
  -1   6   0  277.17    6.50
   1   6   0  270.77    5.90
  -2  -6   0  411.76    8.70
  -2  -6   0  415.86    7.80
  -2   6   0  427.36    8.20
   2   6   0  412.76    7.70
  -2   6   0  420.96    8.80
  -3  -6   0   60.39    2.40
  -3  -6   0   58.09    3.00
   3   6   0   59.89    2.30
  -3   6   0   54.09    3.20
  -3   6   0   67.29    3.20
  -4  -6   0   21.30    2.10
  -4  -6   0   25.90    2.00
  -4   6   0   32.30    2.90
  -4   6   0   28.20    2.70
  -5  -6   0   82.89    3.50
  -5  -6   0   86.79    3.60
  -5   6   0   83.39    4.10
  -5   6   0   79.99    4.30
  -6  -6   0  191.48    5.60
  -6  -6   0  184.48    5.40
  -6   6   0  186.58    6.80
  -6   6   0  186.78    6.10
  -7  -6   0  144.29    5.30
  -7  -6   0  141.59    5.00
  -7   6   0  149.79    5.70
  -7   6   0  147.99    6.60
   0  -7   0    0.40    0.60
   0   7   0    0.50    1.00
  -1  -7   0   84.99    3.10
   1  -7   0   80.79    3.30
   1   7   0   90.09    3.40
  -1   7   0   82.39    3.60
   2  -7   0    2.20    0.90
  -2  -7   0    4.90    1.00
   2   7   0    2.50    1.00
  -2   7   0    2.20    1.30
  -3  -7   0    2.30    0.80
  -3   7   0    1.60    1.30
   3   7   0    1.30    0.80
  -4  -7   0    3.50    1.20
  -4  -7   0    5.90    1.50
  -4   7   0    2.80    1.40
  -4   7   0    1.80    1.40
  -5  -7   0    1.70    0.90
  -5  -7   0    2.90    1.30
  -5   7   0    1.10    1.40
  -5   7   0    1.60    1.50
  -6  -7   0    2.20    1.20
  -6   7   0    0.90    1.60
  -6   7   0   -0.90    1.50
   0  -8   0  800.62   14.00
   0   8   0  790.12   14.20
   1  -8   0   23.30    2.20
  -1  -8   0   21.60    2.00
   1   8   0   23.40    2.20
  -1   8   0   21.80    2.40
  -2  -8   0  164.38    6.40
   2  -8   0  170.68    5.30
   2   8   0  171.88    4.90
  -2   8   0  175.88    5.80
  -3  -8   0  126.89    4.80
   3  -8   0  127.39    4.70
  -3   8   0  138.69    5.30
   4  -8   0  153.58    5.30
  -4  -8   0  143.99    5.20
  -4   8   0  158.28    5.90
  -5  -8   0  191.08    6.20
  -5   8   0  190.18    6.70
   0  -9   0    0.80    1.00
   0   9   0    0.80    1.40
   1  -9   0  125.19    4.70
   1   9   0  119.29    4.60
  -1   9   0  126.69    5.10
   2  -9   0   30.90    2.80
  -2   9   0   29.90    3.10
 -10   0   1   -0.20    2.10
  -9   0   1   83.49    5.30
  -9   0   1   79.69    3.20
  -8   0   1  118.69    5.90
  -8   0   1  139.29    3.80
  -8   0   1  125.79    3.90
  -7   0   1  110.29    3.40
  -7   0   1  118.89    3.30
  -7   0   1  114.89    5.40
  -6   0   1  170.48    3.80
  -6   0   1  164.78    3.10
  -6   0   1  167.68    4.00
  -6   0   1  168.28    5.90
  -5   0   1   19.20    0.80
  -5   0   1   15.20    2.00
  -5   0   1   19.80    1.30
  -5   0   1   19.50    1.20
  -4   0   1  497.75    7.10
  -4   0   1  504.45    8.00
  -4   0   1  504.05    7.60
  -3   0   1  225.58    3.30
  -3   0   1  227.28    4.10
  -3   0   1  227.98    3.70
   3   0  -1  233.78    3.80
   2   0  -1  315.87    4.70
  -2   0   1  314.17    4.90
   1   0  -1 2243.68   31.70
  -1   0   1 2278.87   32.30
   0   0  -1    4.80    0.30
   0   0  -1    4.60    0.30
   0   0   1    4.60    0.20
   0   0  -1    4.50    0.30
  -1   0  -1  934.71   13.00
  -1   0  -1  963.60   13.30
  -1   0  -1 1016.20   14.50
  -2   0  -1 2909.01   42.60
  -2   0  -1 2869.21   41.60
  -2   0  -1 2841.12   41.10
  -2   0  -1 2914.71   38.80
  -3   0  -1  634.84    8.40
  -3   0  -1  612.84    9.20
  -3   0  -1  611.84    8.60
  -3   0  -1  597.84    8.90
  -3   0  -1  612.94   10.10
  -4   0  -1   92.29    2.10
  -4   0  -1   95.39    2.30
  -4   0  -1   92.19    3.30
  -4   0  -1   97.99    2.60
  -4   0  -1   94.99    1.90
  -5   0  -1  229.78    5.90
  -5   0  -1  222.08    4.30
  -5   0  -1  227.98    3.80
  -5   0  -1  229.78    4.20
  -5   0  -1  222.78    4.70
  -6   0  -1  280.47    5.20
  -6   0  -1  276.97    5.20
  -6   0  -1  285.97    5.80
  -6   0  -1  275.07    7.20
  -7   0  -1    5.10    0.80
  -7   0  -1    4.20    1.60
  -7   0  -1    6.60    1.10
  -7   0  -1    5.10    0.90
  -8   0  -1   31.70    3.30
  -8   0  -1   31.20    2.10
  -9   0  -1   97.89    5.20
  -9   0  -1  100.19    3.80
 -10   0  -1  156.98    6.90
 -10  -1   1   -0.50    1.90
 -10   1   1   -0.60    2.20
  -9  -1   1   95.69    3.60
  -9  -1   1   94.99    3.60
  -9  -1   1  102.69    5.60
  -9   1   1   99.89    3.70
  -9   1   1   93.49    5.80
  -8  -1   1   13.50    1.50
  -8  -1   1   11.70    1.40
  -8  -1   1    9.70    2.20
  -8   1   1   17.30    3.10
  -8   1   1    9.50    1.40
  -7  -1   1   53.59    2.30
  -7  -1   1   49.50    2.20
  -7  -1   1   61.19    4.00
  -7   1   1   55.59    4.30
  -7   1   1   53.59    2.50
  -7   1   1   55.89    2.10
  -6  -1   1   30.80    1.70
  -6  -1   1   29.10    1.70
  -6  -1   1   29.80    2.90
  -6  -1   1   27.30    1.30
  -6   1   1   28.20    3.20
  -6   1   1   30.30    1.80
  -6   1   1   29.90    1.50
  -5  -1   1    0.30    0.30
  -5  -1   1    0.20    0.50
  -5  -1   1    0.70    0.60
  -5  -1   1    0.20    1.10
  -5   1   1    1.00    1.40
  -5   1   1    0.50    0.40
   5   1  -1    1.20    0.50
  -4  -1   1  186.18    3.80
  -4  -1   1  188.98    3.40
  -4   1   1  191.58    3.30
  -4   1   1  188.58    5.00
   4   1  -1  192.28    3.30
  -3  -1   1  356.06    5.90
  -3   1   1  366.96    5.20
   3   1  -1  368.26    5.40
  -2  -1   1  524.75    7.70
   2   1  -1  529.05    7.40
  -1  -1   1 1071.09   15.80
   1  -1  -1 1093.59   15.40
   1   1  -1 1100.49   14.50
   0  -1  -1 1854.41   25.80
   0  -1  -1 1872.61   26.20
   0  -1  -1 1863.51   27.20
   0  -1   1 1889.81   27.20
   0   1  -1 1906.01   27.30
  -1  -1  -1  168.68    2.60
  -1  -1  -1  162.08    2.90
  -1   1  -1  166.88    2.90
  -1   1  -1  169.18    3.20
  -1   1  -1  166.48    2.80
  -2  -1  -1   40.50    0.90
  -2  -1  -1   38.10    1.30
  -2  -1  -1   41.60    1.40
  -2  -1  -1   37.20    1.20
  -2   1  -1   39.80    1.20
  -2   1  -1   40.80    1.30
  -2   1  -1   40.80    1.30
  -2   1  -1   38.90    1.70
  -3  -1  -1  106.39    2.00
  -3  -1  -1  104.69    2.60
  -3  -1  -1  105.09    2.40
  -3  -1  -1  112.69    2.90
  -3   1  -1  105.79    2.40
  -3   1  -1  107.49    2.30
  -3   1  -1  104.99    3.30
  -3   1  -1  107.89    2.40
  -4  -1  -1  206.58    4.10
  -4  -1  -1  215.48    4.90
  -4  -1  -1  207.38    4.30
  -4  -1  -1  217.88    3.70
  -4   1  -1  207.78    4.00
  -4   1  -1  204.78    3.80
  -4   1  -1  205.78    4.10
  -4   1  -1  208.58    5.40
  -5  -1  -1  243.78    6.00
  -5  -1  -1  258.97    4.90
  -5  -1  -1  255.27    5.30
  -5  -1  -1  256.47    4.50
  -5   1  -1  253.07    5.00
  -5   1  -1  257.87    4.60
  -5   1  -1  254.67    6.70
  -5   1  -1  258.67    4.80
  -6  -1  -1 1438.26   21.00
  -6  -1  -1 1430.26   20.30
  -6  -1  -1 1423.76   19.90
  -6  -1  -1 1390.16   22.30
  -6   1  -1 1399.96   23.10
  -6   1  -1 1441.66   20.60
  -6   1  -1 1435.16   20.00
  -6   1  -1 1382.76   20.30
  -6   1  -1 1431.76   19.90
  -7  -1  -1    6.30    1.70
  -7  -1  -1    8.80    1.30
  -7  -1  -1    6.20    0.90
  -7   1  -1    7.40    1.90
  -7   1  -1    8.70    1.20
  -7   1  -1    7.80    1.10
  -8  -1  -1  309.17    8.40
  -8  -1  -1  306.27    7.00
  -8   1  -1  312.47    9.00
  -8   1  -1  302.17    6.60
  -9  -1  -1   50.99    3.90
  -9  -1  -1   55.29    2.90
  -9   1  -1   51.49    4.20
 -10  -1  -1  123.19    5.90
 -10   1  -1  121.89    6.40
 -10  -2   1    5.60    2.30
 -10   2   1   11.40    3.20
  -9  -2   1   29.50    3.40
  -9  -2   1   28.70    2.40
  -9   2   1   29.80    2.30
  -9   2   1   36.40    4.30
  -8  -2   1    1.30    0.90
  -8  -2   1    1.50    0.80
  -8  -2   1    3.40    1.80
  -8   2   1    2.70    1.00
  -8   2   1    0.10    2.00
  -7  -2   1    7.90    1.10
  -7  -2   1    5.00    1.80
  -7  -2   1    7.40    1.20
  -7  -2   1    6.40    0.90
  -7   2   1    6.30    2.10
  -6  -2   1    9.80    1.10
  -6  -2   1   10.80    1.30
  -6  -2   1   10.60    1.20
  -6  -2   1   10.50    1.90
  -6   2   1   10.10    2.20
  -6   2   1    8.40    0.90
  -5  -2   1   53.69    1.90
  -5  -2   1   49.70    2.70
  -5  -2   1   55.59    2.10
   5   2  -1   53.79    1.50
  -5   2   1   51.39    1.50
  -5   2   1   51.99    3.50
  -4  -2   1    2.40    0.60
  -4   2   1    2.80    1.30
  -4   2   1    2.50    0.40
   4   2  -1    2.40    0.40
  -3  -2   1 1988.70   27.40
   3   2  -1 2042.20   27.20
  -3   2   1 2034.40   28.90
  -2  -2   1  317.27    5.40
   2   2  -1  324.57    5.00
  -2   2   1  323.97    6.00
  -1  -2   1 1961.00   27.00
  -1  -2   1 1929.31   26.90
   1   2  -1 1935.81   28.10
   0  -2  -1  376.16    5.90
   0   2  -1  377.76    5.90
  -1  -2  -1   57.39    1.60
  -1  -2  -1   55.79    1.50
  -1  -2  -1   59.89    1.60
  -1   2  -1   57.69    1.90
  -2  -2  -1  122.59    2.70
  -2  -2  -1  120.89    2.30
  -2  -2  -1  123.19    2.40
  -2   2  -1  124.59    2.60
  -2   2  -1  123.19    2.90
   2   2   1  123.99    2.10
  -2   2  -1  124.89    3.30
  -3  -2  -1   79.29    2.30
  -3  -2  -1   78.79    2.20
  -3  -2  -1   83.29    1.90
  -3  -2  -1   78.09    2.20
  -3   2  -1   76.79    3.00
  -3   2  -1   78.79    2.40
  -3   2  -1   81.59    2.10
  -4  -2  -1  282.17    5.60
  -4  -2  -1  286.87    5.40
  -4  -2  -1  282.07    5.60
  -4  -2  -1  285.37    4.80
  -4   2  -1  281.57    5.10
  -4   2  -1  282.07    6.70
  -4   2  -1  281.77    5.50
  -5  -2  -1  825.52   12.70
  -5  -2  -1  838.42   12.10
  -5  -2  -1  824.02   13.50
  -5  -2  -1  832.32   13.20
  -5   2  -1  840.72   12.90
  -5   2  -1  813.92   14.80
  -5   2  -1  814.92   12.50
  -6  -2  -1    2.40    1.20
  -6  -2  -1    2.00    1.00
  -6  -2  -1    1.70    0.70
  -6  -2  -1    1.90    0.60
  -6   2  -1    2.20    1.50
  -6   2  -1    2.00    0.90
  -6   2  -1    1.50    0.70
  -7  -2  -1   27.00    2.20
  -7  -2  -1   28.80    1.70
  -7  -2  -1   26.90    2.50
  -7   2  -1   32.00    1.90
  -7   2  -1   28.40    3.10
  -8  -2  -1   21.10    2.10
  -8  -2  -1   18.10    2.40
  -8   2  -1   18.00    2.70
  -9  -2  -1   11.30    2.40
  -9  -2  -1   13.90    2.00
  -9   2  -1   13.10    2.70
  -9  -3   1    2.50    1.20
  -9   3   1    1.10    2.20
  -9   3   1    1.70    1.10
  -8  -3   1    3.90    1.00
  -8  -3   1    3.70    1.20
  -8   3   1    3.20    2.10
  -7  -3   1   70.69    2.70
  -7  -3   1   76.69    3.10
  -7  -3   1   76.19    3.90
  -7  -3   1   78.59    2.80
  -7   3   1   71.59    4.80
  -6  -3   1   58.89    2.40
  -6  -3   1   58.09    2.30
  -6  -3   1   54.79    3.20
  -6   3   1   58.69    4.00
  -5  -3   1  271.67    6.00
  -5  -3   1  262.87    5.50
  -5  -3   1  281.47    5.50
   5   3  -1  268.47    4.50
  -5   3   1  273.17    7.70
  -4  -3   1   53.29    2.10
   4   3  -1   46.40    1.50
  -4   3   1   51.79    3.40
  -3  -3   1   37.40    1.60
   3   3  -1   34.90    1.30
  -3   3   1   35.80    2.40
  -2  -3   1    2.80    0.60
  -2  -3   1    4.90    0.50
   2   3  -1    3.90    0.60
  -2   3   1    3.00    1.10
  -1  -3   1    5.70    0.60
  -1  -3   1    5.40    0.80
   1  -3  -1    5.20    0.70
  -1   3   1    5.40    0.90
   1   3  -1    4.70    0.60
   0  -3   1   47.80    1.90
   0  -3  -1   49.80    1.70
   0   3  -1   48.20    1.70
   0   3   1   49.90    1.40
  -1  -3  -1    5.10    0.70
  -1   3  -1    4.00    0.80
  -1   3  -1   11.10    1.00
  -2  -3  -1  308.97    5.60
  -2  -3  -1  291.97    5.20
  -2  -3  -1  308.07    5.40
  -2   3  -1  301.97    6.00
  -2   3  -1  286.47    5.60
   2   3   1  304.57    4.90
  -3  -3  -1  762.52   12.20
  -3  -3  -1  814.62   11.10
  -3  -3  -1  803.52   11.80
  -3   3  -1  794.02   13.30
   3   3   1  804.22   10.90
  -3   3  -1  799.02   12.50
  -4  -3  -1  745.93   12.10
  -4  -3  -1  774.32   11.40
  -4  -3  -1  752.52   11.40
  -4  -3  -1  768.32   12.30
  -4   3  -1  778.12   13.60
  -4   3  -1  754.62   11.50
  -4   3  -1  773.32   12.40
  -5  -3  -1  456.45    8.20
  -5  -3  -1  460.95    8.70
  -5  -3  -1  462.45    8.40
  -5  -3  -1  463.55    7.70
  -5   3  -1  460.45    8.60
  -5   3  -1  480.95   10.30
  -5   3  -1  468.05    7.90
  -6  -3  -1  952.50   14.80
  -6  -3  -1  918.81   13.90
  -6  -3  -1  960.00   15.40
  -6  -3  -1  922.41   15.00
  -6   3  -1  938.51   15.00
  -6   3  -1  907.81   17.10
  -6   3  -1  921.51   14.10
  -7  -3  -1   31.80    2.00
  -7  -3  -1   33.00    2.40
  -7   3  -1   30.40    2.10
  -7   3  -1   41.50    3.90
  -8  -3  -1   59.79    2.70
  -8  -3  -1   58.79    3.20
  -8   3  -1   60.69    4.30
  -9  -3  -1   10.10    1.90
  -9   3  -1    3.40    2.30
  -9  -4   1   42.20    3.10
  -9   4   1   36.60    4.20
  -8  -4   1    4.80    1.10
  -8  -4   1    6.60    1.40
  -8  -4   1    6.70    1.60
  -8   4   1    5.50    2.50
  -7  -4   1   -0.20    0.80
  -7  -4   1    0.60    0.70
  -7  -4   1    1.20    0.80
  -7   4   1    0.70    1.90
  -6  -4   1   10.00    1.30
  -6  -4   1   11.10    1.40
  -6   4   1    6.80    2.20
  -5  -4   1   23.10    1.70
  -5  -4   1   23.10    1.70
  -5   4   1   18.90    2.60
  -4  -4   1   -0.40    0.70
  -4   4   1    5.90    1.70
   4   4  -1    0.10    0.40
  -3  -4   1  847.52   13.20
  -3   4   1  834.62   14.20
   3   4  -1  824.62   12.20
  -2  -4   1  169.78    3.40
  -2  -4   1  173.08    4.20
  -2   4   1  174.98    4.50
   2   4  -1  173.38    3.70
   1  -4  -1  867.11   13.30
  -1  -4   1  846.02   13.60
  -1  -4   1  873.31   12.70
  -1   4   1  898.71   13.10
   1   4  -1  891.01   13.10
   0  -4  -1   37.10    1.60
   0  -4   1   35.80    2.00
   0   4  -1   36.00    1.80
   0   4   1   35.00    1.20
  -1  -4  -1   17.00    1.10
  -1   4  -1   17.70    1.30
   1   4   1   15.00    1.30
  -1   4  -1   14.80    1.40
  -2  -4  -1  119.99    3.30
  -2  -4  -1  111.79    3.20
  -2  -4  -1  120.09    3.00
   2   4   1  118.89    2.80
  -2   4  -1  119.39    3.50
  -2   4  -1  113.49    3.40
  -3  -4  -1   92.79    3.00
  -3  -4  -1   93.19    2.90
  -3   4  -1   96.89    3.30
   3   4   1   92.79    2.20
  -3   4  -1   97.39    3.60
  -4  -4  -1  196.68    4.80
  -4  -4  -1  201.08    4.50
  -4   4  -1  204.88    5.90
  -4   4  -1  202.08    5.20
  -5  -4  -1  467.85    8.20
  -5  -4  -1  465.15    9.00
  -5  -4  -1  469.65    8.90
  -5   4  -1  466.85   10.40
  -5   4  -1  466.85    9.10
  -6  -4  -1   10.50    1.40
  -6  -4  -1   12.10    1.60
  -6   4  -1   11.10    1.70
  -6   4  -1   10.40    2.20
  -7  -4  -1   12.30    1.60
  -7  -4  -1    9.60    1.70
  -7   4  -1   11.80    1.80
  -7   4  -1    8.90    2.10
  -8  -4  -1   10.20    1.50
  -8  -4  -1   10.80    2.00
  -8   4  -1    7.20    2.20
  -9  -4  -1   11.20    2.00
  -9   4  -1    9.70    2.70
  -8  -5   1   11.00    1.80
  -8  -5   1    8.80    1.50
  -8   5   1    5.00    2.00
  -8   5   1    6.00    2.40
  -7  -5   1   31.00    2.20
  -7  -5   1   25.40    2.20
  -7   5   1   29.60    3.60
  -7   5   1   25.90    3.00
  -6  -5   1    4.40    1.10
  -6  -5   1    3.90    1.20
  -6   5   1    4.10    2.00
  -5  -5   1   -0.30    0.60
  -5  -5   1    0.50    0.80
  -5   5   1   -0.70    1.40
  -4  -5   1   13.20    1.60
  -4   5   1   13.90    2.10
   4   5  -1   15.70    1.20
  -3  -5   1    7.60    0.90
  -3  -5   1    7.20    1.30
  -3   5   1    5.20    1.50
   3   5  -1    5.90    0.90
  -2  -5   1  132.99    4.10
  -2  -5   1  132.99    3.20
   2   5  -1  134.19    3.50
  -2   5   1  143.29    4.10
  -1  -5   1  383.46    6.80
   1  -5  -1  387.66    7.30
  -1  -5   1  376.56    7.70
   1   5  -1  385.96    7.10
  -1   5   1  393.76    6.80
   0  -5  -1  507.65    8.90
   0  -5   1  515.45    8.70
   0   5  -1  512.55    9.00
   0   5   1  520.55    9.40
  -1  -5  -1   31.20    1.70
  -1   5  -1   28.30    2.00
   1   5   1   28.30    1.90
  -2  -5  -1   25.60    1.70
  -2  -5  -1   24.70    1.50
   2   5   1   24.10    1.50
  -2   5  -1   27.20    2.00
  -2   5  -1   31.30    2.20
  -3  -5  -1   35.20    2.20
  -3  -5  -1   39.00    2.10
  -3   5  -1   34.50    2.40
   3   5   1   37.80    1.60
  -3   5  -1   37.10    2.50
  -4  -5  -1   69.19    2.80
  -4  -5  -1   69.29    2.90
  -4   5  -1   67.79    3.20
  -4   5  -1   70.69    3.60
  -5  -5  -1  136.69    4.00
  -5  -5  -1  142.19    4.40
  -5  -5  -1  142.09    4.50
  -5   5  -1  140.49    5.30
  -5   5  -1  142.59    4.70
  -6  -5  -1  785.42   13.80
  -6  -5  -1  768.22   14.00
  -6   5  -1  796.92   14.10
  -6   5  -1  792.82   15.90
  -7  -5  -1    6.50    1.60
  -7  -5  -1    8.20    1.50
  -7   5  -1    6.60    2.10
  -7   5  -1    7.90    1.70
  -8  -5  -1  220.68    6.20
  -8  -5  -1  211.78    6.60
  -8   5  -1  207.58    6.20
  -8   5  -1  211.38    8.00
  -7  -6   1   47.70    2.90
  -7  -6   1   45.10    2.90
  -7   6   1   52.99    4.40
  -7   6   1   52.59    4.00
  -6  -6   1   64.69    3.30
  -6  -6   1   66.79    3.20
  -6   6   1   65.19    4.20
  -6   6   1   68.79    4.60
  -5  -6   1   19.00    2.10
  -5  -6   1   16.70    1.90
  -5   6   1   13.70    2.40
  -5   6   1   21.20    2.80
  -4  -6   1   36.70    2.60
  -4   6   1   37.80    3.30
  -4   6   1   35.60    3.00
   3  -6  -1   95.19    3.50
  -3  -6   1   90.49    3.00
  -3  -6   1   93.79    3.80
  -3   6   1  101.59    3.90
  -3   6   1   89.49    4.20
   3   6  -1  103.59    3.10
  -2  -6   1    0.20    1.10
   2  -6  -1    1.50    0.80
  -2  -6   1   -0.30    0.50
  -2   6   1   -1.30    1.30
  -2   6   1    1.10    1.00
   2   6  -1    0.00    0.70
  -1  -6   1  337.77    7.70
  -1  -6   1  331.47    6.50
   1  -6  -1  342.07    7.10
   1   6  -1  344.87    6.90
  -1   6   1  339.27    7.70
   0  -6  -1   16.60    1.50
   0  -6   1   15.20    1.50
   0   6   1   15.80    1.80
   0   6  -1   13.10    1.50
  -1  -6  -1  221.88    5.30
  -1   6  -1  222.48    5.60
   1   6   1  219.08    5.30
  -2  -6  -1  341.77    6.90
  -2  -6  -1  339.67    7.30
  -2   6  -1  336.67    7.50
   2   6   1  334.27    6.60
  -3   6  -1  145.09    4.70
  -3   6  -1  141.49    4.70
   3   6   1  140.89    3.70
  -4  -6  -1   48.30    2.70
  -4  -6  -1   47.00    2.60
  -4   6  -1   51.59    3.20
  -4   6  -1   44.40    3.00
  -5  -6  -1   91.79    3.70
  -5  -6  -1   90.19    3.70
  -5  -6  -1   88.29    3.60
  -5   6  -1   94.89    4.50
  -5   6  -1   90.29    4.00
  -6  -6  -1  100.19    4.00
  -6  -6  -1   91.49    4.10
  -6   6  -1   97.59    4.30
  -6   6  -1   95.19    4.90
  -7  -6  -1   -1.10    1.00
  -7  -6  -1    1.40    1.00
  -7   6  -1    2.10    1.90
  -7   6  -1    1.10    1.40
  -6  -7   1    1.80    1.10
  -6  -7   1   -0.50    1.20
  -6   7   1   -1.20    1.70
  -6   7   1    0.80    1.70
  -5  -7   1    7.20    1.60
  -5  -7   1   10.60    1.70
  -5   7   1    7.70    2.00
  -5   7   1    6.80    2.00
  -4  -7   1    1.70    1.20
   4  -7  -1    2.70    1.10
  -4   7   1    0.50    1.60
  -3  -7   1    1.00    1.20
   3  -7  -1    2.50    1.10
   3   7  -1    2.00    0.90
  -3   7   1    1.70    1.60
  -2  -7   1   61.69    2.50
   2  -7  -1   58.39    2.90
  -2  -7   1   60.79    3.50
   2   7  -1   63.99    2.80
  -2   7   1   62.89    3.60
  -1  -7   1  150.78    4.20
   1  -7  -1  152.18    4.60
   1   7  -1  153.08    4.50
  -1   7   1  153.78    5.10
   0  -7  -1  211.98    5.50
   0  -7   1  212.78    5.20
   0   7  -1  209.88    5.60
   0   7   1  206.98    5.70
  -1  -7  -1   19.40    1.90
   1  -7   1   23.50    1.80
   1   7   1   25.40    2.20
  -1   7  -1   26.10    2.40
  -2  -7  -1   23.40    1.80
  -2  -7  -1   22.10    2.10
  -2   7  -1   19.60    2.10
   2   7   1   24.10    1.90
  -3  -7  -1   39.50    2.60
  -3   7  -1   38.90    2.90
  -4  -7  -1   77.99    3.60
  -4   7  -1   86.09    3.90
  -4   7  -1   83.39    3.90
  -5  -7  -1  118.69    4.60
  -5  -7  -1  104.09    4.30
  -5   7  -1  116.19    4.80
  -5   7  -1  114.19    5.10
  -6  -7  -1  506.75   11.10
  -6  -7  -1  506.25   11.00
  -6   7  -1  502.75   12.10
  -6   7  -1  498.35   11.20
   5  -8  -1   15.10    2.20
  -5  -8   1   14.20    2.40
  -5  -8   1   13.80    2.00
  -5   8   1   13.90    2.60
  -4  -8   1    2.90    1.50
   4  -8  -1    8.10    1.50
  -4   8   1    4.40    1.90
   3  -8  -1  276.27    7.30
  -3   8   1  277.27    7.90
   2  -8  -1   58.89    3.10
   2   8  -1   55.69    2.90
  -2   8   1   56.79    3.70
  -1  -8   1  218.18    6.10
   1  -8  -1  222.48    6.10
  -1   8   1  225.68    6.50
   1   8  -1  227.08    6.00
   0  -8   1    7.80    1.40
   0  -8  -1    7.60    1.40
   0   8   1    7.30    1.70
   0   8  -1    8.90    1.70
  -1  -8  -1    0.00    0.80
  -1  -8  -1    0.90    0.80
   1  -8   1    0.40    0.70
   1   8   1   -0.20    1.00
  -1   8  -1    0.00    1.10
   2  -8   1   19.50    2.10
  -2  -8  -1   22.30    2.10
  -2   8  -1   19.90    2.30
   2   8   1   21.70    2.10
  -3  -8  -1   32.90    2.50
   3  -8   1   33.90    2.50
  -3   8  -1   40.80    3.30
  -4  -8  -1   72.59    3.70
  -4   8  -1   63.09    3.70
   2  -9  -1    3.30    1.30
   1  -9  -1    9.10    1.70
   1  -9  -1    7.20    1.60
  -1   9   1    6.50    2.00
   1   9  -1    6.60    1.60
   0  -9  -1   29.90    2.80
   0  -9  -1   23.20    2.40
   0   9   1   28.30    2.80
   0   9  -1   32.90    3.00
   1  -9   1    3.20    1.20
  -1  -9  -1    6.00    1.50
  -1  -9  -1    4.90    1.40
  -1   9  -1    4.70    1.60
   1   9   1    3.10    1.50
 -10   0   2   26.40    4.10
 -10   0   2   28.60    2.60
  -9   0   2   97.49    5.90
  -9   0   2   97.89    3.70
  -8   0   2    1.20    0.80
  -8   0   2   -0.50    2.00
  -7   0   2   60.79    2.20
  -7   0   2   61.79    2.60
  -7   0   2   64.39    4.30
  -6   0   2   25.90    2.70
  -6   0   2   24.40    1.70
  -6   0   2   25.00    1.40
  -5   0   2   74.49    2.50
  -5   0   2   73.49    2.00
   5   0  -2   71.09    2.20
  -5   0   2   70.89    1.40
   4   0  -2  330.27    5.60
  -4   0   2  323.67    4.70
  -4   0   2  338.37    6.00
   3   0  -2  188.08    3.50
  -3   0   2  187.68    3.70
   2   0  -2  202.88    3.10
   2   0  -2  202.38    3.50
  -2   0   2  197.28    3.60
   1   0  -2   75.69    1.50
  -1   0   2   75.79    1.70
   1   0  -2   77.49    1.40
   0   0   2  214.38    3.20
   0   0  -2  211.58    3.40
   0   0  -2  209.08    3.50
   0   0  -2  209.18    3.40
   1   0   2  818.72   11.40
  -1   0  -2  847.32   11.70
  -1   0  -2  848.12   11.40
  -1   0  -2  828.42   11.70
  -2   0  -2 3201.68   47.50
  -2   0  -2 3158.08   46.00
  -2   0  -2 3104.39   43.10
  -2   0  -2 3154.58   45.70
  -3   0  -2  669.43   10.40
  -3   0  -2  674.23   11.00
  -3   0  -2  698.33    9.40
  -3   0  -2  683.33   10.20
  -4   0  -2  322.97    6.80
  -4   0  -2  332.57    4.90
  -4   0  -2  330.07    5.00
  -4   0  -2  325.97    6.00
  -4   0  -2  329.57    5.80
  -5   0  -2   59.49    2.40
  -5   0  -2   52.49    2.90
  -5   0  -2   54.59    1.40
  -5   0  -2   57.09    2.00
  -5   0  -2   55.59    1.60
  -6   0  -2   14.20    2.10
  -6   0  -2   12.80    1.50
  -6   0  -2   16.30    1.30
  -6   0  -2   13.40    1.30
  -7   0  -2    4.50    1.60
  -7   0  -2    6.70    1.00
  -7   0  -2    7.50    1.30
  -8   0  -2   49.30    3.60
  -8   0  -2   55.29    2.80
  -9   0  -2   -1.80    1.30
  -9   0  -2    0.80    1.00
 -10  -1   2  214.28    8.60
 -10   1   2  206.18    9.00
 -10   1   2  215.68    6.20
  -9  -1   2  173.58    7.30
  -9  -1   2  170.08    4.90
  -9   1   2  172.18    5.20
  -9   1   2  174.38    7.80
  -8  -1   2   77.29    4.90
  -8  -1   2   83.59    3.20
  -8  -1   2   83.69    3.00
  -8   1   2   83.69    3.40
  -8   1   2   88.69    5.50
  -7  -1   2  467.85    8.70
  -7  -1   2  461.55   10.70
  -7  -1   2  471.65    8.30
  -7   1   2  478.55   11.60
  -7   1   2  476.25    9.00
  -6  -1   2  120.39    3.40
  -6  -1   2  114.69    3.10
  -6  -1   2  115.89    2.60
  -6   1   2  119.69    3.60
  -6   1   2  121.89    5.10
   6   1  -2  112.09    2.80
  -6   1   2  117.99    2.60
  -5  -1   2   38.40    1.30
  -5  -1   2   41.30    1.80
   5   1  -2   39.80    1.50
  -5   1   2   39.70    1.30
  -5   1   2   43.70    2.00
  -4  -1   2   29.80    1.40
  -4   1   2   31.40    0.90
   4   1  -2   30.00    1.20
   3  -1  -2  173.98    3.50
  -3  -1   2  177.58    3.60
   3   1  -2  170.18    3.30
   2  -1  -2  294.17    4.10
  -2  -1   2  284.87    4.90
   2   1  -2  296.17    4.80
   1  -1  -2    1.10    0.20
  -1  -1   2    0.80    0.40
   1  -1  -2    0.70    0.30
   1  -1  -2    1.10    0.30
   1  -1  -2    1.20    0.40
   1   1  -2    0.80    0.30
   0  -1  -2 1398.66   19.90
   0  -1  -2 1376.26   19.70
   0  -1  -2 1347.07   18.60
   0  -1   2 1402.46   19.50
   0  -1  -2 1387.86   19.00
   0   1  -2 1423.56   19.90
  -1  -1  -2  419.66    6.40
  -1  -1  -2  421.06    6.00
  -1  -1  -2  411.56    6.40
   1  -1   2  423.56    6.20
  -1   1  -2  415.36    6.30
  -1   1  -2  413.26    6.50
  -1   1  -2  418.96    6.50
  -2  -1  -2  130.99    2.90
  -2  -1  -2  130.39    2.80
  -2  -1  -2  128.39    2.10
  -2   1  -2  127.59    2.50
  -2   1  -2  132.09    2.80
  -2   1  -2  132.99    2.90
  -2   1  -2  129.99    3.30
  -3  -1  -2 1668.43   23.60
  -3  -1  -2 1717.13   23.50
  -3  -1  -2 1691.93   23.30
  -3  -1  -2 1695.33   22.80
  -3   1  -2 1686.03   23.10
  -3   1  -2 1657.03   24.30
  -3   1  -2 1696.23   22.80
  -3   1  -2 1718.83   23.40
  -4  -1  -2   18.00    1.60
  -4  -1  -2   17.60    1.20
  -4  -1  -2   16.00    1.40
  -4  -1  -2   15.80    0.70
  -4   1  -2   17.20    1.10
  -4   1  -2   15.30    1.00
  -4   1  -2   15.90    1.20
  -4   1  -2   12.10    1.50
  -5  -1  -2  407.26    7.60
  -5  -1  -2  407.26    6.10
  -5  -1  -2  392.56    7.10
  -5  -1  -2  400.76    8.20
  -5   1  -2  394.36    7.30
  -5   1  -2  399.46    8.80
  -5   1  -2  394.96    6.90
  -5   1  -2  395.76    6.50
  -6  -1  -2   12.80    1.30
  -6  -1  -2   13.50    1.50
  -6  -1  -2   14.60    1.90
  -6   1  -2   14.70    1.50
  -6   1  -2   12.20    2.00
  -6   1  -2   15.40    1.30
  -7  -1  -2  233.88    5.90
  -7  -1  -2  237.78    6.80
  -7  -1  -2  245.58    5.40
  -7   1  -2  244.18    6.00
  -7   1  -2  234.68    7.20
  -7   1  -2  240.78    5.70
  -8  -1  -2  271.47    6.70
  -8  -1  -2  276.07    7.80
  -8   1  -2  277.67    6.50
  -8   1  -2  267.77    8.30
  -9  -1  -2  129.49    5.60
  -9  -1  -2  139.09    4.80
  -9   1  -2  129.99    6.00
  -9   1  -2  136.39    4.60
 -10  -2   2    2.20    2.30
 -10   2   2    1.90    2.40
 -10   2   2    2.50    1.20
  -9  -2   2   13.90    2.90
  -9  -2   2   18.10    1.90
  -9  -2   2   18.60    1.90
  -9   2   2   15.90    2.00
  -9   2   2   16.90    3.50
  -8  -2   2    3.40    2.00
  -8  -2   2    5.40    1.10
  -8  -2   2    3.70    1.00
  -8   2   2    4.70    2.50
  -8   2   2    2.70    1.10
  -7  -2   2    1.40    0.70
  -7  -2   2    1.10    0.80
  -7  -2   2    1.70    1.50
  -7   2   2    0.50    0.80
  -7   2   2    0.70    1.80
  -6  -2   2  116.69    2.90
  -6  -2   2  117.19    3.40
  -6   2   2  110.49    5.10
   6   2  -2  113.69    2.70
  -5  -2   2   44.50    2.00
   5   2  -2   45.10    1.60
  -5   2   2   48.30    3.40
  -4  -2   2  224.48    4.70
   4   2  -2  230.18    4.20
  -3  -2   2   18.60    1.10
   3  -2  -2   19.50    0.60
   3   2  -2   19.10    1.00
   2  -2  -2  411.46    5.90
   2  -2  -2  400.76    6.60
  -2  -2   2  406.96    6.70
   2   2  -2  401.26    6.40
   1  -2  -2  660.63    9.40
   1  -2  -2  640.44    9.80
  -1  -2   2  679.33    9.90
   1  -2  -2  663.93    9.00
   0  -2  -2  524.75    7.60
   0  -2  -2  524.55    8.00
   0  -2   2  533.35    8.00
   0  -2  -2  495.35    7.80
   0   2  -2  523.05    7.90
  -1  -2  -2  110.39    2.50
  -1  -2  -2  107.99    2.50
   1  -2   2  106.29    2.60
  -1  -2  -2  108.99    2.50
  -2  -2  -2  379.76    6.40
  -2  -2  -2  387.76    6.50
  -2   2  -2  383.36    7.10
  -2   2  -2  375.96    6.30
  -2   2  -2  380.56    6.30
  -3  -2  -2    8.70    0.90
  -3  -2  -2    9.80    0.70
  -3  -2  -2    8.20    1.00
  -3  -2  -2   10.10    0.90
  -3   2  -2   10.10    1.00
  -3   2  -2    9.40    0.90
  -3   2  -2   11.10    1.40
  -4  -2  -2    9.50    0.70
  -4  -2  -2   11.60    1.20
  -4  -2  -2    7.70    1.00
  -4  -2  -2    9.80    1.20
  -4   2  -2    8.50    1.60
  -4   2  -2   10.20    1.00
  -4   2  -2    7.60    1.00
  -5  -2  -2   38.00    1.30
  -5  -2  -2   37.50    1.90
  -5  -2  -2   35.50    2.00
  -5  -2  -2   37.40    2.10
  -5   2  -2   38.30    1.90
  -5   2  -2   39.70    2.80
  -5   2  -2   38.20    1.80
  -6  -2  -2   41.90    2.10
  -6  -2  -2   43.90    2.50
  -6  -2  -2   41.50    2.50
  -6   2  -2   41.00    1.90
  -6   2  -2   42.30    2.20
  -6   2  -2   42.70    3.30
  -7  -2  -2  188.08    5.30
  -7  -2  -2  186.98    4.80
  -7  -2  -2  184.98    5.60
  -7   2  -2  189.68    6.60
  -7   2  -2  188.58    4.90
  -8  -2  -2    0.20    1.10
  -8  -2  -2    0.80    0.70
  -8  -2  -2    1.00    0.90
  -8   2  -2   -0.40    1.50
  -8   2  -2    0.60    0.90
  -9  -2  -2    5.20    1.40
  -9   2  -2    5.50    2.20
  -9  -3   2   42.60    2.50
  -9  -3   2   38.80    2.70
  -9   3   2   36.90    4.50
  -9   3   2   36.80    2.70
  -8  -3   2    1.30    1.00
  -8  -3   2    0.60    0.80
  -8  -3   2    0.70    1.60
  -8   3   2   -0.40    1.90
  -7  -3   2  138.79    4.20
  -7  -3   2  152.88    5.40
  -7  -3   2  148.89    3.90
  -7   3   2  149.39    6.70
  -6  -3   2   79.09    2.90
  -6  -3   2   74.99    2.60
  -6   3   2   77.69    4.60
  -5  -3   2  213.28    4.90
   5   3  -2  213.38    4.20
  -5   3   2  223.28    7.00
   4  -3  -2  625.24    8.50
  -4  -3   2  591.74   10.10
  -4   3   2  623.24   11.80
   4   3  -2  618.44    9.40
   3  -3  -2  857.21   11.70
  -3  -3   2  838.72   12.90
  -3   3   2  841.12   13.80
   3   3  -2  815.52   12.20
   2  -3  -2  334.67    5.40
  -2  -3   2  337.17    5.00
  -2  -3   2  337.87    6.20
   2  -3  -2  340.57    6.10
   2   3  -2  339.47    5.80
  -1  -3   2   17.10    1.20
   1  -3  -2   15.70    0.90
   1  -3  -2   16.70    1.10
   1   3  -2   17.50    1.10
   0  -3   2    3.40    0.70
   0  -3  -2    4.30    0.70
   0  -3  -2    4.00    0.60
   0   3  -2    3.30    0.60
   1  -3   2   50.99    2.10
  -1  -3  -2   50.89    1.80
  -1  -3  -2   45.80    1.70
  -1  -3  -2   50.59    1.80
  -1   3  -2   49.00    1.90
  -2  -3  -2   29.60    1.50
  -2  -3  -2   27.60    1.50
  -2   3  -2   27.20    1.80
  -2   3  -2   27.00    1.50
  -3  -3  -2 1281.87   18.80
  -3  -3  -2 1282.67   18.80
  -3  -3  -2 1315.27   17.90
  -3   3  -2 1269.77   18.70
   3   3   2 1269.87   17.20
  -3   3  -2 1285.07   19.80
  -4  -3  -2  317.57    6.60
  -4  -3  -2  320.17    6.40
  -4  -3  -2  328.37    5.60
  -4   3  -2  317.27    6.10
  -4   3  -2  323.67    7.50
  -4   3  -2  324.47    6.30
  -5  -3  -2 1037.30   16.50
  -5  -3  -2 1053.49   16.30
  -5  -3  -2 1026.30   15.70
  -5   3  -2 1054.09   18.10
  -5   3  -2 1052.79   15.80
  -5   3  -2 1044.00   16.00
  -6  -3  -2    6.80    1.40
  -6  -3  -2    9.60    1.30
  -6   3  -2    9.00    1.30
  -6   3  -2    9.10    1.20
  -6   3  -2    8.60    1.90
  -7  -3  -2  190.18    5.50
  -7  -3  -2  189.38    5.10
  -7   3  -2  197.08    4.90
  -7   3  -2  190.98    6.90
  -7   3  -2  183.58    4.80
  -8  -3  -2   95.89    3.60
  -8  -3  -2   95.49    4.10
  -8   3  -2  100.29    5.40
  -9  -3  -2   18.70    2.40
  -9   3  -2   12.70    2.70
  -9  -4   2   12.40    1.90
  -9   4   2   16.10    3.50
  -8  -4   2    0.70    1.00
  -8  -4   2    0.40    0.80
  -8   4   2    0.80    2.10
  -7  -4   2    8.40    1.40
  -7  -4   2    6.50    1.20
  -7   4   2    5.60    2.30
  -6  -4   2   52.19    2.40
  -6  -4   2   60.69    2.70
  -6   4   2   58.79    4.20
  -5  -4   2   17.60    1.70
  -5   4   2   18.80    2.80
   5   4  -2   18.90    1.20
  -4  -4   2  125.99    3.70
   4  -4  -2  132.89    2.70
  -4   4   2  134.49    5.10
   4   4  -2  126.59    3.10
  -3  -4   2    0.10    0.70
  -3   4   2    2.40    1.50
   3   4  -2    0.40    0.50
   2  -4  -2   71.19    2.10
   2  -4  -2   70.49    2.50
  -2  -4   2   74.39    2.60
  -2  -4   2   67.69    1.80
   2   4  -2   70.59    2.30
  -2   4   2   67.09    3.00
   1  -4  -2  163.88    3.90
  -1  -4   2  161.78    3.30
   1  -4  -2  165.88    3.60
  -1  -4   2  164.88    4.20
  -1   4   2  159.88    3.90
   1   4  -2  155.18    3.70
   0  -4   2  136.19    3.80
   0  -4  -2  143.19    3.50
   0  -4  -2  142.19    3.40
   0   4   2  138.79    3.00
   0   4  -2  139.69    3.50
  -1  -4  -2   44.70    1.90
  -1  -4  -2   44.60    1.90
  -1   4  -2   47.50    2.10
  -2  -4  -2  234.18    5.10
  -2  -4  -2  236.08    4.90
  -2   4  -2  230.38    5.20
  -3  -4  -2    1.40    0.70
  -3  -4  -2    0.20    0.70
  -3   4  -2    0.10    0.90
   3   4   2    0.40    0.60
  -3   4  -2    2.00    0.90
  -4  -4  -2   22.60    1.70
  -4  -4  -2   19.90    1.50
  -4  -4  -2   20.30    1.80
  -4   4  -2   17.60    2.10
  -4   4  -2   22.20    1.90
  -5  -4  -2   21.80    2.00
  -5  -4  -2   26.10    1.80
  -5   4  -2   26.20    2.00
  -5   4  -2   22.70    2.50
  -6  -4  -2   25.50    1.90
  -6  -4  -2   27.40    2.50
  -6   4  -2   21.00    2.60
  -6   4  -2   26.10    2.00
  -7  -4  -2  111.99    4.00
  -7  -4  -2  118.89    4.40
  -7   4  -2  115.19    4.00
  -7   4  -2  107.29    5.20
  -8  -4  -2   -0.80    1.10
  -8  -4  -2    1.30    1.00
  -8   4  -2    3.40    1.80
  -8  -5   2   64.09    3.30
  -8  -5   2   57.19    3.30
  -8  -5   2   56.39    3.10
  -8   5   2   60.69    5.20
  -7  -5   2  314.47    7.40
  -7  -5   2  312.77    7.20
  -7   5   2  315.97    9.70
  -6  -5   2   82.79    3.40
  -6   5   2   84.29    5.00
  -5  -5   2   20.40    2.00
  -5   5   2   19.10    2.80
  -4  -5   2   21.90    2.00
  -4   5   2   24.60    2.80
   4   5  -2   22.70    1.50
  -3  -5   2   69.09    3.00
   3  -5  -2   61.19    2.60
   3   5  -2   64.29    2.30
  -3   5   2   71.49    3.60
  -2  -5   2   64.29    2.90
  -2  -5   2   72.39    2.10
   2  -5  -2   72.19    2.80
   2   5  -2   68.89    2.50
  -2   5   2   75.79    3.20
   1  -5  -2   58.59    2.40
   1  -5  -2   56.19    2.20
  -1  -5   2   55.79    2.70
  -1  -5   2   58.39    2.00
  -1   5   2   55.89    2.30
   1   5  -2   58.59    2.40
   0  -5  -2  372.76    7.20
   0  -5  -2  381.46    7.10
   0  -5   2  363.16    7.70
   0   5  -2  379.66    7.30
  -1  -5  -2  204.98    4.90
  -1  -5  -2  218.78    5.00
  -1   5  -2  211.28    5.10
  -2  -5  -2  204.88    4.90
  -2  -5  -2  206.28    5.10
  -2   5  -2  205.88    5.20
   2   5   2  208.88    4.60
  -3  -5  -2  563.34   10.30
  -3  -5  -2  569.84   10.20
  -3   5  -2  571.84   10.40
  -3   5  -2  555.44   10.80
  -4  -5  -2   15.00    1.70
  -4  -5  -2   16.80    1.80
  -4   5  -2   18.00    1.90
  -4   5  -2   14.70    2.00
  -5  -5  -2  226.38    6.00
  -5  -5  -2  220.78    5.90
  -5   5  -2  230.58    6.00
  -5   5  -2  235.68    7.00
  -6  -5  -2   22.00    2.30
  -6  -5  -2   23.60    2.30
  -6   5  -2   22.80    2.20
  -6   5  -2   22.80    3.00
  -7  -5  -2  135.29    4.80
  -7  -5  -2  134.99    5.00
  -7   5  -2  129.49    6.00
  -7   5  -2  135.29    4.70
  -8  -5  -2  177.28    6.10
  -8  -5  -2  172.08    5.70
  -8   5  -2  178.28    7.50
  -7  -6   2   44.90    2.90
  -7  -6   2   48.40    2.90
  -7   6   2   48.70    4.60
  -6  -6   2    1.70    1.10
  -6   6   2    2.90    1.90
  -5  -6   2   19.20    2.20
  -5   6   2   17.40    2.60
  -4  -6   2  111.49    4.10
   4  -6  -2  107.09    3.90
  -4   6   2  112.49    4.70
   4   6  -2  104.09    3.30
  -3  -6   2   26.90    2.40
   3  -6  -2   29.00    2.00
   3   6  -2   27.00    1.80
  -3   6   2   30.00    2.60
  -2  -6   2   25.10    2.30
   2  -6  -2   23.00    1.80
  -2  -6   2   22.30    1.50
   2   6  -2   24.80    1.80
   1  -6  -2   12.20    1.40
  -1  -6   2   12.00    1.80
   1  -6  -2   11.20    1.40
  -1  -6   2   11.60    1.20
   1   6  -2   11.50    1.40
   0  -6  -2    8.70    1.30
   0  -6  -2    9.80    1.30
   0  -6   2    9.30    1.20
   0   6   2    9.50    1.70
   0   6  -2   11.50    1.50
  -1  -6  -2   68.69    2.90
  -1  -6  -2   71.89    2.90
   1   6   2   70.19    3.10
  -1   6  -2   74.09    3.10
  -2  -6  -2  370.36    7.80
  -2  -6  -2  371.76    7.60
  -2   6  -2  370.96    7.90
   2   6   2  371.06    7.20
  -3  -6  -2   94.39    3.60
  -3   6  -2   96.89    3.80
  -4  -6  -2   60.79    3.00
  -4  -6  -2   62.89    3.10
  -4   6  -2   61.39    3.50
  -4   6  -2   58.89    3.20
  -5  -6  -2   32.60    2.40
  -5  -6  -2   36.30    2.60
  -5   6  -2   32.10    3.20
  -5   6  -2   33.70    2.80
  -6  -6  -2    2.00    1.10
  -6  -6  -2    3.50    1.30
  -6   6  -2    4.20    1.50
  -6   6  -2    2.40    1.60
  -7  -6  -2    4.50    1.60
  -7  -6  -2    5.80    1.50
  -7   6  -2    6.50    2.20
  -7   6  -2    2.90    1.50
  -6  -7   2   56.79    3.50
   6  -7  -2   66.69    3.50
  -6  -7   2   62.69    3.40
  -6   7   2   60.09    4.40
  -6   7   2   67.79    4.80
   5  -7  -2   30.80    2.40
  -5  -7   2   20.80    2.50
  -5   7   2   28.30    3.50
  -4  -7   2   36.30    2.80
   4  -7  -2   41.90    2.60
  -4   7   2   29.90    3.20
   3  -7  -2   91.09    3.20
   3  -7  -2   87.49    3.70
  -3  -7   2   83.39    4.00
   3   7  -2   92.39    3.30
  -3   7   2   89.79    4.70
  -2  -7   2   70.69    3.70
   2  -7  -2   70.89    2.90
   2  -7  -2   65.89    3.10
   2   7  -2   65.29    2.90
  -2   7   2   69.99    4.10
   1  -7  -2   29.70    2.20
   1  -7  -2   30.30    2.10
  -1  -7   2   28.20    1.80
  -1   7   2   32.90    3.00
   1   7  -2   28.10    2.20
   0  -7  -2  159.48    4.80
   0  -7   2  149.88    4.20
   0  -7  -2  166.48    4.80
   0   7  -2  153.78    4.80
   0   7   2  155.78    5.10
   1  -7   2   76.99    3.10
  -1  -7  -2   85.59    3.40
  -1  -7  -2   82.39    3.40
   1   7   2   81.59    3.50
  -1   7  -2   83.79    3.60
  -2  -7  -2   80.19    3.40
  -2  -7  -2   79.99    3.30
   2   7   2   75.89    3.10
  -2   7  -2   78.49    3.60
  -3  -7  -2  319.37    7.70
  -3   7  -2  325.27    7.90
  -4  -7  -2   21.00    2.20
  -4  -7  -2   21.50    2.30
  -4   7  -2   23.80    2.50
  -5  -7  -2  179.68    5.80
  -5  -7  -2  166.58    5.60
  -5   7  -2  176.28    5.90
  -6  -7  -2    6.90    1.60
  -6  -7  -2    5.20    1.70
  -6   7  -2    7.10    1.90
  -6   7  -2    5.60    1.70
   5  -8  -2   13.20    2.10
   4  -8  -2   34.20    2.70
  -4  -8   2   31.70    3.10
  -4   8   2   36.00    3.70
  -3  -8   2   -0.10    1.30
   3  -8  -2    1.40    1.00
   3   8  -2    1.10    1.00
  -3   8   2    1.60    1.80
   2  -8  -2   33.00    2.50
   2  -8  -2   34.10    2.30
  -2   8   2   33.00    3.20
   2   8  -2   34.00    2.40
   1  -8  -2   44.20    2.70
   1  -8  -2   39.30    2.50
  -1   8   2   38.40    3.30
   1   8  -2   41.90    2.70
   0  -8   2   34.90    2.30
   0  -8  -2   42.20    2.70
   0  -8  -2   37.70    2.50
   0   8  -2   36.70    2.70
   0   8   2   41.00    3.20
  -1  -8  -2   10.60    1.60
   1  -8   2    8.60    1.40
  -1  -8  -2    8.90    1.40
   1   8   2    8.60    1.80
  -1   8  -2    8.50    1.60
  -2  -8  -2   39.60    2.70
   2  -8   2   36.30    2.50
  -2  -8  -2   34.20    2.40
  -2   8  -2   31.00    2.80
  -3  -8  -2    3.90    1.30
  -3   8  -2    3.90    1.60
  -4  -8  -2    3.90    1.30
  -4  -8  -2    2.00    1.20
  -4   8  -2   -0.10    1.20
   1  -9  -2    2.70    1.30
  -1   9   2    3.30    1.80
   1   9  -2    1.00    1.20
   0  -9  -2   12.00    1.90
   0  -9  -2   10.40    1.80
   0   9   2    9.00    2.10
   0   9  -2   10.30    1.90
 -10   0   3   16.20    3.70
 -10   0   3   24.20    2.50
  -9   0   3  352.96   11.10
  -9   0   3  374.56    8.30
  -8   0   3  127.89    6.00
  -8   0   3  131.69    4.30
  -7   0   3  605.74   10.90
  -6   0   3   90.69    2.40
   6   0  -3   87.79    2.80
  -6   0   3   89.79    3.10
  -5   0   3   -0.40    0.20
  -5   0   3   -0.80    0.50
   5   0  -3    0.60    0.60
   4   0  -3  187.88    3.90
  -4   0   3  195.08    4.30
   3   0  -3    5.80    0.70
   3   0  -3    6.40    0.50
  -3   0   3    7.20    0.90
  -2   0   3  446.96    7.20
   2   0  -3  458.85    7.30
   2   0  -3  469.95    6.60
   1   0  -3 3339.37   46.80
  -1   0   3 3376.16   48.10
   1   0  -3 3395.96   47.70
   1   0  -3 3425.16   47.30
   0   0  -3  795.72   11.40
   0   0  -3  811.12   11.40
   0   0   3  805.92   11.00
   0   0  -3  776.82   11.40
  -1   0  -3  444.26    7.20
   1   0   3  449.95    6.20
  -1   0  -3  452.85    7.20
  -1   0  -3  452.55    6.80
  -2   0  -3  262.17    4.20
  -2   0  -3  252.07    4.80
  -2   0  -3  251.67    4.80
  -3   0  -3    6.60    0.60
  -3   0  -3    6.70    0.90
  -3   0  -3    6.30    0.80
  -4   0  -3   56.29    2.70
  -4   0  -3   55.39    1.20
  -4   0  -3   55.79    2.30
  -4   0  -3   55.49    2.10
  -4   0  -3   56.49    1.50
  -5   0  -3   21.80    1.50
  -5   0  -3   21.50    2.10
  -5   0  -3   18.50    1.60
  -6   0  -3   46.70    2.20
  -6   0  -3   49.70    3.10
  -6   0  -3   44.50    2.40
  -7   0  -3  132.09    3.90
  -7   0  -3  130.99    5.10
  -7   0  -3  128.69    4.30
  -8   0  -3  230.68    7.30
  -8   0  -3  228.08    6.10
  -9   0  -3  269.37    8.40
  -9   0  -3  267.37    7.10
 -10  -1   3   29.60    2.60
 -10  -1   3   21.40    3.80
 -10   1   3   27.70    2.70
 -10   1   3   28.30    4.50
  -9  -1   3   -0.60    1.90
  -9  -1   3    1.00    0.90
  -9   1   3    0.60    2.10
  -9   1   3    0.60    0.90
  -8  -1   3  203.58    5.40
  -8  -1   3  205.08    7.20
  -8   1   3  217.28    8.00
  -8   1   3  199.98    5.60
  -7  -1   3   48.80    2.40
  -7  -1   3   45.90    2.00
  -7   1   3   43.30    3.50
   7   1  -3   43.50    2.00
  -7   1   3   49.10    2.60
  -6  -1   3    6.50    1.10
  -6   1   3    4.70    1.10
   6   1  -3    5.10    0.90
  -5  -1   3   54.19    2.30
  -5   1   3   52.79    1.30
   5   1  -3   50.49    1.90
  -4  -1   3   60.99    2.20
   4  -1  -3   61.49    2.20
  -4   1   3   62.79    1.20
   4   1  -3   61.19    2.00
  -4   1   3   64.29    2.30
   3  -1  -3  107.39    2.70
   3  -1  -3  109.49    2.50
  -3  -1   3  112.29    2.80
   3   1  -3   98.09    1.70
  -3   1   3  113.29    2.90
  -2  -1   3   11.70    0.90
   2  -1  -3   12.30    0.90
   2  -1  -3   14.00    0.80
   2  -1  -3   12.30    0.60
   2   1  -3   12.40    0.90
   1  -1  -3    0.70    0.30
   1  -1  -3    0.60    0.40
   1  -1  -3    0.40    0.30
  -1  -1   3    0.40    0.40
   1  -1  -3    0.80    0.30
   1   1  -3    2.20    0.50
   0  -1   3   44.10    1.30
   0  -1  -3   42.00    1.40
   0  -1  -3   39.90    1.40
   0  -1  -3   40.90    1.40
   0   1  -3   42.90    1.50
   0   1  -3   42.10    1.40
  -1  -1  -3   87.09    1.90
  -1  -1  -3   86.59    2.20
  -1  -1  -3   86.69    2.30
   1  -1   3   86.49    1.90
  -1   1  -3   87.69    2.10
   1   1   3   87.99    1.50
  -1   1  -3   86.79    2.30
  -1   1  -3   86.49    2.30
  -2  -1  -3 1513.25   21.70
  -2  -1  -3 1627.04   20.80
  -2  -1  -3 1561.74   21.70
  -2   1  -3 1599.44   21.80
  -2   1  -3 1517.25   21.70
  -2   1  -3 1537.95   21.20
  -3  -1  -3   13.10    0.60
  -3  -1  -3   12.60    1.20
  -3  -1  -3   12.80    1.00
  -3   1  -3   15.30    0.90
  -3   1  -3   14.10    1.60
  -3   1  -3   12.40    1.20
  -3   1  -3   15.20    1.00
  -4  -1  -3  165.38    4.30
  -4  -1  -3  158.48    3.90
  -4  -1  -3  167.08    4.20
  -4   1  -3  159.18    3.30
  -4   1  -3  160.88    4.10
  -4   1  -3  164.88    3.80
  -4   1  -3  169.78    4.90
  -5  -1  -3  183.68    5.00
  -5  -1  -3  189.28    4.80
  -5  -1  -3  182.88    4.50
  -5   1  -3  190.28    4.70
  -5   1  -3  187.78    3.70
  -5   1  -3  188.18    5.60
  -5   1  -3  185.48    4.30
  -6  -1  -3   67.79    3.20
  -6  -1  -3   63.99    2.90
  -6  -1  -3   64.29    2.60
  -6   1  -3   65.29    2.80
  -6   1  -3   63.79    2.50
  -6   1  -3   60.49    3.40
  -7  -1  -3  180.88    5.70
  -7  -1  -3  182.68    5.20
  -7  -1  -3  181.68    4.80
  -7   1  -3  182.48    6.30
  -7   1  -3  179.98    4.60
  -7   1  -3  181.78    5.10
  -8  -1  -3  156.98    5.10
  -8  -1  -3  160.28    4.60
  -8  -1  -3  152.88    5.70
  -8   1  -3  157.58    6.20
  -8   1  -3  161.48    5.00
  -9  -1  -3   29.00    2.80
  -9  -1  -3   36.90    3.30
  -9   1  -3   31.60    2.80
  -9   1  -3   32.50    3.60
 -10  -2   3   -0.40    2.10
 -10  -2   3    1.10    1.00
 -10   2   3    0.00    1.00
 -10   2   3    0.80    2.60
  -9  -2   3   94.29    5.70
  -9  -2   3   94.49    3.80
  -9   2   3   98.59    4.10
  -9   2   3   90.49    6.00
  -8  -2   3   10.20    2.30
  -8  -2   3   11.40    1.50
  -8  -2   3    8.90    1.40
  -8   2   3    9.10    2.90
  -8   2   3   13.20    1.80
  -7  -2   3  486.25    9.10
  -7   2   3  463.55    9.50
  -7   2   3  454.85   11.40
  -6  -2   3  340.47    7.00
  -6   2   3  355.36    9.00
   6   2  -3  347.27    6.30
  -5  -2   3  318.77    6.40
   5   2  -3  325.27    5.90
  -4  -2   3  961.80   14.70
   4   2  -3  980.80   14.30
   3  -2  -3  195.08    3.10
  -3  -2   3  182.88    4.10
   3  -2  -3  185.68    3.90
   3   2  -3  186.68    3.80
   2  -2  -3   28.00    1.00
   2  -2  -3   27.70    1.30
   2  -2  -3   26.00    0.70
  -2  -2   3   25.30    1.40
   2   2  -3   26.20    1.30
  -1  -2   3  335.97    5.80
   1  -2  -3  332.77    5.40
   1  -2  -3  329.27    5.10
   1  -2  -3  332.97    5.80
   1  -2  -3  335.27    5.70
   1   2  -3  328.17    5.70
   0  -2  -3   22.50    1.10
   0  -2   3   22.00    1.20
   0  -2  -3   22.50    1.10
   0  -2  -3   23.00    1.10
   0  -2  -3   21.60    1.10
  -1  -2  -3    1.50    0.50
  -1  -2  -3    1.90    0.50
  -1  -2  -3    1.40    0.50
   1  -2   3    2.00    0.60
  -1   2  -3    1.60    0.50
  -2  -2  -3  257.87    5.10
  -2  -2  -3  262.97    5.00
  -2   2  -3  261.17    4.90
  -2   2  -3  253.57    5.00
  -3  -2  -3  278.47    5.60
  -3  -2  -3  275.57    5.60
  -3   2  -3  283.57    5.30
  -3   2  -3  290.87    5.60
  -4  -2  -3  144.29    3.90
  -4  -2  -3  148.19    3.90
  -4   2  -3  135.29    4.50
  -4   2  -3  147.69    3.40
  -4   2  -3  142.79    3.80
  -5  -2  -3   79.79    3.00
  -5  -2  -3   78.99    3.10
  -5  -2  -3   75.09    2.80
  -5   2  -3   77.79    2.50
  -5   2  -3   77.19    2.90
  -5   2  -3   78.69    3.80
  -6  -2  -3   93.29    3.30
  -6  -2  -3   89.19    3.40
  -6  -2  -3   91.59    3.60
  -6   2  -3   89.89    3.30
  -6   2  -3   87.69    4.20
  -6   2  -3   92.69    2.80
  -7  -2  -3   34.70    2.50
  -7  -2  -3   34.80    2.20
  -7  -2  -3   33.20    2.40
  -7   2  -3   39.00    3.30
  -7   2  -3   36.20    2.30
  -8  -2  -3   46.10    3.00
  -8  -2  -3   41.30    2.40
  -8   2  -3   52.09    3.80
  -8   2  -3   42.00    2.70
  -9  -2  -3   80.99    4.00
  -9   2  -3   83.89    5.10
  -9   2  -3   78.09    5.30
  -9  -3   3    5.50    2.70
  -9  -3   3    3.60    1.20
  -9  -3   3    5.10    1.30
  -9   3   3    4.00    1.40
  -9   3   3    2.10    2.50
  -8  -3   3   60.19    3.00
  -8  -3   3   58.29    3.90
  -8  -3   3   66.19    3.00
  -8   3   3   60.89    3.30
  -8   3   3   66.59    5.40
  -7  -3   3   17.80    1.70
  -7  -3   3   11.70    1.50
  -7   3   3   12.70    2.80
  -6  -3   3   69.19    2.80
  -6   3   3   68.19    4.40
   6   3  -3   63.89    2.20
  -5  -3   3    5.50    1.10
   5   3  -3    5.40    0.80
  -5   3   3    6.80    1.90
  -4  -3   3    6.10    1.00
   4   3  -3    8.50    1.00
   3  -3  -3  181.98    4.20
   3  -3  -3  182.28    3.30
  -3  -3   3  179.58    4.30
   3   3  -3  181.58    3.90
   2  -3  -3  434.86    7.50
   2  -3  -3  434.26    6.10
   2  -3  -3  437.66    6.80
  -2  -3   3  428.26    7.60
  -2  -3   3  425.86    6.00
   2   3  -3  421.06    7.30
  -1  -3   3  226.68    4.70
   1  -3  -3  221.08    4.20
   1  -3  -3  220.68    3.80
   1   3  -3  217.88    4.40
   0  -3  -3    0.40    0.40
   0  -3  -3    0.30    0.40
   0  -3   3   -0.10    0.50
   0  -3  -3    0.30    0.40
   0   3  -3   -0.10    0.40
  -1  -3  -3   69.29    2.30
   1  -3   3   72.89    2.50
  -1  -3  -3   69.49    2.20
  -1  -3  -3   72.19    2.30
  -1   3  -3   70.79    2.30
  -2  -3  -3  117.89    3.20
  -2  -3  -3  106.49    3.10
  -2   3  -3  111.09    3.10
  -3  -3  -3   94.79    3.10
  -3  -3  -3   98.89    3.10
  -3   3  -3   98.29    3.00
  -3   3  -3   98.39    3.00
  -4  -3  -3  127.09    3.80
  -4  -3  -3  128.59    3.70
  -4   3  -3  133.09    3.60
  -4   3  -3  130.09    3.60
  -4   3  -3  123.99    4.60
  -5  -3  -3  392.96    8.00
  -5  -3  -3  376.76    7.70
  -5   3  -3  368.66    8.90
  -5   3  -3  386.06    7.50
  -5   3  -3  372.86    7.20
  -6  -3  -3  289.67    7.00
  -6  -3  -3  293.87    6.70
  -6   3  -3  297.77    8.30
  -6   3  -3  299.27    6.20
  -6   3  -3  303.37    6.50
  -7  -3  -3  407.16    9.00
  -7  -3  -3  397.86    8.40
  -7   3  -3  396.96    8.10
  -7   3  -3  384.06   10.20
  -8  -3  -3  179.38    5.80
  -8  -3  -3  186.38    5.40
  -8   3  -3  172.28    7.00
  -8   3  -3  176.78    5.20
  -9  -4   3   99.89    4.10
  -9  -4   3   95.79    4.00
  -9   4   3   97.69    6.50
  -9   4   3   92.89    4.40
  -8  -4   3   11.70    1.70
  -8   4   3   13.80    3.40
  -7  -4   3  357.96    7.40
  -7  -4   3  360.56    7.90
  -7   4   3  363.56   10.80
  -6  -4   3  224.28    5.70
  -6   4   3  220.58    7.70
  -5  -4   3  175.58    4.80
   5   4  -3  176.58    4.10
  -5   4   3  169.88    6.30
   4  -4  -3  504.85    9.30
  -4  -4   3  516.45    9.40
   4   4  -3  499.75    8.60
  -4   4   3  517.75   10.70
   3  -4  -3  146.69    4.00
   3  -4  -3  150.28    3.20
  -3  -4   3  140.19    4.00
  -3   4   3  154.18    4.80
   3   4  -3  149.19    3.70
  -2  -4   3   27.50    1.90
  -2  -4   3   23.40    1.00
   2  -4  -3   26.20    1.30
   2  -4  -3   26.00    1.60
   2  -4  -3   25.60    1.00
   2   4  -3   23.50    1.50
   1  -4  -3  223.78    4.10
  -1  -4   3  225.88    5.20
   1  -4  -3  219.88    4.60
   1  -4  -3  221.48    5.00
   1   4  -3  237.08    4.90
   0  -4  -3   13.00    1.30
   0  -4   3    8.80    1.30
   0  -4  -3   12.10    1.10
   0  -4  -3   13.50    1.30
   0   4  -3   10.90    1.20
   1  -4   3    2.00    1.10
  -1  -4  -3    2.60    0.80
  -1  -4  -3    1.40    0.70
  -1  -4  -3    3.30    0.80
  -1   4  -3    3.00    0.80
  -2  -4  -3  180.88    4.50
  -2  -4  -3  173.58    4.30
  -2   4  -3  176.28    4.40
  -3  -4  -3  213.08    5.20
  -3  -4  -3  214.28    5.20
  -3   4  -3  218.28    5.10
  -4  -4  -3   70.39    2.90
  -4  -4  -3   71.99    3.00
  -4   4  -3   65.39    3.40
  -4   4  -3   62.89    2.70
  -5  -4  -3   39.30    2.40
  -5  -4  -3   42.50    2.60
  -5   4  -3   38.80    3.00
  -5   4  -3   40.90    2.40
  -6  -4  -3   60.99    3.00
  -6  -4  -3   59.99    3.20
  -6   4  -3   59.09    3.90
  -6   4  -3   58.59    2.70
  -7  -4  -3   28.40    2.60
  -7  -4  -3   27.30    2.20
  -7   4  -3   25.40    2.00
  -7   4  -3   30.10    2.10
  -7   4  -3   35.90    3.70
  -8  -4  -3   46.00    2.90
  -8  -4  -3   37.40    3.30
  -8   4  -3   49.10    4.30
  -8  -5   3  141.29    5.00
  -8   5   3  152.98    7.60
  -7  -5   3   45.70    2.80
  -7  -5   3   42.40    2.60
  -7   5   3   44.40    4.50
  -6  -5   3   11.00    1.70
  -6   5   3   16.60    3.10
   5  -5  -3   45.10    2.50
  -5  -5   3   45.30    2.70
  -5   5   3   46.80    4.10
   5   5  -3   48.80    2.20
   4  -5  -3    2.30    0.90
  -4  -5   3    1.90    1.00
   4   5  -3    1.60    0.70
  -4   5   3    0.90    1.80
   3  -5  -3    8.70    1.00
  -3  -5   3    6.20    1.30
   3  -5  -3    4.50    1.00
   3   5  -3    5.50    1.00
  -3   5   3    4.30    1.80
   2  -5  -3    0.20    0.60
   2  -5  -3    0.20    0.60
  -2  -5   3    0.30    0.90
  -2   5   3    0.10    1.30
   2   5  -3    0.50    0.70
   1  -5  -3   11.20    1.30
  -1  -5   3    9.00    1.50
   1  -5  -3   10.10    1.00
   1  -5  -3   11.00    1.40
   1   5  -3    8.70    1.30
  -1   5   3   10.40    1.70
   0  -5  -3    9.40    1.10
   0  -5  -3    7.20    1.10
   0  -5   3    6.60    1.30
   0  -5  -3    7.90    1.20
   0   5  -3    8.30    1.20
  -1  -5  -3   73.49    2.80
  -1  -5  -3   69.69    2.70
  -1  -5  -3   74.09    2.70
  -1   5  -3   76.59    3.00
  -2  -5  -3  549.05    9.80
  -2  -5  -3  535.25    9.80
  -2  -5  -3  519.85    9.50
  -2   5  -3  533.05    9.80
  -3  -5  -3   11.90    1.50
  -3  -5  -3    9.10    1.40
  -3   5  -3    8.50    1.30
  -4  -5  -3  110.29    4.00
  -4  -5  -3  109.09    3.90
  -4   5  -3  112.59    3.90
  -5  -5  -3   86.19    3.70
  -5  -5  -3   87.39    3.60
  -5   5  -3   88.49    3.60
  -5   5  -3   94.99    4.50
  -6  -5  -3   35.10    2.50
  -6  -5  -3   35.20    2.60
  -6   5  -3   36.90    3.30
  -6   5  -3   34.60    2.50
  -7  -5  -3   97.19    4.40
  -7  -5  -3  105.09    4.30
  -7   5  -3  104.59    5.50
  -7   5  -3  104.39    4.00
  -7  -6   3  324.17    7.80
   7  -6  -3  320.57    8.10
  -7  -6   3  309.67    8.00
  -7   6   3  327.27   10.20
  -6  -6   3   67.19    3.50
   6  -6  -3   75.49    3.50
  -6   6   3   72.79    4.90
  -5  -6   3    2.70    1.20
   5  -6  -3    6.10    1.30
  -5   6   3    6.80    2.20
   4  -6  -3   74.69    3.20
  -4  -6   3   76.39    3.60
   4   6  -3   71.09    2.80
  -4   6   3   68.59    4.20
   3  -6  -3   20.70    1.50
   3  -6  -3   23.60    2.10
  -3  -6   3   19.50    2.10
   3   6  -3   17.90    1.70
   2  -6  -3   60.09    2.80
   2  -6  -3   59.99    2.50
  -2  -6   3   56.39    3.10
   2   6  -3   61.99    2.70
   1  -6  -3  481.75    8.80
  -1  -6   3  457.75    8.10
   1  -6  -3  468.25    9.20
  -1  -6   3  480.05    9.90
   1   6  -3  466.05    9.00
   0  -6  -3  208.98    4.80
   0  -6   3  206.98    5.90
   0  -6  -3  211.68    5.20
   0  -6  -3  216.28    5.50
   0   6  -3  204.78    5.30
  -1  -6  -3   89.99    3.10
  -1  -6  -3   94.49    3.40
  -1  -6  -3   89.09    3.40
  -1   6  -3   91.49    3.50
  -2  -6  -3  106.99    3.60
  -2  -6  -3  106.59    3.70
  -2  -6  -3  102.79    3.80
  -2   6  -3  104.59    3.80
   2   6   3  103.29    3.60
  -3  -6  -3   26.60    2.30
  -3  -6  -3   19.20    2.00
  -3   6  -3   21.30    2.10
  -4  -6  -3    1.80    0.90
  -4  -6  -3    2.80    1.20
  -4   6  -3    0.10    1.00
  -5  -6  -3   -0.90    0.90
  -5  -6  -3    0.40    0.90
  -5   6  -3    0.10    1.00
  -6  -6  -3   35.00    3.10
  -6  -6  -3   27.50    2.70
  -6   6  -3   28.60    2.80
   6  -7  -3    1.00    1.10
  -6  -7   3    1.20    1.20
  -6   7   3    0.00    2.10
   5  -7  -3   22.20    2.30
  -5  -7   3   15.30    2.20
   4  -7  -3   -0.30    0.80
  -4  -7   3   -0.20    1.10
   4   7  -3    0.30    0.80
   3  -7  -3   -0.30    0.80
  -3  -7   3   -0.40    1.10
   3   7  -3    0.00    0.80
   2  -7  -3    6.90    1.20
  -2  -7   3    9.90    1.90
   2  -7  -3   10.40    1.60
   2   7  -3   11.30    1.60
   1  -7  -3   27.80    2.20
  -1  -7   3   27.70    2.80
   1  -7  -3   24.80    1.90
   1   7  -3   26.10    2.30
   0  -7   3    7.80    1.20
   0  -7  -3    7.70    1.40
   0  -7  -3   11.50    1.40
   0  -7  -3   12.00    1.70
   0   7  -3    8.40    1.50
   0   7   3    7.30    1.90
  -1  -7  -3   43.50    2.60
  -1  -7  -3   37.20    2.30
  -1  -7  -3   42.80    2.50
  -1   7  -3   36.10    2.60
   1   7   3   37.30    2.90
  -2  -7  -3  243.78    6.10
  -2  -7  -3  254.37    6.60
  -2  -7  -3  237.58    6.30
  -2   7  -3  241.88    6.50
  -3  -7  -3    3.50    1.20
  -3  -7  -3    1.70    1.10
  -3   7  -3    3.60    1.40
  -4  -7  -3   56.89    3.20
  -4  -7  -3   57.99    3.30
  -4   7  -3   59.39    3.40
  -5  -7  -3   62.49    3.50
  -5  -7  -3   57.29    3.50
  -5   7  -3   59.89    3.60
  -4  -8   3  206.68    7.00
   4  -8  -3  205.98    6.50
  -4   8   3  215.98    7.60
   3  -8  -3   58.59    3.30
  -3  -8   3   61.19    3.90
  -3   8   3   45.20    4.10
   3   8  -3   60.99    3.20
   2  -8  -3   17.30    2.20
  -2  -8   3   17.50    2.80
   2  -8  -3   14.90    1.80
   2   8  -3   15.50    2.00
  -2   8   3   12.00    2.50
   1  -8  -3   72.09    3.50
   1  -8  -3   82.49    3.50
  -1   8   3   73.99    4.30
   1   8  -3   72.09    3.50
   0  -8  -3    4.00    1.20
   0  -8  -3    2.90    1.20
   0   8  -3    2.70    1.40
   0   8   3    1.60    1.60
  -1  -8  -3    2.80    1.10
  -1  -8  -3    3.40    1.20
  -1  -8  -3    4.30    1.20
   1  -8   3    1.60    0.90
   1   8   3    0.20    1.40
  -1   8  -3    1.80    1.20
  -2  -8  -3   70.59    3.60
  -2  -8  -3   70.29    3.30
  -2   8  -3   71.49    3.80
  -3  -8  -3   91.29    4.20
  -3  -8  -3   86.89    3.90
  -3   8  -3   86.29    4.30
 -10   0   4  291.17    7.70
 -10   0   4  289.17   10.80
  -9   0   4  220.68    6.30
  -9   0   4  222.68    8.50
  -8   0   4  362.86    8.20
  -7   0   4  564.74   10.60
   7   0  -4  568.44    9.90
  -6   0   4  188.68    4.90
   6   0  -4  186.68    4.50
  -5   0   4   21.20    1.70
   5   0  -4   23.50    1.60
   5   0  -4   23.60    1.10
  -4   0   4  130.19    3.50
   4   0  -4  129.99    2.60
   4   0  -4  124.19    3.30
   3   0  -4  102.09    2.20
   3   0  -4  100.09    2.80
  -3   0   4   99.59    2.80
   2   0  -4  667.23   10.30
   2   0  -4  663.83    9.50
  -2   0   4  660.33   10.10
   1   0  -4   87.69    2.40
   1   0  -4   89.19    2.20
   1   0  -4   87.99    2.30
  -1   0   4   86.29    2.20
   0   0  -4  317.97    5.50
   0   0  -4  305.97    5.50
   0   0  -4  305.27    5.40
   0   0   4  318.27    5.00
   1   0   4  921.91   12.40
  -1   0  -4  889.01   13.50
  -1   0  -4  914.51   13.10
  -1   0  -4  914.81   13.50
  -2   0  -4  100.69    2.40
  -2   0  -4   94.79    2.80
  -2   0  -4   97.99    2.90
  -3   0  -4  125.99    3.50
  -3   0  -4  122.79    3.40
  -3   0  -4  121.19    2.70
  -4   0  -4    7.30    1.10
  -4   0  -4    8.20    0.80
  -4   0  -4    9.30    1.30
  -5   0  -4    1.50    1.00
  -5   0  -4    1.70    0.80
  -6   0  -4    0.70    0.90
  -6   0  -4    0.50    1.00
  -6   0  -4    1.70    0.70
  -7   0  -4   26.90    2.70
  -7   0  -4   28.50    2.00
  -7   0  -4   30.90    2.60
  -8   0  -4  185.38    5.70
  -8   0  -4  182.68    5.60
  -8   0  -4  184.78    6.50
 -10  -1   4   21.30    4.00
 -10  -1   4   16.40    2.10
 -10   1   4   16.30    3.90
 -10   1   4   20.10    2.50
  -9  -1   4    0.30    0.90
  -9  -1   4   -0.40    1.90
  -9   1   4    1.70    2.50
  -9   1   4    0.10    0.90
  -8  -1   4    4.50    1.20
  -8   1   4    6.90    1.50
  -8   1   4    8.20    2.50
  -7  -1   4    0.00    0.70
  -7   1   4    0.30    0.70
   7   1  -4   -0.40    0.70
  -6  -1   4    5.10    1.10
  -6   1   4    3.50    1.00
   6   1  -4    5.80    1.00
   5  -1  -4   60.89    2.10
  -5  -1   4   59.49    2.50
   5  -1  -4   68.79    2.60
   5   1  -4   63.69    2.40
  -5   1   4   63.09    2.70
   4  -1  -4   26.50    1.70
   4  -1  -4   25.60    1.30
  -4  -1   4   25.00    1.60
   4   1  -4   25.20    1.50
  -4   1   4   28.50    1.80
   4   1  -4   26.70    0.80
   3  -1  -4   84.99    1.90
   3  -1  -4   81.79    2.60
   3  -1  -4   82.79    2.20
   3   1  -4   80.59    2.50
  -3   1   4   85.89    2.60
   2  -1  -4  207.18    4.40
   2  -1  -4  214.48    4.00
   2  -1  -4  224.78    3.90
  -2  -1   4  213.78    4.30
   2   1  -4  221.98    4.40
  -2   1   4  218.88    4.30
   1  -1  -4 1333.67   19.00
  -1  -1   4 1389.86   19.10
   1  -1  -4 1385.56   19.40
   1  -1  -4 1379.36   18.80
   1  -1  -4 1350.86   19.10
   1   1  -4 1372.56   19.40
  -1   1   4 1420.46   19.00
   0  -1  -4   81.99    2.20
   0  -1  -4   83.09    2.30
   0  -1  -4   82.89    2.20
   0  -1   4   84.49    2.10
   0   1   4   88.79    1.90
   0   1  -4   82.99    2.40
   0   1  -4   82.59    2.30
   0   1  -4   82.99    2.40
  -1  -1  -4   75.99    2.00
  -1  -1  -4   78.29    2.40
   1  -1   4   75.59    1.90
  -1  -1  -4   78.99    2.30
  -1   1  -4   70.09    2.30
  -1   1  -4   77.99    2.40
  -1   1  -4   77.29    2.20
   1   1   4   76.89    1.50
  -2  -1  -4   16.50    1.40
  -2  -1  -4   15.80    1.20
  -2  -1  -4   15.60    0.90
  -2   1  -4   17.00    1.10
  -2   1  -4   16.00    1.40
  -2   1  -4   16.30    1.20
  -3  -1  -4    9.90    1.20
  -3  -1  -4    9.30    1.20
  -3  -1  -4   10.20    0.70
  -3   1  -4   11.80    1.30
  -3   1  -4   10.00    1.20
  -3   1  -4   10.20    0.90
  -4  -1  -4   39.50    2.20
  -4  -1  -4   39.70    2.00
  -4   1  -4   42.20    2.20
  -4   1  -4   38.10    1.50
  -4   1  -4   37.80    1.90
  -5  -1  -4   28.50    1.90
  -5  -1  -4   30.40    2.20
  -5   1  -4   26.60    1.50
  -5   1  -4   31.80    1.90
  -5   1  -4   33.10    2.10
  -6  -1  -4    0.70    0.70
  -6  -1  -4    0.40    1.00
  -6   1  -4    0.20    1.10
  -6   1  -4    0.10    0.60
  -6   1  -4   -1.10    0.60
  -7  -1  -4    0.50    0.70
  -7  -1  -4    2.10    1.10
  -7   1  -4    0.80    0.90
  -7   1  -4    0.90    1.10
  -7   1  -4    1.20    0.70
  -8  -1  -4  106.69    4.30
  -8  -1  -4   99.69    3.80
  -8   1  -4   94.99    4.90
  -8   1  -4  102.19    4.10
  -9  -2   4   99.99    4.10
  -9  -2   4  109.69    5.80
  -9   2   4  109.89    6.60
  -9   2   4   98.99    4.40
  -8  -2   4   90.49    3.60
  -8   2   4   88.79    3.90
  -8   2   4   85.39    5.30
  -7  -2   4  136.49    4.30
  -7   2   4  133.29    4.50
   7   2  -4  139.49    3.70
  -6  -2   4   53.59    2.50
  -6   2   4   53.39    2.80
   6   2  -4   48.30    2.10
  -5  -2   4   94.09    3.20
   5  -2  -4   91.99    2.80
   5   2  -4   86.99    2.80
  -5   2   4   86.89    3.30
   4  -2  -4  836.12   11.30
  -4  -2   4  825.12   13.10
   4  -2  -4  802.52   12.50
   4   2  -4  808.82   12.70
  -3  -2   4  241.48    5.10
   3  -2  -4  236.18    4.00
   3  -2  -4  232.88    4.70
   3  -2  -4  235.48    5.00
   3   2  -4  229.08    4.80
   2  -2  -4 1384.46   18.40
   2  -2  -4 1373.86   19.50
   2  -2  -4 1366.96   19.70
   2  -2  -4 1389.96   19.00
  -2  -2   4 1409.66   19.80
   2   2  -4 1326.97   19.60
  -1  -2   4   51.19    1.90
   1  -2  -4   50.99    1.50
   1  -2  -4   46.80    1.80
   1  -2  -4   52.59    1.80
   1  -2  -4   48.60    1.80
   1   2  -4   50.09    1.90
   0  -2  -4    0.60    0.50
   0  -2  -4    1.40    0.60
   0  -2  -4    1.50    0.60
   0  -2  -4    1.20    0.50
   0  -2   4    1.90    0.60
   0   2  -4    0.70    0.40
   1  -2   4    1.00    0.50
  -1  -2  -4    1.70    0.50
  -1  -2  -4    2.00    0.70
  -1  -2  -4    1.30    0.50
  -1   2  -4    1.10    0.50
  -1   2  -4    1.20    0.60
  -2  -2  -4   45.40    2.00
  -2  -2  -4   46.40    2.00
  -2  -2  -4   46.70    1.60
  -2   2  -4   42.00    1.90
  -2   2  -4   43.90    1.80
  -3  -2  -4   39.30    2.00
  -3  -2  -4   44.00    1.40
  -3  -2  -4   38.90    2.00
  -3   2  -4   39.50    1.80
  -3   2  -4   39.90    2.10
  -4  -2  -4   90.49    3.10
  -4  -2  -4   96.19    3.40
  -4   2  -4   92.59    2.70
  -4   2  -4   89.89    3.10
  -5  -2  -4  136.79    4.10
  -5  -2  -4  144.09    4.40
  -5   2  -4  139.29    4.10
  -5   2  -4  141.49    3.50
  -5   2  -4  139.09    4.00
  -6  -2  -4   77.29    3.20
  -6  -2  -4   77.69    3.30
  -6   2  -4   77.99    3.30
  -6   2  -4   77.69    4.10
  -7  -2  -4   90.89    3.90
  -7  -2  -4   75.79    3.30
  -7   2  -4   83.39    3.50
  -7   2  -4   81.39    4.30
  -8  -2  -4  119.19    4.30
  -8  -2  -4  119.19    4.80
  -8   2  -4  121.69    4.50
  -8   2  -4  119.79    5.60
  -9  -3   4   44.00    2.80
  -9  -3   4   40.10    4.00
  -9   3   4   46.00    5.40
  -9   3   4   35.60    2.90
  -8  -3   4   -0.10    0.80
  -8   3   4   -0.20    0.90
  -8   3   4    1.50    2.30
  -7  -3   4   11.30    1.60
  -7   3   4   14.40    2.80
  -7   3   4    7.30    1.50
  -6  -3   4  151.08    4.50
   6   3  -4  154.88    4.00
   5  -3  -4   69.89    2.70
  -5  -3   4   72.89    2.90
   5   3  -4   71.19    2.60
  -4  -3   4   18.40    1.70
   4  -3  -4   17.30    1.50
   4   3  -4   17.60    1.40
  -3  -3   4   24.80    1.70
   3  -3  -4   24.30    1.10
   3  -3  -4   23.10    1.50
   3   3  -4   23.70    1.50
   2  -3  -4    1.60    0.50
  -2  -3   4    1.90    0.80
   2  -3  -4    0.90    0.60
   2  -3  -4    1.00    0.40
   2   3  -4    1.00    0.70
  -1  -3   4   30.20    1.80
   1  -3  -4   33.50    1.50
   1  -3  -4   29.70    1.20
   1  -3  -4   34.10    1.70
   1   3  -4   34.80    1.70
   0  -3  -4   73.19    2.20
   0  -3   4   77.89    2.60
   0  -3  -4   74.99    2.50
   0  -3  -4   74.69    2.40
   1  -3   4   21.80    1.60
  -1  -3  -4   23.50    1.50
  -1  -3  -4   19.80    1.40
  -1   3  -4   24.00    1.50
  -2  -3  -4  141.59    3.80
  -2  -3  -4  137.39    3.70
  -2   3  -4  139.49    3.70
  -3  -3  -4  124.59    3.80
  -3  -3  -4  123.49    3.70
  -3   3  -4  123.79    3.50
  -3   3  -4  124.59    3.70
  -4  -3  -4   31.10    2.10
  -4  -3  -4   30.50    1.90
  -4   3  -4   35.70    2.10
  -4   3  -4   33.30    1.90
  -5  -3  -4   82.39    3.50
  -5  -3  -4   77.59    3.20
  -5   3  -4   81.39    2.90
  -5   3  -4   83.09    3.20
  -6  -3  -4   11.10    1.60
  -6  -3  -4   12.00    1.80
  -6   3  -4    8.30    1.70
  -6   3  -4   11.10    1.60
  -6   3  -4   12.00    1.40
  -7  -3  -4   50.79    3.20
  -7  -3  -4   60.39    3.00
  -7   3  -4   53.19    3.80
  -7   3  -4   52.49    2.80
  -8  -3  -4    8.40    1.80
  -8  -3  -4    7.60    1.50
  -8   3  -4   10.80    1.70
  -8   3  -4   12.20    2.50
  -9  -4   4   99.89    4.30
  -9   4   4   98.09    7.10
  -9   4   4   81.39    4.30
  -8  -4   4   88.49    3.90
  -8   4   4   95.89    6.40
   7  -4  -4  113.69    4.00
  -7  -4   4  105.79    4.00
  -7   4   4  109.99    6.30
   6  -4  -4   40.30    2.30
  -6  -4   4   35.60    2.30
   6   4  -4   41.90    2.10
  -6   4   4   36.10    3.60
   5  -4  -4   36.00    2.10
  -5  -4   4   39.80    2.40
   5   4  -4   39.70    2.00
  -5   4   4   39.00    3.40
  -4  -4   4  467.75    9.20
   4  -4  -4  478.35    9.00
   4   4  -4  477.95    8.60
   3  -4  -4  148.29    3.30
   3  -4  -4  142.29    4.00
  -3  -4   4  151.38    4.30
   3   4  -4  153.08    4.00
  -2  -4   4  755.42   12.80
   2  -4  -4  770.92   11.80
   2  -4  -4  771.72   12.70
   2  -4  -4  759.52   11.20
   2   4  -4  792.32   12.50
   1  -4  -4    1.30    0.60
   1  -4  -4    1.60    0.60
  -1  -4   4    1.30    0.90
   1  -4  -4    1.30    0.60
   1   4  -4    1.50    0.80
   0  -4   4   15.20    1.70
   0  -4  -4   12.00    1.10
   0  -4  -4   10.90    1.20
   0  -4  -4   12.00    1.30
   0   4  -4   16.10    1.50
  -1  -4  -4   19.20    1.50
  -1  -4  -4   18.10    1.40
  -1  -4  -4   19.00    1.70
   1  -4   4   21.30    2.00
  -1   4  -4   14.20    1.40
  -2  -4  -4    1.50    0.80
  -2  -4  -4    1.60    0.90
  -2   4  -4    0.80    0.80
  -3  -4  -4   43.40    2.40
  -3  -4  -4   41.10    2.30
  -3   4  -4   42.80    2.30
  -4  -4  -4   57.19    2.90
  -4  -4  -4   58.89    2.80
  -4   4  -4   63.99    2.70
  -5  -4  -4   93.19    3.70
  -5  -4  -4   93.19    3.70
  -5   4  -4   93.79    3.40
  -6  -4  -4   35.50    2.70
  -6  -4  -4   36.60    2.50
  -6   4  -4   40.40    2.40
  -7  -4  -4   47.10    3.10
  -7  -4  -4   57.99    3.20
  -7   4  -4   53.29    2.90
   8  -5  -4    5.80    1.40
  -8  -5   4    3.60    1.30
  -8   5   4    5.50    2.80
  -7  -5   4    0.40    0.90
   7  -5  -4    0.50    0.90
  -7   5   4   -1.50    2.00
  -6  -5   4   -0.10    0.90
   6  -5  -4   -0.30    0.70
  -6   5   4    2.20    2.20
   5  -5  -4   24.90    2.00
  -5  -5   4   29.00    2.30
   5   5  -4   23.00    1.80
  -5   5   4   25.30    3.20
   4  -5  -4   25.50    1.90
  -4  -5   4   24.40    2.40
  -4   5   4   26.00    2.90
   4   5  -4   24.90    1.80
  -3  -5   4   23.90    2.20
   3  -5  -4   21.70    1.40
   3  -5  -4   24.10    1.80
  -3   5   4   23.30    2.40
   3   5  -4   22.60    1.70
   2  -5  -4  106.59    3.10
   2  -5  -4  101.99    3.60
  -2  -5   4   97.49    3.70
   2   5  -4  104.69    3.40
   1  -5  -4  329.67    6.00
  -1  -5   4  339.97    7.50
   1  -5  -4  336.57    6.70
   1  -5  -4  347.27    7.30
   1   5  -4  338.37    7.00
   0  -5  -4   21.60    1.90
   0  -5  -4   24.00    1.60
   0  -5   4   19.50    2.00
   0  -5  -4   21.40    1.60
   0   5  -4   23.60    1.90
  -1  -5  -4   24.50    1.80
   1  -5   4   23.00    2.30
  -1  -5  -4   24.40    1.70
  -1  -5  -4   25.90    1.90
  -1   5  -4   25.30    2.10
  -2  -5  -4    2.90    0.90
  -2  -5  -4    3.00    1.00
  -2   5  -4    3.40    1.10
  -3  -5  -4    7.00    1.30
  -3  -5  -4    5.20    1.30
  -3   5  -4    7.60    1.40
  -4  -5  -4   17.90    2.00
  -4  -5  -4   20.70    2.10
  -4   5  -4   20.10    2.00
  -5  -5  -4   20.80    2.30
  -5  -5  -4   22.40    2.30
  -5   5  -4   27.50    2.40
  -6  -5  -4    0.20    1.10
  -6  -5  -4    0.60    0.90
  -6   5  -4   -0.20    0.90
  -7  -5  -4   -0.20    1.20
  -7  -5  -4   -0.70    0.80
  -7   5  -4   -0.30    1.00
   7  -6  -4  231.68    6.70
  -7  -6   4  231.98    6.90
  -7   6   4  228.08    8.90
   6  -6  -4   91.39    3.90
  -6  -6   4   81.19    3.90
  -6   6   4   87.69    5.50
   5  -6  -4    9.10    1.50
  -5  -6   4    9.30    1.70
   5   6  -4   10.50    1.40
  -5   6   4    8.70    2.50
  -4  -6   4  104.89    4.30
   4  -6  -4   98.39    3.90
   4   6  -4  107.99    3.70
  -4   6   4   94.69    5.00
   3  -6  -4    0.30    0.70
  -3  -6   4   -0.60    1.00
   3   6  -4    0.10    0.70
  -2  -6   4  202.38    6.00
   2  -6  -4  205.38    4.90
   2  -6  -4  203.08    5.50
   2   6  -4  191.58    5.20
   1  -6  -4    0.50    0.70
  -1  -6   4    1.50    1.20
   1  -6  -4   -0.10    0.60
   1   6  -4    0.20    0.80
   0  -6  -4   98.49    3.50
   0  -6   4   96.99    4.10
   0  -6  -4   97.29    3.70
   0  -6  -4   99.69    3.20
   0   6  -4  106.49    3.80
  -1  -6  -4  217.08    5.30
  -1  -6  -4  228.78    5.80
  -1  -6  -4  227.18    5.90
  -1   6  -4  216.28    5.80
  -2  -6  -4   54.29    2.70
  -2  -6  -4   49.80    2.70
  -2   6  -4   49.30    2.80
  -3  -6  -4   57.59    3.00
  -3  -6  -4   57.09    3.00
  -3   6  -4   55.89    3.10
  -4  -6  -4    5.70    1.30
  -4  -6  -4   11.60    1.80
  -4   6  -4    9.90    1.70
  -5  -6  -4    2.40    1.30
  -5  -6  -4    0.30    1.00
  -5   6  -4    0.90    1.10
  -6  -6  -4    2.50    1.40
  -6  -6  -4    1.80    1.00
  -6   6  -4   -1.10    0.90
  -6  -7   4    4.60    1.60
   6  -7  -4    2.90    1.20
   5  -7  -4    6.00    1.40
  -5  -7   4    5.50    1.60
   4  -7  -4   10.80    1.70
  -4  -7   4    9.70    1.90
   4   7  -4    8.70    1.50
   3  -7  -4   10.70    1.70
  -3  -7   4   10.70    2.10
   3   7  -4   13.30    1.70
   2  -7  -4   36.50    2.50
  -2  -7   4   30.40    3.10
   2  -7  -4   33.70    2.10
   2   7  -4   33.40    2.40
   1  -7  -4  136.69    4.30
   1  -7  -4  143.09    4.80
  -1  -7   4  138.89    5.30
   1   7  -4  129.79    4.50
   0  -7  -4    2.90    1.10
   0  -7  -4    4.10    1.10
   0   7  -4    5.10    1.30
  -1  -7  -4    9.10    1.60
  -1  -7  -4    8.90    1.50
  -1  -7  -4    7.00    1.30
  -1   7  -4    6.70    1.50
  -2  -7  -4    7.30    1.40
  -2  -7  -4    7.70    1.40
  -2   7  -4    7.30    1.50
  -3  -7  -4    0.30    1.00
  -3  -7  -4    1.60    1.00
  -3   7  -4    1.70    1.20
  -4  -7  -4    3.00    1.30
  -4  -7  -4    2.90    1.20
  -4   7  -4    4.50    1.60
   4  -8  -4  214.68    6.60
   3  -8  -4   75.79    3.90
  -3  -8   4   77.89    4.50
   3   8  -4   70.99    3.50
  -2  -8   4  277.27    8.30
   2  -8  -4  276.87    7.50
   2   8  -4  278.57    7.20
   1  -8  -4    0.40    1.00
   1  -8  -4    0.20    0.80
   1   8  -4   -1.80    0.90
  -1   8   4   -1.00    1.80
   0  -8  -4    2.60    1.20
   0  -8  -4    1.20    1.00
   0   8  -4    1.00    1.20
   0   8   4   -1.40    1.60
  -1  -8  -4   12.40    1.80
  -1  -8  -4   11.70    1.90
  -1   8  -4    7.60    1.70
  -2  -8  -4    1.30    1.20
  -2  -8  -4    1.70    1.20
  -2   8  -4    1.40    1.30
  -9   0   5   12.50    2.00
  -8   0   5   52.09    3.00
  -7   0   5  350.96    7.90
   7   0  -5  364.56    7.40
   6   0  -5  123.49    3.80
  -6   0   5  131.49    4.10
  -5   0   5 1875.71   27.10
   5   0  -5 1859.01   26.70
   5   0  -5 1869.01   25.40
   4   0  -5  101.49    3.20
  -4   0   5  108.49    3.30
   4   0  -5  100.89    2.40
  -3   0   5   31.90    1.70
   3   0  -5   32.10    1.70
   3   0  -5   32.40    1.30
  -2   0   5   35.50    1.60
   2   0  -5   35.10    1.80
   2   0  -5   35.80    1.50
   1   0  -5   17.60    1.10
  -1   0   5   17.60    1.10
   1   0  -5   17.50    1.20
   1   0  -5   17.00    1.20
   0   0  -5  197.98    4.20
   0   0   5  194.18    3.70
   0   0  -5  197.68    4.20
   0   0  -5  197.58    4.30
  -1   0  -5  300.07    5.80
   1   0   5  281.17    4.60
  -1   0  -5  292.77    5.40
  -2   0  -5  473.55    8.40
  -2   0  -5  460.15    8.40
   2   0   5  468.15    6.60
  -2   0  -5  467.35    7.70
  -3   0  -5  229.48    4.40
  -3   0  -5  226.68    5.20
  -3   0  -5  226.48    5.40
  -4   0  -5    1.30    0.90
  -4   0  -5    1.00    0.70
  -4   0  -5    1.90    0.60
  -5   0  -5   12.90    1.70
  -5   0  -5   11.80    1.40
  -6   0  -5    1.70    0.80
  -6   0  -5    0.70    1.00
  -7   0  -5    0.60    0.70
  -7   0  -5    1.40    1.10
  -8   0  -5    0.70    0.80
  -8   0  -5    2.50    1.30
  -9  -1   5  210.68    6.30
  -9   1   5  219.28    8.60
  -9   1   5  212.88    6.50
  -8  -1   5   73.89    3.40
  -8   1   5   70.89    3.50
   8   1  -5   77.19    3.10
  -7  -1   5  177.78    5.10
   7   1  -5  169.98    4.60
  -7   1   5  172.88    5.20
   6  -1  -5   37.00    2.30
  -6  -1   5   39.00    2.30
   6  -1  -5   37.40    1.70
   6   1  -5   40.40    2.10
  -6   1   5   36.30    2.30
   5  -1  -5    7.30    0.90
   5  -1  -5    4.70    1.10
  -5  -1   5    6.30    1.20
   5   1  -5    5.90    1.10
  -5   1   5    6.80    1.20
   4  -1  -5  989.50   15.30
  -4  -1   5  975.50   15.30
   4  -1  -5  985.00   14.30
  -4   1   5  971.20   15.30
   4   1  -5  976.50   15.20
   3  -1  -5  108.29    3.20
  -3  -1   5  105.39    3.10
   3  -1  -5  106.19    2.50
   3  -1  -5  103.59    2.70
  -3   1   5   99.69    3.00
   3   1  -5  102.79    3.10
   2  -1  -5  458.75    7.60
  -2  -1   5  454.05    7.90
   2  -1  -5  466.55    8.10
   2  -1  -5  466.65    7.60
   2  -1  -5  460.45    7.20
  -2   1   5  470.35    7.90
   2   1  -5  465.05    8.10
   1  -1  -5  278.87    5.50
   1  -1  -5  284.97    5.40
  -1  -1   5  278.77    5.20
   1  -1  -5  272.57    5.00
  -1   1   5  283.37    5.10
   1   1  -5  282.27    5.50
   0  -1  -5  303.67    5.60
   0  -1  -5  289.57    5.50
   0  -1   5  306.07    5.30
   0  -1  -5  304.27    5.80
   0   1  -5  296.17    5.70
   0   1  -5  300.27    5.80
   0   1   5  306.97    5.00
   0   1  -5  292.47    5.80
  -1  -1  -5  286.07    5.30
  -1  -1  -5  292.17    5.80
   1  -1   5  293.17    5.00
  -1  -1  -5  289.77    5.70
  -1   1  -5  272.07    5.70
  -1   1  -5  290.67    5.50
   1   1   5  298.27    4.50
  -1   1  -5  288.67    5.90
   2  -1   5  519.25    7.80
  -2  -1  -5  522.75    9.10
  -2  -1  -5  488.95    8.90
  -2  -1  -5  520.55    8.20
  -2   1  -5  516.05    9.10
  -2   1  -5  514.45    8.50
  -2   1  -5  503.55    9.00
  -3  -1  -5   43.70    2.30
  -3  -1  -5   43.90    1.60
  -3  -1  -5   45.30    2.20
  -3   1  -5   45.40    1.80
  -3   1  -5   45.20    2.20
  -4  -1  -5  110.89    3.70
  -4  -1  -5  109.19    3.60
  -4   1  -5  103.59    3.60
  -4   1  -5  112.39    3.60
  -4   1  -5  110.59    2.90
  -5  -1  -5   22.80    2.10
  -5  -1  -5   19.50    1.90
  -5   1  -5   23.00    1.80
  -5   1  -5   28.10    2.30
  -6  -1  -5   19.20    2.10
  -6  -1  -5   15.00    1.80
  -6   1  -5   17.50    1.90
  -6   1  -5   13.20    1.80
  -7  -1  -5   36.90    2.50
  -7  -1  -5   38.00    2.80
  -7   1  -5   39.30    2.40
  -7   1  -5   36.50    2.70
  -8  -1  -5    6.00    1.60
  -8  -1  -5    3.10    1.10
  -8   1  -5    3.50    1.40
  -9  -2   5   48.10    3.00
  -9   2   5   53.99    3.40
  -9   2   5   50.79    5.20
  -8  -2   5   22.60    2.30
  -8   2   5   23.50    2.40
  -7  -2   5   88.19    3.60
   7  -2  -5   92.79    3.10
   7   2  -5   89.69    3.20
  -7   2   5   86.89    3.80
  -6  -2   5   -0.20    0.70
   6  -2  -5    0.50    0.60
  -6   2   5    0.30    0.70
   6   2  -5    0.60    0.70
  -5  -2   5 1005.30   16.50
   5  -2  -5 1043.50   15.70
  -5   2   5 1048.00   16.80
   5   2  -5 1056.79   16.20
   4  -2  -5   92.39    3.30
   4  -2  -5   88.69    2.80
  -4  -2   5   89.79    3.20
   4   2  -5   91.69    3.10
  -4   2   5   94.99    3.30
   3  -2  -5  353.66    5.80
   3  -2  -5  335.47    6.80
  -3  -2   5  344.97    6.70
   3  -2  -5  342.67    6.40
  -3   2   5  331.77    6.70
  -2  -2   5  198.48    4.50
   2  -2  -5  197.58    4.60
   2  -2  -5  199.68    4.40
   2  -2  -5  193.88    4.00
   2  -2  -5  193.88    3.60
   2   2  -5  201.78    4.60
  -2   2   5  201.78    4.40
   1  -2  -5  152.38    3.70
   1  -2  -5  151.78    3.30
   1  -2  -5  151.18    3.60
   1  -2  -5  151.18    3.80
  -1  -2   5  148.79    3.70
  -1   2   5  160.08    3.50
   1   2  -5  153.18    3.80
   0  -2  -5  266.47    5.40
   0  -2  -5  274.67    5.40
   0  -2   5  270.67    5.30
   0  -2  -5  270.97    5.20
   0   2  -5  274.77    5.60
   0   2   5  285.27    4.90
  -1  -2  -5   43.40    2.00
   1  -2   5   42.70    1.80
  -1  -2  -5   38.70    1.70
  -1  -2  -5   40.80    1.90
  -1   2  -5   40.90    2.10
  -1   2  -5   40.90    1.90
   1   2   5   43.60    1.30
  -2  -2  -5   24.30    1.70
  -2  -2  -5   25.30    1.80
  -2  -2  -5   21.50    1.30
   2  -2   5   21.70    1.50
  -2   2  -5   24.60    1.70
  -2   2  -5   21.20    1.50
  -3  -2  -5    0.70    0.90
  -3  -2  -5   -0.70    0.60
  -3  -2  -5    0.90    0.70
  -3   2  -5   -0.20    0.80
  -3   2  -5   -0.40    0.50
  -4  -2  -5   14.40    1.70
  -4  -2  -5   18.10    1.80
  -4   2  -5   14.90    1.60
  -4   2  -5   16.70    1.30
  -5  -2  -5   36.60    2.50
  -5  -2  -5   43.40    2.50
  -5   2  -5   38.40    1.90
  -5   2  -5   41.00    2.50
  -6  -2  -5   79.09    3.70
  -6  -2  -5   83.19    3.50
  -6   2  -5   88.99    3.70
  -7  -2  -5   47.80    3.00
  -7  -2  -5   53.79    2.90
  -7   2  -5   50.19    3.00
  -8  -2  -5   30.00    2.40
  -8  -2  -5   27.20    2.80
  -8   2  -5   28.90    2.80
  -9  -3   5   50.29    3.20
  -9   3   5   51.19    3.50
  -9   3   5   54.99    5.70
   8  -3  -5   -0.30    0.70
  -8  -3   5    1.20    0.90
  -8   3   5   -0.40    0.90
  -8   3   5   -0.20    2.10
  -7  -3   5   38.10    2.50
   7  -3  -5   39.20    2.20
  -7   3   5   35.00    2.60
   7   3  -5   36.50    2.10
   6  -3  -5   38.80    2.20
  -6  -3   5   35.70    2.30
   6   3  -5   32.80    2.00
  -6   3   5   37.10    2.50
  -5  -3   5  128.89    4.10
   5  -3  -5  129.39    3.70
   5   3  -5  124.89    3.80
   4  -3  -5 1597.94   23.40
  -4  -3   5 1599.34   23.80
   4   3  -5 1614.24   23.40
   3  -3  -5  458.55    8.40
   3  -3  -5  466.35    7.50
  -3  -3   5  447.06    8.60
   3   3  -5  462.75    8.50
   2  -3  -5  452.35    8.20
   2  -3  -5  445.96    6.90
  -2  -3   5  458.65    8.40
   2  -3  -5  451.05    7.60
   2   3  -5  458.05    8.30
   1  -3  -5   21.50    1.40
  -1  -3   5   18.60    1.60
   1  -3  -5   16.00    1.40
   1  -3  -5   20.40    1.20
   1   3  -5   19.30    1.70
   0  -3  -5    4.40    0.90
   0  -3  -5    1.30    0.70
   0  -3  -5    3.20    0.80
   0  -3   5    2.10    0.90
   0   3  -5    2.70    0.90
   1  -3   5    5.30    1.10
  -1  -3  -5    4.80    0.90
  -1  -3  -5    4.40    1.00
  -1   3  -5    4.60    0.90
  -2  -3  -5  204.28    5.00
   2  -3   5  218.48    5.00
  -2  -3  -5  215.48    5.20
  -2   3  -5  211.38    5.00
  -3  -3  -5  131.99    4.10
  -3  -3  -5  140.49    4.20
  -3   3  -5  140.89    3.90
  -3   3  -5  141.69    4.20
  -4  -3  -5  374.56    8.00
  -4  -3  -5  377.26    8.00
  -4   3  -5  381.06    7.40
  -4   3  -5  367.66    7.80
  -5  -3  -5   10.30    1.50
  -5  -3  -5   13.30    1.80
  -5   3  -5   15.20    1.80
  -5   3  -5   11.80    1.40
  -6  -3  -5   61.69    3.10
  -6  -3  -5   62.89    3.30
  -6   3  -5   69.49    3.30
  -7  -3  -5   20.80    2.30
  -7  -3  -5   20.00    2.30
  -7   3  -5   19.20    2.20
   8  -4  -5   31.40    2.30
  -8  -4   5   33.80    2.90
  -8   4   5   28.10    2.90
  -8   4   5   29.80    4.40
   7  -4  -5   91.19    3.60
  -7  -4   5   89.69    3.90
  -7   4   5   93.09    5.40
  -6  -4   5   -0.10    0.80
   6  -4  -5    0.00    0.70
   6   4  -5    1.10    0.80
  -5  -4   5  797.32   14.10
   5  -4  -5  828.62   13.80
   5   4  -5  799.92   13.30
   4  -4  -5   46.10    2.30
  -4  -4   5   48.00    2.60
   4   4  -5   42.30    2.30
   3  -4  -5  191.88    4.00
   3  -4  -5  181.38    4.80
  -3  -4   5  187.28    5.00
   3   4  -5  187.58    4.80
   2  -4  -5   88.99    3.20
  -2  -4   5   90.29    3.30
   2  -4  -5   89.09    2.70
   2   4  -5   88.99    3.10
   1  -4  -5   80.19    2.40
  -1  -4   5   83.09    3.20
   1  -4  -5   82.99    2.80
   1  -4  -5   82.09    3.10
   1   4  -5   81.39    3.00
   0  -4   5  186.28    4.90
   0  -4  -5  180.88    4.20
   0  -4  -5  185.88    4.60
   0  -4  -5  174.08    4.70
   0   4  -5  180.28    4.70
  -1  -4  -5   55.09    2.40
  -1  -4  -5   67.29    2.70
   1  -4   5   61.69    2.80
  -1   4  -5   56.69    2.50
  -2  -4  -5   53.29    2.60
  -2  -4  -5   52.69    2.50
  -2   4  -5   49.99    2.40
  -3  -4  -5    7.60    1.40
  -3  -4  -5    6.30    1.30
  -3   4  -5    7.20    1.20
  -4  -4  -5    2.10    1.00
  -4  -4  -5    2.90    1.20
  -4   4  -5    3.80    1.00
  -5  -4  -5   34.10    2.90
  -5  -4  -5   36.50    2.50
  -5   4  -5   31.80    2.10
  -6  -4  -5   56.49    3.40
  -6  -4  -5   51.89    3.00
  -6   4  -5   54.19    2.70
  -7  -4  -5   34.80    2.70
  -7  -4  -5   38.40    3.40
  -7   4  -5   32.80    2.60
   7  -5  -5  108.79    4.20
  -7  -5   5   99.29    4.30
  -7   5   5  103.69    6.40
  -6  -5   5   13.30    1.90
   6  -5  -5   19.90    2.10
  -6   5   5   17.90    3.10
   6   5  -5   13.70    1.60
  -5  -5   5    0.60    0.90
   5  -5  -5    2.20    1.00
  -5   5   5   -0.50    1.60
   5   5  -5    3.10    1.00
   4  -5  -5  435.96    9.00
  -4  -5   5  445.06    9.50
   4   5  -5  433.26    8.60
   3  -5  -5   53.79    2.70
  -3  -5   5   49.80    2.80
   3   5  -5   53.39    2.60
   2  -5  -5  201.28    5.50
  -2  -5   5  211.78    5.80
   2  -5  -5  215.68    4.90
   2   5  -5  219.88    5.50
  -1  -5   5  118.39    4.20
   1  -5  -5  115.69    3.90
   1  -5  -5  123.29    3.70
   1   5  -5  127.19    4.00
   0  -5  -5  198.98    4.60
   0  -5  -5  205.18    5.40
   0  -5   5  200.58    5.60
   0  -5  -5  205.48    5.20
   0   5  -5  208.18    5.40
   1  -5   5  178.58    5.30
  -1  -5  -5  176.28    4.60
  -1  -5  -5  176.98    4.90
  -1   5  -5  168.78    4.90
  -2  -5  -5  280.47    6.40
  -2  -5  -5  290.27    6.80
  -2   5  -5  280.77    6.60
  -3  -5  -5   45.90    2.70
  -3  -5  -5   42.50    2.60
  -3   5  -5   43.10    2.60
  -4  -5  -5   75.49    3.50
  -4  -5  -5   69.99    3.40
  -4   5  -5   75.19    3.30
  -5  -5  -5   26.70    2.60
  -5  -5  -5   30.30    2.80
  -5   5  -5   28.00    2.40
  -6  -5  -5    8.80    1.80
  -6  -5  -5    6.10    1.70
  -6   5  -5    7.10    1.50
  -6  -6   5   66.49    3.70
   6  -6  -5   65.19    3.40
  -6   6   5   55.79    5.20
   5  -6  -5  838.22   15.10
  -5  -6   5  830.22   15.60
  -5   6   5  839.32   17.10
   5   6  -5  827.32   14.30
   4  -6  -5   42.50    2.70
  -4  -6   5   40.50    2.90
   4   6  -5   40.60    2.50
  -3  -6   5   25.50    2.50
   3  -6  -5   28.40    2.20
   3   6  -5   33.20    2.30
  -2  -6   5    3.90    1.40
   2  -6  -5    2.40    0.90
   2  -6  -5    4.00    1.20
   2   6  -5    1.60    1.00
   1  -6  -5    0.40    0.70
  -1  -6   5   -0.90    1.10
   1  -6  -5   -0.50    0.70
   1   6  -5   -0.60    0.70
   0  -6  -5   74.79    2.90
   0  -6   5   79.19    3.80
   0  -6  -5   73.09    3.30
   0  -6  -5   79.89    3.20
   0   6  -5   66.79    3.20
  -1  -6  -5  129.59    4.00
  -1  -6  -5  120.89    4.20
  -1  -6  -5  123.59    4.40
  -1   6  -5  126.39    4.40
  -2  -6  -5  188.18    5.20
  -2  -6  -5  190.58    5.60
  -2   6  -5  184.28    5.50
  -3  -6  -5   92.59    3.90
  -3  -6  -5   84.79    3.70
  -3   6  -5   83.19    3.70
  -4  -6  -5    1.80    1.20
  -4  -6  -5    0.60    0.90
  -4   6  -5    2.50    1.20
  -5  -6  -5    3.70    1.40
  -5  -6  -5    4.20    1.30
  -5   6  -5    5.60    1.50
  -5  -7   5    8.70    1.90
   5  -7  -5    7.10    1.50
   5   7  -5    6.30    1.40
  -4  -7   5  360.76    9.20
   4  -7  -5  338.97    8.50
   4   7  -5  347.67    8.00
  -3  -7   5   55.39    3.60
   3  -7  -5   56.99    3.20
   3   7  -5   53.09    3.00
   2  -7  -5  125.79    4.10
   2  -7  -5  132.79    4.80
  -2  -7   5  132.09    5.40
   2   7  -5  134.89    4.60
  -1  -7   5   65.39    3.90
   1  -7  -5   69.39    3.20
   1  -7  -5   61.29    3.30
   1   7  -5   62.79    3.30
   0  -7   5   74.09    4.10
   0  -7  -5   70.59    3.30
   0  -7  -5   74.09    3.50
   0   7  -5   75.09    3.60
  -1  -7  -5   65.59    3.00
  -1  -7  -5   65.99    3.40
  -1  -7  -5   70.59    3.40
  -1   7  -5   63.39    3.40
  -2  -7  -5  157.18    5.30
  -2  -7  -5  158.88    4.90
  -2   7  -5  148.09    5.20
  -3  -7  -5   25.60    2.50
  -3  -7  -5   27.00    2.70
  -3   7  -5   24.60    2.60
  -2  -8   5   50.49    3.90
   2  -8  -5   49.80    3.20
   2   8  -5   49.00    3.20
   1  -8  -5   56.79    3.10
  -1  -8   5   51.89    3.90
   1  -8  -5   59.79    3.50
   1   8  -5   51.29    3.30
   0  -8  -5   71.09    3.70
   0  -8  -5   75.69    3.60
   0   8  -5   73.09    3.90
  -1  -8  -5   29.70    3.00
  -1   8  -5   25.90    2.80
  -9   0   6  107.99    4.60
   8   0  -6    1.20    1.10
  -8   0   6    1.70    1.00
   7   0  -6    1.00    1.00
  -7   0   6    0.40    0.80
   6   0  -6  188.98    5.10
  -6   0   6  190.28    5.30
   5   0  -6    8.20    1.40
  -5   0   6    8.70    1.30
   4   0  -6    3.00    0.60
   4   0  -6    2.00    1.00
  -4   0   6    3.70    0.90
   3   0  -6   -0.20    0.60
  -3   0   6   -0.10    0.60
  -2   0   6   20.00    1.40
   2   0  -6   22.10    1.70
   1   0  -6  240.98    5.10
   1   0  -6  232.38    5.20
  -1   0   6  231.28    4.60
   1   0  -6  231.98    4.90
   0   0  -6   58.59    2.30
   0   0  -6   56.69    2.40
   0   0  -6   55.29    2.30
   0   0   6   60.29    1.90
  -1   0  -6  295.27    5.90
   1   0   6  294.07    4.90
  -1   0  -6  301.47    6.30
  -1   0  -6  297.47    6.20
  -2   0  -6  174.48    4.10
  -2   0  -6  180.68    4.70
  -2   0  -6  175.58    4.70
  -3   0  -6    2.30    0.90
  -3   0  -6    0.60    0.50
  -3   0  -6    1.10    0.80
  -4   0  -6    4.50    1.30
  -4   0  -6    3.30    0.90
  -5   0  -6   12.10    1.70
  -5   0  -6    8.90    1.50
  -6   0  -6   56.49    2.90
  -6   0  -6   55.29    3.20
  -7   0  -6   18.30    2.20
  -7   0  -6   21.70    2.30
  -9  -1   6   17.90    2.40
  -9   1   6   16.20    2.30
  -8  -1   6    1.20    0.90
   8   1  -6    0.40    1.00
  -8   1   6    0.10    0.80
   7  -1  -6  195.28    5.50
  -7  -1   6  188.38    5.60
   7   1  -6  194.58    5.30
  -7   1   6  200.88    5.80
  -6  -1   6  148.69    4.70
   6  -1  -6  150.48    4.60
  -6   1   6  158.58    4.80
   6   1  -6  160.08    4.60
  -5  -1   6  504.95    9.70
   5  -1  -6  520.15    8.50
   5  -1  -6  507.85    9.60
   5   1  -6  500.65    9.50
  -5   1   6  510.85    9.80
   4  -1  -6   36.40    1.70
   4  -1  -6   35.60    2.20
  -4  -1   6   36.30    2.10
   4   1  -6   37.00    2.20
  -4   1   6   38.20    2.10
   3  -1  -6   17.30    1.20
   3  -1  -6   19.90    1.30
   3  -1  -6   12.90    1.40
  -3  -1   6   19.10    1.70
   3   1  -6   11.20    1.30
  -3   1   6   19.40    1.70
   2  -1  -6  231.98    5.40
  -2  -1   6  250.97    5.20
   2  -1  -6  247.98    5.10
  -2   1   6  247.98    5.10
   2   1  -6  247.78    5.50
   1  -1  -6  298.17    6.00
   1  -1  -6  294.47    5.60
  -1  -1   6  310.07    5.80
   1  -1  -6  293.07    6.10
  -1   1   6  303.47    5.50
   1   1  -6  300.87    6.20
   0  -1  -6  367.66    6.80
   0  -1  -6  366.26    7.10
   0  -1   6  361.06    6.30
   0  -1  -6  361.06    6.80
   0   1  -6  375.26    7.20
   0   1   6  361.86    6.00
   0   1  -6  349.37    6.90
   0   1  -6  363.66    7.00
  -1  -1  -6 1942.21   27.40
  -1  -1  -6 1997.70   27.90
  -1  -1  -6 2012.40   28.20
   1  -1   6 1981.00   26.70
  -1   1  -6 1924.61   28.10
  -1   1  -6 1941.81   28.00
  -1   1  -6 1950.70   27.70
  -2  -1  -6   49.40    2.30
  -2  -1  -6   48.30    1.90
  -2  -1  -6   46.90    2.40
  -2   1  -6   47.60    2.10
  -2   1  -6   46.40    2.30
  -2   1  -6   45.00    2.40
  -3  -1  -6  375.66    7.90
  -3  -1  -6  382.56    7.90
  -3  -1  -6  380.96    6.70
  -3   1  -6  385.06    8.00
  -3   1  -6  388.06    7.10
  -3   1  -6  385.96    7.90
  -4  -1  -6   54.39    2.90
  -4  -1  -6   55.29    2.70
  -4   1  -6   55.69    2.20
  -4   1  -6   56.99    2.90
  -4   1  -6   54.89    2.70
  -5  -1  -6  120.19    4.20
  -5  -1  -6  120.99    4.30
  -5   1  -6  116.89    4.40
  -5   1  -6  125.09    4.20
  -6  -1  -6  126.19    4.70
  -6  -1  -6  123.69    4.50
  -6   1  -6  133.99    4.80
  -6   1  -6  126.59    4.40
  -7  -1  -6   50.49    3.30
  -7  -1  -6   50.29    3.00
  -7   1  -6   50.79    2.90
  -7   1  -6   48.30    3.20
  -9  -2   6    7.80    1.70
  -9   2   6    6.80    3.00
  -9   2   6    4.40    1.40
  -8  -2   6   41.10    2.80
  -8   2   6   38.90    2.90
   8   2  -6   42.60    2.60
  -7  -2   6    0.50    0.80
  -7   2   6   -0.10    0.80
   7   2  -6    1.30    0.90
   6  -2  -6   40.50    2.00
  -6  -2   6   37.20    2.40
   6   2  -6   40.70    2.30
   5  -2  -6  211.28    5.50
  -5  -2   6  208.38    5.50
   5  -2  -6  218.38    4.90
   5   2  -6  224.28    5.50
  -5   2   6  217.78    5.70
   4  -2  -6   83.99    3.30
   4  -2  -6   82.79    2.80
  -4  -2   6   88.19    3.20
   4   2  -6   86.79    3.20
  -4   2   6   84.59    3.20
   3  -2  -6    4.40    1.10
   3  -2  -6    7.80    1.10
  -3  -2   6    5.80    1.10
   3  -2  -6    7.00    0.90
   3   2  -6    6.70    1.20
  -3   2   6    6.90    1.10
  -2  -2   6    9.50    1.20
   2  -2  -6   10.40    1.10
   2  -2  -6    9.30    1.10
   2  -2  -6    9.20    1.30
   2  -2  -6    9.60    0.90
   2   2  -6   10.00    1.30
  -2   2   6   11.90    1.30
  -1  -2   6    1.90    0.80
   1  -2  -6    1.50    0.70
   1  -2  -6    1.80    0.90
   1  -2  -6    2.60    0.70
   1   2  -6    3.00    0.90
  -1   2   6    2.70    0.70
   0  -2   6   66.99    2.40
   0  -2  -6   68.09    2.60
   0  -2  -6   67.49    2.40
   0  -2  -6   66.29    2.50
   0   2  -6   68.09    2.70
   0   2   6   69.79    2.10
  -1  -2  -6  105.89    3.40
  -1  -2  -6  105.19    3.30
   1  -2   6  103.59    3.00
  -1  -2  -6  107.89    3.10
  -1   2  -6  109.29    3.50
  -1   2  -6  104.19    3.30
   2  -2   6  276.47    5.40
  -2  -2  -6  261.77    6.00
  -2  -2  -6  279.27    6.30
  -2  -2  -6  273.97    5.30
  -2   2  -6  271.77    6.20
  -2   2  -6  274.47    5.80
  -3  -2  -6   72.89    3.10
  -3  -2  -6   73.79    3.10
  -3   2  -6   82.09    3.30
  -3   2  -6   75.89    2.70
  -4  -2  -6   79.79    3.40
  -4  -2  -6   83.19    3.40
  -4   2  -6   75.19    2.70
  -4   2  -6   81.69    3.40
  -5  -2  -6    6.30    1.30
  -5  -2  -6    7.20    1.50
  -5   2  -6    9.60    1.60
  -6  -2  -6   54.59    3.00
  -6  -2  -6   52.89    3.10
  -6   2  -6   56.49    3.20
  -7  -2  -6   -0.20    1.20
  -7  -2  -6    0.60    0.80
  -7   2  -6    1.30    1.20
  -8  -3   6   25.10    2.70
  -8   3   6   19.40    2.40
   7  -3  -6   22.80    2.00
  -7  -3   6   16.90    2.00
   7   3  -6   21.20    2.00
  -7   3   6   16.60    2.20
  -6  -3   6   18.80    2.10
   6  -3  -6   22.50    1.70
  -6   3   6   16.90    2.10
   6   3  -6   16.70    1.80
   5  -3  -6  376.96    7.50
  -5  -3   6  362.26    8.00
   5   3  -6  372.26    7.70
  -5   3   6  354.36    8.00
   4  -3  -6  132.59    3.90
  -4  -3   6  136.59    4.20
  -4   3   6  131.29    4.20
   4   3  -6  132.89    4.00
  -3  -3   6  284.97    6.40
   3  -3  -6  282.17    5.40
   3  -3  -6  286.47    6.20
   3   3  -6  283.57    6.30
   2  -3  -6  638.94   11.20
  -2  -3   6  627.74   11.00
   2  -3  -6  645.94   10.40
   2  -3  -6  628.54   11.00
   2   3  -6  647.84   11.20
   1  -3  -6  393.16    7.40
   1  -3  -6  393.76    6.90
  -1  -3   6  408.46    7.80
   1  -3  -6  397.76    7.70
   1  -3  -6  393.26    7.80
   1   3  -6  389.56    7.80
   0  -3  -6  158.38    3.90
   0  -3  -6  160.38    4.20
   0  -3  -6  163.78    4.30
   0  -3   6  157.88    4.20
   0   3  -6  151.58    4.30
  -1  -3  -6  757.42   12.90
  -1  -3  -6  771.82   12.50
   1  -3   6  782.82   12.60
  -1  -3  -6  774.52   12.30
  -1   3  -6  769.22   12.80
  -2  -3  -6   27.10    2.00
  -2  -3  -6   30.40    2.00
   2  -3   6   26.60    2.00
  -2   3  -6   27.00    1.90
  -3  -3  -6  159.48    4.70
  -3  -3  -6  152.08    4.60
  -3   3  -6  154.58    4.30
  -3   3  -6  149.29    4.60
  -4  -3  -6   55.79    2.80
  -4  -3  -6   54.59    3.00
  -4   3  -6   51.19    2.50
  -4   3  -6   53.49    2.90
  -5  -3  -6  272.27    7.10
  -5  -3  -6  276.97    7.20
  -5   3  -6  274.27    6.20
  -5   3  -6  278.17    7.10
  -6  -3  -6  306.37    8.00
  -6  -3  -6  303.77    7.80
  -6   3  -6  313.47    7.80
  -7  -3  -6  120.19    5.00
  -7   3  -6  116.69    4.80
  -8  -4   6   27.20    2.80
   8  -4  -6   25.70    2.40
  -8   4   6   23.70    3.90
  -8   4   6   25.00    2.70
   7  -4  -6    0.50    0.80
  -7  -4   6    0.90    1.00
   7   4  -6    1.70    0.90
  -7   4   6   -0.10    0.80
  -6  -4   6   45.00    2.90
   6  -4  -6   49.99    2.60
   6   4  -6   49.40    2.60
  -5  -4   6  141.79    4.70
   5  -4  -6  143.59    4.40
   5   4  -6  140.89    4.40
  -4  -4   6   57.99    3.00
   4  -4  -6   52.99    2.60
   4   4  -6   53.39    2.70
   3  -4  -6    1.60    1.00
  -3  -4   6    1.50    0.90
   3  -4  -6    2.50    0.90
   3   4  -6    3.10    1.00
   2  -4  -6    1.40    0.80
   2  -4  -6    3.60    0.80
  -2  -4   6    0.60    0.90
   2   4  -6    2.50    0.90
  -1  -4   6   -0.20    0.80
   1  -4  -6   -0.30    0.50
   1  -4  -6    0.10    0.60
   1  -4  -6   -0.40    0.60
   1   4  -6    0.00    0.80
   0  -4   6   37.70    2.30
   0  -4  -6   38.20    2.10
   0  -4  -6   35.60    1.90
   0   4  -6   35.30    2.20
   1  -4   6  104.69    3.80
  -1  -4  -6   97.29    3.50
  -1  -4  -6   96.29    3.20
  -1   4  -6  102.19    3.60
  -2  -4  -6  205.98    5.30
  -2  -4  -6  208.08    5.60
  -2   4  -6  211.38    5.50
  -3  -4  -6   45.10    2.60
  -3  -4  -6   41.20    2.50
  -3   4  -6   40.20    2.40
  -4  -4  -6   46.60    2.80
  -4  -4  -6   44.80    2.80
  -4   4  -6   44.30    2.50
  -5  -4  -6    4.00    1.30
  -5  -4  -6    4.30    1.40
  -5   4  -6    1.80    0.90
  -6  -4  -6   30.40    3.00
  -6  -4  -6   40.10    2.90
   7  -5  -6  142.49    4.90
  -7  -5   6  136.99    5.20
  -7   5   6  140.49    7.10
  -6  -5   6  118.69    4.70
   6  -5  -6  118.99    4.40
   6   5  -6  121.39    4.20
  -6   5   6  123.39    6.00
  -5  -5   6  328.17    8.20
   5  -5  -6  333.87    7.80
   5   5  -6  335.37    7.50
   4  -5  -6   16.20    1.80
  -4  -5   6   19.60    2.20
   4   5  -6   15.50    1.80
   3  -5  -6    9.60    1.40
  -3  -5   6   11.20    1.80
   3   5  -6   11.00    1.60
   2  -5  -6   94.29    3.70
   2  -5  -6   87.79    3.10
  -2  -5   6   87.79    3.70
   2   5  -6   95.69    3.70
  -1  -5   6  135.59    4.60
   1  -5  -6  138.89    4.10
   1  -5  -6  139.19    4.50
   1   5  -6  141.39    4.50
   0  -5   6  200.08    5.70
   0  -5  -6  192.88    5.20
   0  -5  -6  187.98    5.40
   0  -5  -6  184.48    4.60
   0   5  -6  199.48    5.50
  -1  -5  -6 1053.49   17.20
  -1  -5  -6 1035.80   16.40
   1  -5   6 1014.90   17.30
  -1   5  -6 1051.49   17.30
  -2  -5  -6   29.00    2.10
  -2  -5  -6   26.50    2.10
  -2   5  -6   28.00    2.50
  -3  -5  -6  251.07    6.80
  -3  -5  -6  250.87    6.50
  -3   5  -6  254.07    6.60
  -4  -5  -6   34.30    2.70
  -4  -5  -6   28.90    2.40
  -4   5  -6   34.90    2.50
  -5  -5  -6   79.59    4.00
  -5  -5  -6   91.69    4.30
  -5   5  -6   89.19    3.80
   6  -6  -6   96.59    4.10
  -6  -6   6   89.49    4.40
   6   6  -6   89.49    3.80
  -6   6   6   86.39    6.00
  -5  -6   6    8.70    1.90
   5  -6  -6   13.00    1.90
   5   6  -6    8.60    1.50
   4  -6  -6    1.80    1.00
  -4  -6   6    0.90    1.10
   4   6  -6    0.00    0.90
  -3  -6   6    0.30    1.10
   3  -6  -6    0.70    0.90
   3   6  -6    0.90    1.00
  -2  -6   6    6.10    1.60
   2  -6  -6    5.00    1.10
   2  -6  -6    8.40    1.50
   2   6  -6    6.10    1.40
   1  -6  -6   56.29    2.70
  -1  -6   6   58.59    3.50
   1  -6  -6   52.19    3.00
   1   6  -6   56.49    3.10
   0  -6  -6    7.10    1.50
   0  -6  -6    9.60    1.50
   0  -6   6    6.70    1.70
   0   6  -6   11.60    1.80
  -1  -6  -6  136.29    4.30
  -1  -6  -6  136.49    4.60
  -1   6  -6  137.79    4.80
  -2  -6  -6  114.49    4.40
  -2  -6  -6  103.19    4.00
  -2   6  -6  108.69    4.30
  -3  -6  -6    1.80    1.10
  -3  -6  -6   -0.70    0.80
  -3   6  -6   -0.60    0.90
  -4  -6  -6   -0.10    1.00
  -4  -6  -6    2.30    1.30
  -4   6  -6   -0.40    1.00
   4  -7  -6   16.80    2.20
  -4  -7   6   10.80    2.10
   4   7  -6   16.20    2.10
   3  -7  -6   22.50    2.50
  -3  -7   6   17.00    2.50
   3   7  -6   20.90    2.30
  -2  -7   6   80.79    4.20
   2  -7  -6   73.09    3.70
   2   7  -6   78.79    3.80
   1  -7  -6  112.89    4.60
   1  -7  -6  106.59    4.10
  -1  -7   6  102.39    4.90
   1   7  -6  111.39    4.50
   0  -7  -6  125.89    4.90
   0  -7   6  115.79    5.10
   0  -7  -6  121.09    4.50
   0   7  -6  118.59    4.70
  -1  -7  -6  615.44   12.40
  -1   7  -6  626.34   12.70
  -2  -7  -6    8.20    1.60
  -2  -7  -6    7.40    1.60
  -2   7  -6    9.00    1.80
   8   0  -7  124.89    4.70
  -8   0   7  131.89    5.00
   7   0  -7   59.79    3.20
  -7   0   7   58.69    3.20
  -6   0   7  135.09    4.60
   6   0  -7  134.59    4.50
   5   0  -7   27.10    2.30
  -5   0   7   28.10    2.10
  -4   0   7   15.50    1.70
   4   0  -7   14.00    1.70
   3   0  -7   63.09    2.80
  -3   0   7   58.59    2.50
  -2   0   7    7.00    1.10
   2   0  -7    4.60    1.10
  -1   0   7  128.89    3.30
   1   0  -7  120.29    3.70
   1   0  -7  125.59    3.70
   1   0  -7  125.89    3.50
   0   0  -7  327.07    6.80
   0   0  -7  337.07    6.90
   0   0  -7  348.17    7.10
   0   0   7  333.37    5.90
  -1   0  -7  446.56    8.30
  -1   0  -7  441.66    8.80
  -1   0  -7  457.55    8.70
  -2   0  -7   10.00    1.40
  -2   0  -7    8.90    1.40
  -2   0  -7    9.60    1.20
  -3   0  -7   80.39    3.30
  -3   0  -7   80.29    2.70
  -3   0  -7   73.59    3.30
  -4   0  -7   29.60    2.60
  -4   0  -7   28.70    2.20
  -5   0  -7   31.70    2.40
  -5   0  -7   35.00    2.60
  -6   0  -7   39.00    3.00
  -6   0  -7   41.00    2.70
  -8  -1   7   73.99    3.70
  -8   1   7   71.49    3.80
   8   1  -7   72.49    3.50
  -7  -1   7   57.19    3.10
   7  -1  -7   62.29    3.40
  -7   1   7   55.89    3.20
   7   1  -7   62.89    3.10
   6  -1  -7   38.80    2.70
  -6  -1   7   44.10    2.60
  -6   1   7   37.90    2.50
   6   1  -7   44.50    2.70
  -5  -1   7   68.99    3.00
   5  -1  -7   71.69    3.30
   5   1  -7   67.59    3.10
  -5   1   7   67.19    3.10
   4  -1  -7   83.99    3.40
   4  -1  -7   85.79    2.70
  -4  -1   7   85.99    3.30
  -4   1   7   88.19    3.30
   4   1  -7   87.49    3.30
  -3  -1   7   31.60    1.90
   3  -1  -7   32.90    2.20
   3  -1  -7   35.60    1.80
   3   1  -7   30.10    2.00
  -3   1   7   32.50    1.90
   2  -1  -7  209.98    5.30
  -2  -1   7  205.68    4.80
   2  -1  -7  209.68    4.80
   2   1  -7  207.78    5.30
  -2   1   7  209.18    4.70
   1  -1  -7    0.90    0.70
   1  -1  -7    1.10    0.80
  -1  -1   7    0.90    0.70
   1  -1  -7    1.50    0.70
  -1   1   7    1.00    0.60
   1   1  -7    1.80    0.90
   0  -1  -7  319.87    6.60
   0  -1   7  326.97    6.00
   0  -1  -7  329.67    6.90
   0  -1  -7  332.77    6.70
   0   1  -7  319.57    6.70
   0   1   7  318.77    5.70
   0   1  -7  318.47    6.80
  -1  -1  -7   59.39    2.70
  -1  -1  -7   61.39    2.50
  -1  -1  -7   61.79    2.80
  -1   1  -7   58.19    2.70
  -1   1  -7   63.49    2.60
  -1   1  -7   60.99    2.70
  -2  -1  -7  152.28    4.60
  -2  -1  -7  155.78    4.60
  -2  -1  -7  153.58    3.90
  -2   1  -7  150.38    4.10
  -2   1  -7  160.18    4.70
  -2   1  -7  147.39    4.50
  -3  -1  -7  217.28    5.80
  -3  -1  -7  199.38    5.60
  -3   1  -7  214.48    5.00
  -3   1  -7  213.28    5.80
  -3   1  -7  219.78    5.90
  -4  -1  -7   55.39    3.00
  -4  -1  -7   58.59    3.00
  -4   1  -7   50.29    3.00
  -4   1  -7   52.69    2.80
  -5  -1  -7   55.69    3.30
  -5  -1  -7   54.39    3.00
  -5   1  -7   52.99    3.00
  -5   1  -7   59.09    3.30
  -6  -1  -7   10.00    1.80
  -6  -1  -7    8.70    1.90
  -6   1  -7    7.60    1.70
  -6   1  -7   10.60    1.80
  -8  -2   7   12.80    2.00
  -8   2   7   10.70    1.80
   8   2  -7    9.60    1.70
  -7  -2   7    0.40    0.90
  -7   2   7    0.20    0.90
   7   2  -7    0.90    1.00
  -6  -2   7   65.39    3.20
   6   2  -7   65.29    3.10
  -6   2   7   70.79    3.40
   5  -2  -7    0.40    1.00
   5  -2  -7    0.00    0.50
  -5  -2   7    0.00    0.80
   5   2  -7   -0.10    0.80
  -5   2   7    0.40    0.80
  -4  -2   7   50.19    2.60
   4  -2  -7   59.29    2.40
   4  -2  -7   51.09    2.80
  -4   2   7   51.89    2.60
   4   2  -7   56.19    2.80
   3  -2  -7   15.00    1.50
   3  -2  -7   18.10    1.90
   3  -2  -7   14.00    1.30
  -3  -2   7   13.90    1.60
   3   2  -7   13.70    1.60
  -3   2   7   11.50    1.40
  -2  -2   7   20.40    1.60
   2  -2  -7   17.70    1.40
   2  -2  -7   21.60    1.90
   2  -2  -7   20.90    1.30
   2   2  -7   17.40    1.70
  -2   2   7   17.50    1.60
  -1  -2   7   51.79    2.30
   1  -2  -7   53.49    2.20
   1  -2  -7   55.79    2.50
   1  -2  -7   54.89    2.60
   1   2  -7   55.59    2.60
  -1   2   7   56.09    2.10
   0  -2  -7   54.89    2.50
   0  -2  -7   51.89    2.40
   0  -2  -7   50.69    2.30
   0  -2   7   57.19    2.30
   0   2  -7   55.99    2.60
  -1  -2  -7   72.19    2.70
  -1  -2  -7   77.29    3.10
   1  -2   7   76.69    2.60
  -1  -2  -7   71.39    2.90
  -1   2  -7   73.19    2.90
  -2  -2  -7   18.00    1.80
  -2  -2  -7   21.40    2.00
  -2  -2  -7   24.30    1.60
  -2   2  -7   23.60    2.20
  -2   2  -7   24.70    1.80
  -3  -2  -7   67.09    3.10
  -3  -2  -7   66.99    3.20
  -3   2  -7   69.99    2.80
  -3   2  -7   65.69    3.20
  -4  -2  -7  114.39    4.30
  -4  -2  -7  116.59    4.30
  -4   2  -7  113.59    4.30
  -4   2  -7  115.39    3.60
  -5  -2  -7  162.48    5.40
  -5  -2  -7  170.88    5.60
  -5   2  -7  164.88    5.40
  -6  -2  -7  140.69    5.30
  -6  -2  -7  133.19    5.00
  -6   2  -7  136.09    5.10
  -8  -3   7   94.19    4.30
  -8   3   7   87.49    4.40
   8   3  -7   93.09    5.10
  -7  -3   7    8.00    1.50
   7   3  -7    9.00    1.50
  -7   3   7    5.70    1.50
  -6  -3   7    5.80    1.40
   6  -3  -7    5.60    1.10
  -6   3   7    5.20    1.30
   6   3  -7    6.40    1.40
  -5  -3   7    1.30    0.90
   5  -3  -7    1.10    0.80
   5   3  -7    0.00    0.80
  -5   3   7    1.00    0.90
  -4  -3   7   16.60    1.90
   4  -3  -7   15.20    1.60
   4   3  -7   15.30    1.80
  -4   3   7   18.60    2.10
  -3  -3   7   76.49    3.20
   3  -3  -7   76.89    3.00
   3  -3  -7   81.09    3.50
   3  -3  -7   77.19    2.70
  -3   3   7   72.89    3.00
   3   3  -7   79.69    3.30
   2  -3  -7  563.44   10.30
  -2  -3   7  562.44   10.30
   2  -3  -7  564.84    9.80
   2  -3  -7  562.84   10.50
   2   3  -7  546.35   10.50
  -2   3   7  578.14   10.00
   1  -3  -7  146.39    4.10
   1  -3  -7  145.39    3.70
  -1  -3   7  141.59    4.20
   1  -3  -7  142.99    4.30
  -1   3   7  147.19    3.80
   1   3  -7  147.39    4.40
   0  -3  -7  543.45    9.80
   0  -3   7  545.05    9.70
   0  -3  -7  543.85   10.10
   0  -3  -7  528.65    9.50
   0   3  -7  543.65   10.20
   1  -3   7   56.19    2.60
  -1  -3  -7   52.89    2.70
  -1  -3  -7   58.69    2.60
  -1  -3  -7   55.79    2.50
  -1   3  -7   59.59    2.70
  -2  -3  -7   22.60    2.20
  -2  -3  -7   23.70    2.10
  -2   3  -7   18.50    1.90
  -3  -3  -7   26.80    2.20
  -3  -3  -7   21.90    2.10
  -3   3  -7   27.00    2.00
  -4  -3  -7   -0.20    0.80
  -4  -3  -7    2.00    1.10
  -4   3  -7    1.90    1.10
  -4   3  -7    0.10    0.70
  -5  -3  -7   41.00    3.30
  -5  -3  -7   43.40    2.90
  -5   3  -7   30.90    2.80
  -6  -3  -7   38.80    2.90
  -6  -3  -7   40.10    3.00
  -6   3  -7   40.00    3.00
  -7  -4   7    0.20    1.10
   7  -4  -7   -0.10    0.80
  -7   4   7   -0.40    0.90
   7   4  -7    0.40    0.90
   6  -4  -7   53.69    2.80
  -6  -4   7   52.29    3.20
  -6   4   7   49.80    3.20
   6   4  -7   54.59    3.00
  -5  -4   7    0.80    1.00
   5  -4  -7    0.70    0.80
   5   4  -7    1.00    0.90
  -5   4   7   -0.20    0.80
   4  -4  -7   27.10    2.10
  -4  -4   7   29.50    2.40
   4   4  -7   30.10    2.30
  -4   4   7   22.20    2.20
   3  -4  -7    4.50    1.10
  -3  -4   7    5.10    1.30
   3   4  -7    5.00    1.30
   2  -4  -7   20.60    1.60
  -2  -4   7   16.90    2.00
   2  -4  -7   22.20    2.10
   2   4  -7   18.80    1.90
   1  -4  -7   48.20    2.40
  -1  -4   7   46.20    2.60
   1   4  -7   44.30    2.60
   0  -4  -7   62.29    2.60
   0  -4  -7   57.99    2.70
   0  -4   7   57.69    2.90
   0   4  -7   56.49    2.90
  -1  -4  -7   86.79    3.50
   1  -4   7   80.49    3.40
  -1  -4  -7   75.29    3.10
  -1   4  -7   74.49    3.30
  -2  -4  -7   14.30    1.90
  -2  -4  -7   11.50    1.60
  -2   4  -7   13.60    1.70
  -3  -4  -7   56.69    3.00
  -3  -4  -7   53.69    3.00
  -3   4  -7   58.99    2.90
  -4  -4  -7   86.39    3.90
  -4  -4  -7   85.49    3.80
  -4   4  -7   87.69    3.60
  -5  -4  -7  120.29    4.90
  -5  -4  -7  118.79    4.80
  -5   4  -7  114.29    4.10
  -6  -5   7   38.00    3.00
   6  -5  -7   33.30    2.50
   6   5  -7   34.10    2.60
  -6   5   7   31.60    3.10
   5  -5  -7   50.59    2.90
  -5  -5   7   54.09    3.40
   5   5  -7   51.09    3.00
   4  -5  -7   58.49    3.00
  -4  -5   7   57.49    3.40
   4   5  -7   50.09    3.00
  -3  -5   7   21.00    2.40
   3  -5  -7   25.30    2.40
   3   5  -7   17.60    2.00
   2  -5  -7  152.88    4.30
  -2  -5   7  146.49    5.00
   2  -5  -7  149.88    4.90
   2   5  -7  144.49    4.80
   1  -5  -7    1.40    0.90
  -1  -5   7    1.20    1.10
   1  -5  -7    0.70    0.70
   1   5  -7   -0.70    0.80
   0  -5  -7  175.28    5.10
   0  -5   7  179.78    5.60
   0   5  -7  176.38    5.30
  -1  -5  -7   43.50    2.60
  -1  -5  -7   36.90    2.30
   1  -5   7   36.50    2.80
  -1   5  -7   40.20    2.70
  -2  -5  -7   95.89    3.70
  -2  -5  -7   88.49    3.90
  -2   5  -7   90.59    3.80
  -3  -5  -7  152.08    5.30
  -3  -5  -7  138.89    4.90
  -3   5  -7  144.19    4.90
  -4  -5  -7   47.60    3.20
  -4  -5  -7   47.00    3.10
  -4   5  -7   44.70    2.90
  -5  -6   7    6.60    1.90
   5  -6  -7    7.20    1.60
   5   6  -7    6.30    1.50
  -4  -6   7    3.30    1.40
   4  -6  -7    3.30    1.20
   4   6  -7    3.10    1.20
  -3  -6   7   25.40    2.80
   3  -6  -7   26.20    2.50
   3   6  -7   25.90    2.50
   2  -6  -7   -0.80    0.70
  -2  -6   7   -0.20    1.10
   2   6  -7    0.50    1.00
   1  -6  -7   51.09    2.80
  -1  -6   7   49.50    3.30
   1  -6  -7   46.60    3.00
   1   6  -7   50.39    3.00
   0  -6   7  155.08    5.60
   0  -6  -7  156.78    5.10
   0   6  -7  162.88    5.40
  -1  -6  -7  180.48    5.70
  -1   6  -7  187.18    5.90
  -2  -6  -7    0.30    1.00
  -2  -6  -7    2.10    1.10
  -2   6  -7   -0.60    0.90
  -3  -6  -7   42.00    3.00
  -3  -6  -7   32.60    2.90
  -3   6  -7   34.00    3.00
  -2  -7   7  129.09    5.60
   2  -7  -7  121.39    4.90
   2   7  -7  130.19    5.00
   1  -7  -7    5.10    1.40
   1  -7  -7    4.70    1.30
  -1  -7   7    6.00    2.00
   1   7  -7    6.20    1.60
   0   7  -7  122.09    4.90
  -8   0   8   46.60    3.20
   8   0  -8   51.99    3.40
   7   0  -8  118.89    4.60
  -7   0   8  114.79    4.50
  -6   0   8  263.57    6.90
   6   0  -8  270.97    7.00
  -5   0   8  125.09    4.30
   5   0  -8  130.29    4.60
   4   0  -8   67.29    3.20
  -4   0   8   67.69    3.00
  -3   0   8    9.60    1.30
   3   0  -8    8.10    1.40
  -2   0   8   84.39    2.90
   2   0  -8   81.39    3.30
  -1   0   8   20.60    1.50
   1   0  -8   20.90    2.00
   1   0  -8   19.50    1.90
   0   0  -8   46.80    2.40
   0   0  -8   42.80    2.40
   0   0  -8   47.30    2.60
  -1   0  -8  241.08    5.70
  -1   0  -8  237.48    6.10
  -1   0  -8  238.78    6.00
  -2   0  -8  305.67    7.40
  -2   0  -8  313.07    7.40
  -2   0  -8  310.77    6.60
  -3   0  -8  343.27    8.00
  -3   0  -8  338.67    8.10
  -4   0  -8  307.57    7.90
  -4   0  -8  322.27    8.00
  -5   0  -8   29.50    2.90
  -5   0  -8   28.60    2.90
  -8  -1   8  125.29    5.00
  -8   1   8  121.49    5.10
   8   1  -8  129.49    4.90
  -7  -1   8   17.40    2.20
   7  -1  -8   21.80    2.50
  -7   1   8   19.50    2.30
   7   1  -8   15.80    2.00
  -6  -1   8    2.70    1.10
   6  -1  -8    2.10    1.30
  -6   1   8    3.30    1.10
   6   1  -8    3.80    1.30
  -5  -1   8    9.40    1.40
   5  -1  -8   12.60    1.80
   5   1  -8   13.50    1.80
  -5   1   8   12.10    1.60
  -4  -1   8   -0.80    0.60
   4  -1  -8    0.80    0.90
  -4   1   8    0.70    0.70
   4   1  -8   -0.10    0.80
   3  -1  -8   38.40    2.40
  -3  -1   8   41.50    2.30
   3   1  -8   36.60    2.40
  -3   1   8   39.60    2.20
  -2  -1   8   27.30    1.90
   2  -1  -8   30.10    2.00
   2  -1  -8   28.50    2.20
   2   1  -8   27.80    2.10
  -2   1   8   29.70    1.80
   1  -1  -8    3.50    0.90
  -1  -1   8    2.80    0.80
   1  -1  -8    1.60    0.80
   1  -1  -8    3.40    1.10
  -1   1   8    3.00    0.80
   1   1  -8    2.10    1.00
   0  -1  -8   12.40    1.50
   0  -1  -8   14.20    1.70
   0  -1  -8   15.60    1.70
   0   1  -8   14.20    1.70
  -1  -1  -8   10.30    1.50
  -1  -1  -8   10.60    1.50
  -1  -1  -8   12.00    1.40
  -1   1  -8   11.30    1.60
  -1   1  -8   10.20    1.50
  -1   1  -8    8.80    1.30
  -2  -1  -8   21.50    1.70
  -2  -1  -8   18.80    2.00
  -2  -1  -8   22.00    2.20
  -2   1  -8   22.50    1.70
  -2   1  -8   20.00    2.10
  -2   1  -8   18.70    2.10
  -3  -1  -8   14.40    1.90
  -3  -1  -8   16.60    1.90
  -3   1  -8   17.20    2.10
  -3   1  -8   16.80    1.60
  -3   1  -8   16.90    2.00
  -4  -1  -8    0.10    0.90
  -4  -1  -8   -0.40    0.90
  -4   1  -8    1.10    1.10
  -4   1  -8    0.70    0.90
  -5  -1  -8    8.80    1.60
  -5  -1  -8    5.10    1.50
  -5   1  -8    8.20    1.80
  -5   1  -8    8.70    1.70
  -7  -2   8   14.70    2.00
  -7   2   8   13.50    2.10
   7   2  -8   16.70    2.10
   6  -2  -8   58.69    3.60
  -6  -2   8   66.89    3.40
   6   2  -8   62.59    3.30
  -6   2   8   63.89    3.30
   5  -2  -8   31.50    2.70
  -5  -2   8   41.30    2.60
  -5   2   8   34.40    2.40
   5   2  -8   36.00    2.60
   4  -2  -8   89.09    3.90
  -4  -2   8   84.89    3.50
   4  -2  -8   90.19    3.20
   4   2  -8   87.79    3.60
  -4   2   8   92.89    3.50
  -3  -2   8  117.79    4.00
   3  -2  -8  118.39    3.60
   3  -2  -8  117.49    4.30
  -3   2   8  118.19    3.80
   3   2  -8  121.19    4.20
   2  -2  -8  358.16    7.80
   2  -2  -8  348.07    7.20
  -2  -2   8  344.27    7.30
  -2   2   8  350.76    7.00
   2   2  -8  357.56    7.90
  -1  -2   8  121.49    3.70
   1  -2  -8  125.39    3.60
   1  -2  -8  120.69    3.90
   1  -2  -8  127.39    4.10
   1   2  -8  119.59    4.10
   0  -2  -8   45.10    2.40
   0  -2   8   47.30    2.30
   0  -2  -8   46.00    2.30
   0  -2  -8   45.90    2.40
   0   2  -8   43.20    2.50
  -1  -2  -8   80.19    3.00
  -1  -2  -8   81.79    3.50
  -1  -2  -8   78.69    3.20
  -1   2  -8   79.79    3.20
  -2  -2  -8   66.89    3.30
  -2  -2  -8   73.89    3.30
  -2   2  -8   74.49    3.10
  -2   2  -8   70.59    3.40
  -3  -2  -8  124.59    4.60
  -3  -2  -8  118.39    4.50
  -3   2  -8  124.49    4.70
  -3   2  -8  124.59    4.00
  -4  -2  -8  217.88    6.50
  -4  -2  -8  224.28    6.60
  -4   2  -8  223.38    6.60
  -5  -2  -8   57.79    3.40
  -5  -2  -8   55.99    3.60
  -5   2  -8   59.49    3.60
  -7  -3   8    1.00    1.10
   7   3  -8    1.00    1.10
  -7   3   8    1.60    1.20
  -6  -3   8    7.90    1.60
   6   3  -8   12.00    1.80
  -6   3   8   12.20    1.80
   5  -3  -8   93.89    3.50
  -5  -3   8   99.19    4.00
  -5   3   8   89.49    3.90
   5   3  -8   97.79    4.00
  -4  -3   8   89.09    3.70
   4  -3  -8   82.29    3.30
  -4   3   8   79.99    3.40
   4   3  -8   78.59    3.50
   3  -3  -8    0.20    1.00
  -3  -3   8    1.50    0.90
   3  -3  -8    0.70    0.70
   3   3  -8    0.60    0.90
  -3   3   8   -0.10    0.60
   2  -3  -8   21.00    2.20
  -2  -3   8   27.30    2.10
   2  -3  -8   24.90    1.80
  -2   3   8   23.30    1.80
   2   3  -8   19.80    2.00
   1  -3  -8   16.90    1.90
  -1  -3   8   15.80    1.70
   1  -3  -8   17.50    1.80
   1   3  -8   13.10    1.80
   0  -3   8   26.70    2.10
   0  -3  -8   29.10    2.10
   0  -3  -8   26.50    1.90
   0  -3  -8   27.30    2.10
   0   3  -8   28.40    2.20
  -1  -3  -8   84.09    3.30
  -1  -3  -8   86.99    3.40
  -1  -3  -8   88.89    3.60
  -1   3  -8   89.19    3.60
  -2  -3  -8   28.90    2.30
  -2  -3  -8   30.50    2.30
  -2   3  -8   30.20    2.20
  -3  -3  -8   -0.20    1.00
  -3  -3  -8   -0.70    0.80
  -3   3  -8    0.80    0.80
  -4  -3  -8   27.10    2.70
  -4  -3  -8   28.60    2.80
  -4   3  -8   28.80    2.10
   6  -4  -8   58.89    3.00
  -6  -4   8   53.79    3.40
  -6   4   8   48.60    3.20
   6   4  -8   65.99    3.50
   5  -4  -8   33.30    2.40
  -5  -4   8   34.20    2.70
  -5   4   8   29.40    2.70
   5   4  -8   26.50    2.50
  -4  -4   8   57.59    3.20
   4  -4  -8   61.69    3.00
  -4   4   8   58.29    3.10
   4   4  -8   62.19    3.30
   3  -4  -8   90.89    3.70
  -3  -4   8   81.39    3.70
   3   4  -8   85.49    3.80
  -3   4   8   81.89    3.40
   2  -4  -8  251.07    5.90
  -2  -4   8  243.08    6.40
  -2   4   8  239.48    6.60
   2   4  -8  244.88    6.50
   1  -4  -8   85.39    3.40
  -1  -4   8   94.09    3.70
   1   4  -8   89.59    3.80
   0  -4   8   38.10    2.60
   0  -4  -8   34.80    2.30
   0   4  -8   39.70    2.60
  -1  -4  -8   77.79    3.30
  -1  -4  -8   72.89    3.40
  -1   4  -8   73.19    3.40
  -2  -4  -8   76.39    3.50
  -2  -4  -8   72.99    3.50
  -2   4  -8   70.69    3.40
  -3  -4  -8  114.49    4.60
  -3  -4  -8  120.39    4.60
  -3   4  -8  118.49    4.40
  -4  -4  -8  199.88    6.30
  -4  -4  -8  188.08    6.30
  -4   4  -8  195.88    5.80
  -5  -5   8    6.90    1.80
   5  -5  -8    5.50    1.40
   5   5  -8    4.70    1.40
  -5   5   8    3.80    1.30
  -4  -5   8    0.50    1.10
   4  -5  -8    1.10    1.00
   4   5  -8    0.70    1.00
  -4   5   8    0.30    0.90
   3  -5  -8   39.40    2.70
  -3  -5   8   37.60    2.90
  -3   5   8   35.30    2.50
   3   5  -8   38.20    2.80
  -2  -5   8   21.60    2.40
   2  -5  -8   23.60    2.40
   2   5  -8   20.10    2.30
   1  -5  -8    3.90    1.10
  -1  -5   8    4.20    1.40
   1   5  -8    3.30    1.30
   0  -5   8   12.20    2.00
   0  -5  -8   16.20    2.00
   0   5  -8   14.70    2.00
  -1  -5  -8    1.70    1.00
  -1   5  -8    2.90    1.20
  -2  -5  -8   10.80    1.80
  -2  -5  -8    7.80    1.60
  -2   5  -8   10.90    1.80
  -3  -5  -8   10.20    1.90
  -3   5  -8   11.10    1.80
  -3  -6   8   11.70    2.20
   3  -6  -8   12.20    1.90
   3   6  -8    9.30    1.80
  -2  -6   8   47.50    3.40
   2  -6  -8   51.69    3.20
   2   6  -8   49.50    3.30
   1  -6  -8   11.30    1.70
  -1  -6   8    7.30    1.80
   1   6  -8   11.50    1.90
   0  -6  -8   25.10    2.50
   0  -6   8   23.70    2.80
   0   6  -8   21.50    2.50
  -7   0   9   82.89    4.10
   7   0  -9   79.89    4.20
   6   0  -9    0.10    1.30
  -6   0   9    0.00    0.90
   5   0  -9    4.50    1.30
  -5   0   9    4.30    1.20
  -4   0   9   35.90    2.30
   4   0  -9   36.60    2.70
  -3   0   9    5.30    1.10
   3   0  -9    2.60    1.10
  -2   0   9   17.00    1.60
   2   0  -9   14.40    1.80
   1   0  -9   30.80    2.30
   0   0  -9    0.00    0.80
   0   0  -9    0.10    0.80
   0   0  -9    0.80    0.90
  -1   0  -9    2.40    1.10
  -1   0  -9    1.90    1.00
  -1   0  -9    2.90    1.00
  -2   0  -9   13.30    1.60
  -2   0  -9   14.40    2.00
  -2   0  -9   12.90    1.90
  -3   0  -9  162.38    5.50
  -3   0  -9  158.68    5.40
  -4   0  -9    1.50    1.30
  -4   0  -9    1.50    1.10
  -7  -1   9   46.50    3.20
   7   1  -9   48.20    3.30
  -7   1   9   41.60    3.00
   6  -1  -9  308.17    8.10
  -6  -1   9  292.57    7.70
   6   1  -9  304.17    7.80
  -6   1   9  286.67    7.60
  -5  -1   9   13.90    1.90
   5  -1  -9   10.60    1.80
  -5   1   9   13.70    1.90
   5   1  -9   12.60    2.00
   4  -1  -9   14.80    1.90
  -4  -1   9   11.60    1.60
  -4   1   9   16.20    1.80
   4   1  -9   15.00    2.00
   3  -1  -9   90.99    3.90
  -3  -1   9   91.99    3.50
   3   1  -9   87.59    3.80
  -3   1   9   93.99    3.40
   2  -1  -9    1.80    0.90
   2  -1  -9    2.10    1.10
  -2  -1   9    1.00    0.80
   2   1  -9    1.80    1.00
   1  -1  -9   30.10    2.00
   1  -1  -9   29.10    2.10
   1  -1  -9   30.10    2.30
   1   1  -9   28.10    2.10
   0  -1  -9   95.29    3.60
   0  -1  -9   82.99    3.60
   0  -1  -9   85.59    3.40
   0   1  -9   92.49    3.70
  -1  -1  -9   56.89    3.00
  -1  -1  -9   65.49    2.90
  -1  -1  -9   58.39    3.00
  -1   1  -9   67.99    3.30
  -1   1  -9   61.49    3.00
  -2  -1  -9   40.50    2.70
  -2  -1  -9   37.10    2.60
  -2   1  -9   35.80    2.60
  -2   1  -9   39.30    2.40
  -2   1  -9   38.30    2.80
  -3  -1  -9   97.59    4.20
  -3  -1  -9   88.79    4.00
  -3   1  -9   92.79    4.20
  -3   1  -9   94.49    4.20
  -4  -1  -9   34.40    2.70
  -4  -1  -9   35.30    3.10
  -4   1  -9   36.10    3.20
  -4   1  -9   33.70    2.70
  -6  -2   9   29.90    2.80
   6  -2  -9   31.00    3.20
   6   2  -9   28.50    2.70
  -6   2   9   25.40    2.50
  -5  -2   9   32.40    2.50
   5  -2  -9   29.20    2.90
   5   2  -9   31.40    2.90
  -5   2   9   30.30    2.40
   4  -2  -9    0.50    1.20
  -4  -2   9    1.20    1.00
  -4   2   9    0.00    0.70
   4   2  -9    0.20    1.00
   3  -2  -9    6.10    1.50
  -3  -2   9    8.20    1.40
   3   2  -9    7.10    1.50
  -3   2   9    4.80    1.10
   2  -2  -9    1.40    0.80
  -2  -2   9    1.60    0.90
   2  -2  -9    1.00    1.00
   2   2  -9    2.10    1.10
   1  -2  -9    8.80    1.40
   1  -2  -9    5.80    1.40
   1   2  -9    7.70    1.40
   0  -2  -9   40.70    2.50
   0  -2  -9   35.70    2.30
   0  -2  -9   40.20    2.50
   0   2  -9   40.90    2.60
  -1  -2  -9    1.40    0.90
  -1  -2  -9    0.10    0.90
  -1  -2  -9    0.40    0.80
  -1   2  -9    0.90    0.80
  -2  -2  -9    1.40    1.00
  -2  -2  -9    0.50    1.00
  -2   2  -9   -0.10    0.70
  -3  -2  -9   46.90    3.00
  -3  -2  -9   45.80    3.10
  -3   2  -9   41.10    2.50
  -3   2  -9   43.60    3.10
  -4  -2  -9   41.60    3.10
  -4  -2  -9   37.00    2.80
  -4   2  -9   43.60    3.20
  -6  -3   9  136.59    5.10
   6   3  -9  140.79    5.20
  -6   3   9  128.89    5.00
  -5  -3   9   11.80    1.90
   5   3  -9   11.20    1.90
  -5   3   9   10.30    1.70
   4  -3  -9   71.29    4.00
  -4  -3   9   74.59    3.60
   4   3  -9   74.09    3.80
  -4   3   9   74.69    3.40
  -3  -3   9  244.88    6.50
   3  -3  -9  254.47    7.00
  -3   3   9  252.57    6.20
   3   3  -9  251.57    6.90
   2  -3  -9   49.70    2.60
   2  -3  -9   50.59    3.10
  -2  -3   9   47.70    2.80
   2   3  -9   53.59    3.10
   1  -3  -9   38.50    2.40
  -1  -3   9   39.70    2.50
   1  -3  -9   41.50    2.80
   1   3  -9   41.70    2.70
   0  -3  -9   27.20    2.50
   0  -3  -9   28.60    2.60
   0  -3  -9   28.30    2.40
   0   3  -9   19.40    2.10
  -1  -3  -9    1.90    1.10
  -1  -3  -9    1.60    1.10
  -1   3  -9    1.70    1.00
  -2  -3  -9    0.00    1.00
  -2  -3  -9    0.20    1.00
  -2   3  -9    0.10    0.90
  -3  -3  -9   43.90    3.10
  -3  -3  -9   38.20    3.00
  -3   3  -9   45.30    2.80
  -5  -4   9   16.40    2.30
   5  -4  -9   19.90    2.20
   5   4  -9   20.90    2.50
  -5   4   9   17.40    2.20
   4  -4  -9    0.60    0.90
  -4  -4   9    0.80    1.10
   4   4  -9    2.10    1.20
  -4   4   9    0.60    0.90
  -3  -4   9    3.10    1.30
   3   4  -9    4.20    1.40
  -2  -4   9    0.30    1.10
   2   4  -9    1.60    1.10
  -1  -4   9    2.00    1.20
   1  -4  -9    3.60    1.10
   1   4  -9    4.10    1.30
   0  -4  -9   21.90    2.30
   0   4  -9   21.50    2.30
  -1  -4  -9   -0.20    0.80
  -1  -4  -9    0.80    1.10
  -1   4  -9    0.30    0.90
  -2  -4  -9   -0.60    0.90
  -2  -4  -9    0.80    1.10
  -2   4  -9    0.40    1.00
  -3  -5   9   50.89    3.40
   3   5  -9   44.90    3.20
  -2  -5   9    0.40    1.20
   2   5  -9    0.90    1.20
   1  -5  -9   11.20    1.70
  -1  -5   9   12.40    2.10
   1   5  -9   11.70    1.90
   0  -5  -9   51.49    3.10
   0   5  -9   56.69    3.50
   5   0 -10    7.10    1.70
  -5   0  10    4.60    1.30
   4   0 -10    8.80    1.80
  -4   0  10   10.70    1.60
  -3   0  10    8.30    1.60
   3   0 -10    4.70    1.50
   2   0 -10   -0.80    1.00
   1   0 -10   50.09    3.00
   0   0 -10   83.29    3.90
   0   0 -10   82.99    3.60
  -1   0 -10    7.90    1.40
  -1   0 -10    8.40    1.70
  -1   0 -10    8.10    1.70
  -2   0 -10    2.70    1.30
  -2   0 -10    6.20    1.50
  -5  -1  10   54.29    3.20
   5  -1 -10   62.09    3.80
   5   1 -10   57.69    3.50
  -5   1  10   63.19    3.30
   4  -1 -10  115.79    4.80
  -4  -1  10  109.19    4.20
  -4   1  10  112.09    4.10
   4   1 -10  121.79    4.90
  -3  -1  10   56.59    3.00
   3  -1 -10   60.09    3.40
   3   1 -10   61.19    3.50
   2  -1 -10   26.80    2.70
   2   1 -10   26.70    2.60
   1  -1 -10  103.69    4.20
   1  -1 -10  102.09    4.10
   1   1 -10  102.99    4.20
   0  -1 -10    7.40    1.50
   0  -1 -10   11.70    1.70
   0  -1 -10   12.70    1.80
   0   1 -10   12.90    1.90
  -1  -1 -10   36.10    2.70
  -1  -1 -10   31.20    2.30
  -1  -1 -10   36.40    2.60
  -1   1 -10   35.30    2.50
  -2  -1 -10   50.59    3.10
  -2  -1 -10   50.99    3.20
  -2   1 -10   46.70    2.80
  -2   1 -10   54.39    3.40
   5  -2 -10    0.80    1.60
  -5  -2  10    2.20    1.20
   5   2 -10    1.60    1.30
  -5   2  10    1.40    1.00
  -4  -2  10    9.50    1.70
   4  -2 -10    8.30    1.90
   4   2 -10    9.90    1.90
  -4   2  10    7.30    1.40
  -3  -2  10   10.80    1.70
   3  -2 -10   10.60    2.00
   3   2 -10   10.80    1.90
   2  -2 -10   10.00    1.60
   2  -2 -10   10.50    1.80
   2   2 -10    9.30    1.70
   1  -2 -10   20.40    2.20
   1  -2 -10   16.40    2.10
   1   2 -10   22.10    2.40
   0  -2 -10   10.80    1.70
   0  -2 -10   10.60    1.70
   0   2 -10   10.30    1.70
  -1  -2 -10    9.00    1.60
  -1  -2 -10   11.70    1.80
  -1   2 -10    9.10    1.70
  -2  -2 -10    1.90    1.30
  -2   2 -10    1.40    1.00
   4  -3 -10   67.19    4.20
   4   3 -10   72.29    4.00
   3  -3 -10  105.79    4.70
  -3  -3  10  106.99    4.30
   3   3 -10  106.19    4.60
   2  -3 -10  119.29    4.80
   2   3 -10  115.59    4.80
   1  -3 -10  226.38    6.40
   1  -3 -10  235.58    6.60
   1   3 -10  233.28    6.80
   0  -3 -10   -2.40    1.00
   0  -3 -10    0.30    0.80
   0   3 -10   -0.30    0.90
  -1  -3 -10   16.10    2.10
  -1   3 -10   13.60    1.90
   0   0   0    0.00    0.00

_computing_structure_solution     'SHELXT 2018/2 (Sheldrick, 2018)'
;
_shelx_hkl_checksum              87307
_olex2_submission_special_instructions 'No special instructions were received'
loop_
_space_group_symop_operation_xyz
'x, y, z'
'-x, y+1/2, -z'
'-x, -y, -z'
'x, -y-1/2, z'
loop_
_atom_site_label
_atom_site_type_symbol
_atom_site_fract_x
_atom_site_fract_y
_atom_site_fract_z
_atom_site_U_iso_or_equiv
_atom_site_adp_type
_atom_site_occupancy
_atom_site_site_symmetry_order
_atom_site_calc_flag
_atom_site_refinement_flags_posn
_atom_site_refinement_flags_adp
_atom_site_refinement_flags_occupancy
_atom_site_disorder_assembly
_atom_site_disorder_group
P1 P 0.49965(5) 0.250000 0.87060(5) 0.01108(14) Uani 1 2 d S T P . .
O1 O 0.61607(10) 0.42112(12) 0.84236(10) 0.0147(2) Uani 1 1 d . . . . .
H1 H 0.577839 0.520795 0.878403 0.022 Uiso 1 1 calc GR . . . .
O2 O 0.45437(15) 0.250000 1.03803(14) 0.0140(3) Uani 1 2 d S T P . .
C1 C 0.3167(2) 0.250000 0.71545(19) 0.0115(3) Uani 1 2 d S T P . .
C2 C 0.3470(2) 0.250000 0.5531(2) 0.0124(3) Uani 1 2 d S T P . .
C3 C 0.2081(2) 0.250000 0.4292(2) 0.0141(3) Uani 1 2 d S T P . .
H3 H 0.228314 0.250000 0.320680 0.017 Uiso 1 2 calc RS T P . .
C4 C 0.0411(2) 0.250000 0.4590(2) 0.0142(3) Uani 1 2 d S T P . .
C5 C 0.0139(2) 0.250000 0.6186(2) 0.0145(3) Uani 1 2 d S T P . .
H5 H -0.099728 0.250000 0.640196 0.017 Uiso 1 2 calc RS T P . .
C6 C 0.1470(2) 0.250000 0.7480(2) 0.0131(3) Uani 1 2 d S T P . .
C7 C 0.5225(2) 0.250000 0.5054(2) 0.0143(3) Uani 1 2 d S T P . .
H7A H 0.513162 0.225501 0.389508 0.021 Uiso 0.5 1 calc GR . . A -1
H7B H 0.591879 0.150607 0.565316 0.021 Uiso 0.5 1 calc GR . . A -1
H7C H 0.576313 0.373892 0.530552 0.021 Uiso 0.5 1 calc GR . . A -1
C8 C -0.1064(2) 0.250000 0.3228(2) 0.0184(4) Uani 1 2 d S T P . .
H8A H -0.189105 0.346744 0.343064 0.028 Uiso 0.5 1 calc GR . . B -1
H8B H -0.161008 0.124851 0.315444 0.028 Uiso 0.5 1 calc GR . . B -1
H8C H -0.065312 0.278404 0.221372 0.028 Uiso 0.5 1 calc GR . . B -1
C9 C 0.0964(2) 0.250000 0.9146(2) 0.0187(4) Uani 1 2 d S T P . .
H9A H 0.138(2) 0.136(2) 0.9760(19) 0.024(4) Uiso 1 1 d . . . . .
H9B H -0.028(3) 0.250000 0.900(3) 0.019(5) Uiso 1 2 d S T P . .
loop_
_atom_site_aniso_label
_atom_site_aniso_U_11
_atom_site_aniso_U_22
_atom_site_aniso_U_33
_atom_site_aniso_U_23
_atom_site_aniso_U_13
_atom_site_aniso_U_12
P1 0.0095(2) 0.0096(2) 0.0143(2) 0.000 0.00250(15) 0.000
O1 0.0137(4) 0.0118(4) 0.0195(4) -0.0021(3) 0.0051(3) -0.0023(3)
O2 0.0152(6) 0.0120(6) 0.0151(6) 0.000 0.0032(4) 0.000
C1 0.0104(7) 0.0085(7) 0.0156(7) 0.000 0.0026(6) 0.000
C2 0.0113(7) 0.0093(7) 0.0170(8) 0.000 0.0036(6) 0.000
C3 0.0146(8) 0.0128(8) 0.0153(7) 0.000 0.0040(6) 0.000
C4 0.0126(8) 0.0108(8) 0.0189(8) 0.000 0.0016(6) 0.000
C5 0.0098(7) 0.0140(8) 0.0203(8) 0.000 0.0039(6) 0.000
C6 0.0124(7) 0.0102(7) 0.0175(8) 0.000 0.0046(6) 0.000
C7 0.0117(8) 0.0151(8) 0.0172(7) 0.000 0.0054(6) 0.000
C8 0.0138(8) 0.0208(9) 0.0196(8) 0.000 -0.0004(6) 0.000
C9 0.0120(8) 0.0272(10) 0.0180(8) 0.000 0.0060(6) 0.000
loop_
_atom_type_symbol
_atom_type_description
_atom_type_scat_dispersion_real
_atom_type_scat_dispersion_imag
_atom_type_scat_source
C C 0.0033 0.0016 'International Tables Vol C Tables 4.2.6.8 and 6.1.1.4'
H H 0.0000 0.0000 'International Tables Vol C Tables 4.2.6.8 and 6.1.1.4'
O O 0.0106 0.0060 'International Tables Vol C Tables 4.2.6.8 and 6.1.1.4'
P P 0.1023 0.0942 'International Tables Vol C Tables 4.2.6.8 and 6.1.1.4'
loop_
_geom_angle_atom_site_label_1
_geom_angle_atom_site_label_2
_geom_angle_atom_site_label_3
_geom_angle
_geom_angle_site_symmetry_1
_geom_angle_site_symmetry_3
O1 P1 O1 101.09(7) . 4_565
O1 P1 C1 108.84(5) 4_565 .
O1 P1 C1 108.84(5) . .
O2 P1 O1 112.12(4) . 4_565
O2 P1 O1 112.12(4) . .
O2 P1 C1 113.11(7) . .
C2 C1 P1 117.14(12) . .
C6 C1 P1 123.24(12) . .
C6 C1 C2 119.63(14) . .
C1 C2 C7 123.82(14) . .
C3 C2 C1 118.83(14) . .
C3 C2 C7 117.34(15) . .
C4 C3 C2 122.28(15) . .
C3 C4 C5 118.07(15) . .
C3 C4 C8 121.17(15) . .
C5 C4 C8 120.76(15) . .
C4 C5 C6 122.55(16) . .
C1 C6 C9 125.19(15) . .
C5 C6 C1 118.63(15) . .
C5 C6 C9 116.18(15) . .
loop_
_geom_bond_atom_site_label_1
_geom_bond_atom_site_label_2
_geom_bond_distance
_geom_bond_site_symmetry_2
P1 O1 1.5604(9) .
P1 O1 1.5604(8) 4_565
P1 O2 1.5051(12) .
P1 C1 1.7955(16) .
C1 C2 1.421(2) .
C1 C6 1.419(2) .
C2 C3 1.395(2) .
C2 C7 1.512(2) .
C3 C4 1.390(2) .
C4 C5 1.391(2) .
C4 C8 1.505(2) .
C5 C6 1.394(2) .
C6 C9 1.515(2) .
