#------------------------------------------------------------------------------
#$Date: 2019-11-03 14:24:20 +0200 (Sun, 03 Nov 2019) $
#$Revision: 221638 $
#$URL: file:///home/coder/svn-repositories/cod/cif/4/12/85/4128558.cif $
#------------------------------------------------------------------------------
#
# This file is available in the Crystallography Open Database (COD),
# http://www.crystallography.net/
#
# All data on this site have been placed in the public domain by the
# contributors.
#
data_4128558
loop_
_publ_author_name
'Lei, Honghui'
'Conway, Jr, John H'
'Cook, Caleb C.'
'Rovis, Tomislav'
_publ_section_title
;
 Ligand Controlled Ir-Catalyzed Regiodivergent Oxyamination of Unactivated
 Alkenes.
;
_journal_issue                   30
_journal_name_full               'Journal of the American Chemical Society'
_journal_page_first              11864
_journal_page_last               11869
_journal_paper_doi               10.1021/jacs.9b06366
_journal_volume                  141
_journal_year                    2019
_chemical_formula_moiety         'C6 H10 Br N O'
_chemical_formula_sum            'C6 H10 Br N O'
_chemical_formula_weight         192.06
_space_group_crystal_system      triclinic
_space_group_IT_number           2
_space_group_name_Hall           '-P 1'
_space_group_name_H-M_alt        'P -1'
_atom_sites_solution_hydrogens   mixed
_atom_sites_solution_primary     direct
_audit_creation_date             2019-05-01
_audit_creation_method
;
Olex2 1.2
(compiled 2018.05.29 svn.r3510 for OlexSys, GUI svn.r5506)
;
_cell_angle_alpha                70.172(6)
_cell_angle_beta                 89.251(6)
_cell_angle_gamma                79.122(7)
_cell_formula_units_Z            2
_cell_length_a                   5.9616(5)
_cell_length_b                   7.0596(5)
_cell_length_c                   9.5102(6)
_cell_measurement_reflns_used    1522
_cell_measurement_temperature    99.98(11)
_cell_measurement_theta_max      28.1490
_cell_measurement_theta_min      4.5580
_cell_volume                     369.19(5)
_computing_cell_refinement       'CrysAlisPro 1.171.38.46 (Rigaku OD, 2015)'
_computing_data_collection       'CrysAlisPro 1.171.38.46 (Rigaku OD, 2015)'
_computing_data_reduction        'CrysAlisPro 1.171.38.46 (Rigaku OD, 2015)'
_computing_molecular_graphics    'Olex2 (Dolomanov et al., 2009)'
_computing_publication_material  'Olex2 (Dolomanov et al., 2009)'
_computing_structure_refinement  'SHELXL-2018/3 (Sheldrick, 2018)'
_computing_structure_solution    'SHELXT 2014/5 (Sheldrick, 2014)'
_diffrn_ambient_environment      N~2~
_diffrn_ambient_temperature      99.98(11)
_diffrn_detector                 'CCD plate'
_diffrn_detector_area_resol_mean 8.0549
_diffrn_detector_type            EosS2
_diffrn_measured_fraction_theta_full 0.988
_diffrn_measured_fraction_theta_max 0.809
_diffrn_measurement_details
;
List of Runs (angles in degrees, time in seconds):

  # Type    Start    End  Width  t~exp~   \w     \q     \k     \f   Frames
--------------------------------------------------------------------------
  1  \w    -39.00   4.00   1.00    2.00    --  -14.01  77.00 120.00   43
  2  \w     25.00  52.00   1.00    2.00    --  -14.01  77.00 150.00   27
  3  \w     19.00  81.00   1.00    2.00    --   16.51  77.00 150.00   62
  4  \w     -9.00  82.00   1.00    2.00    --   16.51  77.00  60.00   91
  5  \w     35.00  83.00   1.00    2.00    --   16.51  77.00 -60.00   48
  6  \w     -8.00  72.00   1.00    2.00    --   16.51  77.00 -90.00   80
;
_diffrn_measurement_device       'four-circle diffractometer'
_diffrn_measurement_device_type  'SuperNova, Dual, Cu at zero, EosS2'
_diffrn_measurement_method       '\w scans'
_diffrn_orient_matrix_type
'CrysAlisPro convention (1999,Acta A55,543-557)'
_diffrn_orient_matrix_UB_11      -0.0260852000
_diffrn_orient_matrix_UB_12      0.0741875000
_diffrn_orient_matrix_UB_13      -0.0727180000
_diffrn_orient_matrix_UB_21      -0.0624858000
_diffrn_orient_matrix_UB_22      0.0705021000
_diffrn_orient_matrix_UB_23      0.0313429000
_diffrn_orient_matrix_UB_31      0.1006891000
_diffrn_orient_matrix_UB_32      0.0372583000
_diffrn_orient_matrix_UB_33      0.0058885000
_diffrn_radiation_monochromator  mirror
_diffrn_radiation_probe          x-ray
_diffrn_radiation_type           MoK\a
_diffrn_radiation_wavelength     0.71073
_diffrn_reflns_av_R_equivalents  0.0347
_diffrn_reflns_av_unetI/netI     0.0655
_diffrn_reflns_Laue_measured_fraction_full 0.988
_diffrn_reflns_Laue_measured_fraction_max 0.809
_diffrn_reflns_limit_h_max       6
_diffrn_reflns_limit_h_min       -7
_diffrn_reflns_limit_k_max       9
_diffrn_reflns_limit_k_min       -8
_diffrn_reflns_limit_l_max       11
_diffrn_reflns_limit_l_min       -12
_diffrn_reflns_number            2644
_diffrn_reflns_point_group_measured_fraction_full 0.988
_diffrn_reflns_point_group_measured_fraction_max 0.809
_diffrn_reflns_theta_full        25.242
_diffrn_reflns_theta_max         29.346
_diffrn_reflns_theta_min         4.060
_diffrn_source                   'micro-focus sealed X-ray tube'
_diffrn_source_type              'SuperNova (Mo) X-ray Source'
_exptl_absorpt_coefficient_mu    5.486
_exptl_absorpt_correction_T_max  1.000
_exptl_absorpt_correction_T_min  0.128
_exptl_absorpt_correction_type   gaussian
_exptl_absorpt_process_details
;
CrysAlisPro 1.171.38.46 (Rigaku Oxford Diffraction, 2015)
Numerical absorption correction based on gaussian integration over
			a multifaceted crystal model
Empirical absorption correction using spherical harmonics,
 implemented in SCALE3 ABSPACK scaling algorithm.
;
_exptl_crystal_colour            colourless
_exptl_crystal_colour_primary    colourless
_exptl_crystal_density_diffrn    1.728
_exptl_crystal_description       block
_exptl_crystal_F_000             192
_exptl_crystal_size_max          0.562
_exptl_crystal_size_mid          0.237
_exptl_crystal_size_min          0.179
_refine_diff_density_max         0.539
_refine_diff_density_min         -0.569
_refine_diff_density_rms         0.105
_refine_ls_extinction_method     none
_refine_ls_goodness_of_fit_ref   0.993
_refine_ls_hydrogen_treatment    mixed
_refine_ls_matrix_type           full
_refine_ls_number_parameters     125
_refine_ls_number_reflns         1649
_refine_ls_number_restraints     77
_refine_ls_restrained_S_all      0.977
_refine_ls_R_factor_all          0.0390
_refine_ls_R_factor_gt           0.0323
_refine_ls_shift/su_max          0.000
_refine_ls_shift/su_mean         0.000
_refine_ls_structure_factor_coef Fsqd
_refine_ls_weighting_details
'w=1/[\s^2^(Fo^2^)+(0.0171P)^2^] where P=(Fo^2^+2Fc^2^)/3'
_refine_ls_weighting_scheme      calc
_refine_ls_wR_factor_gt          0.0605
_refine_ls_wR_factor_ref         0.0647
_reflns_Friedel_coverage         0.000
_reflns_number_gt                1470
_reflns_number_total             1649
_reflns_threshold_expression     'I > 2\s(I)'
_cod_data_source_file            ja9b06366_si_002.cif
_cod_data_source_block           honghui4
_cod_database_code               4128558
_shelx_shelxl_version_number     2018/3
_chemical_oxdiff_formula         'C6 H10 Br N O'
_shelx_space_group_comment
;
The symmetry employed for this shelxl refinement is uniquely defined
by the following loop, which should always be used as a source of
symmetry information in preference to the above space-group names.
They are only intended as comments.
;
_reflns_odcompleteness_completeness 98.67
_reflns_odcompleteness_iscentric 1
_reflns_odcompleteness_theta     26.32
_olex2_refinement_description
;
1. Fixed Uiso
 At 1.2 times of:
  All C(H) groups, All C(H,H) groups, All N(H) groups
 At 1.5 times of:
  All C(H,H,H) groups
2. Restrained atomic chiral volume
 C2
 fixed at 0 with sigma of 0.1
 C2B
 fixed at 0 with sigma of 0.1
3. Uiso/Uaniso restraints and constraints
All non-hydrogen atoms have similar U: within 1A with sigma of 0.01 and sigma
for terminal atoms of 0.02
4. Same fragment restrains
{N1B, C2B, O3B, C4B, C5B, C6B, C7B, Br8B, C9B} sigma for 1-2: 0.02, 1-3: 0.04
as
{N1, C2, O3, C4, C5, C6, C7, Br8, C9}
5. Others
 Sof(N1B)=Sof(H1B)=Sof(C2B)=Sof(O3B)=Sof(C4B)=Sof(H4B1)=Sof(H4B2)=Sof(C5B)=
 Sof(H5B1)=Sof(H5B2)=Sof(C6B)=Sof(H6B)=Sof(C7B)=Sof(H7B)=Sof(Br8B)=Sof(C9B)=
 Sof(H9B1)=Sof(H9B2)=Sof(H9B3)=Sof(Q1)=Sof(Q2)=Sof(Q3)=Sof(Q4)=Sof(Q5)=Sof(Q6)=
 Sof(Q7)=Sof(Q8)=Sof(Q9)=Sof(Q10)=Sof(Q11)=Sof(Q12)=Sof(Q13)=Sof(Q14)=Sof(Q15)=
 Sof(Q16)=Sof(Q17)=Sof(Q18)=Sof(Q19)=Sof(Q20)=1-FVAR(1)
 Sof(N1)=Sof(H1)=Sof(C2)=Sof(O3)=Sof(C4)=Sof(H4A)=Sof(H4B)=Sof(C5)=Sof(H5A)=
 Sof(H5B)=Sof(C6)=Sof(H6)=Sof(C7)=Sof(H7)=Sof(Br8)=Sof(C9)=Sof(H9A)=Sof(H9B)=
 Sof(H9C)=FVAR(1)
6.a Ternary CH refined with riding coordinates:
 C6(H6), C7(H7), C6B(H6B), C7B(H7B)
6.b Secondary CH2 refined with riding coordinates:
 C4(H4A,H4B), C5(H5A,H5B), C4B(H4B1,H4B2), C5B(H5B1,H5B2)
6.c Aromatic/amide H refined with riding coordinates:
 N1B(H1B)
6.d Idealised Me refined as rotating group:
 C9(H9A,H9B,H9C), C9B(H9B1,H9B2,H9B3)
;
_shelx_res_file
;
TITL honghui4c_a.res in P-1
    a.res
    created by SHELXL-2018/3 at 14:26:05 on 01-May-2019
REM Old TITL honghui4c in P-1
REM SHELXT solution in P-1
REM R1 0.103, Rweak 0.012, Alpha 0.068, Orientation as input
REM Formula found by SHELXT: C6 O2 Br
CELL 0.71073 5.9616 7.0596 9.5102 70.172 89.251 79.122
ZERR 2 0.0005 0.0005 0.0006 0.006 0.006 0.007
LATT 1
SFAC C H N O Br
UNIT 12 20 2 2 2

L.S. 30
PLAN  20
BOND $H
LIST 4
conf
bond $h
more -1
fmap 2
ACTA
REM <olex2.extras>
REM <HklSrc "%./honghui4c_a.hkl">
REM </olex2.extras>
simu .01 .02 1

same n1b > c9b
chiv c2
chiv c2b
WGHT    0.017100
FVAR       0.84221   0.86176
part 1 21
N1    3    0.807790    0.391041    0.642449    21.00000    0.02019    0.00978 =
         0.01864    0.00076    0.01312   -0.00456
H1    2    0.827727    0.500468    0.599920    21.00000    0.01444
C2    1    0.944674    0.221645    0.633850    21.00000    0.01520    0.01381 =
         0.02217   -0.00191    0.00601   -0.00357
O3    4    1.097312    0.221200    0.544071    21.00000    0.02226    0.01509 =
         0.02772   -0.00455    0.01230   -0.00334
C4    1    0.882817    0.035699    0.750746    21.00000    0.02135    0.01474 =
         0.03487   -0.00029    0.01229   -0.00202
AFIX  23
H4A   2    0.999608   -0.025427    0.831861    21.00000   -1.20000
H4B   2    0.863149   -0.066710    0.707471    21.00000   -1.20000
AFIX   0
C5    1    0.656673    0.121762    0.805874    21.00000    0.02621    0.01298 =
         0.04000    0.00111    0.01880   -0.00196
AFIX  23
H5A   2    0.648228    0.053489    0.912595    21.00000   -1.20000
H5B   2    0.527259    0.104634    0.753804    21.00000   -1.20000
AFIX   0
C6    1    0.659887    0.349044    0.770213    21.00000    0.01446    0.02063 =
         0.01399    0.00050    0.00703   -0.00234
AFIX  13
H6    2    0.730082    0.369679    0.855144    21.00000   -1.20000
AFIX   0
C7    1    0.428683    0.492330    0.722847    21.00000    0.01658    0.01652 =
         0.01572   -0.00173    0.00901   -0.00238
AFIX  13
H7    2    0.361984    0.467549    0.638595    21.00000   -1.20000
AFIX   0
BR8   5    0.229936    0.418962    0.893590    21.00000    0.01512    0.02489 =
         0.02088   -0.00657    0.00881   -0.00483
C9    1    0.432907    0.717036    0.677422    21.00000    0.02532    0.01548 =
         0.03023   -0.00859    0.01344   -0.00324
AFIX 137
H9A   2    0.499625    0.743665    0.758433    21.00000   -1.50000
H9B   2    0.279546    0.795106    0.653506    21.00000   -1.50000
H9C   2    0.522252    0.756034    0.591277    21.00000   -1.50000
AFIX   0

part 2 -21
N1B   3    0.807374    0.385488    0.648407   -21.00000    0.01665
AFIX  43
H1B   2    0.843251    0.504708    0.620772   -21.00000   -1.20000
AFIX   0
C2B   1    0.948210    0.218187    0.638719   -21.00000    0.01626
O3B   4    1.132568    0.218911    0.575168   -21.00000    0.01343
C4B   1    0.843739    0.033214    0.717627   -21.00000    0.01414
AFIX  23
H4B1  2    0.955432   -0.076825    0.785711   -21.00000   -1.20000
H4B2  2    0.781762   -0.017062    0.646373   -21.00000   -1.20000
AFIX   0
C5B   1    0.652496    0.118070    0.803452   -21.00000    0.02545
AFIX  23
H5B1  2    0.523454    0.050357    0.810321   -21.00000   -1.20000
H5B2  2    0.708034    0.098838    0.903725   -21.00000   -1.20000
AFIX   0
C6B   1    0.584629    0.346424    0.710950   -21.00000    0.01903
AFIX  13
H6B   2    0.472486    0.366917    0.630112   -21.00000   -1.20000
AFIX   0
C7B   1    0.510431    0.500702    0.787297   -21.00000    0.01210
AFIX  13
H7B   2    0.637816    0.487613    0.856225   -21.00000   -1.20000
AFIX   0
BR8B  5    0.253338    0.425653    0.909979   -21.00000    0.02362
C9B   1    0.449225    0.723162    0.690890   -21.00000    0.02240
AFIX 137
H9B1  2    0.584192    0.768903    0.647384   -21.00000   -1.50000
H9B2  2    0.385211    0.803102    0.750918   -21.00000   -1.50000
H9B3  2    0.339151    0.739672    0.612748   -21.00000   -1.50000
AFIX   0
HKLF 4




REM  honghui4c_a.res in P-1
REM wR2 = 0.0647, GooF = S = 0.993, Restrained GooF = 0.977 for all data
REM R1 = 0.0323 for 1470 Fo > 4sig(Fo) and 0.0390 for all 1649 data
REM 125 parameters refined using 77 restraints

END

WGHT      0.0171      0.0000

REM Highest difference peak  0.539,  deepest hole -0.569,  1-sigma level  0.105
Q1    1   0.0602  0.4135  0.8608  11.00000  0.05    0.54
Q2    1   0.7314  0.3839  0.7033  11.00000  0.05    0.43
Q3    1   0.2493  0.2814  1.0267  11.00000  0.05    0.41
Q4    1   0.3758  0.3709  0.9582  11.00000  0.05    0.40
Q5    1   0.3001  0.5960  0.8779  11.00000  0.05    0.39
Q6    1   0.2433  0.5738  0.9172  11.00000  0.05    0.39
Q7    1   0.2698  0.4178  1.0245  11.00000  0.05    0.39
Q8    1   0.4998  0.1370  0.6994  11.00000  0.05    0.37
Q9    1   0.4326  0.4475  0.9054  11.00000  0.05    0.34
Q10   1   0.8670 -0.0929  0.6455  11.00000  0.05    0.34
Q11   1   0.8676  0.3121  0.6426  11.00000  0.05    0.33
Q12   1   0.0870  0.5279  0.8213  11.00000  0.05    0.33
Q13   1   0.3443  0.4958  0.7855  11.00000  0.05    0.32
Q14   1   0.2446  0.4175  0.7582  11.00000  0.05    0.31
Q15   1   0.3376  0.7364  0.8524  11.00000  0.05    0.31
Q16   1   0.9789  0.0611  0.8130  11.00000  0.05    0.29
Q17   1   0.3488  0.1254  0.8576  11.00000  0.05    0.29
Q18   1   0.8689  0.0730  0.5949  11.00000  0.05    0.29
Q19   1   0.8817  0.1402  0.6639  11.00000  0.05    0.29
Q20   1   0.2912  0.4760  0.6598  11.00000  0.05    0.28
;
_shelx_res_checksum              15372
_shelx_hkl_file
;
   0   0   2  359.90   17.13
   0   0  -2  343.63   14.98
   0   0   3   82.16   10.09
   0   0  -3   75.78    8.77
   0   0  -4 1067.71   37.42
   0   0  -5 1033.54   41.48
   0   0  -6  459.84   30.94
   0   0   6  513.86   31.91
   0   0  -7   58.93   11.59
   0   0   7   56.34   11.41
   0   0  -8  167.81   21.38
   0   0   8  160.04   21.49
   0   0  -9  451.58   38.48
   0   0 -10  143.08   24.08
   0   0 -11  119.78   22.30
   0  -1  10  131.18   22.51
   0   1  -9  244.11   29.53
   0  -1   9  221.96   28.73
   0  -1   8    5.95    3.93
   0   1  -8    1.86    3.19
   0  -1   7  268.14   26.42
   0   1  -7  250.31   25.94
   0   1  -6  498.94   33.60
   0  -1   6  496.14   34.20
   0   1  -5  865.51   40.43
   0   1  -4 1185.61   42.32
   0   1  -3  459.28   23.39
   0   1  -2  614.33   23.07
   0  -1   1 4157.88   44.17
   0   1   2   63.21    6.44
   0  -1  -2   64.73    6.34
   0   1   3  973.98   32.12
   0   1   3  952.17   28.24
   0  -1  -3  918.81   29.01
   0  -1  -3  918.51   28.02
   0   1   4 1102.13   38.86
   0   1   4 1077.15   32.62
   0  -1  -4 1116.79   38.03
   0  -1  -4 1063.80   35.90
   0   1   5 1382.64   47.59
   0   1   5 1331.12   47.58
   0  -1  -5 1241.67   46.09
   0  -1  -5 1299.66   45.23
   0   1   5 1293.34   38.48
   0   1   6  112.32   12.48
   0  -1  -6  113.82   14.62
   0   1   7   97.46   11.81
   0  -1  -7   90.85   13.50
   0  -1  -8  756.04   44.36
   0  -1  -9  236.75   26.99
   0  -1 -10  214.30   26.77
   0  -1 -11   10.14    4.55
   0  -2   9   -0.92    2.54
   0  -2   8   53.87    9.79
   0  -2   8   52.55   14.65
   0  -2   7  408.80   26.44
   0  -2   7  442.75   36.65
   0  -2   6  689.55   32.76
   0  -2   6  760.19   44.75
   0  -2   5  483.76   26.83
   0  -2   4   76.95   10.16
   0  -2   3  389.64   20.86
   0   2  -3  359.36   23.73
   0   2  -2  460.18   23.31
   0  -2   2  486.34   22.11
   0   2  -1 3214.15   53.61
   0   2  -1 3082.42   49.04
   0   2   0  316.25    9.33
   0  -2   0  329.88    9.81
   0  -2   0  305.36   14.67
   0  -2  -1  139.66    8.54
   0  -2  -1  133.18   11.03
   0  -2  -1  135.33    9.87
   0   2   1  134.59    8.42
   0   2   2 1658.30   28.47
   0  -2  -2 1648.96   41.02
   0  -2  -3 1992.81   47.95
   0  -2  -3 1925.09   43.51
   0  -2  -4 1159.17   37.15
   0   2   4 1168.86   38.19
   0   2   4 1267.40   39.31
   0   2   5  128.77   13.54
   0  -2  -5  124.40   14.31
   0  -2  -5  123.32   13.60
   0  -2  -5  111.80   15.09
   0   2   5  129.66   14.15
   0  -2  -6    0.61    1.26
   0  -2  -7  738.04   39.86
   0  -2  -8  794.74   45.33
   0  -2  -9   78.80   15.23
   0  -2 -10   33.50   11.54
   0  -2 -11   10.70    6.02
   0  -2 -12   70.26   19.08
   0  -3   9   48.42   17.10
   0  -3   8  268.68   32.80
   0  -3   7  256.39   22.59
   0  -3   7  302.10   32.40
   0  -3   6  152.65   17.53
   0  -3   5   46.26    9.08
   0  -3   4  268.47   21.56
   0  -3   3  286.74   21.01
   0   3  -2 1587.87   44.65
   0  -3   2 1692.18   50.14
   0   3  -1 1135.03   39.31
   0   3  -1 1176.64   19.89
   0   3  -1 1120.55   31.19
   0  -3   0   14.08    4.76
   0   3   0   11.83    2.65
   0  -3   0   12.49    3.81
   0   3   0   13.50    2.53
   0  -3  -1 1891.61   51.44
   0   3   1 1849.21   43.36
   0  -3  -1 1856.86   34.35
   0  -3  -1 1809.59   44.24
   0   3   2 1105.45   20.62
   0  -3  -2 1076.87   39.00
   0  -3  -2 1082.34   33.35
   0   3   2 1069.25   33.91
   0   3   3  904.51   33.62
   0  -3  -3  864.03   36.21
   0   3   3  900.57   25.82
   0  -3  -3  838.21   35.73
   0  -3  -4  734.16   39.25
   0  -3  -4  742.21   30.68
   0   3   4  809.23   29.55
   0  -3  -4  762.21   35.72
   0   3   5   93.63   11.28
   0  -3  -5   79.56   11.99
   0  -3  -5   77.20   11.84
   0  -3  -6  229.00   20.10
   0  -3  -7  796.57   40.90
   0  -3  -8  366.76   30.02
   0  -3  -9   54.13   12.45
   0  -3 -10   17.50    8.67
   0  -3 -11   51.86   13.66
   0  -3 -12  181.02   26.89
   0  -4   7   31.72    9.89
   0  -4   6   79.63   14.09
   0  -4   5    0.88    2.67
   0  -4   4  532.30   34.46
   0   4  -3 1150.00   25.44
   0  -4   3 1237.78   50.96
   0   4  -2  254.02   17.82
   0   4  -2  253.55   10.05
   0   4  -1    2.81    1.13
   0   4  -1    4.49    1.31
   0  -4   0   67.29    9.74
   0   4   0   67.48    5.52
   0  -4   0   86.35   12.71
   0  -4  -1 1589.25   48.68
   0  -4  -1 1630.44   35.37
   0  -4  -1 1737.64   56.82
   0  -4  -2  391.24   24.22
   0   4   2  432.67   24.59
   0  -4  -2  417.58   21.50
   0  -4  -2  409.95   28.19
   0  -4  -3  733.38   34.03
   0  -4  -3  770.12   39.60
   0   4   3  827.28   35.49
   0  -4  -4   -1.08    3.82
   0   4   4    1.73    2.95
   0  -4  -4    5.69    5.55
   0  -4  -5  247.57   23.67
   0   4   5  257.19   22.37
   0  -4  -6  580.44   37.63
   0  -4  -7  592.16   36.46
   0  -4  -7  589.83   37.76
   0  -4  -8  167.43   20.33
   0  -4  -9   13.67    7.51
   0  -4 -10   91.77   17.73
   0  -4 -11  127.71   21.96
   0  -4 -12  139.75   22.47
   0  -5   5  177.89   23.56
   0  -5   4  498.00   37.97
   0  -5   3  400.82   33.22
   0   5  -2   -0.51    2.13
   0  -5   2    1.63    3.60
   0  -5   1   10.18    5.68
   0   5  -1   10.55    3.45
   0   5   0  399.09   13.49
   0  -5   0  646.82   39.78
   0  -5  -1  365.58   17.34
   0  -5  -1  402.75   31.10
   0  -5  -2  687.44   40.90
   0  -5  -2  640.63   27.69
   0   5   3  145.98   16.08
   0  -5  -3  128.46   14.06
   0  -5  -3  126.77   17.76
   0   5   4  332.96   25.82
   0  -5  -4  312.45   28.54
   0  -5  -5  289.96   28.14
   0   5   5  322.92   26.70
   0   5   6  792.87   44.11
   0  -5  -6  668.87   45.40
   0  -5  -7  352.34   31.86
   0   5   7  410.08   33.46
   0  -5  -8    3.18    4.35
   0  -5  -8   13.83    7.24
   0  -5  -9  155.58   21.66
   0  -5 -10   35.99   12.37
   0  -5 -11  173.53   26.31
   0  -5 -12   33.90   11.41
   0  -6   5  132.86   21.96
   0  -6   4  267.42   31.08
   0  -6   3   19.10    3.74
   0  -6   2    3.21    2.35
   0  -6   1  341.19   32.63
   0  -6   0  570.96   41.02
   0  -6  -1   88.23   16.18
   0  -6  -2  463.24   36.78
   0  -6  -3   43.30    7.92
   0  -6  -3   61.13   13.69
   0   6   4  719.31   41.07
   0  -6  -4  661.86   45.44
   0  -6  -5  395.12   35.59
   0   6   5  517.32   35.84
   0  -6  -6  118.32   19.89
   0   6   6  143.87   19.89
   0  -6  -7   51.36   13.14
   0   6   7   62.96   14.59
   0   6   8  108.27   19.79
   0  -6  -8   76.29   16.23
   0   6   9  116.79   21.31
   0  -6  -9  100.87   18.39
   0   6  10  144.54   24.70
   0  -6 -10   88.27   16.22
   0  -6 -11   87.59   18.47
   0   6  11  117.23   23.03
   0  -6 -12   -9.13    6.23
   0  -7   4   90.78   19.91
   0  -7   3    7.27    6.90
   0  -7   2   44.71    9.31
   0  -7   1  360.89   37.55
   0  -7   0  103.21   19.15
   0  -7  -1  153.47   22.74
   0  -7  -2    9.09    4.48
   0  -7  -3  261.48   31.48
   0  -7  -4  291.55   32.87
   0   7   5  163.41   21.66
   0  -7  -5  119.16   21.35
   0   7   6   38.02   12.32
   0  -7  -6   32.60   11.41
   0   7   7    0.42    3.59
   0  -7  -7    2.04    6.97
   0  -7  -8   99.29   19.80
   0   7   8  137.81   22.75
   0   7   9  175.35   26.61
   0  -7  -9  122.38   23.18
   0  -7 -10  103.51   19.62
   0   7  10  167.87   28.10
   0  -7 -11    0.70    4.03
   0  -8   2  157.35   24.55
   0  -8   1   83.11   18.19
   0  -8   0   12.03   10.18
   0  -8  -1   12.27    5.36
   0  -8  -2   57.47   13.77
   0  -8  -3  158.18   26.64
   0  -8  -4  216.73   29.63
   0  -8  -5   42.49   14.73
   0  -8  -6  -14.89   13.49
   0   8   6   -2.82    5.53
   0  -8  -7  133.81   26.32
   0   8   7  176.76   26.96
   0   8   8  108.23   21.88
   0  -8  -8   91.30   22.12
   0   8   9   83.36   18.28
   0  -8 -10   17.25    9.59
   0   9   7   57.92   16.84
  -1   8   9    7.42    4.41
  -1   8   8   -8.26    8.16
  -1   8   7  104.63   18.57
  -1   8   6   88.44   18.20
   1  -8  -6   85.12   21.31
   1  -8  -5   88.62   21.84
   1  -8  -4    4.89    2.59
   1  -8  -3    8.44    2.73
   1  -8  -2  182.39   29.83
   1  -8  -1  311.37   38.94
   1  -8   0    4.48    6.70
   1  -8   1   -0.97    4.49
   1  -8   2    4.35    6.25
  -1   7  10   48.12   17.97
  -1   7   9    1.24    4.17
  -1   7   8  176.44   26.51
   1  -7  -8  118.82   23.28
   1  -7  -7  195.28   29.36
  -1   7   7  234.16   27.71
   1  -7  -6  150.74   25.62
  -1   7   6  179.74   22.61
  -1   7   5  115.79   17.82
   1  -7  -5  112.18   22.92
   1  -7  -4   55.35   15.51
   1  -7  -3  200.94   29.51
   1  -7  -2  246.70   32.41
   1  -7  -1  131.76   22.34
   1  -7   0   33.73   11.18
   1  -7   1   82.79   18.78
   1  -7   2   37.08   13.08
   1  -7   3  169.97   27.83
   1  -6 -10    0.94    4.90
  -1   6  10   -6.33    6.00
  -1   6   9   31.31   10.42
   1  -6  -9   14.99    6.48
  -1   6   8  604.27   44.00
  -1   6   7  279.72   21.33
  -1   6   7  287.22   28.84
   1  -6  -7  222.37   29.28
  -1   6   6   67.05   10.13
   1  -6  -6   54.40   14.79
  -1   6   6   63.45   11.92
  -1   6   5   48.18    7.20
   1  -6  -5   41.54   13.15
  -1   6   5   52.80   11.40
   1  -6  -4   71.56   16.85
  -1   6   4   87.39   13.12
  -1   6   4   78.72    7.68
   1  -6  -3  305.36   32.97
  -1   6   3  264.13   12.22
   1  -6  -2  496.24   41.90
   1  -6  -1  223.55   28.28
  -1   6   1  203.75   16.45
   1  -6   0  100.95   17.78
  -1   6   0  107.12   10.74
   1  -6   1  258.20   29.32
   1  -6   2  178.55   25.45
   1  -6   3  277.60   31.98
   1  -6   4    5.95    7.55
   1  -5 -11    4.31    6.61
   1  -5 -10   23.55    6.83
   1  -5  -9  383.17   32.33
  -1   5   9  468.72   32.91
  -1   5   8  250.75   22.45
   1  -5  -8  192.34   21.78
  -1   5   7  126.71   15.15
  -1   5   7  118.96   17.59
   1  -5  -6   22.07    9.37
  -1   5   6   23.55    7.23
  -1   5   6   13.40    5.01
   1  -5  -5  200.77   25.87
  -1   5   5  209.97   15.63
  -1   5   5  223.99   20.99
  -1   5   4  371.93   18.33
   1  -5  -4  385.15   35.91
  -1   5   4  426.94   27.57
  -1   5   3  783.12   35.72
   1  -5  -3  756.25   47.64
  -1   5   3  719.60   34.32
  -1   5   3  737.00   22.76
   1  -5  -2  667.39   33.60
   1  -5  -2  724.49   46.36
  -1   5   2  700.32   31.64
   1  -5  -1   26.85    9.03
  -1   5   1   23.24    4.85
   1  -5   0 1079.60   56.09
  -1   5   0 1047.54   33.37
  -1   5  -1   96.42    9.64
   1  -5   1  113.10   18.99
   1  -5   2  516.33   40.06
  -1   5  -2  470.62   20.75
   1  -5   3  111.51   18.90
   1  -5   4   35.13    9.45
   1  -5   6  206.12   31.27
   1  -4 -12   -4.46    6.79
   1  -4 -11    4.78    0.96
   1  -4 -10  183.25   23.92
  -1   4   9  460.17   33.47
   1  -4  -9  433.65   34.30
  -1   4   8  110.08   14.85
   1  -4  -8   87.22   13.83
   1  -4  -7  133.98   16.00
  -1   4   7  141.91   16.38
  -1   4   6   97.52   12.61
  -1   4   5 1027.26   35.51
   1  -4  -5 1019.78   51.24
   1  -4  -4 1153.60   54.21
  -1   4   4 1201.84   42.29
  -1   4   4 1065.59   43.29
  -1   4   4 1096.09   33.31
   1  -4  -3  156.81   16.96
   1  -4  -3  175.76   21.00
  -1   4   3  170.76   11.47
  -1   4   3  189.49   15.78
  -1   4   3  167.94   15.85
   1  -4  -2  164.20   20.15
  -1   4   2  160.94   13.98
  -1   4   2  136.76   13.25
   1  -4  -2  139.84   14.25
   1  -4  -1  848.42   44.64
  -1   4   1  784.66   29.07
   1  -4  -1  742.46   30.94
   1  -4  -1  768.39   30.83
  -1   4   0  888.50   28.94
   1  -4   0  838.80   32.97
   1  -4   0  929.31   47.21
   1  -4   1  371.07   23.37
  -1   4  -1  403.59   19.10
  -1   4  -2  228.23   14.80
   1  -4   2  234.14   22.98
  -1   4  -3    4.70    0.90
   1  -4   3    8.12    4.99
  -1   4  -4   44.78    7.28
   1  -4   4   54.15   10.74
   1  -4   5  474.53   34.31
   1  -4   6  346.56   35.79
   1  -4   7   29.34   11.03
   1  -3 -12   20.98   11.37
   1  -3 -11   65.96   14.51
   1  -3 -10  395.40   35.42
   1  -3  -9  260.30   26.95
  -1   3   9  276.84   27.69
   1  -3  -8  106.49   15.77
  -1   3   8  144.25   18.54
  -1   3   7  111.80   14.39
   1  -3  -7  113.00   14.78
  -1   3   6  660.04   32.51
   1  -3  -6  579.57   32.08
   1  -3  -6  596.41   30.90
  -1   3   5 1036.97   36.23
  -1   3   4  427.39   21.24
   1  -3  -4  409.47   28.46
  -1   3   4  392.64   24.87
   1  -3  -4  399.30   29.76
   1  -3  -3  140.89   16.78
  -1   3   3  166.23   14.88
  -1   3   3  164.56   13.19
  -1   3   3  155.70   11.25
   1  -3  -3  153.08   15.52
  -1   3   2  174.48   13.72
   1  -3  -2  168.26   17.70
  -1   3   2  158.40   12.02
   1  -3  -2  169.07   14.54
   1  -3  -1 1600.61   54.35
   1  -3  -1 1563.28   36.90
   1  -3  -1 1607.35   42.10
  -1   3   1 1515.10   37.76
  -1   3   0  602.73   29.91
   1  -3   0  608.72   23.36
  -1   3   0  628.55   22.95
   1  -3   0  693.11   35.58
   1  -3   1 1128.41   44.65
  -1   3  -1 1054.27   29.78
  -1   3  -2    8.86    3.56
   1  -3   2   12.94    4.76
  -1   3  -2    8.06    2.42
   1  -3   3   85.01   12.32
   1  -3   4  662.58   35.22
   1  -3   5  800.40   39.81
   1  -3   6  148.02   17.00
   1  -3   6  149.92   23.13
   1  -3   7   61.35   14.68
   1  -3   8   80.01   18.96
   1  -2 -12   28.81   11.02
   1  -2 -11  397.57   39.26
   1  -2 -10  281.11   30.25
   1  -2  -9   23.50    8.37
  -1   2   9   23.26    9.01
   1  -2  -8   14.93    8.42
  -1   2   8   13.74    5.80
   1  -2  -7  299.74   24.35
  -1   2   7  300.50   24.51
   1  -2  -6  816.61   37.09
   1  -2  -6  764.19   37.40
  -1   2   6  865.91   38.04
  -1   2   5 1393.08   42.95
   1  -2  -5 1324.94   41.68
   1  -2  -5 1284.33   43.03
  -1   2   4   65.81    8.90
   1  -2  -4   64.87    7.82
  -1   2   4   54.48    9.17
  -1   2   3    5.87    1.58
   1  -2  -3    6.94    4.45
  -1   2   3    7.08    3.85
   1  -2  -2 2618.69   59.41
  -1   2   2 2597.40   49.06
  -1   2   1 1699.43   28.50
  -1   2   1 1651.54   35.68
   1  -2  -1 1648.96   38.47
   1  -2  -1 1708.62   47.19
   1  -2   0 1128.99   37.74
  -1   2   0 1101.95   27.76
   1  -2   0 1058.81   23.40
  -1   2   0 1075.48   32.86
  -1   2  -1  200.97   11.95
  -1   2  -1  187.94   13.11
   1  -2   1  205.34   15.62
   1  -2   1  199.76   15.00
  -1   2  -2  168.65   11.80
   1  -2   2  168.64   15.75
   1  -2   2  178.92   15.01
   1  -2   3 1284.26   40.00
  -1   2  -4 1032.72   44.58
   1  -2   4 1077.36   37.29
   1  -2   5  137.57   18.39
  -1   2  -5  128.55   16.97
   1  -2   5  130.87   13.05
  -1   2  -6   54.68   12.61
   1  -2   6   47.75    7.92
   1  -2   6   45.09   11.26
   1  -2   7  130.52   19.64
   1  -2   7  139.65   13.03
  -1   2  -7  165.13   21.82
   1  -2   8  181.43   25.98
   1  -2   9  125.16   22.60
   1  -1 -12  143.26   24.12
   1  -1 -11  229.80   29.75
   1  -1 -10   80.92   16.07
   1  -1  -9   -2.69    7.81
  -1   1   9   -7.57    6.80
  -1   1   8  253.53   24.69
   1  -1  -8  247.21   25.04
  -1   1   7  219.71   22.77
   1  -1  -7  243.20   22.69
  -1   1   6 1864.00   58.62
   1  -1  -6 1812.36   56.65
  -1   1   5  554.41   28.22
  -1   1   5  532.58   27.90
   1  -1  -5  548.84   27.69
  -1   1   4  428.99   21.05
   1  -1  -4  394.89   20.43
  -1   1   4  377.82   21.14
   1  -1  -3  934.07   25.51
  -1   1   3  900.48   28.20
  -1   1   3  923.39   30.81
   1  -1  -3  943.68   26.52
   1  -1  -2 1658.61   24.52
  -1   1   2 1634.81   35.69
  -1   1   1 2871.81   42.38
  -1   1   0  316.48   13.48
   1  -1   0  323.78   15.15
   1  -1   0  305.34   11.41
  -1   1  -1 1061.43   26.50
   1  -1   1 1047.82   25.87
  -1   1  -1 1060.59   23.36
  -1   1  -2  302.33   10.93
   1  -1   2  315.93   14.09
  -1   1  -2  311.96   17.61
   1  -1   3 2135.30   36.65
  -1   1  -3 2146.97   53.67
  -1   1  -4  394.34   25.48
   1  -1   4  387.72   16.12
   1  -1   5  199.54   12.54
  -1   1  -5  212.58   20.92
   1  -1   6   67.24    7.71
   1  -1   6   79.97   14.10
  -1   1  -6   69.68   12.60
  -1   1  -7  631.19   41.79
   1  -1   7  570.19   40.45
   1  -1   7  540.53   22.72
   1  -1   8  330.58   32.95
  -1   1  -8  329.70   31.95
  -1   1  -9   94.61   18.91
   1  -1   9   82.84   16.76
  -1   1 -10    6.22    3.62
   1   0 -11   56.49   14.60
   1   0 -10   59.19   14.19
   1   0  -9  168.58   22.54
  -1   0   9  135.16   19.76
  -1   0   8  504.27   35.94
  -1   0   8  502.54   36.96
   1   0  -8  520.59   37.71
  -1   0   7  474.85   32.69
  -1   0   7  435.95   31.18
   1   0  -7  460.52   33.30
  -1   0   6  977.95   42.77
   1   0  -6  923.12   43.28
  -1   0   6  962.80   44.04
   1   0  -5    2.73    3.34
  -1   0   5    1.25    2.48
  -1   0   5    1.79    2.08
  -1   0   5    4.79    4.34
  -1   0   4 1046.06   34.73
   1   0  -4  958.81   40.95
  -1   0   4 1010.10   35.33
  -1   0   4 1018.30   35.22
   1   0  -4 1035.42   36.16
  -1   0   3 3028.99   50.54
  -1   0   3 2965.93   53.67
  -1   0   3 2979.48   52.87
   1   0  -3 2937.40   50.72
  -1   0   2  613.54   17.83
  -1   0   2  627.74   20.77
  -1   0   2  627.51   20.52
   1   0  -2  589.02   17.92
  -1   0   1  410.32   14.25
  -1   0  -1    9.08    2.20
  -1   0  -1    8.21    2.12
  -1   0  -2 4309.63   59.12
  -1   0  -2 4326.34   60.38
  -1   0  -3 1841.82   47.97
  -1   0  -3 1791.00   46.06
   1   0   4   80.65    5.48
  -1   0  -4   96.46   12.05
  -1   0  -5    1.65    2.18
   1   0   5    1.38    1.37
  -1   0  -6 1033.79   47.12
   1   0   6 1059.67   48.51
   1   0   7  570.78   39.32
  -1   0  -7  550.91   37.21
  -1   0  -8  114.71   18.50
  -1   0  -9   58.62   13.86
  -1   0 -10   -3.02    3.18
  -1  -1  10   27.48    8.20
  -1  -1   9  389.68   35.95
  -1  -1   8  188.36   23.52
  -1  -1   7  622.35   38.60
  -1  -1   7  610.34   39.62
  -1  -1   6   34.14    8.08
  -1  -1   6   44.59   10.49
  -1  -1   5  439.33   28.70
  -1  -1   4 1343.27   45.04
   1   1  -4 1332.89   45.90
  -1  -1   4 1432.20   46.39
   1   1  -3 1014.52   32.63
  -1  -1   3 1024.76   33.29
  -1  -1   2  976.97   23.16
   1   1  -2  939.14   24.68
  -1  -1   2  993.21   28.07
  -1  -1   1   23.51    2.77
   1   1  -1   24.91    3.17
  -1  -1  -1 1908.14   27.79
  -1  -1  -1 1821.54   32.67
   1   1   2 9999.00   66.64
  -1  -1  -2 9968.98   61.81
  -1  -1  -3   42.45    6.52
  -1  -1  -3   52.63    4.73
   1   1   3   56.91    5.56
   1   1   4   98.03    8.06
  -1  -1  -4   81.92   10.84
  -1  -1  -4   81.50   10.95
   1   1   5  291.12   14.68
  -1  -1  -5  243.17   20.88
  -1  -1  -6  817.53   40.65
   1   1   6  800.57   26.89
  -1  -1  -7  499.44   34.89
   1   1   7  477.91   21.87
  -1  -1  -8   54.95   13.11
  -1  -1  -9   -2.73    1.06
  -1  -1 -10  156.62   23.99
  -1  -1 -11  196.49   28.86
  -1  -2  10  191.86   29.66
  -1  -2   9  226.99   29.80
  -1  -2   8  177.63   24.62
  -1  -2   7  158.64   22.08
   1   2  -5  695.99   35.27
  -1  -2   5  763.85   37.73
  -1  -2   4 1001.46   40.61
   1   2  -4  894.87   33.99
  -1  -2   3  901.08   34.08
   1   2  -3  870.83   26.62
  -1  -2   2  395.60   19.27
   1   2  -2  371.50   12.86
  -1  -2   1 1676.04   40.27
  -1  -2   1 1782.02   33.00
  -1  -2   0  900.97   27.11
  -1  -2   0  885.78   28.33
  -1  -2  -1 3167.41   49.67
  -1  -2  -1 3221.84   53.40
  -1  -2  -2  466.13   19.18
  -1  -2  -3   14.12    3.35
   1   2   3   19.10    4.39
  -1  -2  -4  269.92   19.27
   1   2   4  297.18   19.32
  -1  -2  -4  295.58   16.38
  -1  -2  -5  884.85   29.49
  -1  -2  -5  770.69   38.00
   1   2   5  867.69   32.88
  -1  -2  -5  824.17   36.84
   1   2   6  663.08   29.37
  -1  -2  -6  639.89   35.47
  -1  -2  -7  298.97   26.72
   1   2   7  249.90   18.48
   1   2   8   -0.69    1.66
  -1  -2  -8    2.21    1.85
  -1  -2  -9  168.89   22.59
  -1  -2 -10  337.34   33.97
  -1  -2 -11   87.52   17.72
  -1  -3   9  141.06   24.12
  -1  -3   8   82.24   14.26
  -1  -3   8   84.96   18.70
  -1  -3   7    6.34    4.40
  -1  -3   6  191.27   19.93
   1   3  -5  944.93   36.40
  -1  -3   5 1002.74   44.96
   1   3  -4  749.47   26.40
  -1  -3   4  775.71   36.87
  -1  -3   3   65.01    9.82
   1   3  -3   64.06   10.23
   1   3  -3   64.45    5.87
  -1  -3   2  836.15   29.89
  -1  -3   2  822.39   33.99
  -1  -3   1  147.32   13.73
  -1  -3   1  169.24   11.39
  -1  -3   0  712.80   30.25
  -1  -3   0  740.33   30.13
  -1  -3   0  715.34   17.15
  -1  -3  -1 2388.22   54.19
  -1  -3  -1 2425.15   53.95
  -1  -3  -2   35.69    6.72
  -1  -3  -2   34.52    6.42
  -1  -3  -3   93.12   10.82
   1   3   3   77.99   11.15
  -1  -3  -3   94.84    9.40
  -1  -3  -4 1318.80   41.19
  -1  -3  -4 1306.95   41.24
   1   3   4 1406.31   49.56
  -1  -3  -5  737.11   35.94
  -1  -3  -5  771.83   33.06
   1   3   5  780.19   37.54
  -1  -3  -6  351.16   22.90
  -1  -3  -6  329.17   26.00
  -1  -3  -7    0.70    2.93
  -1  -3  -8   52.82   11.93
  -1  -3  -9  472.35   39.19
  -1  -3 -10  235.57   29.06
  -1  -3 -11   12.96    6.99
  -1  -3 -12   -2.53    5.62
  -1  -4   8    4.48    5.71
  -1  -4   7  154.27   18.73
  -1  -4   6  473.89   33.93
  -1  -4   5  237.49   23.99
   1   4  -4   42.89    4.59
  -1  -4   4   71.83   12.10
  -1  -4   3    1.06    1.46
  -1  -4   2  520.25   31.08
  -1  -4   1  431.86   26.97
  -1  -4   0 1507.65   50.16
  -1  -4  -1  392.65   25.11
  -1  -4  -1  390.81   14.97
  -1  -4  -2  102.07   13.46
  -1  -4  -2   97.01   10.28
  -1  -4  -3 1715.69   32.60
  -1  -4  -3 1833.34   54.89
  -1  -4  -4  434.61   21.05
  -1  -4  -4  487.22   28.13
  -1  -4  -5  359.50   25.57
  -1  -4  -5  295.08   21.01
  -1  -4  -6  105.98   14.80
   1   4   6  129.04   17.09
  -1  -4  -7  130.02   15.91
  -1  -4  -8  259.99   26.85
  -1  -4  -9  318.47   31.21
  -1  -4 -10   82.83   17.30
  -1  -4 -11    0.22    3.25
  -1  -4 -12   31.49   13.22
  -1  -5   6  240.46   26.04
  -1  -5   5   20.45    9.35
  -1  -5   4   32.15    8.77
  -1  -5   3   83.84   14.99
  -1  -5   2  811.91   43.65
  -1  -5   1 1050.74   48.78
  -1  -5   0   26.31    7.01
  -1  -5  -1    8.65    2.05
  -1  -5  -1   15.36    6.98
  -1  -5  -2  313.08   25.88
  -1  -5  -2  308.26   17.43
  -1  -5  -3 1134.90   49.00
   1   5   3 1206.67   49.34
  -1  -5  -4  161.50   19.00
  -1  -5  -4  187.79   20.52
  -1  -5  -5  153.18   18.83
  -1  -5  -5  138.25   12.98
   1   5   6   59.25   13.28
  -1  -5  -6   33.12    7.49
  -1  -5  -6   40.39    9.79
  -1  -5  -7  204.48   23.09
   1   5   7  231.68   25.23
  -1  -5  -8  375.82   31.44
   1   5   8  458.14   38.81
  -1  -5  -9  199.97   26.44
  -1  -5 -10   11.85    5.02
  -1  -5 -11   55.67   15.80
  -1  -5 -12   27.34    9.91
  -1  -6   6   99.83   17.19
  -1  -6   5    1.26    5.37
  -1  -6   4   59.40   15.03
  -1  -6   3  315.35   31.46
  -1  -6   2  451.97   36.90
  -1  -6   1  131.96   19.69
  -1  -6   0    3.07    5.03
  -1  -6  -1   65.62   13.15
  -1  -6  -2  687.63   25.53
  -1  -6  -2  773.52   45.36
  -1  -6  -3  178.32   16.52
  -1  -6  -3  182.54   22.88
  -1  -6  -4  210.67   24.18
   1   6   4  252.13   24.86
   1   6   5   -0.13    3.20
  -1  -6  -5    6.11    4.00
   1   6   6  301.07   29.68
  -1  -6  -6  229.98   25.78
  -1  -6  -7  215.00   25.91
   1   6   7  283.21   30.32
  -1  -6  -8  272.15   28.89
   1   6   8  354.34   37.00
   1   6   9   90.06   21.72
  -1  -6  -9   66.26   14.19
  -1  -6 -10   69.25   17.66
   1   6  10   95.68   18.36
  -1  -6 -11   82.66   19.76
  -1  -7   5   13.65    5.03
  -1  -7   4   29.02   10.74
  -1  -7   3  172.24   25.42
  -1  -7   2  206.74   27.58
  -1  -7   1    5.78    4.78
  -1  -7   0    7.65    5.33
  -1  -7  -1  451.54   37.72
  -1  -7  -2  317.37   32.37
  -1  -7  -3   17.84    8.39
  -1  -7  -4   64.89   14.66
   1   7   5  183.60   23.98
  -1  -7  -5  141.86   23.10
  -1  -7  -6  321.07   33.22
   1   7   6  436.59   39.15
   1   7   7  182.07   24.83
  -1  -7  -7  128.37   23.19
  -1  -7  -8   29.57   11.78
   1   7   8   49.98   14.51
   1   7   9   -5.58    8.22
  -1  -7  -9    7.53    6.94
   1   7  10  122.91   25.24
  -1  -7 -10   92.39   19.55
  -1  -7 -10   84.33   19.16
  -1  -7 -11   35.59   13.16
  -1  -8   2   19.78   11.27
  -1  -8   1   69.33   17.79
  -1  -8   0  101.36   21.08
  -1  -8  -1  249.06   31.41
  -1  -8  -2   45.05   14.74
  -1  -8  -3   25.84    8.37
  -1  -8  -4   64.18   15.64
  -1  -8  -5  134.35   23.54
  -1  -8  -6  131.06   22.96
   1   8   6  154.17   25.41
   1   8   7   60.41   14.41
  -1  -8  -7   38.21   13.59
   1   8   8   -2.42    3.70
  -1  -8  -8    1.05    4.74
  -1  -8  -9   19.62    9.39
   2  -8  -3   48.05   20.46
   2  -8  -2   21.55    8.26
   2  -8  -1    5.99    2.32
   2  -8   0   20.06    7.18
   2  -8   1  109.62   21.93
  -2   7   8  137.87   21.04
   2  -7  -6   59.46   19.81
   2  -7  -5  214.42   31.29
   2  -7  -4  115.36   24.25
   2  -7  -3  132.13   25.85
  -2   7   3  133.48   18.14
   2  -7  -2   11.03   10.69
   2  -7  -1   67.96   19.66
   2  -7   0  323.66   40.94
   2  -7   1  120.29   24.96
   2  -7   2   -8.03    9.02
  -2   6  11  109.32   18.55
  -2   6  10  116.52   20.59
  -2   6  10  124.78   18.05
  -2   6   9   82.86   18.88
  -2   6   9   78.17   13.73
  -2   6   8    9.68    3.62
  -2   6   8   17.77    8.40
  -2   6   7   -1.10    3.78
  -2   6   7    9.15    2.94
  -2   6   6  521.88   28.15
  -2   6   6  546.75   35.40
   2  -6  -6  459.15   44.09
   2  -6  -5  316.01   36.76
  -2   6   5  319.36   21.16
  -2   6   5  346.28   26.73
   2  -6  -4  138.96   25.26
  -2   6   4  138.26   16.12
  -2   6   4  147.50   12.70
  -2   6   4  140.48   17.66
   2  -6  -3   16.13   10.42
  -2   6   3   14.63    4.87
   2  -6  -2  254.15   34.16
  -2   6   2  219.67   21.33
   2  -6  -1  341.00   39.80
  -2   6   1  340.00   24.74
  -2   6   0  178.23   17.13
   2  -6   0  183.61   29.51
   2  -6   1   85.88   17.69
   2  -6   2    8.87    4.33
   2  -6   3  138.45   25.54
  -2   5  11  158.38   22.70
  -2   5  10  226.03   25.65
  -2   5   9   -2.79    3.25
  -2   5   8   -1.16    1.71
   2  -5  -8    2.90    3.90
  -2   5   7  245.46   20.56
   2  -5  -7  210.30   19.87
  -2   5   7  258.70   24.61
  -2   5   6 1139.10   43.06
  -2   5   6 1159.76   49.32
  -2   5   5  187.23   18.89
  -2   5   5  187.35   16.13
   2  -5  -5  155.80   24.68
  -2   5   5  170.00   20.36
  -2   5   4   -4.97    5.18
  -2   5   4    1.12    1.54
   2  -5  -4    4.52    8.27
  -2   5   3  215.57   21.05
  -2   5   3  199.79   16.87
   2  -5  -3  220.48   27.95
  -2   5   2  117.32   14.43
   2  -5  -2  126.98   22.37
   2  -5  -1  516.25   45.11
  -2   5   1  476.98   28.31
  -2   5   0  409.03   25.03
   2  -5   0  438.20   40.65
   2  -5   0  338.26   22.98
   2  -5   1   62.19   16.35
  -2   5  -1   39.79    8.49
  -2   5  -2  290.81   21.24
   2  -5   2  349.21   36.15
   2  -5   3  195.14   26.77
   2  -5   5   90.33   19.16
   2  -5   6   17.74    6.64
  -2   4  11  209.39   26.69
   2  -4 -10   43.99    9.90
  -2   4  10   68.56   14.88
  -2   4   9    8.59    1.33
   2  -4  -9   12.84    2.71
  -2   4   8  140.39   18.14
   2  -4  -8  127.88   16.46
  -2   4   7 1124.26   45.78
   2  -4  -7  982.59   42.13
  -2   4   6  208.54   18.43
   2  -4  -6  171.51   15.65
  -2   4   6  176.32   21.51
  -2   4   5   68.89   10.37
  -2   4   5   63.26   11.72
   2  -4  -4   19.09    6.81
  -2   4   4   18.43    5.47
  -2   4   4   15.97    5.71
  -2   4   3  490.47   23.19
   2  -4  -3  453.90   36.58
  -2   4   3  487.37   29.09
  -2   4   2  683.17   32.75
   2  -4  -2  688.45   45.81
   2  -4  -1  711.04   46.95
  -2   4   1  597.12   29.64
  -2   4   0  326.25   21.42
   2  -4   0  319.57   18.71
   2  -4   1  285.88   18.82
  -2   4  -1  313.18   21.42
   2  -4   2 1064.29   55.89
  -2   4  -2  949.38   38.20
   2  -4   3   89.31   16.79
  -2   4  -3   88.53   12.38
  -2   4  -4  263.73   21.68
   2  -4   4  299.99   29.77
   2  -4   5   -2.32    3.37
  -2   4  -5   -1.83    2.38
   2  -4   6   79.58   16.91
   2  -4   7   83.90   17.77
  -2   3  11  151.87   22.10
   2  -3 -11  145.00   22.59
  -2   3  10   44.74   11.97
   2  -3 -10   57.91   14.50
   2  -3  -9   51.59   11.15
  -2   3   9   53.75   11.96
  -2   3   8  469.74   32.41
   2  -3  -8  424.12   30.58
   2  -3  -7  709.95   36.03
  -2   3   7  692.49   36.27
  -2   3   6  134.81   15.10
   2  -3  -6  118.87   12.95
   2  -3  -6  108.00   14.02
  -2   3   6  111.76   16.68
  -2   3   5    5.95    0.76
   2  -3  -5    4.30    1.25
  -2   3   5    4.32    3.39
   2  -3  -5    8.35    3.34
  -2   3   4  668.23   34.39
  -2   3   3 1628.63   38.89
  -2   3   3 1621.95   50.28
  -2   3   2  830.76   24.18
   2  -3  -2  805.28   43.24
   2  -3  -2  818.51   38.38
  -2   3   2  802.18   33.80
   2  -3  -1   20.41    7.64
   2  -3  -1   20.70    4.62
  -2   3   1   23.87    6.17
   2  -3  -1   27.13    6.22
  -2   3   1   27.98    6.05
   2  -3   0    3.19    6.13
  -2   3   0    4.77    1.54
  -2   3   0    5.98    3.52
   2  -3   0    4.13    2.76
   2  -3   0    2.96    1.11
  -2   3  -1 1238.19   40.81
  -2   3  -1 1132.25   41.17
   2  -3   1 1185.26   31.03
   2  -3   2  691.35   38.38
  -2   3  -2  589.72   27.84
  -2   3  -2  658.55   30.14
   2  -3   3  358.11   26.86
  -2   3  -3  271.91   18.24
  -2   3  -3  320.05   21.93
   2  -3   4   16.88    6.14
   2  -3   4   27.75    7.15
   2  -3   5   55.82   14.32
   2  -3   5   48.90    8.28
   2  -3   6  102.91   18.81
   2  -3   7  325.95   37.48
   2  -3   8   94.21   17.13
   2  -2 -12   96.40   20.48
   2  -2 -11   20.74    8.72
  -2   2  11   18.44    7.67
  -2   2  10   83.71   17.08
   2  -2 -10   79.92   14.73
   2  -2  -9  286.13   29.28
  -2   2   9  295.00   28.86
  -2   2   8  776.79   42.65
   2  -2  -8  764.15   43.06
  -2   2   7  318.10   24.93
   2  -2  -7  320.74   24.42
  -2   2   6   12.64    5.39
   2  -2  -6   13.36    5.21
  -2   2   5  984.66   38.19
   2  -2  -5  967.93   33.32
  -2   2   5  926.67   41.11
  -2   2   4 1005.70   39.70
   2  -2  -4 1045.68   28.50
   2  -2  -4  992.95   28.61
   2  -2  -3  728.37   18.38
  -2   2   3  783.82   32.86
   2  -2  -3  748.78   18.24
  -2   2   2  114.67   11.85
  -2   2   1  179.45   14.56
   2  -2  -1  173.39   10.42
  -2   2   1  183.51   16.13
  -2   2   1  148.06    7.05
   2  -2  -1  173.83   15.49
  -2   2   0  872.17   31.85
   2  -2   0  828.46   28.38
   2  -2   0  845.61   36.15
  -2   2   0  861.55   33.05
   2  -2   1 1851.33   50.38
   2  -2   1 1965.70   53.29
  -2   2  -1 1825.84   45.11
  -2   2  -1 1914.18   47.48
   2  -2   2  449.30   25.07
  -2   2  -2  384.65   18.77
   2  -2   3  260.54   18.51
  -2   2  -3  217.45   12.88
  -2   2  -3  242.89   20.19
  -2   2  -4   99.36   14.47
   2  -2   4   90.01   10.24
   2  -2   4   90.23   14.84
  -2   2  -5  211.33   22.19
   2  -2   5  212.71   24.90
   2  -2   5  173.54   13.05
  -2   2  -6  551.29   39.18
   2  -2   6  518.04   42.26
  -2   2  -7  280.80   30.92
   2  -2   7  265.33   31.09
  -2   2  -8   12.22    6.43
   2  -2   8    9.87   10.91
   2  -2   9   70.62   17.34
  -2   1  11   -0.26    8.46
   2  -1 -10  198.42   25.54
  -2   1  10  191.83   24.25
  -2   1   9  927.13   51.93
   2  -1  -9  922.93   52.72
  -2   1   8  224.90   23.73
   2  -1  -8  233.19   24.10
  -2   1   7   -0.65    3.63
   2  -1  -7    1.28    2.64
  -2   1   6  270.30   21.63
   2  -1  -6  258.19   20.80
  -2   1   6  238.47   19.64
  -2   1   5  541.27   29.13
   2  -1  -5  564.33   27.32
  -2   1   5  535.78   25.29
  -2   1   5  513.25   29.57
  -2   1   4 1292.49   43.41
   2  -1  -4 1280.04   33.89
  -2   1   4 1327.47   32.92
  -2   1   4 1275.26   40.71
  -2   1   3 1298.21   39.97
  -2   1   2   17.22    3.75
  -2   1   1  107.88   10.38
  -2   1   0 3437.21   39.99
  -2   1   0 3497.25   58.77
   2  -1   0 3391.89   44.46
   2  -1   0 3426.64   44.30
  -2   1   0 3390.63   59.66
  -2   1  -1 1737.25   37.27
   2  -1   1 1704.78   41.24
  -2   1  -1 1702.52   37.83
   2  -1   1 1667.42   41.81
  -2   1  -2  381.65   20.45
   2  -1   2  394.82   23.68
   2  -1   2  381.89   23.60
  -2   1  -2  366.24   14.78
  -2   1  -3   88.55   11.68
  -2   1  -3   74.65    5.13
  -2   1  -4  285.04   22.69
   2  -1   4  272.76   24.56
   2  -1   5  911.99   47.34
  -2   1  -5  919.82   44.99
  -2   1  -6  411.37   32.67
   2  -1   6  378.48   32.32
  -2   1  -7   29.39    8.80
   2  -1   7   24.81    8.82
  -2   1  -8   -1.74    1.75
  -2   1  -9  165.71   24.50
  -2   0  10  401.05   36.82
  -2   0   9  236.51   27.88
  -2   0   9  221.83   25.66
  -2   0   8   35.13    8.14
  -2   0   8   25.92    8.90
  -2   0   7   64.95   12.92
  -2   0   7   72.71   12.63
  -2   0   6  749.24   35.92
  -2   0   6  716.84   36.58
  -2   0   5  448.09   27.13
  -2   0   5  476.99   25.50
  -2   0   5  433.57   25.04
  -2   0   5  425.56   26.39
  -2   0   4 2674.88   59.83
  -2   0   4 2635.58   53.42
  -2   0   4 2640.58   59.70
  -2   0   3   26.27    4.46
   2   0  -3   27.04    6.13
  -2   0   3   27.01    5.46
  -2   0   2 1498.43   26.48
  -2   0   2 1463.44   38.04
  -2   0   1 1493.75   36.56
  -2   0   0 1470.20   23.71
  -2   0   0 1483.93   36.40
   2   0   1 1810.20   28.82
  -2   0  -1 1829.77   36.99
  -2   0  -1 1836.93   36.24
  -2   0  -2  121.62   11.29
  -2   0  -2  123.18   11.72
  -2   0  -3  784.84   32.15
  -2   0  -3  793.30   33.71
   2   0   3  756.45   36.06
  -2   0  -4  336.11   23.91
  -2   0  -5 1013.39   44.89
  -2   0  -6  145.01   18.89
  -2   0  -7   13.00    4.27
  -2   0  -8  262.13   27.90
  -2   0  -9  361.80   36.06
  -2   0 -10   55.71   16.19
  -2  -1  11  142.77   24.58
  -2  -1  10  232.11   30.42
  -2  -1   9   43.69   11.69
  -2  -1   9   42.54   11.93
  -2  -1   8   10.61    6.00
  -2  -1   8    6.62    3.67
  -2  -1   7  775.35   43.72
  -2  -1   7  772.07   43.83
  -2  -1   6  736.91   39.29
  -2  -1   5  488.42   29.32
  -2  -1   4  530.29   28.25
  -2  -1   4  518.62   27.72
   2   1  -4  515.10   28.93
  -2  -1   4  551.64   25.93
  -2  -1   3  187.88   14.72
  -2  -1   3  207.77   15.75
   2   1  -3  170.31   14.73
  -2  -1   3  185.70   13.80
  -2  -1   2 2083.09   41.81
   2   1  -2 2022.35   45.63
  -2  -1   1 2488.99   44.57
   2   1  -1 2422.25   46.31
  -2  -1   0  541.11   20.24
  -2  -1   0  535.17   20.79
   2   1   1   46.80    5.91
  -2  -1  -1   43.84    5.42
   2   1   2  466.25   21.04
  -2  -1  -3  181.72    8.05
  -2  -1  -3  201.61   16.08
  -2  -1  -4 2096.81   60.49
  -2  -1  -4 2149.34   57.24
  -2  -1  -5  360.22   26.32
  -2  -1  -6   -1.78    2.59
  -2  -1  -7  102.60   16.36
  -2  -1  -8  624.82   44.15
  -2  -1  -9  178.79   23.24
  -2  -1 -10    5.63    4.61
  -2  -2  10   75.76   16.68
  -2  -2   9   -3.46    6.97
  -2  -2   8  314.80   29.16
  -2  -2   8  376.28   35.76
  -2  -2   7  682.34   42.40
  -2  -2   6  149.89   18.98
  -2  -2   5  647.85   34.67
  -2  -2   4   23.31    7.16
   2   2  -4   22.77    5.32
  -2  -2   3 1256.38   33.36
  -2  -2   3 1204.73   40.04
   2   2  -3 1124.27   34.33
  -2  -2   2 1713.95   42.78
   2   2  -2 1694.11   37.70
  -2  -2   2 1774.42   35.53
  -2  -2   1  607.98   20.14
  -2  -2   0  720.64   28.62
  -2  -2   0  743.03   23.12
  -2  -2  -1  528.73   24.34
  -2  -2  -1  517.60   21.96
  -2  -2  -2  394.97   17.57
  -2  -2  -2  374.85   20.91
  -2  -2  -3 1409.23   32.75
   2   2   3 1462.29   47.22
  -2  -2  -4 1843.15   35.64
  -2  -2  -5  101.83    8.33
  -2  -2  -5   98.58   13.61
   2   2   5  101.71   10.26
  -2  -2  -6  115.54   15.47
   2   2   6  110.21   10.57
  -2  -2  -7  290.79   27.10
   2   2   7  252.96   16.25
  -2  -2  -8  455.73   36.60
  -2  -2  -9  123.25   19.77
  -2  -2 -10    1.57    4.56
  -2  -2 -11   12.85    7.22
  -2  -3   9   11.77    9.69
  -2  -3   9   16.87    8.05
  -2  -3   8  499.89   44.37
  -2  -3   6  107.30   16.21
  -2  -3   5   35.22   10.43
   2   3  -5   32.81    6.37
  -2  -3   4  227.13   19.89
   2   3  -4  190.42   13.77
   2   3  -3 1434.10   32.94
  -2  -3   3 1478.00   45.25
  -2  -3   2  967.49   33.65
  -2  -3   2  997.89   22.86
  -2  -3   1  330.01   17.32
  -2  -3   1  287.44   20.35
  -2  -3   1  324.69   12.43
  -2  -3   0   19.05    5.01
  -2  -3   0   13.39    4.40
  -2  -3   0   17.78    3.13
  -2  -3  -1 1442.12   46.64
  -2  -3  -1 1489.94   42.60
  -2  -3  -2  672.25   27.91
  -2  -3  -2  661.08   32.26
  -2  -3  -3 1151.09   35.75
   2   3   3 1219.44   45.30
   2   3   4   31.02    8.28
  -2  -3  -4   34.66    6.31
   2   3   5   55.13    9.49
  -2  -3  -5   49.86    8.07
   2   3   5   68.61   12.11
  -2  -3  -6  358.56   21.02
  -2  -3  -6  368.27   28.82
   2   3   6  377.31   26.79
  -2  -3  -7  475.87   24.15
  -2  -3  -7  469.87   34.05
   2   3   7  453.01   29.54
  -2  -3  -8  225.83   25.49
  -2  -3  -9   10.73    4.65
  -2  -3 -10   30.42   12.62
  -2  -3 -11  109.75   22.30
  -2  -4   8  213.34   25.86
  -2  -4   7  108.03   17.36
  -2  -4   6    6.58    3.15
  -2  -4   5   75.26   14.24
  -2  -4   4  399.46   27.43
  -2  -4   4  397.90   30.56
  -2  -4   3 1351.40   46.50
  -2  -4   3 1342.52   53.89
  -2  -4   2  315.38   19.79
  -2  -4   2  302.32   24.42
  -2  -4   1   39.91    7.28
  -2  -4   1   50.82    6.96
  -2  -4   0  957.96   39.77
  -2  -4   0  885.95   20.57
  -2  -4  -1  157.72   15.96
  -2  -4  -2  763.00   34.69
  -2  -4  -3  531.36   28.84
  -2  -4  -4   16.55    4.71
  -2  -4  -5  331.04   23.24
  -2  -4  -5  330.30   22.39
  -2  -4  -6  647.14   32.70
   2   4   6  825.03   46.85
  -2  -4  -7  236.98   20.30
   2   4   7  290.00   29.06
  -2  -4  -8   39.11    9.95
  -2  -4  -8   52.71    9.51
  -2  -4  -9   31.76   11.39
  -2  -4 -10   88.13   17.71
  -2  -4 -11  134.01   22.85
  -2  -5   7   38.59    9.86
  -2  -5   6   28.87    9.85
  -2  -5   5  272.58   27.89
  -2  -5   4  570.83   39.51
  -2  -5   3   88.11   14.17
  -2  -5   2    5.87    4.47
  -2  -5   1  100.48   14.60
  -2  -5   0  478.86   17.54
  -2  -5   0  536.49   33.06
  -2  -5  -1  467.56   30.95
  -2  -5  -1  423.69   16.74
  -2  -5  -2  559.95   33.80
  -2  -5  -3    9.05    3.19
  -2  -5  -3   10.31    4.32
   2   5   3   15.34    4.99
  -2  -5  -4  243.89   15.91
  -2  -5  -4  255.42   23.29
  -2  -5  -5  904.23   35.97
  -2  -5  -5 1009.57   45.00
   2   5   6  162.07   21.66
  -2  -5  -6  122.80   16.26
  -2  -5  -7   70.03   12.42
   2   5   7   93.92   17.21
   2   5   8   -3.36    7.71
  -2  -5  -8    2.63    2.38
  -2  -5  -9  110.83   19.70
  -2  -5  -9  109.92   16.19
   2   5   9  154.13   25.72
   2   5  10  190.10   29.12
  -2  -5 -10  131.35   22.97
   2   5  11   88.13   21.02
  -2  -5 -11   85.21   18.99
  -2  -6   6  107.49   18.94
  -2  -6   5  103.71   18.64
  -2  -6   4  207.65   25.21
  -2  -6   3   14.11    5.33
  -2  -6   2   -2.34    2.82
  -2  -6   1  295.49   28.23
  -2  -6   0  637.23   40.47
  -2  -6  -1  383.26   31.48
  -2  -6  -2   21.54    7.83
  -2  -6  -3   23.10    6.15
  -2  -6  -3   16.61    3.35
  -2  -6  -4  398.11   32.30
   2   6   4  505.88   37.73
  -2  -6  -5  447.19   33.00
   2   6   5  603.59   42.25
  -2  -6  -6   36.11    9.87
   2   6   6   57.56   13.74
   2   6   7    4.67    6.60
  -2  -6  -7    5.46    1.43
   2   6   8   63.48   15.53
  -2  -6  -8   45.52   11.84
   2   6   9  142.53   24.48
  -2  -6  -9  107.99   17.53
  -2  -6 -10  117.36   21.93
  -2  -6 -10  107.71   18.39
  -2  -7   4   43.53   12.55
  -2  -7   3   20.97    5.71
  -2  -7   2  191.19   25.28
  -2  -7   1  255.49   28.50
  -2  -7   0  193.40   25.66
  -2  -7  -1    3.87    2.02
  -2  -7  -2    7.95    2.23
  -2  -7  -3  144.72   21.96
  -2  -7  -4  529.84   40.84
   2   7   5   53.11   11.83
  -2  -7  -5   56.86   12.88
   2   7   6   39.44   12.24
  -2  -7  -6   23.20   11.59
   2   7   7   48.07   12.90
  -2  -7  -7   37.56   10.94
  -2  -7  -8  119.39   20.86
   2   7   8  151.81   25.36
  -2  -7  -9   90.61   17.76
   2   7   9  122.48   24.58
  -2  -7 -10   59.66   14.13
  -2  -7 -10   58.96   15.92
  -2  -8   1  149.70   24.45
  -2  -8   0   68.61   15.51
  -2  -8  -1   31.02   11.48
  -2  -8  -2   39.87   12.97
  -2  -8  -3  357.44   37.02
  -2  -8  -4  119.57   22.23
  -2  -8  -5    2.07    3.99
  -2  -8  -6    7.28    5.91
   2   8   6    5.36    7.96
   2   8   7  142.70   23.07
  -2  -8  -7   93.61   18.71
   2   8   8  129.87   24.40
  -2  -8  -8   99.58   21.89
  -2  -8  -9   22.81   10.22
  -2  -8 -10   10.24    6.68
  -3   7   5    3.33    2.91
  -3   7   4   16.80    5.46
  -3   7   3  155.38   20.37
   3  -7  -3  153.68   29.99
   3  -7  -2  149.38   28.54
   3  -7  -1   45.73   16.02
   3  -7   0    7.43    9.06
  -3   6   9  200.27   22.95
  -3   6   8   79.97   13.83
  -3   6   7  157.95   17.58
  -3   6   6   66.63   10.69
  -3   6   6   64.81   15.20
  -3   6   5   30.33    7.59
  -3   6   5   21.25    7.93
  -3   6   4  251.19   26.94
   3  -6  -3  287.24   39.09
  -3   6   3  251.30   26.13
   3  -6  -2  122.89   25.23
  -3   6   2  115.19   16.47
   3  -6  -1   75.98   22.50
  -3   6   1   83.77   13.12
   3  -6   0   74.08   19.50
  -3   6   0   85.19   13.50
   3  -6   1  180.34   30.75
   3  -6   3   41.45   16.17
   3  -6   4    0.06    7.43
  -3   5  10   67.86   16.17
  -3   5   9  257.36   25.39
  -3   5   8  219.12   21.44
  -3   5   7   43.96   10.82
  -3   5   7   59.91   11.33
  -3   5   7   46.72   11.14
  -3   5   6    2.12    4.18
  -3   5   6    2.60    4.17
  -3   5   6   -1.98    2.35
  -3   5   5   62.69   10.24
  -3   5   5   67.02   13.37
  -3   5   4 1002.98   35.82
  -3   5   4 1037.74   50.78
  -3   5   3  287.32   25.90
  -3   5   2   54.66   11.31
   3  -5  -2   47.45   14.23
   3  -5  -1   29.84   11.52
  -3   5   1   28.81    6.46
   3  -5   0  385.27   40.26
  -3   5   0  369.11   27.50
   3  -5   1  275.84   34.10
  -3   5  -1  291.06   24.75
   3  -5   2   52.70   14.89
  -3   5  -2   52.74   11.50
   3  -5   3   34.74   11.70
   3  -5   4   -4.57   10.15
   3  -5   5  118.01   23.13
  -3   4  10  229.33   25.45
  -3   4   9  264.37   25.85
  -3   4   8  193.90   21.36
  -3   4   7   28.34    7.86
  -3   4   7   18.44    6.82
  -3   4   6   18.23    6.37
  -3   4   6   22.75    8.63
   3  -4  -5  663.12   23.10
  -3   4   5  812.45   45.16
  -3   4   4 1101.15   50.44
  -3   4   4 1144.49   36.46
  -3   4   3   27.76    4.76
   3  -4  -3   16.47    4.18
  -3   4   3   36.91    9.83
   3  -4  -2   64.47    9.45
  -3   4   2   72.79   12.63
   3  -4  -1  243.34   20.86
  -3   4   1  323.56   24.91
   3  -4   0  227.45   27.47
  -3   4   0  209.85   19.94
   3  -4   1  398.49   35.42
  -3   4  -1  377.87   27.50
   3  -4   2  145.62   20.53
   3  -4   2  151.58   21.18
  -3   4  -2  144.57   16.57
   3  -4   3    5.07    3.55
   3  -4   3    0.97    2.92
  -3   4  -3    5.04    5.25
   3  -4   4  332.77   36.38
  -3   4  -4  359.63   28.93
   3  -4   5  112.82   21.27
  -3   4  -5  118.64   17.49
   3  -4   6   98.02   19.26
  -3   3  10  284.54   31.13
  -3   3   9  249.17   26.22
  -3   3   8    6.13    2.22
  -3   3   7  104.78   14.58
   3  -3  -7  104.56   12.09
  -3   3   7   93.70   16.65
  -3   3   6  370.61   27.26
   3  -3  -6  342.96   19.07
  -3   3   6  341.29   29.39
   3  -3  -5 1080.84   26.32
  -3   3   5 1422.04   57.46
  -3   3   4   67.03   12.23
  -3   3   3    5.01    1.49
  -3   3   3   12.23    5.03
   3  -3  -2  156.40   10.98
  -3   3   2  191.23   18.67
   3  -3  -1  732.98   30.01
  -3   3   1  788.16   37.36
   3  -3   0  713.53   33.83
   3  -3   0  666.21   33.51
  -3   3   0  780.53   37.06
  -3   3  -1  163.57   17.02
   3  -3   2   17.73    3.60
   3  -3   2   20.14    8.33
  -3   3  -2   16.29    4.68
  -3   3  -2   21.12    7.30
   3  -3   3  479.16   37.24
  -3   3  -3  479.13   31.39
   3  -3   4  503.45   40.42
  -3   3  -4  495.84   33.03
   3  -3   5   62.93   15.23
   3  -3   6   91.86   19.26
   3  -3   7   24.08    9.06
  -3   2  10  274.30   30.23
  -3   2   9   50.15   10.96
   3  -2  -8  315.86   26.55
  -3   2   8  323.43   28.00
   3  -2  -7  126.49   14.99
  -3   2   7  124.45   16.69
  -3   2   7   97.79   16.42
  -3   2   6  770.56   38.80
  -3   2   6  785.61   43.36
  -3   2   5  789.72   40.49
  -3   2   4   64.05   11.53
  -3   2   3  287.81   22.34
  -3   2   2 1309.40   46.55
  -3   2   1 1221.56   44.45
   3  -2   0  266.71   16.84
  -3   2   0  243.65   19.64
   3  -2   0  246.81   16.58
  -3   2   0  258.86   20.74
   3  -2   1    2.62    0.52
  -3   2  -1    4.38    2.62
   3  -2   1    1.82    0.57
  -3   2  -1    2.47    0.73
  -3   2  -2   97.16   11.55
  -3   2  -2   79.03    9.67
  -3   2  -2   85.99   12.32
  -3   2  -3  994.66   42.54
   3  -2   3 1049.33   50.22
  -3   2  -4  365.77   28.23
   3  -2   4  371.48   32.18
  -3   2  -5  128.30   18.47
   3  -2   5  114.09   19.28
   3  -2   6   16.47    9.57
  -3   2  -6   12.82    4.99
  -3   2  -7   87.92   17.55
  -3   2  -8  121.41   21.90
  -3   1  10   95.66   18.76
  -3   1   9   19.90    4.61
  -3   1   8  209.34   22.36
  -3   1   7  572.40   36.79
  -3   1   6  815.62   40.82
  -3   1   6  753.50   32.69
  -3   1   6  810.61   42.73
  -3   1   5  184.82   18.12
  -3   1   5  170.91   18.59
  -3   1   4  145.53   15.81
  -3   1   3 2190.05   58.83
  -3   1   2  713.52   32.98
  -3   1   1  303.16   20.98
  -3   1   0   12.70    3.45
  -3   1   0   12.91    2.83
  -3   1   0   16.69    4.88
  -3   1  -1    5.09    1.90
  -3   1  -1    2.97    0.92
  -3   1  -1    3.69    1.34
  -3   1  -2 1319.97   40.52
  -3   1  -2 1293.14   35.13
   3  -1   2 1297.95   48.28
  -3   1  -3  947.13   38.66
  -3   1  -3  828.14   22.65
  -3   1  -4  173.36   18.39
  -3   1  -5    1.22    4.13
  -3   1  -6  153.81   20.83
  -3   1  -7  226.72   26.11
  -3   1  -8  232.57   28.61
  -3   1  -9   53.94   13.23
  -3   0  10   -6.05   10.68
  -3   0   9  134.96   19.15
  -3   0   9  115.62   17.72
  -3   0   8  585.58   38.94
  -3   0   8  522.87   35.17
  -3   0   7 1059.85   49.71
  -3   0   7 1089.68   46.79
  -3   0   6   24.81    7.12
  -3   0   6   22.46    6.28
  -3   0   6   20.59    6.13
  -3   0   6   17.30    5.94
  -3   0   5   89.77   10.81
  -3   0   5   77.76   11.03
  -3   0   5   82.01   10.40
  -3   0   5   89.49   13.33
  -3   0   4  693.62   25.85
  -3   0   4  709.50   34.42
  -3   0   3  602.28   20.34
  -3   0   3  595.98   29.64
  -3   0   2 1282.44   42.34
  -3   0   1  357.74   21.90
  -3   0   0  244.46   11.90
  -3   0   0  227.82   17.77
  -3   0  -1  410.99   20.16
  -3   0  -1  406.75   19.38
  -3   0  -1  415.63   24.58
  -3   0  -2 1707.63   47.70
  -3   0  -2 1724.22   45.95
   3   0   2 1698.61   37.88
  -3   0  -3  729.15   34.93
  -3   0  -3  736.87   21.01
  -3   0  -3  778.89   34.50
  -3   0  -4   24.15    6.89
  -3   0  -5  297.65   25.37
  -3   0  -6  200.45   22.69
  -3   0  -7  411.40   35.25
  -3   0  -8  104.46   18.76
  -3   0  -9    8.58    5.51
  -3  -1  11   -4.39    1.34
  -3  -1  10   71.59   17.07
  -3  -1  10   68.63   15.71
  -3  -1   9  366.34   36.09
  -3  -1   9  346.40   33.71
  -3  -1   8  520.28   39.80
  -3  -1   8  509.33   38.21
  -3  -1   7   63.50   12.43
  -3  -1   7   74.13   13.66
  -3  -1   6    9.19    2.94
  -3  -1   5  327.15   25.08
  -3  -1   5  322.85   24.05
  -3  -1   4 1227.85   46.02
  -3  -1   4 1158.25   41.09
  -3  -1   4 1238.32   43.58
  -3  -1   3  547.73   25.33
  -3  -1   3  541.17   27.61
  -3  -1   2 1150.69   38.42
  -3  -1   1  200.07   15.62
  -3  -1   0 1041.17   32.20
  -3  -1   0 1088.19   37.25
  -3  -1  -1 1190.70   33.81
   3   1   2  793.58   29.66
  -3  -1  -3  361.54   23.40
   3   1   3  359.42   22.77
  -3  -1  -4  423.11   27.51
  -3  -1  -4  354.30   11.18
  -3  -1  -5  411.77   29.72
  -3  -1  -6  243.19   24.57
  -3  -1  -7  332.97   31.13
  -3  -1  -8   24.65    9.32
  -3  -1  -9   14.63    7.60
  -3  -1 -10  200.79   29.57
  -3  -2  10   33.56   12.24
  -3  -2   9  319.00   33.03
  -3  -2   9  311.51   34.34
  -3  -2   8  261.87   28.95
  -3  -2   8  279.07   30.78
  -3  -2   7   13.11    9.46
  -3  -2   6   53.82   10.29
  -3  -2   5 1450.40   54.80
  -3  -2   4  538.20   30.06
  -3  -2   4  515.67   27.51
  -3  -2   3  283.41   18.88
   3   2  -3  261.08   20.02
   3   2  -2   21.90    5.78
  -3  -2   2   21.40    5.21
  -3  -2   1  533.42   24.90
  -3  -2   0 1352.06   43.59
  -3  -2   0 1357.79   40.74
  -3  -2  -1  913.11   35.44
  -3  -2  -2  267.60   19.41
  -3  -2  -3   41.86    5.78
  -3  -2  -4  463.88   18.48
  -3  -2  -5  260.66   12.70
  -3  -2  -5  267.26   23.89
  -3  -2  -6  590.36   16.69
  -3  -2  -6  691.56   41.29
  -3  -2  -7   25.04    8.01
  -3  -2  -8   17.07    5.56
  -3  -2  -9  121.16   20.79
  -3  -2 -10  288.55   33.51
  -3  -3   9  298.82   35.30
  -3  -3   8   33.80   11.39
  -3  -3   7   37.11   11.25
  -3  -3   6  941.46   48.46
  -3  -3   5  440.44   30.76
  -3  -3   4   53.45   10.28
   3   3  -4   51.65    8.52
  -3  -3   3  309.50   22.45
  -3  -3   3  298.95   17.94
  -3  -3   2  261.47   16.06
  -3  -3   1 1315.48   36.48
  -3  -3   0  854.62   31.06
  -3  -3  -1  255.64   19.59
  -3  -3  -2  112.51   12.13
  -3  -3  -3  740.78   29.43
   3   3   4  491.42   32.99
  -3  -3  -4  400.40   21.26
  -3  -3  -5  608.81   25.46
   3   3   5  764.01   43.82
  -3  -3  -6  195.89   14.23
  -3  -3  -6  226.26   24.10
   3   3   6  264.35   27.02
  -3  -3  -7   73.22   13.87
  -3  -3  -7   71.00    8.11
   3   3   7   80.05   15.81
  -3  -3  -8   88.20   17.65
  -3  -3  -9  171.58   24.71
  -3  -3 -10  148.51   25.74
  -3  -4   9   -9.92    9.06
  -3  -4   8   25.11   11.23
  -3  -4   7   90.24   19.03
  -3  -4   7   80.86   14.43
  -3  -4   6  671.16   42.42
  -3  -4   6  688.41   46.48
  -3  -4   5   87.37   14.85
  -3  -4   5   99.03   16.51
  -3  -4   4   17.08    6.19
  -3  -4   4   12.78    5.29
  -3  -4   3   10.35    4.20
  -3  -4   3    6.90    4.35
  -3  -4   2  388.97   24.15
  -3  -4   2  384.53   28.69
  -3  -4   2  398.10   16.86
  -3  -4   1 1336.24   51.16
  -3  -4   1 1422.20   33.28
  -3  -4   0  374.33   26.14
  -3  -4   0  379.03   19.11
  -3  -4  -1   39.58    8.81
  -3  -4  -2  243.21   20.24
  -3  -4  -3  819.15   34.92
   3   4   3  973.44   45.95
   3   4   4  455.29   32.88
  -3  -4  -4  364.47   24.39
   3   4   5  291.84   27.98
  -3  -4  -5  243.49   19.50
   3   4   6    3.68    3.65
  -3  -4  -6    7.44    3.76
   3   4   7   76.80   15.38
  -3  -4  -7   52.63    9.85
  -3  -4  -8  239.27   18.66
  -3  -4  -8  235.02   26.94
  -3  -4  -9  196.81   26.39
   3   4   9  261.37   32.78
   3   4  10   53.76   13.79
  -3  -4 -10   31.85   13.07
  -3  -5   7  254.39   29.86
  -3  -5   6  182.24   25.13
  -3  -5   5   37.19    9.49
  -3  -5   5   25.39    7.62
  -3  -5   4   10.64    6.97
  -3  -5   4   17.65    4.23
  -3  -5   3  162.37   17.27
  -3  -5   3  162.47   20.83
  -3  -5   2  514.81   27.35
  -3  -5   2  512.24   35.79
  -3  -5   1  770.31   30.43
  -3  -5   1  711.73   40.09
  -3  -5   0   33.09    8.47
  -3  -5   0   23.84    3.35
  -3  -5   0   25.50    4.00
  -3  -5  -1  176.48   19.50
  -3  -5  -2  632.39   35.45
  -3  -5  -3  117.25   15.41
   3   5   3  161.00   20.46
  -3  -5  -4  407.96   28.27
   3   5   4  438.09   34.25
   3   5   5   64.92   12.18
  -3  -5  -5   50.45   10.60
   3   5   6  117.53   20.42
  -3  -5  -6   79.17   12.16
   3   5   7  381.00   37.13
  -3  -5  -7  284.30   23.77
  -3  -5  -8  188.05   19.52
   3   5   8  250.41   32.35
  -3  -5  -9   57.29   14.03
   3   5   9   49.98   14.38
  -3  -5 -10    3.14    4.90
   3   5  10    7.85    9.03
  -3  -6   5    4.62    7.97
  -3  -6   4  125.79   22.06
  -3  -6   3  246.05   27.83
  -3  -6   2  425.13   35.44
  -3  -6   1   20.63    8.05
  -3  -6   0    8.16    5.32
  -3  -6  -1  179.29   21.82
  -3  -6  -2  359.90   30.20
  -3  -6  -3  258.39   26.06
   3   6   4   80.18   15.95
  -3  -6  -4   71.70   14.25
   3   6   5   22.85    5.60
  -3  -6  -5   27.16    9.64
   3   6   6  338.55   34.85
  -3  -6  -6  247.57   24.21
   3   6   7  493.02   45.75
  -3  -6  -7  373.70   30.14
   3   6   8   18.16    6.58
  -3  -6  -8   10.44    4.29
   3   6   9    8.78   12.40
  -3  -6  -9   -0.16    3.82
  -3  -6 -10   14.40    8.84
   3   6  10   19.64    7.84
  -3  -7   3   63.22   15.12
  -3  -7   2  145.19   22.53
  -3  -7   1    6.94    7.22
  -3  -7   0  112.16   19.84
  -3  -7  -1  297.84   30.11
  -3  -7  -2  317.55   31.05
  -3  -7  -3   68.73   14.20
  -3  -7  -4   52.44   13.00
  -3  -7  -5   24.83    9.52
   3   7   5   40.17   12.12
  -3  -7  -6  290.75   29.72
   3   7   6  358.10   37.95
   3   7   7  173.17   27.55
  -3  -7  -7  115.22   18.73
   3   7   8   -5.28    9.98
  -3  -7  -8   -7.20    6.37
   3   7   9    1.89    4.92
  -3  -7  -9    0.83    4.56
  -3  -8   0  214.44   29.60
  -3  -8  -1  112.16   19.72
  -3  -8  -2   48.18   12.09
  -3  -8  -3   15.04    7.65
  -3  -8  -4   10.47    1.97
  -3  -8  -5  130.98   20.69
  -3  -8  -6  210.00   27.71
   3   8   6  304.38   36.77
   3   8   7    2.70    7.57
  -3  -8  -7    5.72    5.82
  -3  -8  -8    0.86    1.18
  -3  -8  -9   37.12   12.65
  -4   7   5  162.41   24.85
  -4   7   4   88.07   17.39
  -4   6   7   90.30   19.61
  -4   6   6  283.28   32.47
  -4   6   5  173.96   24.54
  -4   6   4   70.35   14.90
  -4   6   3   46.25   12.27
  -4   6   2   45.86   10.39
  -4   6   1  169.39   22.42
  -4   5   9   10.10    5.54
  -4   5   8  101.98   16.57
  -4   5   8   77.82   15.88
  -4   5   7  401.34   31.83
  -4   5   7  345.04   35.55
  -4   5   6  120.27   15.37
  -4   5   6  121.79   20.68
  -4   5   5  156.53   23.32
  -4   5   4    4.28    6.39
  -4   5   3  102.56   17.09
  -4   5   2  338.63   30.48
  -4   5   1  172.89   21.59
  -4   5   0   74.24   13.82
  -4   5  -1    9.38    5.76
  -4   5  -2  192.33   23.47
  -4   4   9   47.31   11.03
  -4   4   8  238.26   25.67
  -4   4   8  205.03   27.89
  -4   4   7  349.75   29.54
  -4   4   7  358.59   35.71
  -4   4   6  262.28   24.64
  -4   4   6  246.69   27.93
  -4   4   5    0.55    4.96
  -4   4   4   57.70   12.45
  -4   4   3  220.94   23.83
  -4   4   2 1055.08   51.38
  -4   4   1  105.48   16.65
  -4   4   0    4.62    4.18
   4  -4   1  136.28   18.91
  -4   4  -1  134.51   18.65
   4  -4   2  365.26   35.74
  -4   4  -2  378.74   31.97
   4  -4   3  131.58   21.79
  -4   4  -3  127.67   19.14
   4  -4   4   12.73   11.46
  -4   4  -4    4.76    6.26
   4  -4   5    3.97    7.21
  -4   4  -5   -1.93    6.54
   4  -4   6   11.67   10.29
  -4   3   9  234.63   26.83
  -4   3   8  446.10   35.49
  -4   3   8  387.62   36.70
  -4   3   7  304.12   27.04
  -4   3   7  277.09   29.92
  -4   3   6   69.13   12.52
  -4   3   6   66.66   14.98
  -4   3   5  211.50   23.75
  -4   3   4  111.39   15.78
  -4   3   3  771.43   19.73
  -4   3   3 1127.13   51.51
  -4   3   2  503.98   33.93
  -4   3   1    5.69    4.93
  -4   3   0  153.75   18.62
  -4   3  -1  331.23   28.27
   4  -3   2  260.57   27.77
  -4   3  -2  280.67   27.29
   4  -3   3  118.56   19.06
  -4   3  -3  130.33   18.65
   4  -3   4   11.16    4.60
  -4   3  -4    9.97    4.65
  -4   3  -5   68.65   14.81
  -4   3  -6  225.23   27.19
  -4   3  -7   44.05   12.05
  -4   2   9  468.72   37.65
  -4   2   8  402.94   33.92
  -4   2   8  334.14   33.53
  -4   2   7  128.11   16.95
  -4   2   7  131.26   21.25
  -4   2   6  181.71   20.69
  -4   2   6  161.03   21.69
  -4   2   5  181.94   21.18
  -4   2   4  599.06   37.17
  -4   2   3 1125.42   50.02
  -4   2   2    0.90    2.44
  -4   2   1   27.53    7.07
  -4   2   0  353.68   27.89
  -4   2  -1  923.87   46.46
  -4   2  -2  314.91   21.29
  -4   2  -2  401.39   31.12
  -4   2  -3   -2.43    1.81
  -4   2  -3    2.26    6.66
  -4   2  -4   34.52   10.70
  -4   2  -4   23.56    7.82
  -4   2  -5  382.46   32.88
  -4   2  -6  170.30   23.24
  -4   2  -7   29.74   10.61
  -4   1   9  237.45   27.25
  -4   1   8  262.28   27.09
  -4   1   7   15.06    7.13
  -4   1   7    4.71    1.42
  -4   1   6  724.49   41.27
  -4   1   6  701.15   43.67
  -4   1   5  149.22   18.59
  -4   1   4  848.38   43.49
  -4   1   3  508.06   32.26
  -4   1   2    8.52    5.91
  -4   1   1  979.69   43.88
  -4   1   1  736.31   16.51
  -4   1   0 1040.02   26.74
  -4   1   0 1050.37   47.39
  -4   1  -1  549.83   24.46
  -4   1  -1  533.40   29.67
  -4   1  -1  577.18   35.41
  -4   1  -2   17.09    5.52
  -4   1  -2   15.69    4.34
  -4   1  -2   14.49    2.45
   4  -1   3   55.16    6.99
  -4   1  -3   51.68    9.98
  -4   1  -3   48.36    6.62
  -4   1  -4  191.94   20.67
  -4   1  -5  465.26   35.05
  -4   1  -6  110.64   19.24
  -4   1  -7   15.05    5.23
  -4   1  -8   57.36   15.07
  -4   0   9   67.22   13.90
  -4   0   8   16.85    8.47
  -4   0   7  221.28   24.02
  -4   0   7  195.90   18.65
  -4   0   7  197.16   23.23
  -4   0   6  403.57   30.44
  -4   0   6  410.34   24.35
  -4   0   6  412.38   32.64
  -4   0   5  787.27   29.66
  -4   0   5  702.75   28.56
  -4   0   5  788.17   42.35
  -4   0   4  430.10   19.26
  -4   0   4  469.89   31.35
  -4   0   3    9.34    2.77
  -4   0   3   11.59    6.11
  -4   0   2  660.31   35.24
  -4   0   1 1686.26   39.13
  -4   0   1 1723.41   57.54
  -4   0   0  333.50   17.36
  -4   0   0  366.62   17.22
  -4   0   0  356.82   16.06
  -4   0  -1   95.79   10.84
  -4   0  -1   87.06   10.13
  -4   0  -1   98.61   13.85
  -4   0  -2   13.99    6.62
  -4   0  -2   11.44    2.75
  -4   0  -2   18.87    5.41
   4   0   3  110.10   11.20
  -4   0  -3  104.95   10.11
  -4   0  -3  105.22   13.50
  -4   0  -4  866.49   43.30
  -4   0  -4  624.68   17.92
  -4   0  -5  336.09   28.68
  -4   0  -6   26.12    9.42
  -4   0  -7   22.28    9.51
  -4   0  -8  110.39   20.80
  -4   0  -9  130.13   24.71
  -4  -1   9   21.01    2.35
  -4  -1   8   33.99    9.51
  -4  -1   8   29.64    7.63
  -4  -1   7  434.51   34.87
  -4  -1   7  405.35   31.15
  -4  -1   6  770.46   43.29
  -4  -1   6  762.59   42.84
  -4  -1   5  585.02   36.20
  -4  -1   5  572.72   35.13
  -4  -1   4   21.93    5.65
  -4  -1   4   29.33    8.36
  -4  -1   3  191.50   19.05
  -4  -1   2 1096.99   44.10
  -4  -1   1  483.56   26.25
  -4  -1   1  544.94   31.40
  -4  -1   0  550.23   25.94
  -4  -1   0  591.05   33.65
  -4  -1  -1    0.60    1.72
  -4  -1  -1    1.09    3.24
  -4  -1  -2  350.90   23.03
   4   1   2  366.62   22.23
  -4  -1  -3  452.92   28.79
  -4  -1  -4  679.39   38.52
  -4  -1  -4  641.71   19.87
  -4  -1  -5  205.89   22.89
   4   1   5  227.43   24.19
  -4  -1  -6   42.93    9.90
  -4  -1  -7  215.77   26.62
  -4  -1  -8   77.37   16.42
  -4  -1  -9  139.53   24.70
  -4  -2   9   14.12    8.23
  -4  -2   8  255.02   28.45
  -4  -2   8  215.77   25.55
  -4  -2   7  519.70   39.06
  -4  -2   6  346.88   30.70
  -4  -2   6  313.13   26.69
  -4  -2   5    6.61    5.28
  -4  -2   5    2.93    3.10
  -4  -2   4    1.13    2.84
  -4  -2   4    3.87    2.41
  -4  -2   3  716.81   35.24
  -4  -2   2 1368.07   48.02
  -4  -2   1  285.62   22.10
  -4  -2   0  105.43   13.31
  -4  -2  -1  362.38   25.94
  -4  -2  -1  348.48   23.86
  -4  -2  -3  582.01   25.76
   4   2   4  276.39   25.48
  -4  -2  -4  227.01   22.97
  -4  -2  -4  227.45   14.39
  -4  -2  -5   17.14    6.21
   4   2   5   22.43    7.00
  -4  -2  -5   15.57    3.36
  -4  -2  -6  420.05   34.65
   4   2   6  500.72   39.78
  -4  -2  -7  171.63   23.41
   4   2   7  209.22   26.57
  -4  -2  -8   99.18   18.56
  -4  -2  -9   50.52   14.60
  -4  -3   9   89.06   17.37
  -4  -3   8   60.28   13.02
  -4  -3   7  420.91   35.08
  -4  -3   6  140.40   19.37
  -4  -3   5   36.44    7.61
  -4  -3   5   29.69    6.97
  -4  -3   4  304.60   25.96
  -4  -3   4  290.66   22.42
  -4  -3   3 1379.79   46.38
  -4  -3   2  229.74   18.68
  -4  -3   1   64.02   10.09
  -4  -3   0  115.14   13.74
  -4  -3  -1  599.35   33.11
  -4  -3  -2  706.61   33.17
   4   3   3  272.96   24.17
  -4  -3  -3  235.87   18.30
   4   3   4   64.17   11.58
  -4  -3  -4   54.33    8.06
   4   3   5  228.33   25.64
  -4  -3  -5  172.23   14.16
  -4  -3  -6  288.01   17.04
  -4  -3  -6  324.77   29.76
   4   3   7  191.55   26.06
  -4  -3  -7  120.78   19.58
  -4  -3  -8  121.49   20.77
   4   3   8  160.14   26.09
  -4  -3  -9    4.14    5.15
   4   3   9   15.69    9.16
   4   3  10   35.90   13.94
  -4  -3 -10   29.10   13.12
  -4  -4   8  148.50   22.66
  -4  -4   7  238.94   29.09
  -4  -4   6   13.99    8.41
  -4  -4   5  161.23   19.28
  -4  -4   4  990.64   47.47
  -4  -4   3  176.66   19.08
  -4  -4   3  196.66   16.07
  -4  -4   2    8.97    4.16
  -4  -4   1   14.09    4.20
  -4  -4   0  479.85   31.69
  -4  -4   0  479.82   27.34
  -4  -4  -1  818.64   39.88
  -4  -4  -1  837.04   38.13
  -4  -4  -2  239.07   20.85
   4   4   3   77.28   14.87
  -4  -4  -3   63.65   11.04
   4   4   4    7.65    6.01
  -4  -4  -4    5.53    3.27
   4   4   5  741.99   48.09
  -4  -4  -5  620.71   30.98
   4   4   6  316.38   33.11
  -4  -4  -6  225.20   17.89
  -4  -4  -7  106.94   18.51
  -4  -4  -7  107.70   11.76
  -4  -4  -8    7.85    4.82
   4   4   8   -6.29    7.75
   4   4   9   52.35   14.22
  -4  -4  -9   30.85   12.32
   4   4  10   61.73   20.03
  -4  -5   6   50.27   13.83
  -4  -5   5  179.66   25.77
  -4  -5   5  182.16   21.53
  -4  -5   4  498.50   34.15
  -4  -5   4  523.71   41.51
  -4  -5   3   30.36    8.61
  -4  -5   3   28.12    6.73
  -4  -5   2    0.62    5.44
  -4  -5   2    4.69    4.29
  -4  -5   1   97.08   15.15
  -4  -5   1  102.54   12.97
  -4  -5   1  113.30   10.79
  -4  -5   0  416.10   31.54
  -4  -5   0  386.03   22.28
  -4  -5  -1  657.58   38.31
  -4  -5  -1  624.17   31.68
  -4  -5  -2   46.37   10.77
  -4  -5  -3    9.19    5.58
  -4  -5  -4  305.57   25.41
   4   5   4  365.66   34.43
   4   5   5  473.93   41.02
  -4  -5  -5  402.46   28.27
   4   5   6  168.85   25.66
  -4  -5  -6  126.16   15.57
  -4  -5  -7   14.10    5.18
   4   5   7   15.60    9.90
  -4  -5  -8   28.72   11.17
   4   5   8   26.00    9.79
  -4  -5  -9   41.34   13.64
   4   5   9   65.36   19.06
   4   5  10  140.84   28.83
  -4  -6   4   58.01   12.05
  -4  -6   3    4.47    7.85
  -4  -6   2   83.98   16.69
  -4  -6   1  225.99   25.96
  -4  -6   0  395.55   33.25
  -4  -6  -1  185.05   21.90
  -4  -6  -2    5.51    3.06
  -4  -6  -3  229.99   24.05
  -4  -6  -4  251.72   24.66
   4   6   5  111.69   21.01
  -4  -6  -5   75.38   13.88
   4   6   6  132.03   22.97
  -4  -6  -6   86.15   14.21
   4   6   7   16.62   11.25
  -4  -6  -7    5.67    4.08
   4   6   8  108.84   22.20
  -4  -6  -9  100.80   22.00
   4   6   9  141.08   26.52
  -4  -7   2  133.05   23.02
  -4  -7   1  151.34   23.63
  -4  -7   0  162.09   22.42
  -4  -7  -1    2.07    5.31
  -4  -7  -2   43.36   12.34
  -4  -7  -3  136.89   21.03
  -4  -7  -4  194.71   24.29
  -4  -7  -5   67.60   15.33
   4   7   6    5.42    5.29
  -4  -7  -6    0.26    4.46
   4   7   7   56.96   14.64
  -4  -7  -7   27.53    9.37
   4   7   8  138.46   25.45
  -4  -7  -8  115.33   19.21
  -4  -8  -2  140.16   23.58
  -4  -8  -3  144.70   24.07
  -4  -8  -4   59.88   16.07
  -4  -8  -5   -6.07    8.12
  -4  -8  -6   44.67   13.33
  -4  -8  -7   18.03    7.78
  -4  -8  -8   90.51   17.70
  -5   6   3  202.90   27.32
  -5   6   2   58.29   13.14
  -5   6   1    7.19    5.07
  -5   5   7   27.84    9.89
  -5   5   5  241.39   30.51
  -5   5   4  289.99   32.38
  -5   5   3  135.99   21.72
  -5   5   2    1.73    5.94
  -5   5   1  115.27   19.75
  -5   5   0   67.96   16.13
  -5   5  -1  121.70   20.32
  -5   5  -2   61.75   15.54
  -5   4   8   79.04   15.91
  -5   4   7   35.14   10.61
  -5   4   7   31.16   11.98
  -5   4   6  238.28   28.61
  -5   4   5  384.96   36.40
  -5   4   4  134.71   21.24
  -5   4   3   62.94   13.39
  -5   4   2   58.02   13.24
  -5   4   1  173.79   21.65
  -5   4   0  272.31   29.35
  -5   4  -1   64.78   15.45
  -5   4  -2   28.97   10.76
  -5   4  -3    9.76    7.79
  -5   4  -4  218.43   28.50
  -5   3   8    7.63    4.97
  -5   3   8    7.88    4.37
  -5   3   7  155.06   23.04
  -5   3   7  138.13   22.90
  -5   3   6  318.69   32.01
  -5   3   5  315.24   31.60
  -5   3   4  189.07   24.82
  -5   3   3   98.10   16.74
  -5   3   2  168.52   22.32
  -5   3   1  276.20   28.69
  -5   3   0  509.70   38.66
  -5   3  -1    7.33    6.92
  -5   3  -2   19.66    8.55
  -5   3  -3  167.74   24.25
  -5   3  -4  243.32   29.74
  -5   3  -5   52.68   14.82
  -5   3  -6   15.14    9.53
  -5   2   8   26.23    8.29
  -5   2   8   31.03   10.08
  -5   2   7  595.93   42.15
  -5   2   7  597.04   46.92
  -5   2   6  454.68   37.89
  -5   2   5  161.28   21.17
  -5   2   4    3.28    1.65
  -5   2   3  409.96   33.78
  -5   2   2  259.25   26.68
  -5   2   1  759.37   45.45
  -5   2   0   65.40   13.84
  -5   2  -1   44.66   11.71
  -5   2  -2  164.76   21.98
  -5   2  -3  293.90   30.40
  -5   2  -4  166.89   20.83
  -5   2  -4  187.27   25.52
  -5   2  -5   13.03    7.46
  -5   2  -5   11.65    9.19
  -5   2  -6    2.61    5.60
  -5   2  -6   17.56   10.12
  -5   1   8  286.22   31.89
  -5   1   8  282.12   31.75
  -5   1   7  645.88   44.08
  -5   1   7  626.80   46.13
  -5   1   6  266.83   27.46
  -5   1   6  234.61   27.44
  -5   1   5    6.99    6.03
  -5   1   4  491.00   37.27
  -5   1   3  229.60   24.54
  -5   1   2  615.56   39.73
  -5   1   1  389.85   31.75
  -5   1   0   40.56    5.47
  -5   1   0   60.27   12.88
  -5   1  -1   87.75   10.40
  -5   1  -1   74.73   13.88
  -5   1  -2  316.95   22.67
  -5   1  -2  342.72   31.15
  -5   1  -3  530.44   32.47
  -5   1  -3  536.81   41.05
  -5   1  -4   67.77   12.26
  -5   1  -4   72.25   15.59
  -5   1  -5   44.85   12.04
  -5   1  -6   60.12   14.37
  -5   1  -7  142.83   22.19
  -5   0   8  429.78   36.77
  -5   0   8  416.71   38.33
  -5   0   7  220.37   25.10
  -5   0   7  207.51   25.71
  -5   0   6  100.31   17.13
  -5   0   6  101.09   17.82
  -5   0   5  219.69   24.35
  -5   0   4  776.86   45.43
  -5   0   3  173.35   20.66
  -5   0   2  402.38   13.80
  -5   0   2  447.65   24.77
  -5   0   1   81.48    9.32
  -5   0   1   72.75    7.53
  -5   0   1   78.15    7.32
  -5   0   1   95.32   15.40
  -5   0   0  113.89   11.13
  -5   0   0  131.73   11.20
  -5   0   0  153.12   19.74
  -5   0  -1  735.93   33.04
  -5   0  -1  840.82   33.56
  -5   0  -2  449.55   27.12
  -5   0  -2  477.01   36.12
  -5   0  -3  138.63   16.74
  -5   0  -3  167.80   23.24
  -5   0  -4   16.88    6.52
  -5   0  -5   88.71   15.35
  -5   0  -6  155.95   21.77
  -5   0  -7  124.37   21.03
  -5   0  -8   11.79    3.71
  -5  -1   8  366.46   35.78
  -5  -1   7   39.53   10.83
  -5  -1   7   37.63   10.08
  -5  -1   6   14.36    5.57
  -5  -1   6   16.38    7.43
  -5  -1   5  460.87   34.61
  -5  -1   4  421.02   32.10
  -5  -1   3  638.63   39.13
  -5  -1   2   79.17   14.36
  -5  -1   1   57.90    9.07
  -5  -1   1   74.58   13.28
  -5  -1   0  839.96   46.12
  -5  -1   0  671.70   31.35
  -5  -1  -1  732.79   33.86
  -5  -1  -1  807.51   45.61
  -5  -1  -2  105.75   14.09
  -5  -1  -2  127.56   18.45
  -5  -1  -3    0.88    3.89
  -5  -1  -4   53.96   12.55
   5   1   5  180.15   21.69
  -5  -1  -5  159.04   21.44
  -5  -1  -6  333.80   33.32
   5   1   6  368.73   34.27
  -5  -1  -7   62.77   13.63
  -5  -1  -8    2.48    4.75
  -5  -2   7   -1.80    3.61
  -5  -2   6  250.09   27.02
  -5  -2   6  249.86   25.22
  -5  -2   5  589.14   40.59
  -5  -2   5  594.56   38.19
  -5  -2   4  511.33   34.11
  -5  -2   3   82.46   12.70
  -5  -2   2   80.95   13.43
  -5  -2   1  275.78   25.01
  -5  -2   0  906.45   47.59
  -5  -2  -1  238.80   23.64
  -5  -2  -2  103.38   16.40
   5   2   4  344.38   28.49
  -5  -2  -4  273.44   25.94
  -5  -2  -4  291.84   18.56
   5   2   5  294.01   29.01
  -5  -2  -5  231.99   24.78
   5   2   6  194.53   26.50
  -5  -2  -6  153.92   22.53
   5   2   7   22.80    7.33
  -5  -2  -7   12.71    8.09
   5   2   8   96.12   20.68
  -5  -2  -8   95.19   19.64
  -5  -2  -9  100.35   20.70
  -5  -3   7   90.47   19.58
  -5  -3   6  376.96   34.60
  -5  -3   5  397.70   33.52
  -5  -3   5  406.44   30.63
  -5  -3   4   88.34   15.26
  -5  -3   4   88.84   13.40
  -5  -3   3   61.86   11.56
  -5  -3   2   12.52    4.34
  -5  -3   1  866.97   43.69
  -5  -3   0  768.94   43.21
  -5  -3  -1   39.14    9.17
  -5  -3  -2   16.13    3.99
  -5  -3  -3  316.29   22.92
  -5  -3  -4  348.38   22.50
   5   3   4  404.59   34.63
   5   3   5  177.65   24.24
  -5  -3  -5  141.29   13.16
  -5  -3  -5  141.57   20.24
  -5  -3  -6   54.54   13.53
   5   3   6   52.32   12.13
   5   3   7    6.82    3.27
  -5  -3  -7   13.97    9.00
   5   3   8  273.50   38.62
  -5  -3  -8  232.75   30.19
   5   3   9   58.57   16.63
  -5  -3  -9   44.05   14.99
   5   3  10   35.00   17.87
  -5  -4   7  123.83   21.96
  -5  -4   6   65.97   13.92
  -5  -4   5  353.62   31.83
  -5  -4   4   11.31    8.32
  -5  -4   3  108.60   17.39
  -5  -4   3  119.04   14.88
  -5  -4   2  390.21   27.58
  -5  -4   1  806.89   40.30
  -5  -4   0   53.26   10.99
  -5  -4  -1    5.64    3.63
  -5  -4  -1    3.06    4.13
  -5  -4  -2  254.44   23.01
  -5  -4  -2  250.72   25.31
  -5  -4  -3  327.20   25.41
  -5  -4  -4  188.18   18.67
   5   4   4  235.76   29.09
   5   4   5   42.80    9.73
  -5  -4  -5   59.58    9.92
   5   4   6    3.49    8.13
   5   4   7  225.49   31.85
  -5  -4  -7  190.19   26.87
   5   4   8  178.43   31.62
  -5  -4  -8  123.91   22.07
   5   4   9   40.09   14.08
   5   4  10    6.74    8.52
  -5  -5   5   51.78   12.61
  -5  -5   4  116.40   19.07
  -5  -5   4  109.61   18.23
  -5  -5   3  178.51   24.23
  -5  -5   3  207.48   23.94
  -5  -5   2  594.81   37.57
  -5  -5   2  606.35   43.45
  -5  -5   1   67.34   14.00
  -5  -5   0   -7.44    6.35
  -5  -5   0   -0.41    2.18
  -5  -5  -1   26.00    8.37
  -5  -5  -1   36.56    9.16
  -5  -5  -2  367.11   29.92
  -5  -5  -2  362.49   30.55
  -5  -5  -3  340.24   28.26
  -5  -5  -4   28.68    8.68
   5   5   5    2.98    7.17
  -5  -5  -5    7.28    4.16
  -5  -5  -6   37.79    8.73
   5   5   6   59.17   15.73
   5   5   7  393.81   43.10
   5   5   8   77.84   20.06
  -5  -5  -8   54.04   14.32
   5   5   9   -0.52    4.77
  -5  -6   2  199.97   26.56
  -5  -6   1   -1.57    5.19
  -5  -6   0   52.15   13.51
  -5  -6  -1  161.06   21.35
  -5  -6  -2  220.72   25.78
  -5  -6  -3  165.71   20.94
  -5  -6  -4   -1.96    5.72
  -5  -6  -5   30.05    9.80
   5   6   6  220.44   32.55
  -5  -6  -6  165.10   20.14
   5   6   7  179.83   30.24
   5   6   8   33.85   12.65
  -5  -7   0  117.96   21.15
  -5  -7  -1  136.92   21.97
  -5  -7  -2  136.97   21.68
  -5  -7  -3   -1.09    4.40
  -5  -7  -4   23.92    9.25
  -5  -7  -5   99.34   17.74
  -5  -7  -6   88.97   16.57
  -5  -8  -6   45.65   12.66
  -5  -8  -7   -8.71    5.83
  -6   4   2  155.45   23.86
  -6   4   1   52.43   13.05
  -6   4   0   21.76    8.17
  -6   3   5  131.35   22.37
  -6   3   4  244.67   30.34
  -6   3   3  237.33   28.95
  -6   3   2  102.31   18.26
  -6   3   1   -1.66    5.70
  -6   3   0  164.56   24.97
  -6   3  -1  128.79   22.15
  -6   3  -2  145.83   21.85
  -6   3  -3    9.77    6.55
  -6   2   6   62.09   16.74
  -6   2   5  250.47   29.95
  -6   2   4  287.28   31.94
  -6   2   3  199.68   25.66
  -6   2   2   74.51   16.33
  -6   2   1  272.17   30.81
  -6   2   0  192.08   25.61
  -6   2  -1  220.80   28.48
  -6   2  -2  134.11   21.78
  -6   2  -3    6.71    7.34
  -6   2  -4   44.54   14.38
  -6   1   7   18.45    4.34
  -6   1   6  148.11   23.25
  -6   1   5  726.91   49.96
  -6   1   4  220.30   27.61
  -6   1   3   45.86   11.73
  -6   1   2   81.04   15.44
  -6   1   1  432.29   37.52
  -6   1   0  261.80   28.56
  -6   1  -1  256.39   29.77
  -6   1  -2    8.98    3.08
  -6   1  -3   63.97   13.42
  -6   1  -4   96.02   20.31
  -6   1  -5  186.11   29.23
  -6   0   7  109.08   20.67
  -6   0   6  475.17   40.46
  -6   0   6  445.60   39.86
  -6   0   5  400.48   37.03
  -6   0   4   83.05   16.80
  -6   0   3   38.89   14.16
  -6   0   2  629.57   44.33
  -6   0   1  225.51   26.10
  -6   0   0  305.01   32.09
  -6   0  -1   34.53    9.84
  -6   0  -2   93.90   17.26
  -6   0  -3   80.58   13.01
  -6   0  -3  107.57   20.81
  -6   0  -4  169.63   21.66
  -6   0  -4  213.68   29.83
  -6   0  -5  206.09   24.33
  -6   0  -5  236.96   31.77
  -6   0  -6   -0.11    2.79
  -6   0  -7   60.08   15.58
  -6  -1   8   63.78   15.99
  -6  -1   7  216.21   28.00
  -6  -1   6  391.56   36.77
  -6  -1   6  419.29   37.00
  -6  -1   5   61.90   14.11
  -6  -1   4    6.89    6.44
  -6  -1   3  411.81   36.17
  -6  -1   2  505.23   38.91
  -6  -1   1  139.63   20.83
  -6  -1   0  168.75   22.77
  -6  -1  -1    0.25    2.11
  -6  -1  -1    1.92    5.95
  -6  -1  -2  231.72   21.56
  -6  -1  -2  255.34   29.70
  -6  -1  -3  411.83   31.48
  -6  -1  -3  468.98   42.08
  -6  -1  -4  105.26   17.14
  -6  -1  -4  137.38   23.45
  -6  -1  -5   19.10    7.02
  -6  -1  -6   30.81   11.68
  -6  -1  -7   74.66   17.81
  -6  -2   6  250.94   29.46
  -6  -2   6  218.53   27.19
  -6  -2   5    3.38    7.41
  -6  -2   5    8.97    6.84
  -6  -2   4  162.16   22.78
  -6  -2   3  461.67   36.98
  -6  -2   2  293.06   29.57
  -6  -2   1  241.72   27.98
  -6  -2   0    8.72    5.80
  -6  -2  -1  190.41   26.22
  -6  -2  -2  401.52   30.28
  -6  -2  -2  495.40   41.26
  -6  -2  -3  194.27   21.89
  -6  -2  -3  254.50   31.31
  -6  -2  -4    9.69    5.85
  -6  -2  -5   15.68    7.67
  -6  -2  -6   66.73   15.03
  -6  -2  -7   95.14   17.92
  -6  -2  -8   49.98   14.63
  -6  -3   6   18.67    1.96
  -6  -3   5   13.94    7.26
  -6  -3   4  457.14   35.44
  -6  -3   3  430.22   33.89
  -6  -3   2  158.56   21.06
  -6  -3   1   16.83    6.61
  -6  -3   0   97.21   17.27
  -6  -3  -1  266.18   30.41
  -6  -3  -2  423.28   38.41
  -6  -3  -3   48.51   10.12
  -6  -3  -3   66.02   16.89
  -6  -3  -4    3.73    3.46
  -6  -3  -4    0.27    1.08
  -6  -3  -5   93.60   17.06
   6   3   5  107.63   20.13
   6   3   6  175.13   28.08
  -6  -3  -6  137.97   22.18
  -6  -3  -7   69.28   15.52
  -6  -4   5  210.37   26.63
  -6  -4   4  258.28   29.69
  -6  -4   2   -0.24    1.50
  -6  -4   1  104.14   17.43
  -6  -4   0   25.57    7.54
  -6  -4  -1  642.05   41.83
  -6  -4  -1  619.90   44.70
  -6  -4  -2  238.63   23.45
  -6  -4  -2  251.88   28.65
  -6  -4  -3    4.35    1.74
  -6  -4  -3    8.29    7.50
  -6  -4  -4   87.30   13.08
  -6  -4  -6   93.52   19.27
   6   4   6  121.63   24.58
  -6  -4  -7   23.49    4.39
   6   4   7   31.08   14.42
   6   4   8   -0.26    5.11
  -6  -5   3  146.73   23.44
  -6  -5   2   52.47   15.04
  -6  -5   1  135.33   21.09
  -6  -5   0  295.51   30.64
  -6  -5   0  271.39   26.72
  -6  -5  -1  253.05   28.38
  -6  -5  -1  274.88   29.13
  -6  -5  -2   -2.57    2.40
  -6  -5  -2    8.47    6.91
  -6  -5  -3   43.60    9.85
  -6  -5  -3   59.34   13.39
  -6  -5  -4  150.32   18.83
   6   5   6   35.29   14.03
  -6  -5  -7   14.45    7.69
   6   5   7    2.75    8.98
   6   5   8   -2.81    7.17
  -6  -6   0  206.50   27.23
  -6  -6  -1   -0.62    3.00
  -6  -6  -2   12.50    8.76
  -6  -6  -3   81.35   15.77
  -6  -6  -3   63.99   13.66
  -6  -6  -4  164.20   22.49
  -6  -6  -5   57.54   12.29
  -6  -7  -3  115.37   19.48
  -6  -7  -4   41.71   11.11
  -6  -7  -5    1.75    2.09
  -7   1   2  120.59   21.57
  -7   1   1   99.84   20.19
  -7   1   0   -5.51    4.91
  -7   0   4  251.21   31.80
  -7   0   3  449.07   42.31
  -7   0   2   30.13    7.68
  -7   0   1   -4.34    9.37
  -7   0   0  157.35   26.35
  -7   0  -1  329.88   37.63
  -7   0  -2  128.54   23.83
  -7  -1   5  209.68   28.40
  -7  -1   4  396.61   38.57
  -7  -1   3   94.47   18.82
  -7  -1   2    2.85    4.86
  -7  -1   1   82.29   19.06
  -7  -1   0  417.18   40.83
  -7  -1  -1  125.42   24.54
  -7  -1  -2   82.95   19.12
  -7  -1  -3    6.01    3.09
  -7  -2   5  164.74   23.58
  -7  -2   4  224.31   28.03
  -7  -2   3    3.81    4.25
  -7  -2   2   16.56    7.83
  -7  -2   1  307.96   34.98
  -7  -2   0  231.15   30.91
  -7  -2  -1   79.78   20.99
  -7  -2  -2    1.42    4.70
  -7  -2  -3   57.11   19.22
  -7  -2  -4  174.78   30.00
  -7  -3   4   58.67   15.29
  -7  -3   3   18.20    5.83
  -7  -3   2  244.00   30.11
  -7  -3   1  267.25   30.72
  -7  -3   0  142.80   22.83
  -7  -3  -1   16.80    9.24
  -7  -3  -2   90.03   19.74
  -7  -3  -3  143.64   26.43
  -7  -3  -4  127.50   20.56
  -7  -3  -4  162.84   29.76
  -7  -3  -5   27.52    8.05
  -7  -3  -6    0.24    0.81
  -7  -4   1  142.89   21.53
  -7  -4   0    9.40    9.64
  -7  -4  -1   66.07   15.02
  -7  -4  -1   67.36   17.10
  -7  -4  -2   45.87    9.34
  -7  -4  -2   53.07   14.64
  -7  -4  -3  139.32   19.37
  -7  -4  -3  159.24   28.56
  -7  -4  -4  124.38   24.79
  -7  -4  -5   -0.19    6.24
  -7  -4  -6    3.56    3.57
  -7  -5   0   21.20    5.99
  -7  -5  -1   85.67   17.17
  -7  -5  -1   69.74   14.87
  -7  -5  -2   28.17    9.83
  -7  -5  -2   32.24   11.71
  -7  -5  -3  204.42   24.08
  -7  -5  -3  245.34   33.98
  -7  -5  -4   23.46   10.00
  -7  -6  -3   38.63   10.77
   0   0   0    0.00    0.00


TITL honghui4c in P-1
REM P-1 (#2 in standard setting)
CELL 0.71073   5.961620   7.059613   9.510234  70.1724  89.2512  79.1223
ZERR    2.00   0.000511   0.000517   0.000599   0.0062   0.0060   0.0067
LATT  1
SFAC C H N O Br
UNIT 12.00 20.00 2.00 2.00 2.00
TREF
HKLF 4
END
_computing_structure_solution     'SHELXT 2014/5 (Sheldrick, 2014)'
;
_shelx_hkl_checksum              6328
_olex2_submission_special_instructions 'No special instructions were received'
_oxdiff_exptl_absorpt_empirical_details
;
Empirical correction (ABSPACK) includes:
- Absorption correction using spherical harmonics
- Frame scaling
- Detector area scaling
;
_oxdiff_exptl_absorpt_empirical_full_max 1.159
_oxdiff_exptl_absorpt_empirical_full_min 0.877
loop_
_space_group_symop_operation_xyz
'x, y, z'
'-x, -y, -z'
loop_
_atom_site_label
_atom_site_type_symbol
_atom_site_fract_x
_atom_site_fract_y
_atom_site_fract_z
_atom_site_U_iso_or_equiv
_atom_site_adp_type
_atom_site_occupancy
_atom_site_site_symmetry_order
_atom_site_calc_flag
_atom_site_refinement_flags_posn
_atom_site_refinement_flags_adp
_atom_site_refinement_flags_occupancy
_atom_site_disorder_assembly
_atom_site_disorder_group
N1 N 0.8078(17) 0.3910(8) 0.6424(16) 0.0176(11) Uani 0.862(7) 1 d D U P A 1
H1 H 0.828(6) 0.500(5) 0.600(4) 0.014(10) Uiso 0.862(7) 1 d . . P A 1
C2 C 0.9447(10) 0.2216(10) 0.6339(8) 0.0181(11) Uani 0.862(7) 1 d D U P A 1
O3 O 1.0973(8) 0.2212(9) 0.5441(6) 0.0226(11) Uani 0.862(7) 1 d D U P A 1
C4 C 0.8828(9) 0.0357(7) 0.7507(7) 0.0261(15) Uani 0.862(7) 1 d D U P A 1
H4A H 0.999608 -0.025427 0.831861 0.031 Uiso 0.862(7) 1 calc R . P A 1
H4B H 0.863149 -0.066710 0.707471 0.031 Uiso 0.862(7) 1 calc R . P A 1
C5 C 0.6567(18) 0.1218(7) 0.8059(13) 0.0295(13) Uani 0.862(7) 1 d D U P A 1
H5A H 0.648228 0.053489 0.912595 0.035 Uiso 0.862(7) 1 calc R . P A 1
H5B H 0.527259 0.104634 0.753804 0.035 Uiso 0.862(7) 1 calc R . P A 1
C6 C 0.6599(6) 0.3490(5) 0.7702(5) 0.0182(9) Uani 0.862(7) 1 d D U P A 1
H6 H 0.730082 0.369679 0.855144 0.022 Uiso 0.862(7) 1 calc R . P A 1
C7 C 0.4287(6) 0.4923(5) 0.7228(4) 0.0175(9) Uani 0.862(7) 1 d D U P A 1
H7 H 0.361984 0.467549 0.638595 0.021 Uiso 0.862(7) 1 calc R . P A 1
Br8 Br 0.2299(3) 0.4190(3) 0.8936(2) 0.0206(2) Uani 0.862(7) 1 d D U P A 1
C9 C 0.4329(17) 0.7170(7) 0.6774(11) 0.0237(19) Uani 0.862(7) 1 d D U P A 1
H9A H 0.499625 0.743665 0.758433 0.036 Uiso 0.862(7) 1 calc GR . P A 1
H9B H 0.279546 0.795106 0.653506 0.036 Uiso 0.862(7) 1 calc GR . P A 1
H9C H 0.522252 0.756034 0.591277 0.036 Uiso 0.862(7) 1 calc GR . P A 1
N1B N 0.807(10) 0.385(5) 0.648(10) 0.017(5) Uiso 0.138(7) 1 d D U P A 2
H1B H 0.843251 0.504708 0.620772 0.020 Uiso 0.138(7) 1 calc R . P A 2
C2B C 0.948(5) 0.218(5) 0.639(4) 0.016(5) Uiso 0.138(7) 1 d D U P A 2
O3B O 1.133(5) 0.219(6) 0.575(4) 0.013(6) Uiso 0.138(7) 1 d D U P A 2
C4B C 0.844(5) 0.033(4) 0.718(4) 0.014(5) Uiso 0.138(7) 1 d D U P A 2
H4B1 H 0.955432 -0.076825 0.785711 0.017 Uiso 0.138(7) 1 calc R . P A 2
H4B2 H 0.781762 -0.017062 0.646373 0.017 Uiso 0.138(7) 1 calc R . P A 2
C5B C 0.652(10) 0.118(4) 0.803(7) 0.025(5) Uiso 0.138(7) 1 d D U P A 2
H5B1 H 0.523454 0.050357 0.810321 0.031 Uiso 0.138(7) 1 calc R . P A 2
H5B2 H 0.708034 0.098838 0.903725 0.031 Uiso 0.138(7) 1 calc R . P A 2
C6B C 0.585(4) 0.346(3) 0.711(3) 0.019(4) Uiso 0.138(7) 1 d D U P A 2
H6B H 0.472486 0.366917 0.630112 0.023 Uiso 0.138(7) 1 calc R . P A 2
C7B C 0.510(3) 0.501(3) 0.787(2) 0.012(4) Uiso 0.138(7) 1 d D U P A 2
H7B H 0.637816 0.487613 0.856225 0.015 Uiso 0.138(7) 1 calc R . P A 2
Br8B Br 0.2533(18) 0.4257(19) 0.9100(13) 0.024(2) Uiso 0.138(7) 1 d D U P A 2
C9B C 0.449(11) 0.723(4) 0.691(7) 0.022(9) Uiso 0.138(7) 1 d D U P A 2
H9B1 H 0.584192 0.768903 0.647384 0.034 Uiso 0.138(7) 1 calc GR . P A 2
H9B2 H 0.385211 0.803102 0.750918 0.034 Uiso 0.138(7) 1 calc GR . P A 2
H9B3 H 0.339151 0.739672 0.612748 0.034 Uiso 0.138(7) 1 calc GR . P A 2
loop_
_atom_site_aniso_label
_atom_site_aniso_U_11
_atom_site_aniso_U_22
_atom_site_aniso_U_33
_atom_site_aniso_U_23
_atom_site_aniso_U_13
_atom_site_aniso_U_12
N1 0.0202(19) 0.0098(17) 0.019(2) 0.0008(14) 0.0131(14) -0.0046(13)
C2 0.015(2) 0.0138(19) 0.022(2) -0.0019(15) 0.0060(14) -0.0036(14)
O3 0.022(2) 0.0151(16) 0.028(3) -0.005(2) 0.012(2) -0.0033(16)
C4 0.021(3) 0.0147(19) 0.035(4) 0.000(2) 0.012(2) -0.0020(17)
C5 0.026(2) 0.013(2) 0.040(3) 0.0011(17) 0.0188(19) -0.0020(16)
C6 0.0145(19) 0.021(2) 0.014(2) 0.0005(15) 0.0070(15) -0.0023(15)
C7 0.0166(19) 0.0165(18) 0.016(2) -0.0017(15) 0.0090(15) -0.0024(14)
Br8 0.0151(4) 0.0249(4) 0.0209(5) -0.0066(3) 0.0088(4) -0.0048(3)
C9 0.025(3) 0.015(2) 0.030(3) -0.0086(18) 0.013(3) -0.0032(17)
loop_
_atom_type_symbol
_atom_type_description
_atom_type_scat_dispersion_real
_atom_type_scat_dispersion_imag
_atom_type_scat_source
C C 0.0033 0.0016 'International Tables Vol C Tables 4.2.6.8 and 6.1.1.4'
H H 0.0000 0.0000 'International Tables Vol C Tables 4.2.6.8 and 6.1.1.4'
N N 0.0061 0.0033 'International Tables Vol C Tables 4.2.6.8 and 6.1.1.4'
O O 0.0106 0.0060 'International Tables Vol C Tables 4.2.6.8 and 6.1.1.4'
Br Br -0.2901 2.4595 'International Tables Vol C Tables 4.2.6.8 and 6.1.1.4'
loop_
_exptl_crystal_face_index_h
_exptl_crystal_face_index_k
_exptl_crystal_face_index_l
_exptl_crystal_face_perp_dist
0 0 1 0.0893
0 0 -1 0.0893
-1 -1 -2 0.0989
1 1 2 0.1479
0 1 1 0.0910
0 -1 -1 0.1120
0 1 0 0.0931
0 -1 0 0.1451
3 -1 -12 0.1445
5 -3 -10 0.1784
4 -7 -5 0.1891
8 5 3 0.2297
loop_
_geom_angle_atom_site_label_1
_geom_angle_atom_site_label_2
_geom_angle_atom_site_label_3
_geom_angle
C2 N1 H1 123(3)
C2 N1 C6 113.3(4)
C6 N1 H1 122(3)
N1 C2 C4 108.9(4)
O3 C2 N1 124.7(4)
O3 C2 C4 126.4(4)
C2 C4 H4A 111.0
C2 C4 H4B 111.0
C2 C4 C5 103.7(3)
H4A C4 H4B 109.0
C5 C4 H4A 111.0
C5 C4 H4B 111.0
C4 C5 H5A 110.8
C4 C5 H5B 110.8
C4 C5 C6 104.5(4)
H5A C5 H5B 108.9
C6 C5 H5A 110.8
C6 C5 H5B 110.8
N1 C6 C5 102.1(4)
N1 C6 H6 110.2
N1 C6 C7 108.8(6)
C5 C6 H6 110.2
C7 C6 C5 115.0(6)
C7 C6 H6 110.2
C6 C7 H7 108.4
C6 C7 Br8 107.4(2)
C6 C7 C9 115.3(5)
Br8 C7 H7 108.4
C9 C7 H7 108.4
C9 C7 Br8 108.7(3)
C7 C9 H9A 109.5
C7 C9 H9B 109.5
C7 C9 H9C 109.5
H9A C9 H9B 109.5
H9A C9 H9C 109.5
H9B C9 H9C 109.5
C2B N1B H1B 123.0
C2B N1B C6B 114.1(19)
C6B N1B H1B 123.0
N1B C2B C4B 108.1(16)
O3B C2B N1B 125(2)
O3B C2B C4B 127(2)
C2B C4B H4B1 111.2
C2B C4B H4B2 111.2
C2B C4B C5B 103.0(16)
H4B1 C4B H4B2 109.1
C5B C4B H4B1 111.2
C5B C4B H4B2 111.2
C4B C5B H5B1 110.8
C4B C5B H5B2 110.8
H5B1 C5B H5B2 108.9
C6B C5B C4B 104.6(18)
C6B C5B H5B1 110.8
C6B C5B H5B2 110.8
N1B C6B C5B 100(2)
N1B C6B H6B 110.1
C5B C6B H6B 110.1
C7B C6B N1B 106(2)
C7B C6B C5B 120(2)
C7B C6B H6B 110.1
C6B C7B H7B 106.8
C6B C7B Br8B 109.0(13)
C6B C7B C9B 118(3)
Br8B C7B H7B 106.8
C9B C7B H7B 106.8
C9B C7B Br8B 109(2)
C7B C9B H9B1 109.5
C7B C9B H9B2 109.5
C7B C9B H9B3 109.5
H9B1 C9B H9B2 109.5
H9B1 C9B H9B3 109.5
H9B2 C9B H9B3 109.5
loop_
_geom_bond_atom_site_label_1
_geom_bond_atom_site_label_2
_geom_bond_distance
N1 H1 0.77(3)
N1 C2 1.341(4)
N1 C6 1.472(7)
C2 O3 1.240(4)
C2 C4 1.509(5)
C4 H4A 0.9700
C4 H4B 0.9700
C4 C5 1.533(5)
C5 H5A 0.9700
C5 H5B 0.9700
C5 C6 1.527(7)
C6 H6 0.9800
C6 C7 1.519(5)
C7 H7 0.9800
C7 Br8 1.980(3)
C7 C9 1.501(6)
C9 H9A 0.9600
C9 H9B 0.9600
C9 H9C 0.9600
N1B H1B 0.8600
N1B C2B 1.344(17)
N1B C6B 1.48(2)
C2B O3B 1.247(16)
C2B C4B 1.512(17)
C4B H4B1 0.9700
C4B H4B2 0.9700
C4B C5B 1.541(18)
C5B H5B1 0.9700
C5B H5B2 0.9700
C5B C6B 1.529(19)
C6B H6B 0.9800
C6B C7B 1.502(17)
C7B H7B 0.9800
C7B Br8B 1.957(15)
C7B C9B 1.502(19)
C9B H9B1 0.9600
C9B H9B2 0.9600
C9B H9B3 0.9600
loop_
_geom_torsion_atom_site_label_1
_geom_torsion_atom_site_label_2
_geom_torsion_atom_site_label_3
_geom_torsion_atom_site_label_4
_geom_torsion
N1 C2 C4 C5 11.4(9)
N1 C6 C7 Br8 176.6(6)
N1 C6 C7 C9 -62.1(8)
C2 N1 C6 C5 -21.3(12)
C2 N1 C6 C7 -143.3(8)
C2 C4 C5 C6 -23.6(10)
O3 C2 C4 C5 -169.0(9)
C4 C5 C6 N1 26.7(11)
C4 C5 C6 C7 144.4(6)
C5 C6 C7 Br8 62.7(6)
C5 C6 C7 C9 -176.0(6)
C6 N1 C2 O3 -173.3(10)
C6 N1 C2 C4 6.4(10)
N1B C2B C4B C5B -13(5)
N1B C6B C7B Br8B -168(4)
N1B C6B C7B C9B 67(5)
C2B N1B C6B C5B 25(6)
C2B N1B C6B C7B 151(5)
C2B C4B C5B C6B 28(5)
O3B C2B C4B C5B 167(5)
C4B C5B C6B N1B -31(6)
C4B C5B C6B C7B -146(3)
C5B C6B C7B Br8B -56(3)
C5B C6B C7B C9B 179(4)
C6B N1B C2B O3B 172(6)
C6B N1B C2B C4B -8(6)
loop_
_exptl_oxdiff_crystal_face_indexfrac_h
_exptl_oxdiff_crystal_face_indexfrac_k
_exptl_oxdiff_crystal_face_indexfrac_l
_exptl_oxdiff_crystal_face_x
_exptl_oxdiff_crystal_face_y
_exptl_oxdiff_crystal_face_z
-0.0000 -0.0000 1.0000 -0.0727 0.0313 0.0059
0.0000 0.0000 -1.0000 0.0727 -0.0313 -0.0059
-1.0000 -1.0000 -2.0000 0.0973 -0.0707 -0.1497
1.0000 1.0000 2.0000 -0.0973 0.0707 0.1497
-0.0000 1.0000 1.0000 0.0015 0.1018 0.0431
0.0000 -1.0000 -1.0000 -0.0015 -0.1018 -0.0431
-0.0000 1.0000 0.0000 0.0742 0.0705 0.0373
0.0000 -1.0000 -0.0000 -0.0742 -0.0705 -0.0373
3.0000 -1.0000 -12.0000 0.7202 -0.6341 0.1941
5.0000 -3.0000 -10.0000 0.3742 -0.8374 0.3328
4.0000 -7.0000 -5.0000 -0.2601 -0.9002 0.1125
8.0000 5.0000 3.0000 -0.0559 -0.0533 1.0095
