#------------------------------------------------------------------------------
#$Date: 2019-11-03 14:24:02 +0200 (Sun, 03 Nov 2019) $
#$Revision: 221637 $
#$URL: file:///home/coder/svn-repositories/cod/cif/4/12/85/4128557.cif $
#------------------------------------------------------------------------------
#
# This file is available in the Crystallography Open Database (COD),
# http://www.crystallography.net/
#
# All data on this site have been placed in the public domain by the
# contributors.
#
data_4128557
loop_
_publ_author_name
'Lei, Honghui'
'Conway, Jr, John H'
'Cook, Caleb C.'
'Rovis, Tomislav'
_publ_section_title
;
 Ligand Controlled Ir-Catalyzed Regiodivergent Oxyamination of Unactivated
 Alkenes.
;
_journal_issue                   30
_journal_name_full               'Journal of the American Chemical Society'
_journal_page_first              11864
_journal_page_last               11869
_journal_paper_doi               10.1021/jacs.9b06366
_journal_volume                  141
_journal_year                    2019
_chemical_formula_moiety         'C6 H11 N O2'
_chemical_formula_sum            'C6 H11 N O2'
_chemical_formula_weight         129.16
_space_group_crystal_system      monoclinic
_space_group_IT_number           14
_space_group_name_Hall           '-P 2yn'
_space_group_name_H-M_alt        'P 1 21/n 1'
_atom_sites_solution_hydrogens   mixed
_atom_sites_solution_primary     direct
_audit_creation_date             2019-04-28
_audit_creation_method
;
Olex2 1.2
(compiled 2018.05.29 svn.r3510 for OlexSys, GUI svn.r5506)
;
_cell_angle_alpha                90
_cell_angle_beta                 94.519(4)
_cell_angle_gamma                90
_cell_formula_units_Z            4
_cell_length_a                   4.57340(17)
_cell_length_b                   9.8222(4)
_cell_length_c                   15.0672(6)
_cell_measurement_reflns_used    2943
_cell_measurement_temperature    100.3(6)
_cell_measurement_theta_max      71.6910
_cell_measurement_theta_min      4.4950
_cell_volume                     674.73(5)
_computing_cell_refinement       'CrysAlisPro 1.171.38.46 (Rigaku OD, 2015)'
_computing_data_collection       'CrysAlisPro 1.171.38.46 (Rigaku OD, 2015)'
_computing_data_reduction        'CrysAlisPro 1.171.38.46 (Rigaku OD, 2015)'
_computing_molecular_graphics    'Olex2 (Dolomanov et al., 2009)'
_computing_publication_material  'Olex2 (Dolomanov et al., 2009)'
_computing_structure_refinement  'ShelXL (Sheldrick, 2015)'
_diffrn_ambient_environment      N~2~
_diffrn_ambient_temperature      100.3(6)
_diffrn_detector                 'CCD plate'
_diffrn_detector_area_resol_mean 8.0549
_diffrn_detector_type            EosS2
_diffrn_measured_fraction_theta_full 1.000
_diffrn_measured_fraction_theta_max 0.996
_diffrn_measurement_details
;
List of Runs (angles in degrees, time in seconds):

  # Type    Start    End  Width  t~exp~   \w     \q     \k     \f   Frames
--------------------------------------------------------------------------
  1  \w     12.00  77.00   1.00    1.00    --   37.78 -99.00 -30.00   65
  2  \w     59.00 108.00   1.00    2.00    --  111.00 -94.00 -90.00   49
  3  \w     63.00 115.00   1.00    2.00    --  111.00-111.00-120.00   52
  4  \w     48.00 125.00   1.00    2.00    --  111.00 -45.00 -60.00   77
  5  \w    101.00 143.00   1.00    2.00    --  111.00 -15.00-150.00   42
  6  \w    112.00 170.00   1.00    2.00    --  111.00  45.00 -60.00   58
  7  \w    139.00 175.00   1.00    2.00    --  111.00  61.00-150.00   36
  8  \w    114.00 140.00   1.00    2.00    --  111.00 111.00 -30.00   26
  9  \w     94.00 123.00   1.00    2.00    --  111.00  61.00-150.00   29
 10  \w     50.00 126.00   1.00    2.00    --  111.00 -45.00-150.00   76
 11  \w     45.00  70.00   1.00    2.00    --  111.00 -77.00-180.00   25
 12  \w     46.00  96.00   1.00    2.00    --  111.00 -64.00-152.99   50
 13  \w     45.00  71.00   1.00    2.00    --  111.00 -15.00-150.00   26
 14  \w     84.00 110.00   1.00    2.00    --  111.00-111.00  30.00   26
 15  \w     85.00 120.00   1.00    2.00    --  111.00 -61.00  60.00   35
 16  \w    119.00 148.00   1.00    2.00    --  111.00 -15.00  30.00   29
 17  \w    129.00 154.00   1.00    2.00    --  111.00  15.00 150.00   25
 18  \w    153.00 178.00   1.00    2.00    --  111.00  61.00  90.00   25
 19  \w    153.00 178.00   1.00    2.00    --  111.00 111.00 120.00   25
 20  \w     74.00 147.00   1.00    2.00    --  111.00 -15.00 120.00   73
 21  \w     77.00 107.00   1.00    2.00    --  111.00 -94.00 150.00   30
 22  \w     65.00 107.00   1.00    2.00    --  111.00 -94.00  30.00   42
 23  \w     41.00  67.00   1.00    2.00    --  111.00-111.00  30.00   26
 24  \w     45.00 105.00   1.00    2.00    --  111.00 -94.00  90.00   60
 25  \w     44.00 122.00   1.00    2.00    --  111.00 -45.00  60.00   78
 26  \w     40.00  89.00   1.00    2.00    --  111.00 -15.00  30.00   49
 27  \w     70.00  98.00   1.00    2.00    --  111.00 178.00 120.00   28
 28  \w    -51.00  30.00   1.00    1.00    --  -37.78  57.00-150.00   81
 29  \w   -105.00 -80.00   1.00    1.00    --  -37.78 -77.00 120.00   25
 30  \w    -62.00 -36.00   1.00    1.00    --  -37.78-178.00-120.00   26
 31  \w    -78.00 -49.00   1.00    1.00    --  -37.78-178.00 -90.00   29
 32  \w   -105.00 -29.00   1.00    1.00    --  -37.78 -57.00  60.00   76
 33  \w    -74.00 -11.00   1.00    1.00    --  -37.78 -77.00 120.00   63
 34  \w   -109.00 -45.00   1.00    1.00    --  -37.78 178.00 150.00   64
 35  \w    105.00 130.00   1.00    2.00    --  111.00 178.00-180.00   25
;
_diffrn_measurement_device       'four-circle diffractometer'
_diffrn_measurement_device_type  'SuperNova, Dual, Cu at zero, EosS2'
_diffrn_measurement_method       '\w scans'
_diffrn_orient_matrix_type
'CrysAlisPro convention (1999,Acta A55,543-557)'
_diffrn_orient_matrix_UB_11      -0.1612853000
_diffrn_orient_matrix_UB_12      0.0955691000
_diffrn_orient_matrix_UB_13      -0.0686248000
_diffrn_orient_matrix_UB_21      0.0992930000
_diffrn_orient_matrix_UB_22      -0.0891176000
_diffrn_orient_matrix_UB_23      -0.0762387000
_diffrn_orient_matrix_UB_31      -0.2797688000
_diffrn_orient_matrix_UB_32      -0.0866621000
_diffrn_orient_matrix_UB_33      0.0027455000
_diffrn_radiation_monochromator  mirror
_diffrn_radiation_probe          x-ray
_diffrn_radiation_type           CuK\a
_diffrn_radiation_wavelength     1.54184
_diffrn_reflns_av_R_equivalents  0.0298
_diffrn_reflns_av_unetI/netI     0.0245
_diffrn_reflns_Laue_measured_fraction_full 1.000
_diffrn_reflns_Laue_measured_fraction_max 0.996
_diffrn_reflns_limit_h_max       4
_diffrn_reflns_limit_h_min       -5
_diffrn_reflns_limit_k_max       11
_diffrn_reflns_limit_k_min       -12
_diffrn_reflns_limit_l_max       18
_diffrn_reflns_limit_l_min       -18
_diffrn_reflns_number            5116
_diffrn_reflns_point_group_measured_fraction_full 1.000
_diffrn_reflns_point_group_measured_fraction_max 0.996
_diffrn_reflns_theta_full        67.684
_diffrn_reflns_theta_max         72.739
_diffrn_reflns_theta_min         5.381
_diffrn_source                   'micro-focus sealed X-ray tube'
_diffrn_source_type              'SuperNova (Cu) X-ray Source'
_exptl_absorpt_coefficient_mu    0.787
_exptl_absorpt_correction_T_max  0.955
_exptl_absorpt_correction_T_min  0.886
_exptl_absorpt_correction_type   analytical
_exptl_absorpt_process_details
;
CrysAlisPro 1.171.38.46 (Rigaku Oxford Diffraction, 2015)
Analytical numeric absorption correction using a multifaceted crystal
			model based on expressions derived by R.C. Clark & J.S. Reid.
(Clark, R. C. & Reid, J. S. (1995). Acta Cryst. A51, 887-897)
Empirical absorption correction using spherical harmonics,
 implemented in SCALE3 ABSPACK scaling algorithm.
;
_exptl_crystal_colour            colourless
_exptl_crystal_colour_primary    colourless
_exptl_crystal_density_diffrn    1.271
_exptl_crystal_description       block
_exptl_crystal_F_000             280
_exptl_crystal_size_max          0.271
_exptl_crystal_size_mid          0.118
_exptl_crystal_size_min          0.074
_refine_diff_density_max         0.228
_refine_diff_density_min         -0.192
_refine_diff_density_rms         0.053
_refine_ls_extinction_method     none
_refine_ls_goodness_of_fit_ref   1.077
_refine_ls_hydrogen_treatment    mixed
_refine_ls_matrix_type           full
_refine_ls_number_parameters     107
_refine_ls_number_reflns         1338
_refine_ls_number_restraints     12
_refine_ls_restrained_S_all      1.089
_refine_ls_R_factor_all          0.0502
_refine_ls_R_factor_gt           0.0478
_refine_ls_shift/su_max          0.000
_refine_ls_shift/su_mean         0.000
_refine_ls_structure_factor_coef Fsqd
_refine_ls_weighting_details
'w=1/[\s^2^(Fo^2^)+(0.0859P)^2^+0.1801P] where P=(Fo^2^+2Fc^2^)/3'
_refine_ls_weighting_scheme      calc
_refine_ls_wR_factor_gt          0.1329
_refine_ls_wR_factor_ref         0.1358
_reflns_Friedel_coverage         0.000
_reflns_number_gt                1253
_reflns_number_total             1338
_reflns_threshold_expression     'I > 2\s(I)'
_cod_data_source_file            ja9b06366_si_004.cif
_cod_data_source_block           honghui3
_cod_original_cell_volume        674.72(5)
_cod_database_code               4128557
_shelx_shelxl_version_number     2018/3
_chemical_oxdiff_formula         'C6 H11 N O2'
_shelx_space_group_comment
;
The symmetry employed for this shelxl refinement is uniquely defined
by the following loop, which should always be used as a source of
symmetry information in preference to the above space-group names.
They are only intended as comments.
;
_reflns_odcompleteness_completeness 97.74
_reflns_odcompleteness_iscentric 1
_reflns_odcompleteness_theta     73.59
_olex2_refinement_description
;
1. Fixed Uiso
 At 1.2 times of:
  All C(H) groups, All C(H,H) groups, All C(H,H,H,H) groups
 At 1.5 times of:
  All C(H,H,H) groups, All O(H) groups
2. Same fragment restrains
{N1, C2, O3, C4, C5, C6B, C7B, O8B, C9B} sigma for 1-2: 0.02, 1-3: 0.04
as
{N1, C2, O3, C4, C5, C6, C7, O8, C9}
3. Others
 Sof(H5C)=Sof(H5D)=Sof(C6B)=Sof(H6B)=Sof(C7B)=Sof(H7B)=Sof(O8B)=Sof(H8B)=
 Sof(C9B)=Sof(H9B1)=Sof(H9B2)=Sof(H9B3)=1-FVAR(1)
 Sof(H5A)=Sof(H5B)=Sof(C6)=Sof(H6)=Sof(C7)=Sof(H7)=Sof(O8)=Sof(H8)=Sof(C9)=
 Sof(H9A)=Sof(H9B)=Sof(H9C)=FVAR(1)
 Uiso(C6B)=Uiso(C7B)=Uiso(O8B)=Uiso(C9B)=FVAR(2)
4.a Ternary CH refined with riding coordinates:
 C6(H6), C7(H7), C6B(H6B), C7B(H7B)
4.b Secondary CH2 refined with riding coordinates:
 C4(H4A,H4B), C5(H5A,H5B), C5(H5C,H5D)
4.c Idealised Me refined as rotating group:
 C9(H9A,H9B,H9C), C9B(H9B1,H9B2,H9B3)
4.d Idealised tetrahedral OH refined as rotating group:
 O8B(H8B)
;
_shelx_res_file
;
TITL dan1c in P2(1)/n
    dan1c.res
    created by SHELXL-2018/3 at 10:36:37 on 28-Apr-2019
REM P2(1)/n (#14 in standard setting)
CELL 1.54184   4.573401   9.822151  15.067150  90.0000  94.5192  90.0000
ZERR    4.00   0.000173   0.000359   0.000644   0.0000   0.0037   0.0000
LATT  1
SYMM -x+1/2, y+1/2,-z+1/2
SFAC C H N O
UNIT 24.00 44.00 4.00 8.00

L.S. 20
PLAN  20
BOND $H
list 4
fmap 2 53
acta
conf
more -1
temp -173
REM <olex2.extras>
REM <HklSrc "%./nd1.hkl">
REM </olex2.extras>

same n1 > c5 c6b > c9b
WGHT    0.085900    0.180100
FVAR      10.40854   0.90789   0.02102
N1    3    0.274334    0.383693    0.558180    11.00000    0.02933    0.01856 =
         0.02695   -0.00014   -0.00087    0.00556
H1    2    0.186028    0.456636    0.570673    11.00000    0.02669
C2    1    0.230259    0.328469    0.478010    11.00000    0.02566    0.01865 =
         0.02808   -0.00045    0.00252   -0.00035
O3    4    0.055070    0.370580    0.417150    11.00000    0.03644    0.02379 =
         0.02696   -0.00193   -0.00219    0.00625
C4    1    0.432884    0.208172    0.471226    11.00000    0.03672    0.02747 =
         0.03643   -0.00701   -0.00224    0.00980
AFIX  23
H4A   2    0.591278    0.229279    0.432227    11.00000   -1.20000
H4B   2    0.323784    0.127273    0.447494    11.00000   -1.20000
AFIX   0
C5    1    0.557603    0.184283    0.567405    11.00000    0.03080    0.02067 =
         0.03445   -0.00151    0.00221    0.00606
part 1 21
AFIX  23
H5A   2    0.768365    0.160440    0.569536    21.00000   -1.20000
H5B   2    0.450807    0.110046    0.595362    21.00000   -1.20000
AFIX  23
part 2 -21
H5C   2    0.767411    0.210087    0.574383   -21.00000   -1.20000
H5D   2    0.539998    0.087031    0.583405   -21.00000   -1.20000
AFIX   0
part 1 21
C6    1    0.512727    0.320963    0.614871    21.00000    0.02192    0.01893 =
         0.02792    0.00279    0.00302    0.00065
AFIX  13
H6    2    0.694205    0.377731    0.614747    21.00000   -1.20000
AFIX   0
C7    1    0.428920    0.301309    0.709543    21.00000    0.02365    0.02094 =
         0.02852    0.00375    0.00185    0.00095
AFIX  13
H7    2    0.253091    0.240758    0.709358    21.00000   -1.20000
AFIX   0
O8    4    0.680522    0.232469    0.752339    21.00000    0.03483    0.03754 =
         0.02980    0.01158    0.00207    0.01148
H8    2    0.632050    0.202710    0.804907    21.00000    0.04740
C9    1    0.368432    0.434177    0.756771    21.00000    0.03302    0.02424 =
         0.02711    0.00019    0.00368   -0.00087
AFIX 137
H9A   2    0.331542    0.415157    0.818755    21.00000   -1.50000
H9B   2    0.196051    0.478471    0.726650    21.00000   -1.50000
H9C   2    0.538762    0.494443    0.755314    21.00000   -1.50000
AFIX   0
part 2 -21
C6B   1    0.370014    0.277741    0.630778   -21.00000   31.00000
AFIX  13
H6B   2    0.202644    0.228831    0.655470   -21.00000   -1.20000
AFIX   0
C7B   1    0.569100    0.347964    0.699922   -21.00000   31.00000
AFIX  13
H7B   2    0.742053    0.389402    0.673458   -21.00000   -1.20000
AFIX   0
O8B   4    0.655658    0.231874    0.757529   -21.00000   31.00000
AFIX 147
H8B   2    0.714396    0.167988    0.726411   -21.00000   -1.50000
AFIX   0
C9B   1    0.413006    0.450913    0.754989   -21.00000   31.00000
AFIX 137
H9B1  2    0.350788    0.528908    0.717571   -21.00000   -1.50000
H9B2  2    0.546942    0.481977    0.804860   -21.00000   -1.50000
H9B3  2    0.240721    0.408181    0.778012   -21.00000   -1.50000
part 0
AFIX   0
HKLF 4




REM  dan1c in P2(1)/n
REM wR2 = 0.1358, GooF = S = 1.077, Restrained GooF = 1.089 for all data
REM R1 = 0.0478 for 1253 Fo > 4sig(Fo) and 0.0502 for all 1338 data
REM 107 parameters refined using 12 restraints

END

WGHT      0.0848      0.1890

REM Highest difference peak  0.228,  deepest hole -0.192,  1-sigma level  0.053
Q1    1   0.5507  0.2482  0.5952  11.00000  0.05    0.23
Q2    1   0.3261  0.1668  0.4947  11.00000  0.05    0.22
Q3    1   0.5011  0.1853  0.5218  11.00000  0.05    0.22
Q4    1   0.2164  0.2301  0.6813  11.00000  0.05    0.21
Q5    1   0.8627  0.2148  0.7430  11.00000  0.05    0.20
Q6    1   0.8583  0.2745  0.7552  11.00000  0.05    0.20
Q7    1   0.4001  0.1574  0.4189  11.00000  0.05    0.20
Q8    1   0.4026  0.3740  0.7316  11.00000  0.05    0.20
Q9    1   0.3357  0.2719  0.4646  11.00000  0.05    0.19
Q10   1   0.2297  0.3579  0.4010  11.00000  0.05    0.18
Q11   1   0.3899  0.3022  0.6560  11.00000  0.05    0.18
Q12   1  -0.1504  0.4186  0.4006  11.00000  0.05    0.18
Q13   1   0.1399  0.3283  0.5608  11.00000  0.05    0.18
Q14   1   0.1818  0.4641  0.7578  11.00000  0.05    0.17
Q15   1  -0.0087  0.3182  0.4388  11.00000  0.05    0.16
Q16   1  -0.0832  0.4134  0.4177  11.00000  0.05    0.15
Q17   1   0.3727  0.3550  0.5944  11.00000  0.05    0.14
Q18   1   0.0779  0.3813  0.4006  11.00000  0.05    0.14
Q19   1   0.7535  0.1249  0.5909  11.00000  0.05    0.13
Q20   1   0.4049  0.4399  0.8117  11.00000  0.05    0.13
;
_shelx_res_checksum              58644
_shelx_hkl_file
;
   0   0   2 30632.5 674.562  29
   0   0  -2 29518.9 601.463  30
   0   0   3-1.90841 20.6538  32
   0   0   3-0.94564 26.2090  29
   0   0   4 290262. 5647.86  32
   0   0   5 37.0486 45.8447  32
   0   0   6 633410. 12149.0  32
   0   0   7-22.7958 53.2841  32
   0   0   8 105.689 71.7857  32
   0   0   9 0.37763 43.1580  32
   0   0  10 19652.6 948.931  32
   0   0  11-5.47125 63.3542  32
   0   0 -12 10520.2 547.393   9
   0   0 -13-9.48965 35.3759   9
   0   0 -14 4704.90 377.271   9
   0   0  14 4436.71 382.462  20
   0   0  15 183.487 81.2975  20
   0   0 -15 210.334 85.1210   9
   0   0  16 5096.87 355.243  20
   0   0 -16 4694.66 327.000   9
   0   0  17-29.1291 36.9794  20
   0   0  18 5741.09 297.562  20
   0  -1   0 94.8917 23.7059  28
   0   1   0 31.5982 15.5305  33
   0  -1   1 161324. 3118.90  28
   0   1   1 156787. 3096.27  33
   0  -1   1 162685. 3042.77  34
   0  -1   2 64756.1 1427.85  28
   0   1   2 67877.7 1414.70  32
   0   1   2 63440.6 1381.20  33
   0  -1  -3 498.345 54.4525  31
   0   1   3 608.479 82.4052  32
   0  -1   3 492.062 68.3599  32
   0  -1  -4 15989.0 469.133  31
   0   1   4 17870.9 554.168  29
   0   1   4 18013.6 583.693  32
   0  -1   4 17029.1 558.579  32
   0  -1   5 25781.4 790.911  32
   0   1   5 26583.1 814.638  32
   0   1   5 26357.7 768.692  29
   0  -1   6 8544.09 439.474  32
   0   1   6 9185.98 431.146  29
   0   1   6 8838.38 453.489  32
   0  -1  -6 8025.23 349.476  31
   0  -1   7 17402.2 717.977  32
   0   1   7 18981.1 750.067  32
   0  -1  -7 16210.1 585.720  31
   0   1   7 17663.1 683.602  29
   0   1   8 34454.1 1183.16  32
   0  -1   8 33554.6 1154.97  32
   0  -1   9 0.37765 44.9808  32
   0   1   9 44.1167 48.1248  32
   0   1  10 5370.95 479.282  32
   0   1  11 759.957 206.655  32
   0  -1  11 1161.60 276.064  28
   0  -1 -12 14170.8 630.023   9
   0  -1 -12 12376.2 554.568   4
   0   1 -12 14354.3 644.188   9
   0  -1 -13 8.22219 38.2118   4
   0   1  13 48.7031 50.2355  20
   0   1 -13 3.46379 33.5275   9
   0  -1 -13 61.9382 46.8426   9
   0  -1 -14 45454.3 1327.98   9
   0   1 -14 44354.3 1330.77   9
   0   1  14 43676.1 1363.71  20
   0   1  15 1792.58 223.151  20
   0   1 -15 1975.73 221.391   9
   0  -1  16 1485.26 190.593  20
   0   1  16 1398.30 180.195  20
   0   1 -16 1288.14 170.603   9
   0  -1  17 626.993 112.653  20
   0   1  17 600.700 113.447  20
   0   1  18 364.178 70.9599  20
   0  -1  18 513.702 85.2100  20
   0   2   0 713627. 13312.3  33
   0  -2   0 709515. 13317.5  28
   0  -2  -1 42569.5 993.362  28
   0  -2   1 39997.6 874.042  34
   0   2   1 43025.0 1000.42  33
   0  -2   1 41611.5 1008.52  28
   0  -2   2 13090.6 392.493  34
   0  -2   2 13597.2 485.942  28
   0   2   2 13503.8 465.645  33
   0  -2   3 66115.6 1598.74  28
   0   2   3 64736.6 1542.89  33
   0   2   3 70236.9 1582.68  32
   0   2   4 51085.1 1305.78  32
   0   2   4 48883.7 1259.96  33
   0  -2   4 49316.3 1334.66  28
   0  -2   5 714.778 136.821  28
   0   2   5 642.265 116.071  32
   0   2   6 7243.07 427.380  32
   0   2   6 6631.87 389.502  29
   0  -2   6 7054.84 461.283  28
   0   2   7 2130.83 232.429  29
   0  -2   7 2324.45 282.387  28
   0   2   7 2283.83 255.662  32
   0  -2   8 3618.66 384.240  28
   0   2   8 3309.18 313.201  29
   0   2   8 3279.33 327.661  32
   0  -2   9 23138.9 1112.18  28
   0   2   9 22036.0 990.356  32
   0  -2  10-1.18966 74.1584  28
   0   2  10 77.2588 77.0838  32
   0  -2  11 4182.72 521.765  28
   0   2  11 4266.33 478.545  32
   0  -2 -12 1437.85 181.200   4
   0   2  12 1176.12 181.907  20
   0  -2 -12 1610.76 197.770   9
   0  -2  12 1554.38 203.596  16
   0   2  13 11327.2 595.539  20
   0   2 -13 12009.0 595.905   9
   0  -2 -13 11696.2 546.320   4
   0  -2 -14 607.074 119.971   4
   0   2 -14 750.549 141.497   9
   0   2  14 704.849 143.553  20
   0   2  15 21109.8 800.389  20
   0   2 -15 19572.4 760.242   9
   0  -2 -16 96.3069 43.0809   4
   0   2  16 185.833 65.2772  20
   0  -2  16 19.3573 38.4037  20
   0   2 -16 92.7082 66.9688   9
   0   2  17 4142.77 274.652  20
   0  -2  17 4451.93 288.337  20
   0   2 -17 4259.60 271.349   9
   0  -2 -18 1214.84 128.830   7
   0  -2  18 1207.41 124.679  20
   0  -3   0 24.2861 36.5138  28
   0   3   0 21.3822 32.1458  33
   0   3   1 80249.6 1820.13  33
   0  -3  -1 80766.9 1812.01  28
   0   3  -1 77790.7 1796.80  33
   0  -3   1 79559.8 1820.50  28
   0  -3   2 6187.41 341.430  28
   0  -3   2 5321.19 228.172  34
   0   3   2 5730.40 320.180  33
   0   3   3 23046.9 760.286  33
   0  -3   3 24394.1 818.677  28
   0   3   4 30474.5 976.840  32
   0  -3   4 29342.4 977.966  28
   0   3   4 29681.1 928.320  33
   0  -3   4 27411.1 825.133  34
   0   3   5 1322.41 172.761  32
   0  -3   5 1367.83 161.543  34
   0  -3   5 1419.53 195.787  28
   0   3   5 1232.57 165.972  33
   0  -3   6 9927.60 514.356  34
   0   3   6 10043.2 554.267  32
   0  -3   6 10449.8 598.744  28
   0   3   7 3778.13 352.828  32
   0  -3   7 3700.89 370.203  28
   0  -3   7 3125.84 302.935  34
   0   3   7 3638.25 327.007  29
   0  -3   8 40592.7 1515.06  28
   0  -3   8 39579.9 1390.59  34
   0   3   8 39982.4 1353.18  29
   0   3   8 42942.7 1442.99  32
   0   3   9 19657.8 928.795  29
   0  -3   9 21895.8 1102.44  28
   0   3   9 21520.1 1016.17  32
   0  -3  10 2745.92 401.622  28
   0   3  10 1953.97 314.154  32
   0   3  11 365.574 106.074  20
   0  -3  11 555.067 213.068  28
   0  -3 -11 632.836 124.526   4
   0   3 -11 495.449 105.067   5
   0   3  11 508.208 172.946  32
   0  -3  11 472.883 107.993  16
   0   3  12-0.30409 47.7344  20
   0  -3 -12 8.56139 27.4999   4
   0  -3  12-19.7565 51.5035  16
   0  -3 -13 659.709 129.102   4
   0   3  13 710.712 142.633  20
   0  -3  13 710.608 139.929  16
   0   3  14 1374.09 197.706  20
   0  -3  14 1797.36 205.529   8
   0   3 -14 1906.95 225.356   9
   0  -3 -14 1454.88 180.849   4
   0  -3 -15-38.1064 33.5562   4
   0   3 -15 13.0874 56.6067   9
   0  -3  15 86.9476 57.6972   8
   0   3  15 76.1435 68.5030  20
   0   3  16 1631.42 179.740  20
   0  -3 -16 1770.71 200.131   7
   0   3 -16 1831.17 188.802   9
   0  -3  16 1580.67 165.023   8
   0  -3 -17 449.719 89.4582   7
   0   3 -17 386.008 78.9143   9
   0   3  17 288.073 65.2088  20
   0  -3  17 421.693 86.6425  20
   0  -3 -18 16.8469 19.4292   7
   0  -3  18 27.0053 20.4162  20
   0   4   0 40915.7 1183.73  33
   0  -4   0 42549.0 1187.73  28
   0  -4  -1 23861.5 810.765  28
   0   4   1 22875.6 812.584  33
   0  -4   1 22820.1 803.463  28
   0   4  -1 23921.0 806.592  33
   0  -4   2 241982. 5085.90  28
   0   4   2 250244. 5092.05  33
   0   4  -2 250433. 5066.69  33
   0   4   3 4484.22 333.242  33
   0  -4   3 4473.60 342.295  28
   0   4   4 106217. 2581.74  33
   0   4   4 110210. 2617.22  32
   0  -4   4 109644. 2657.90  28
   0   4   5 116073. 2836.07  33
   0  -4   5 123505. 2992.73  28
   0   4   5 120812. 2934.46  32
   0  -4   6 10621.6 657.032  28
   0   4   6 10961.3 631.775  32
   0  -4   7 2002.19 295.985  28
   0   4   7 2150.70 293.303  32
   0   4   8 56169.1 1776.89  29
   0  -4   8 57154.3 1948.25  28
   0   4   8 57443.6 1868.20  32
   0   4   9 4751.31 453.757  29
   0  -4   9 5196.02 538.622  28
   0   4   9 5120.24 499.471  32
   0   4  10 4513.77 496.675  32
   0  -4 -10 4716.65 326.936   4
   0   4  10 4063.10 434.201  29
   0  -4  10 4405.26 340.312  25
   0  -4  10 4921.00 557.868  28
   0   4 -10 4307.58 315.431   5
   0  -4  10 5018.00 353.495  16
   0  -4  11 54765.8 1520.39  16
   0  -4 -11 57337.6 1482.82   4
   0   4 -11 53048.0 1470.41   5
   0  -4  11 53235.0 1532.21  25
   0  -4 -12 217.982 80.4367   4
   0   4  12 249.556 84.5077  20
   0  -4  12 343.517 106.433  16
   0  -4 -13 6223.69 392.091   4
   0  -4  13 6655.97 425.264  16
   0   4  13 5996.88 412.904  20
   0  -4 -14 10054.0 549.303   7
   0   4 -14 8478.46 485.079   9
   0  -4 -14 9105.23 466.666   4
   0  -4  14 9267.05 491.621   8
   0   4  14 7978.85 465.475  20
   0   4 -15 833.741 139.869   9
   0   4  15 510.471 99.3648  20
   0  -4  15 789.751 129.899   8
   0  -4 -15 709.337 131.863   7
   0   4  16 56.2666 36.0405  20
   0   4 -16-19.2501 43.6292   9
   0  -4 -16 22.1968 38.3057   7
   0  -4  16 49.0514 34.7433   8
   0  -4  17 10642.8 409.803  20
   0   4 -17 10535.3 396.434   9
   0   5   0 96.5358 67.1980  33
   0  -5   0-33.8201 32.8146  28
   0  -5   1 58037.8 1614.08  28
   0   5  -1 55147.4 1591.10  33
   0   5   1 55965.0 1609.60  33
   0   5   2 1180.84 187.645  33
   0   5  -2 1551.65 207.746  33
   0  -5   2 1278.98 192.864  28
   0   5  -3 54465.0 1595.37  33
   0   5   3 56096.0 1626.86  33
   0  -5   3 54880.5 1621.98  28
   0   5   4 1655.70 237.569  32
   0   5   4 1348.69 211.946  33
   0   5  -4 1571.13 219.205  33
   0  -5   4 1770.24 241.037  28
   0   5  -5 27168.1 1068.96  33
   0   5   5 30828.1 1220.37  32
   0  -5   5 27744.7 1128.09  28
   0   5   5 28746.6 1116.29  33
   0   5   6 680.504 167.390  33
   0  -5   6 636.819 179.946  28
   0   5   6 733.492 173.919  32
   0  -5   7 18746.3 1006.13  28
   0   5   7 18845.2 964.926  32
   0   5   8 410.791 140.610  32
   0  -5   8 665.519 198.713  28
   0   5   8 419.725 147.238  29
   0  -5   9 39913.2 1242.73  25
   0  -5  -9 40076.7 1200.54   4
   0  -5   9 41811.0 1274.41  15
   0  -5   9 44392.0 1812.93  28
   0   5   9 41974.5 1681.34  32
   0   5   9 39583.1 1561.46  29
   0  -5  -9 43999.1 1343.85   7
   0  -5  10 2508.04 262.721  25
   0  -5  10 2204.96 237.897  16
   0  -5 -10 2909.24 298.428   7
   0   5 -10 2224.29 227.929   5
   0  -5 -10 2710.73 248.976   4
   0  -5  11 174.064 76.8717  25
   0  -5 -11 43.4916 43.2230   4
   0   5  11 219.987 91.5311  20
   0  -5 -11 238.662 100.274   7
   0  -5  11 166.764 74.1497  16
   0   5 -11 125.192 56.4013   5
   0  -5 -12 7838.65 497.848   7
   0  -5  12 6918.73 448.201  25
   0   5  12 6511.40 429.245  20
   0  -5 -12 7128.14 419.420   4
   0  -5  12 6678.54 427.904  16
   0  -5 -13 5358.93 401.041   7
   0  -5  13 5144.23 360.384  16
   0  -5  13 6056.51 390.451   8
   0  -5 -13 5607.39 357.803   4
   0  -5 -14 4612.95 350.676   7
   0  -5  14 4392.73 316.778   8
   0  -5  15 1154.38 146.670   8
   0  -5 -15 1168.17 157.410   7
   0   5 -15 1142.89 149.141   9
   0  -5  16 9910.12 410.632   8
   0   5 -16 9839.52 414.060   9
   0  -5 -16 9614.60 436.480   7
   0   6   0 7212.60 521.602  33
   0  -6   0 7640.60 520.511  28
   0   6   1 7526.88 532.546  33
   0  -6   1 7600.79 522.118  28
   0   6  -1 7918.02 548.135  33
   0   6   2 67917.2 2002.34  33
   0  -6   2 68662.6 2000.32  28
   0   6  -2 70665.4 2031.39  33
   0   6   3 1410.22 235.109  33
   0   6  -3 1653.23 249.309  33
   0  -6   3 1093.77 205.652  28
   0  -6   4 14790.9 804.915  28
   0   6   4 14590.7 801.242  33
   0   6   4 14839.2 826.334  32
   0   6  -4 13577.3 771.682  33
   0   6  -5 1200.32 220.683  33
   0  -6   5 1325.25 246.302  28
   0   6   5 1482.37 257.280  33
   0   6   5 1729.39 299.362  32
   0   6   6 8224.22 624.666  33
   0   6   6 9438.79 698.683  32
   0   6  -6 7886.44 602.634  33
   0  -6   6 8590.25 651.277  28
   0   6   7 4091.45 459.907  32
   0  -6   7 3500.34 292.511  25
   0  -6   7 3584.96 302.022  15
   0  -6   7 3888.65 450.038  28
   0  -6   7 3867.03 301.986   6
   0  -6  -8 3800.96 340.368   7
   0  -6   8 3274.16 290.901  25
   0  -6  -8 3807.70 304.484   4
   0  -6   8 3515.80 294.993   6
   0  -6   8 3376.72 299.860  15
   0  -6  -9 2856.80 263.467   4
   0  -6   9 2549.14 264.088  25
   0  -6   9 2659.11 270.906  15
   0  -6  -9 2851.70 300.245   7
   0  -6  10 18276.9 754.426  16
   0  -6 -10 20577.1 861.185   7
   0  -6 -10 18000.8 732.701   4
   0  -6  10 19406.4 797.557  15
   0  -6  10 17730.8 762.638  25
   0  -6 -11 13736.2 620.449   4
   0  -6  11 14198.7 646.562  16
   0  -6  11 15198.1 673.403   8
   0  -6  11 14530.9 677.448  25
   0  -6 -11 15649.2 734.392   7
   0  -6  12 7088.59 424.552   8
   0  -6  12 6620.03 409.717  16
   0  -6  12 6428.80 422.895  25
   0  -6 -12 7330.06 473.331   7
   0  -6  13 3514.51 281.781  16
   0  -6 -13 4304.30 339.058   7
   0  -6  13 4209.54 307.785   8
   0  -6 -14 3800.01 296.535   7
   0  -6  14 3566.60 265.775   8
   0   6 -15 8355.18 385.414   9
   0  -6  15 8504.18 384.904   8
   0  -6 -15 8064.05 402.537   7
   0   6 -16 1893.35 146.864   9
   0  -6  16 2247.30 157.610   8
   0  -6 -16 1875.87 155.586   7
   0   7   0 18.9146 61.3397  33
   0   7   1 41250.5 1555.28  33
   0  -7   1 40705.5 1515.58  28
   0   7  -1 40913.9 1564.83  33
   0  -7   2 10565.5 705.978  28
   0   7   2 10962.5 728.940  33
   0   7  -2 10458.2 730.196  33
   0  -7   3 12970.2 801.356  28
   0   7  -3 12029.0 793.173  33
   0   7   3 12430.8 792.249  33
   0   7   4 391.612 134.779  32
   0   7   4 247.897 116.325  33
   0  -7   4 424.494 151.057  28
   0   7  -4 275.381 118.852  33
   0  -7  -5 2100.52 249.211   7
   0  -7   5 2176.12 333.015  28
   0   7  -5 2366.30 356.679  33
   0   7   5 2204.16 361.791  32
   0  -7   5 2222.47 232.739   6
   0   7   5 2515.87 364.882  33
   0  -7   5 2264.64 239.734  15
   0  -7   5 2137.38 227.524  25
   0  -7   6 4910.17 357.829  25
   0  -7   6 4913.66 357.571   6
   0  -7  -6 5226.46 405.568   7
   0  -7   6 4440.67 333.647   8
   0  -7   6 5438.30 383.455  15
   0  -7   7 2719.86 262.734   8
   0  -7   7 2912.16 281.603  15
   0  -7   7 2500.77 255.386  25
   0  -7   7 2603.30 258.613   6
   0  -7  -7 2867.48 301.283   7
   0  -7   8 32911.2 1090.11  15
   0  -7   8 31173.4 1053.86  25
   0  -7   8 30480.2 1051.20   8
   0  -7  -8 32993.3 1157.97   7
   0  -7   9 1475.97 198.200   8
   0  -7  -9 1660.70 234.399   7
   0  -7   9 1524.27 207.006  15
   0  -7   9 1348.29 188.045  25
   0  -7  10 2302.82 249.375  25
   0  -7  10 2519.15 262.570  15
   0  -7 -10 2431.88 275.480   7
   0  -7  10 2303.36 243.133   8
   0  -7  10 2198.82 231.301  16
   0  -7  11 23.6840 37.7194  16
   0  -7 -11 142.459 70.6414   7
   0  -7  11 41.0847 39.2192  25
   0  -7  11 31.4784 32.6249   8
   0  -7  12 860.053 132.336  16
   0  -7 -12 925.780 154.739   7
   0  -7  12 1159.97 162.806  25
   0  -7  12 1056.95 153.764   8
   0  -7  13 1250.59 142.339  16
   0  -7 -13 1562.12 185.984   7
   0  -7  13 1350.90 160.826   8
   0   7 -14 150.445 51.0455   9
   0  -7 -14 110.297 46.2080   7
   0  -7  14 136.809 46.6669   8
   0  -7  15 1753.85 140.149   8
   0  -7 -15 1509.60 138.991   7
   0  -7 -15 1449.64 127.135  26
   0   7 -15 1505.02 131.093   9
   0  -8   0 3051.01 281.037  25
   0  -8   0 2755.82 269.486  26
   0  -8   1 49.3058 28.7737  25
   0  -8  -1 115.340 43.5179  26
   0  -8   1 89.8726 58.6569   6
   0  -8   1 71.8487 29.9157  26
   0  -8  -1 124.299 50.8731  25
   0  -8  -2 682.853 134.963  26
   0  -8   2 515.893 113.883   6
   0  -8   2 479.323 107.555  25
   0  -8  -2 615.880 123.243  25
   0  -8   2 557.062 119.338  26
   0  -8   3 12908.7 608.764  25
   0  -8   3 12347.9 593.192   6
   0  -8   3 12313.6 598.964  26
   0  -8  -3 12087.7 607.852  26
   0  -8   4 4752.30 360.965  15
   0  -8   4 4706.28 351.603  25
   0  -8  -4 4539.09 359.907  26
   0  -8   4 4664.56 353.249   6
   0  -8  -5 3881.57 336.448  26
   0  -8   5 4276.73 334.728  25
   0  -8   5 3936.89 324.382   6
   0  -8   5 4143.23 340.791  15
   0  -8  -6 7255.73 465.920  26
   0  -8   6 8382.82 489.830  15
   0  -8   6 7531.03 455.401  25
   0  -8   6 7786.37 466.264   6
   0  -8   7 19496.6 791.664   6
   0  -8  -7 20456.8 833.615  26
   0  -8  -7 20599.6 881.564   7
   0  -8   7 21001.7 836.021  15
   0  -8   7 19765.7 798.136  25
   0  -8  -8 7794.67 506.234   7
   0  -8  -8 7483.31 464.523  26
   0  -8   8 8028.30 474.087  15
   0  -8   8 6362.79 412.277   8
   0  -8   8 7514.46 451.010  25
   0  -8   9 28.0333 29.4058  16
   0  -8   9 134.836 53.3675   8
   0  -8   9 25.1803 32.7967  15
   0  -8  -9 58.1984 65.0025   7
   0  -8   9 25.8493 44.8785  25
   0  -8  -9 2.08858 40.3458  26
   0  -8  10 1782.21 197.944   8
   0  -8  10 1479.14 186.709  25
   0  -8  10 1672.83 184.600  16
   0  -8 -10 1661.76 197.443  26
   0  -8 -10 1634.71 208.876   7
   0  -8  11 3292.10 259.649   8
   0  -8 -11 3105.84 257.468  26
   0  -8  11 3229.64 267.430  25
   0  -8 -11 3277.67 285.228   7
   0  -8 -12 3988.17 267.740  24
   0  -8 -12 4752.12 322.404   7
   0  -8  12 5218.75 306.066   8
   0  -8 -12 4719.63 294.734  26
   0  -8 -13 500.916 83.3609  26
   0  -8  13 611.219 90.9010  11
   0  -8  13 580.900 91.9531   8
   0  -9   0 184.817 93.8933  25
   0  -9   0-41.4552 43.4799  26
   0  -9  -1 120.512 65.3212  26
   0  -9   1 121.821 74.4249  25
   0  -9  -1 22.4895 35.6445  25
   0  -9   1 120.241 56.6871   6
   0  -9   1 7.00332 39.9180  26
   0  -9   2 10051.0 534.945  26
   0  -9  -2 10236.1 549.739  26
   0  -9   2 9435.80 511.051   6
   0  -9   2 10668.3 548.309  25
   0  -9  -2 10537.6 550.397  25
   0  -9   3 983.324 157.872   6
   0  -9  -3 1058.69 170.347  25
   0  -9   3 1220.99 186.571  15
   0  -9   3 1337.96 179.851  25
   0  -9  -3 1170.76 178.133  26
   0  -9  -4 710.680 143.752  26
   0  -9   4 563.382 125.815  15
   0  -9   4 670.118 127.594  25
   0  -9   4 583.495 122.589   6
   0  -9  -4 712.860 143.967  25
   0  -9   5 3746.96 308.724   6
   0  -9   5 4376.45 343.971  15
   0  -9  -5 3601.57 311.682  26
   0  -9   5 3752.60 311.625  25
   0  -9  -5 4054.71 326.250  25
   0  -9  -6 117.938 66.1418  26
   0  -9   6 144.850 68.2821   6
   0  -9   6 87.5373 60.1525  15
   0  -9   6 170.681 75.2805  25
   0  -9  -7 22559.9 845.720  26
   0  -9   7 24534.5 886.468  15
   0  -9   7 23981.0 857.637  25
   0  -9  -8 16699.4 685.724  26
   0  -9   8 18378.2 730.171  15
   0  -9   8 18710.4 714.577  25
   0  -9   9 5728.17 356.022  25
   0  -9   9 5954.48 372.696  15
   0  -9  -9 5727.68 351.932  26
   0  -9  10 2784.91 229.076  25
   0  -9 -10 2559.70 214.855  26
   0  -9  11 103.853 43.9266  25
   0  -9 -11 101.776 38.3549  26
   0  -9  12 1635.36 142.883  11
   0  -9 -12 1517.21 135.764  25
   0 -10   0 4263.88 327.481  25
   0 -10   1 7915.07 451.453  25
   0 -10  -1 8191.44 458.190  25
   0 -10  -1 7248.43 423.729  26
   0 -10   2 4382.19 325.057  25
   0 -10   2 4253.88 327.424  15
   0 -10   2 3688.64 285.127   6
   0 -10  -2 3790.64 296.985  26
   0 -10  -2 4389.69 326.407  25
   0 -10  -3 9132.69 477.238  26
   0 -10   3 9016.83 464.896   6
   0 -10   3 10961.6 540.218  15
   0 -10   3 9703.16 495.725  25
   0 -10  -3 9935.80 508.681  25
   0 -10   4 87.0644 43.2235  15
   0 -10  -4 55.1032 40.1212  25
   0 -10  -4 98.4071 55.6287  26
   0 -10   4 26.2839 45.2527  25
   0 -10   4 153.495 62.3468   6
   0 -10  -5 1404.26 175.052  25
   0 -10   5 1573.60 186.442  25
   0 -10   5 1561.08 187.663  15
   0 -10  -5 1558.28 180.002  26
   0 -10  -6 1163.13 157.390  25
   0 -10   6 1088.34 158.550  15
   0 -10   6 1084.83 151.733  25
   0 -10  -6 1046.79 144.217  26
   0 -10   7 38354.1 1091.26  25
   0 -10  -7 36467.5 1055.11  26
   0 -10  -7 38154.0 1093.11  25
   0 -10   8 5584.43 328.394  15
   0 -10   8 5403.26 314.562  25
   0 -10  -8 5293.04 309.945  25
   0 -10  -8 4902.35 286.524  26
   0 -10  -9 101.394 41.0066  26
   0 -10  -9 115.026 40.7001  25
   0 -10   9 93.9342 40.7667  25
   0 -10  10 658.107 90.4907  25
   0 -10 -10 506.707 77.2945  25
   0 -11   0-7.41768 29.6688  25
   0 -11   0 34.8654 38.6172  15
   0 -11  -1 282.129 74.9876  15
   0 -11   1 295.141 75.7884  25
   0 -11  -1 263.415 71.3183  25
   0 -11   1 212.985 65.9454  15
   0 -11  -2 719.006 112.627  25
   0 -11   2 662.973 112.962  15
   0 -11   2 744.174 113.343  25
   0 -11   3 95.4467 46.4925  15
   0 -11   3 49.5850 22.6864  25
   0 -11  -3 63.8852 37.3791  25
   0 -11  -4 156.892 51.2068  25
   0 -11   4 118.274 46.8558  25
   0 -11   4 179.267 58.4335  15
   0 -11   5 3760.27 245.988  25
   0 -11  -5 3644.75 242.405  25
   0 -11   5 3550.09 246.092  15
   0 -11   6 6522.52 325.902  15
   0 -11  -6 6226.58 310.789  25
   0 -11   6 6350.96 315.096  25
   0 -11   7 6403.08 300.376  25
   0 -11  -7 6133.82 290.965  25
   0 -12   0 2295.05 162.956  25
   0 -12   1 848.850 96.8262  25
   0 -12  -1 848.049 96.1398  25
   0 -12  -2 242.590 50.1084  25
   0 -12   2 324.145 58.9775  25
   0 -12  -3-2.51039 15.8232  25
   0 -12   3 24.3535 13.3204  25
  -1   0  18 64.8669 38.3209  20
  -1   0  17 5980.67 347.836  20
   1   0 -16 107.846 56.0522   9
  -1   0  16-0.63688 59.3546  20
  -1   0  15 10029.8 542.186  20
   1   0 -15 10043.8 516.479   9
   1   0 -14 30.4696 58.8625   9
  -1   0  14 61.6061 56.9300  20
   1   0 -13 2660.80 267.107   9
  -1   0  13 2579.71 279.190  20
  -1   0  12-24.0842 47.1956  20
   1   0 -12-30.5044 32.5335   9
  -1   0  11 2645.50 403.241  34
  -1   0  11 2540.78 409.053  28
  -1   0  10-84.9595 78.8333  34
  -1   0   9 33680.8 1219.90  32
  -1   0   8 51.6691 43.7933  32
  -1   0   7 1664.34 193.756  32
  -1   0   6-4.07335 26.0191  32
  -1   0   5 45247.6 1180.04  32
  -1   0   5 48957.1 1349.34  34
  -1   0   4 89.0706 57.2613  34
  -1   0   4 23.4906 24.7659  32
  -1   0   3 6288.11 334.228  34
  -1   0   3 5498.75 232.868  32
  -1   0   2 40.0563 30.7873  34
  -1   0   1 108508. 2163.15  28
  -1   0   1 137843. 2429.05  34
   1   0   0 0.39064 5.39909  32
  -1   0   0-12.4519 32.0082  31
  -1   0   0 24.1909 27.3695  34
   1   0   1 79668.0 1611.05  32
  -1   0  -1 81684.8 1752.64  31
  -1   0  -2 1.60023 33.3534  31
   1   0   2-5.44713 16.3159  32
  -1   0  -2 32.0023 27.3329   1
  -1   0  -3 1235.48 117.430   1
   1   0   3 1143.56 119.714  32
  -1   0  -3 1022.34 125.850  31
   1   0   4 8.69511 25.4725  32
  -1   0  -4-15.8156 17.1241   1
  -1   0  -5 778.932 98.2174   1
   1   0   5 747.093 120.567  32
  -1   0  -5 688.513 124.063  31
   1   0   6-13.8076 29.8969  32
  -1   0  -6 4.51484 45.3895  31
  -1   0  -7 9407.50 536.421  31
   1   0   7 11423.4 589.200  32
  -1   0  -8 45.9250 59.5008  31
   1   0   8-24.6771 38.3154  32
  -1   0  -9 13473.6 742.094  31
   1   0   9 15216.3 809.256  32
   1   0  10 272.958 137.665  32
  -1   0 -11 19375.0 766.963   9
   1   0  11 19989.1 1051.44  32
  -1   0 -11 18094.2 697.215   4
  -1   0 -12 753.142 151.948   4
  -1   0 -12 522.367 178.906   9
  -1   0 -13 85194.2 2074.45   4
  -1   0 -13 87751.7 2184.13   9
  -1   0 -14 126.701 145.143   9
   1   0  14 194.201 100.458  20
  -1   0 -14 29.4302 31.7256   4
   1   0  15-18.1587 34.8555  20
   1   0  16 15.6206 33.7823  20
  -1   0 -17 1799.34 169.670  27
   1  -1 -18 1337.05 135.136   7
  -1  -1  18 1538.77 148.708  20
  -1   1  18 1725.01 154.375  20
   1   1 -17 374.566 84.3866   9
  -1  -1  17 417.544 95.6346  20
   1   1 -16 2471.86 230.741   9
  -1  -1  16 2519.87 245.150  20
  -1   1  16 2497.51 245.420  20
  -1   1  15 452.276 112.569  20
  -1  -1  15 666.070 164.045  20
   1   1 -15 926.439 169.630   9
  -1   1  14 576.862 128.216  20
   1   1 -14 491.643 121.970   9
  -1  -1  14 695.433 149.830  20
   1  -1 -14 422.990 106.069   9
   1  -1 -13 1162.43 174.624   9
  -1   1  13 951.684 169.234  20
   1   1 -13 1045.17 167.467   9
  -1   1  12 357.996 97.2802  20
   1  -1 -12 399.850 101.294   9
   1   1 -12 323.743 91.8576   9
  -1  -1  11 11680.3 884.219  28
  -1  -1  11 13687.4 921.272  34
  -1   1  11 11486.0 762.639  32
  -1   1  10 349.808 114.003  32
  -1  -1  10 456.606 170.700  28
  -1  -1  10 318.783 160.487  34
  -1   1   9 17749.4 850.720  32
  -1  -1   9 18685.2 992.041  28
  -1   1   8 17212.5 773.202  32
  -1  -1   8 18943.1 899.897  34
  -1  -1   8 18009.1 889.999  28
  -1   1   7 121910. 2876.67  32
  -1  -1   7 124865. 3062.99  28
  -1   1   6 1614.81 178.600  32
  -1  -1   6 1420.58 195.096  28
  -1  -1   6 1436.61 196.899  34
  -1  -1   5 137542. 3015.86  34
  -1  -1   5 140708. 2989.95  28
  -1   1   5 130797. 2879.96  29
  -1  -1   5 125336. 2702.11   1
  -1   1   5 134632. 2816.44  32
  -1  -1   4 425.748 96.1316  28
  -1  -1   4 541.070 112.519  34
  -1   1   4 484.132 90.6893  29
  -1  -1   4 375.582 67.2851   1
  -1   1   4 325.530 63.5852  32
  -1  -1   3 88551.6 1952.16  28
  -1   1   3 86083.8 1859.83  30
  -1   1   3 93063.2 2004.68  34
  -1  -1   3 89864.5 1888.58   1
  -1   1   3 85673.2 1834.23  32
  -1  -1   3 90326.4 2041.57  34
  -1   1   3 88100.3 1955.87  29
  -1   1   2 179060. 3474.95  34
  -1  -1   2 175169. 3529.76  34
  -1  -1   2 168483. 3393.99   1
  -1   1   2 168986. 3400.78  30
  -1  -1   2 174931. 3401.12  28
  -1   1   2 169101. 3414.99  29
  -1   1   2 166154. 3272.75  32
  -1   1   1 965959. 17859.4  32
  -1  -1   1 984031. 18129.8  34
  -1  -1   1 950573. 18017.5   1
  -1   1   1 958554. 18061.0  30
  -1   1   1 957415. 17987.7  29
  -1  -1   1 970041. 17958.5  28
  -1   1   1 999999. 18068.1  34
  -1   1   1 964027. 17972.6  31
  -1   1   0 2843.27 169.499  34
  -1  -1   0 2898.62 146.496  28
  -1  -1   0 2901.14 203.128  34
  -1   1   0 3088.09 146.029  29
  -1   1   0 3323.77 206.063  30
   1  -1   1 38312.7 860.748  28
  -1   1  -1 38371.2 810.500  29
  -1   1  -1 40859.9 1016.07  30
  -1   1  -2 80206.2 1750.17   1
  -1  -1  -2 83005.4 1814.09  31
   1   1   2 85824.0 1788.76  32
  -1   1  -2 81247.6 1819.75  30
  -1  -1  -2 80655.7 1751.08   1
   1   1   2 78210.8 1666.41  33
   1  -1   2 79669.6 1733.37  28
   1   1   3 3984.45 192.648  33
  -1  -1  -3 4099.59 262.160  31
   1  -1   3 3894.46 229.136  32
  -1   1  -3 4055.46 218.114   1
   1   1   3 4459.33 259.079  32
  -1   1  -3 4392.90 265.127  30
  -1  -1  -3 4092.78 224.913   1
  -1  -1  -4 65164.9 1583.76  31
   1   1   4 68393.9 1603.32  32
  -1  -1  -4 63339.9 1467.68   1
   1  -1   4 65951.8 1546.29  32
  -1   1  -4 66992.3 1573.45  30
  -1   1  -5 109.443 44.7809  30
   1   1   5 84.6323 29.7988  29
   1  -1   5 89.3131 48.9083  32
  -1  -1  -5 26.2230 34.3217  31
  -1   1  -5 18.1365 15.1377   1
   1   1   5 99.3571 48.7347  32
   1   1   6 33481.2 1079.89  32
   1  -1   6 32627.2 1051.98  32
  -1  -1  -6 32455.1 1052.50  31
   1   1   7 43127.3 1339.97  32
  -1  -1  -7 39597.2 1268.89  31
   1  -1   7 41611.9 1307.82  32
  -1  -1  -8 22252.5 931.551  31
   1   1   8 25062.7 1015.99  32
   1  -1   8 25247.5 1004.39  32
  -1   1  -9 19762.7 946.671  31
   1  -1   9 22069.6 991.490  32
  -1  -1  -9 18895.9 884.390  31
   1   1   9 22562.5 1012.47  32
   1  -1  10 7562.60 667.216  28
  -1   1 -10 7367.08 580.891  31
   1   1  10 8626.87 644.447  32
  -1  -1 -11 884.465 148.839   9
  -1   1 -11 1786.28 219.602   9
   1   1  11 750.685 200.054  32
   1  -1  11 2074.28 393.714  28
   1  -1  11 1499.70 192.682  16
  -1  -1 -11 832.405 137.422   4
  -1   1 -11 1576.66 197.071   5
  -1  -1 -12 18393.2 763.018   9
  -1  -1 -12 18589.4 716.300   4
   1  -1  12 19207.0 763.623  16
  -1   1 -12 17351.5 748.370   9
  -1  -1 -13 471.350 107.698   4
  -1   1 -13 3340.46 359.732   9
  -1  -1 -14 17295.0 671.905   4
  -1   1 -14 16145.4 700.736   9
  -1   1 -15 109.356 59.0391   9
  -1  -1 -15 123.154 60.4185   4
   1  -1  16 401.625 90.0003  20
  -1  -1 -16 482.398 98.3003  27
  -1  -1 -16 475.809 86.6247   4
  -1  -1 -17 4912.12 292.556   7
   1  -1  17 4537.28 261.677  20
  -1   1 -17 5258.34 308.979  27
  -1   2  18 1906.70 157.193  20
  -1  -2  18 1740.11 151.970  20
  -1  -2  17 4050.14 271.717  20
   1   2 -17 3820.03 253.004   9
  -1   2  17 3923.80 271.281  20
   1  -2 -17 3434.46 254.753   7
  -1  -2  16 6653.58 398.887  20
   1   2 -16 6286.28 371.550   9
  -1   2  16 6085.67 383.042  20
   1   2 -15 2576.01 248.700   9
  -1   2  15 2189.20 245.341  20
  -1  -2  15 2194.49 237.461  20
  -1   2  14 1330.11 199.092  20
   1   2 -14 1806.46 220.573   9
   1   2 -13 8995.80 512.379   9
  -1   2  13 9359.24 541.917  20
   1  -2 -12 14492.1 636.880   9
  -1  -2  12 13392.2 609.310   8
  -1   2  12 14036.1 676.572  20
  -1  -2  11 18485.1 1131.71  28
  -1   2  11 17747.4 750.990  20
  -1   2  11 15691.7 931.807  32
  -1  -2  11 18578.2 1115.98  34
  -1  -2  10 4442.19 502.678  34
  -1  -2  10 4616.37 510.819  28
  -1   2  10 3924.01 415.415  32
  -1  -2   9 63559.0 2034.83  34
  -1  -2   9 61466.4 2039.13  28
  -1   2   9 56756.5 1814.82  32
  -1  -2   8 38871.8 1437.92  28
  -1  -2   8 38908.0 1425.08  34
  -1   2   8 36905.1 1273.06  32
  -1  -2   7 42077.3 1419.14  34
  -1  -2   7 42618.2 1422.19  28
  -1   2   7 40165.1 1292.89  29
  -1   2   7 39723.7 1257.55  32
  -1   2   6 44552.4 1325.30  29
  -1  -2   6 46645.1 1431.28  34
  -1   2   6 42959.7 1267.31  32
  -1  -2   6 45380.8 1404.06  28
  -1  -2   5 179291. 3841.53  28
  -1  -2   5 178244. 3866.96  34
  -1   2   5 177816. 3696.42  32
  -1   2   5 170325. 3742.43  29
  -1   2   4 111392. 2353.54  32
  -1  -2   4 114239. 2534.06  34
  -1  -2   4 100436. 2197.56   1
  -1  -2   4 115668. 2492.29  28
  -1   2   4 111739. 2436.93  29
  -1   2   4 105221. 2279.58  30
  -1  -2   3 16903.9 516.616   1
  -1  -2   3 17494.1 665.268  34
  -1   2   3 18205.0 622.958  34
  -1   2   3 17611.5 566.093  32
  -1   2   3 17153.1 618.455  29
  -1  -2   3 18375.0 653.932  28
  -1  -2   2 214180. 4229.70  28
  -1   2   2 210232. 4180.12  34
  -1  -2   2 211314. 4307.03  34
  -1  -2   2 206946. 4132.05   1
  -1   2   1 452912. 8548.53  33
  -1  -2   1 456741. 8544.23  28
  -1  -2   1 458716. 8652.34  34
  -1  -2   1 440923. 8503.62   1
  -1   2   1 438799. 8470.25  34
  -1   2   0 391596. 7401.32  34
  -1  -2   0 402697. 7521.40  28
  -1   2   0 395736. 7482.74  33
  -1  -2   0 383451. 7489.29   1
   1  -2   0 392427. 7431.10  28
   1  -2   1 216.854 50.3680  28
  -1   2  -1 169.178 40.0361  33
   1   2   1 160.627 43.5191  33
  -1  -2  -2 35912.6 935.052   1
  -1   2  -2 34208.1 827.434  33
   1   2   2 37177.2 947.738  33
   1  -2   2 37082.2 958.000  28
   1  -2   3 12629.4 504.834  28
   1   2   3 13696.2 552.192  32
  -1   2  -3 10665.6 347.201  33
   1   2   3 12831.1 470.172  33
  -1   2  -3 11648.1 427.246   1
   1   2   4 4964.15 282.353  33
  -1   2  -4 3859.17 215.070   1
   1   2   4 4806.49 322.113  32
  -1   2  -4 4764.23 320.845  30
   1  -2   4 4543.20 318.679  28
   1   2   5 111101. 2512.29  32
   1  -2   5 110189. 2552.88  28
  -1   2  -5 107498. 2455.60  30
  -1   2  -6 44848.6 1312.51  30
   1  -2   6 48419.8 1468.01  28
   1   2   6 49945.3 1433.38  32
   1   2   6 42258.4 1205.21  29
   1   2   7 234.342 91.0178  32
  -1   2  -7 56.1219 36.1347  30
   1  -2   7 317.694 121.208  28
   1   2   8 60.0486 76.9282  32
   1  -2   8 92.6636 83.2313  28
   1   2   9 22870.3 1047.54  32
   1  -2   9 20587.7 1082.43  28
   1   2  10 12768.5 813.049  32
   1  -2  10 10982.8 821.243  28
   1  -2  11 2172.51 228.326  16
  -1  -2 -11 1979.79 206.142   4
  -1   2 -11 1677.40 208.674   9
  -1   2 -11 1284.09 257.483  31
  -1   2 -11 1835.79 209.176   5
   1  -2  11 1461.64 319.484  28
  -1   2 -12 626.299 125.357   5
  -1  -2 -12 621.639 122.229   4
  -1   2 -12 584.700 133.382   9
   1  -2  12 453.716 109.117  16
   1  -2  13 22758.8 856.289  16
  -1   2 -13 20945.5 844.621   9
  -1  -2 -13 23620.9 827.106   4
  -1  -2 -14 5.70182 44.9368   4
  -1   2 -14 109.003 62.7592   9
  -1  -2 -15 2627.74 227.049   4
  -1   2 -15 2900.68 252.310   9
  -1  -2 -16 41.1254 33.4067   4
  -1  -2 -16-23.4148 31.8171   7
  -1   2 -16 55.6894 40.0885   9
   1  -2  16-18.2816 44.4939  20
   1  -2  17 5005.27 268.032  20
  -1  -2 -17 4772.59 279.505   7
  -1  -3  17 736.712 110.454  20
  -1   3  17 858.494 120.765  20
   1   3 -17 918.041 119.199   9
   1  -3 -17 675.067 105.430   7
  -1   3  16 1075.41 153.586  20
   1   3 -16 996.416 141.586   9
   1  -3 -16 863.570 136.868   7
  -1  -3  16 852.676 134.128  20
  -1  -3  15 6386.80 380.534   8
   1   3 -15 7650.83 432.152   9
  -1   3  15 7774.10 451.212  20
  -1  -3  15 8076.72 457.651  20
  -1   3  14 3115.66 297.539  20
   1   3 -14 2850.62 276.454   9
  -1  -3  14 2629.75 250.671   8
  -1  -3  13 5408.02 378.558   8
  -1   3  13 6069.02 430.718  20
  -1   3  12 2379.54 262.902  20
  -1  -3  12 1989.12 224.826   8
  -1  -3  11 96.8054 57.8977   8
  -1   3  11 11.6682 34.4514  20
  -1   3  10 19668.8 1015.06  32
  -1  -3  10 19856.9 1133.48  28
  -1  -3  10 20178.1 1114.40  34
  -1   3   9 20213.0 976.398  29
  -1  -3   9 19275.2 1034.71  34
  -1  -3   9 20196.3 1078.78  28
  -1   3   9 20072.0 963.754  32
  -1   3   8 14705.6 759.318  32
  -1  -3   8 15764.5 876.220  28
  -1   3   8 14178.8 757.809  29
  -1  -3   8 14372.2 821.699  34
  -1  -3   7 5334.08 453.556  34
  -1  -3   7 5543.58 470.880  28
  -1   3   7 5710.35 425.829  32
  -1   3   7 5647.27 432.681  29
  -1  -3   6 10488.8 608.999  34
  -1  -3   6 11624.0 646.797  28
  -1   3   6 10190.7 549.147  32
  -1   3   6 10540.2 573.084  29
  -1  -3   5 8114.26 502.307  34
  -1  -3   5 9568.06 546.486  28
  -1   3   5 8454.50 485.733  29
  -1   3   5 8316.37 458.604  32
  -1  -3   4 30046.5 1033.52  34
  -1  -3   4 33522.6 1097.17  28
  -1   3   4 32325.9 998.320  32
  -1  -3   3 106090. 2489.21  34
  -1   3   3 110741. 2405.57  32
  -1  -3   3 111488. 2499.19  28
  -1   3   3 103531. 2366.43  34
  -1  -3   2 86199.3 1852.85   1
  -1   3   2 80829.4 1834.73  34
  -1   3   2 87397.2 2003.01  33
  -1  -3   2 87191.9 2002.53  28
  -1  -3   2 84904.6 2020.83  34
  -1   3   1 25520.5 758.677  33
  -1  -3   1 26450.9 823.139  34
  -1  -3   1 25312.3 762.602  28
   1  -3   0 69612.5 1623.12  28
  -1   3   0 72455.3 1676.88  33
  -1  -3   0 72216.0 1703.03  28
   1   3   1 15151.8 580.274  33
  -1   3  -1 15335.3 539.490  33
   1  -3   1 14776.7 537.013  28
   1   3   2 46601.7 1224.20  33
   1  -3   2 44219.7 1187.47  28
  -1   3  -2 42870.0 1111.14  33
   1  -3   3 3134.49 269.349  28
   1   3   3 3452.12 267.210  33
  -1   3  -3 3135.58 212.451  33
   1   3   3 3658.41 290.380  32
   1   3   4 7007.04 444.653  32
   1   3   4 6489.40 384.180  33
   1  -3   4 6145.41 403.455  28
   1  -3   5 88256.3 2236.13  28
   1   3   5 90393.5 2241.80  32
   1   3   6 62392.2 1781.99  32
   1  -3   6 60587.8 1804.27  28
  -1   3  -6 59180.8 1711.22  30
   1  -3   7 11263.9 695.108  28
   1   3   7 12123.0 689.202  32
  -1   3  -7 10202.4 592.920  30
   1  -3   8 4000.71 432.707  28
   1   3   8 4006.20 407.309  32
   1   3   9 16253.6 903.193  32
   1  -3   9 15021.3 924.475  28
  -1  -3 -10 1402.52 173.660   4
   1  -3  10 1280.89 169.515  16
   1   3  10 1326.47 254.593  32
   1  -3  10 988.820 244.746  28
  -1   3 -10 1288.87 172.352   5
  -1  -3 -11 2334.72 230.688   4
   1  -3  11 2270.58 240.845  16
  -1   3 -11 2257.61 234.044   5
   1  -3  12 62183.0 1682.43  16
  -1  -3 -12 65407.1 1653.07   4
  -1   3 -12 64423.6 1672.45   5
  -1  -3 -13 2940.70 257.036   4
  -1   3 -13 2775.40 273.322   9
   1  -3  13 2498.63 256.237  16
  -1   3 -14 6947.38 423.039   9
  -1  -3 -14 7415.43 410.779   4
  -1   3 -15 1021.98 143.615   9
  -1  -3 -15 1439.81 185.954   7
  -1  -3 -15 1251.22 153.251   4
  -1  -3 -16 959.488 120.333   4
  -1   3 -16 928.853 121.619   9
   1  -3  16 1093.85 128.729   8
  -1  -3 -16 991.558 137.414   7
   1  -3  17 109.939 42.7803  20
  -1  -3 -17 42.3780 29.8960   7
   1   4 -17 2648.59 183.983   9
  -1  -4  17 2538.21 184.191  20
  -1   4  17 2457.81 182.760  20
  -1  -4  16 1374.27 161.507  20
   1   4 -16 1432.17 159.284   9
   1  -4 -16 1285.18 152.710   7
  -1   4  16 1363.27 160.202  20
  -1   4  15 11162.9 537.406  20
   1   4 -15 10906.7 517.315   9
  -1  -4  15 10574.5 493.405   8
   1  -4 -15 10180.2 515.595   7
  -1  -4  14 1966.24 218.248   8
  -1   4  14 2272.23 246.250  20
   1  -4 -14 2061.69 238.578   7
  -1   4  13 679.867 143.085  20
   1  -4 -13 506.636 127.193   7
  -1  -4  13 674.486 136.939   8
  -1   4  12 5370.88 401.388  20
  -1  -4  12 4543.37 351.517  11
  -1  -4  12 5828.40 396.772   8
  -1  -4  11 3539.00 321.757  25
  -1  -4  11 3576.11 308.566   8
  -1   4  11 3269.66 313.930  20
  -1  -4  10 39115.9 1743.58  28
  -1  -4  10 35611.1 1189.82  25
  -1   4  10 37013.3 1214.83  20
  -1  -4  10 39553.7 1195.95   8
  -1   4   9 7083.53 585.230  29
  -1   4   9 6981.10 573.228  32
  -1  -4   9 7345.47 667.576  28
  -1  -4   8 2335.16 347.632  28
  -1   4   8 1977.56 294.148  29
  -1   4   8 2314.79 302.401  32
  -1   4   7 11826.4 683.738  32
  -1  -4   7 12907.9 795.981  28
  -1  -4   7 10985.1 684.964  34
  -1   4   7 11958.0 694.527  29
  -1   4   6 4507.69 398.381  29
  -1   4   6 5017.28 403.572  32
  -1  -4   6 4413.52 392.320  34
  -1  -4   6 5167.00 461.464  28
  -1  -4   5 14735.0 727.779  34
  -1  -4   5 16711.2 798.557  28
  -1   4   5 16692.8 746.370  32
  -1  -4   4 2243.78 260.675  28
  -1   4   4 2056.44 236.473  32
  -1  -4   4 2123.89 242.965  34
  -1  -4   3 3501.44 299.395  34
  -1   4   3 3715.85 315.648  33
  -1  -4   3 3583.16 309.471  28
  -1  -4   2 49058.8 1389.01  28
  -1   4   2 46582.5 1375.74  33
  -1  -4   2 48668.0 1393.43  34
  -1  -4   1 78920.1 1997.87  28
  -1   4   1 82602.1 2006.14  33
  -1  -4   0 9568.59 488.568  28
   1   4   0 9962.67 506.086  33
   1  -4   0 9707.06 464.407  28
  -1   4   0 9936.72 489.089  33
   1   4   1 2218.68 230.772  33
   1  -4   1 2283.32 218.270  28
  -1   4  -1 2441.04 226.381  33
   1   4   2 11243.8 552.715  33
   1  -4   2 10114.3 499.621  28
  -1   4  -2 10167.1 486.080  33
   1  -4   3 22198.4 849.017  28
  -1   4  -3 23799.4 807.052  33
   1   4   3 24282.9 893.224  33
   1   4   4 21477.6 851.395  33
   1   4   4 22960.0 944.790  32
   1  -4   4 20997.0 869.369  28
   1   4   5 58125.0 1710.30  33
   1  -4   5 63505.9 1849.25  28
   1   4   5 63644.5 1853.97  32
   1   4   6 9.12451 43.1893  32
   1  -4   6 4.89740 84.3420  28
   1   4   6 91.8567 59.7267  33
   1   4   7 2252.92 303.730  32
   1  -4   7 1992.68 301.357  28
  -1   4  -7 1771.95 269.080  30
   1  -4   8 1971.97 321.077  28
   1   4   8 2152.07 315.093  32
  -1   4  -9 10492.8 512.294   5
   1  -4   9 9165.87 740.045  28
  -1  -4  -9 9478.14 482.596   4
   1   4   9 10191.2 737.649  32
   1  -4  10 13796.8 653.277  25
  -1  -4 -10 14702.4 626.048   4
  -1  -4 -10 14888.9 721.896   7
   1  -4  10 15687.2 664.426  16
  -1   4 -10 14666.0 643.035   5
  -1   4 -11 30094.7 1000.21   5
   1  -4  11 28687.6 993.656  16
  -1  -4 -11 28530.2 958.288   4
  -1  -4 -11 29599.5 1091.31   7
  -1  -4 -12 8473.89 458.231   4
   1  -4  12 8466.09 483.505  16
  -1  -4 -12 9385.29 556.245   7
  -1   4 -12 8882.84 487.162   5
  -1  -4 -13 1918.59 205.571   4
  -1   4 -13 1725.17 212.500   9
  -1   4 -13 1884.10 210.842   5
   1  -4  13 1784.88 209.857  16
  -1  -4 -13 2017.62 246.594   7
  -1   4 -14 98.4380 53.1002   9
  -1  -4 -14 59.5706 50.3168   4
  -1  -4 -14 140.649 79.3384   7
   1  -4  14 107.429 54.0354  16
  -1  -4 -15 7549.14 422.110   7
  -1  -4 -15 7570.03 376.672   4
  -1   4 -15 6875.35 367.316   9
  -1   4 -16 67.6480 32.0399   9
  -1  -4 -16 49.0505 32.2185   7
  -1  -4 -16-15.9747 31.5884   4
   1  -4  16 80.0462 30.7615   8
   1   5 -16 2246.92 185.516   9
  -1   5  16 2287.42 186.356  20
  -1  -5  16 2233.09 179.965  20
   1  -5 -16 1862.01 165.288   7
   1  -5 -15 1767.91 189.124   7
  -1   5  15 2261.91 210.126  20
   1   5 -15 2188.94 206.817   9
  -1  -5  15 2048.55 195.076   8
  -1   5  14 96.5337 59.1654  20
  -1  -5  14 3.86223 47.1149   8
   1  -5 -14 2.66676 40.3034   7
  -1  -5  13 430.200 104.332   8
  -1   5  13 561.818 129.874  20
  -1  -5  13 296.429 92.5668  11
   1  -5 -13 443.501 111.705   7
   1  -5 -12 1496.57 212.804   7
  -1  -5  12 1622.61 207.932  11
  -1  -5  12 1931.47 224.310   8
  -1   5  12 1532.98 212.799  20
  -1  -5  11 2316.49 261.216  25
  -1   5  11 2465.10 268.834  20
  -1  -5  11 2426.59 255.166   8
   1  -5 -11 2341.79 265.268   7
  -1   5  10 19318.4 820.077  20
  -1  -5  10 18886.7 805.989  15
  -1  -5  10 19529.9 780.764   8
  -1  -5  10 18467.3 793.976  25
   1  -5 -10 18913.5 810.599   7
  -1  -5   9 19699.3 803.914  25
   1  -5  -9 19415.5 810.370   7
  -1  -5   9 20745.1 827.957  15
  -1   5   9 19704.7 821.839  20
  -1  -5   9 20839.2 797.177   8
  -1   5   8 8648.89 652.978  29
  -1  -5   8 8579.96 698.519  28
  -1   5   8 8456.76 647.092  32
  -1   5   7 395.427 144.206  29
  -1   5   7 443.077 132.208  32
  -1  -5   7 260.970 121.456  28
  -1  -5   6-0.97276 55.3758  28
  -1   5   6-39.9233 32.7902  29
  -1   5   6-37.2659 48.3211  32
  -1   5   5 395.018 114.799  32
  -1  -5   5 623.998 166.345  28
  -1   5   4 8647.44 570.688  33
  -1  -5   4 8881.64 579.572  28
  -1   5   4 8430.78 552.656  32
  -1   5   3 187258. 4283.68  33
  -1  -5   3 194111. 4298.23  28
  -1   5   2 13912.9 701.147  33
  -1  -5   2 13813.8 698.795  28
   1   5  -2 14645.2 710.977  33
  -1  -5   1 27890.8 1040.57  28
  -1   5   1 28271.2 1045.70  33
   1   5  -1 29818.4 1067.83  33
  -1   5   0 226.951 80.6270  33
  -1  -5   0 284.329 86.1861  28
   1   5   0 362.714 110.601  33
   1  -5   0 108.413 72.8748  28
   1   5   1 12741.3 655.798  33
  -1   5  -1 12135.9 618.158  33
   1  -5   1 12041.6 603.168  28
   1  -5   2 7042.72 463.208  28
   1   5   2 7782.05 508.875  33
  -1   5  -2 7115.06 456.860  33
   1  -5   3 43088.8 1401.09  28
   1   5   3 47221.6 1484.80  33
   1  -5   4 69913.3 2047.82  28
   1   5   4 74995.4 2098.43  33
   1  -5   5 61.3140 55.3950  28
   1   5   5 90.1651 66.8197  33
   1   5   5 129.854 93.6918  32
   1   5   6 3997.77 422.787  32
   1   5   6 3386.20 365.132  33
   1  -5   6 3491.61 388.988  28
  -1   5  -7 1192.03 235.291  30
   1   5   7 1059.48 222.259  32
   1  -5   7 1092.97 230.960  28
  -1  -5  -8 5947.40 428.268   7
  -1   5  -8 5541.31 364.271   5
   1  -5   8 5089.91 365.530  15
   1  -5   8 5242.27 366.972  25
  -1   5  -8 5778.19 387.709  17
  -1  -5  -8 5479.81 361.293   4
   1  -5   8 5152.48 351.008   6
   1   5   8 6290.88 580.243  32
   1  -5   8 5668.23 557.475  28
  -1   5  -9 9877.77 510.021   5
  -1  -5  -9 9751.95 496.672   4
   1  -5   9 8526.53 473.425   6
   1  -5   9 8604.25 499.395  25
  -1  -5  -9 9550.71 563.782   7
   1  -5  10 21778.2 877.400  25
   1  -5  10 24023.9 877.609  16
  -1   5 -10 23519.7 862.308   5
  -1  -5 -10 23383.5 844.645   4
  -1  -5 -10 23763.6 960.191   7
  -1  -5 -11 1132.97 161.066   4
   1  -5  11 1022.14 162.639  16
  -1  -5 -11 1108.73 193.620   7
   1  -5  11 1113.07 176.679  25
  -1   5 -11 1310.07 184.013   5
  -1  -5 -12 1444.44 214.795   7
  -1   5 -12 1642.92 197.287   5
  -1  -5 -12 1510.34 185.525   4
   1  -5  12 1480.97 194.939  16
  -1   5 -13 1495.83 182.205   5
   1  -5  13 1511.94 188.264  16
  -1  -5 -13 1482.99 172.607   4
  -1   5 -13 1302.06 172.925   9
  -1  -5 -13 1452.48 199.762   7
  -1   5 -14 4292.47 291.718   9
   1  -5  14 4809.53 315.373  16
  -1  -5 -14 4674.78 335.150   7
  -1  -5 -14 4523.08 287.664   4
  -1  -5 -15 3385.63 223.159   4
   1  -5  15 3777.35 250.009   8
  -1   5 -15 2897.34 208.791   9
  -1  -5 -15 3648.16 266.860   7
  -1  -5 -16 288.548 66.5051   7
   1  -5  16 234.972 52.8866   8
   1  -6 -16 9.41741 16.2711  26
   1   6 -16 52.4398 33.3381   9
   1   6 -15 1268.67 141.162   9
  -1  -6  15 1142.65 127.962  20
   1  -6 -15 795.303 110.009   7
  -1   6  15 1065.79 127.415  20
  -1  -6  14 3653.49 259.606  11
  -1   6  14 3836.06 281.383  20
  -1  -6  14 4458.60 295.743   8
   1  -6 -14 3674.39 277.780   7
  -1   6  13-28.9602 39.3631  20
   1  -6 -13 90.7859 60.7382   7
  -1  -6  13 20.4346 32.6402   8
  -1  -6  13-6.46519 42.2034  11
   1  -6 -12 12557.2 622.281   7
  -1  -6  12 12554.0 591.508   8
  -1   6  12 13032.9 619.996  20
  -1  -6  12 12248.0 595.039  11
  -1  -6  11 176.084 69.3778  25
  -1   6  11 289.023 101.036  20
  -1  -6  11 279.484 92.7400   8
   1  -6 -11 181.543 79.8035   7
  -1  -6  10 21557.7 866.750  25
  -1   6  10 22130.0 878.766  20
  -1  -6  10 21169.0 834.535   8
  -1  -6  10 21283.6 860.497  15
   1  -6 -10 20333.1 864.836   7
   1  -6  -9 3747.23 335.095   7
  -1   6   9 3874.30 342.221  20
  -1  -6   9 3844.86 322.956   8
  -1  -6   9 3894.92 335.258  15
  -1  -6   9 3647.21 325.926  25
  -1   6   8 33560.8 1156.69  20
  -1  -6   8 35431.2 1141.95   8
   1  -6  -8 32608.1 1151.13   7
  -1  -6   8 34602.5 1143.72  25
  -1   6   7 2662.20 272.805  20
  -1  -6   7 3114.21 282.034   8
  -1  -6   7 3156.44 289.670  15
  -1   6   7 2969.97 387.508  29
  -1  -6   7 2887.60 397.755  28
  -1  -6   7 3138.58 274.094  24
  -1  -6   7 2948.38 278.031  25
  -1   6   6-17.0595 63.1896  32
  -1  -6   6 132.606 98.8761  28
  -1   6   6 63.7740 68.2419  29
  -1   6   5 1175.32 237.238  32
   1   6  -5 886.706 205.683  33
  -1  -6   5 1319.14 253.713  28
  -1  -6   4 1782.34 278.239  28
  -1   6   4 1723.44 271.850  32
   1   6  -4 2164.59 306.960  33
  -1   6   4 1910.08 295.081  33
   1   6  -3 5999.13 503.220  33
  -1   6   3 6406.87 526.798  33
  -1  -6   3 6474.12 522.334  28
  -1  -6   2 71733.2 2090.72  28
   1   6  -2 68974.1 2066.52  33
  -1   6   2 71630.8 2113.16  33
  -1  -6   1 5677.68 470.099  28
  -1   6   1 5329.38 457.566  33
   1   6  -1 5293.45 456.321  33
   1   6   0 516.505 146.214  33
  -1   6   0 403.812 126.191  33
   1   6   1 3655.30 381.929  33
  -1   6  -1 3258.82 347.742  33
   1  -6   1 3584.58 352.220  28
   1  -6   2 21846.5 964.022  28
   1   6   2 23816.3 1052.18  33
  -1   6  -2 21626.3 967.699  33
   1   6   3 38647.5 1419.89  33
   1  -6   3 35438.8 1344.13  28
   1   6   4 50840.1 1732.67  33
   1  -6   4 48839.3 1683.65  28
   1  -6   5 4522.05 449.953  28
   1   6   5 5237.08 487.574  33
   1   6   5 5663.20 546.818  32
   1  -6   6 2107.57 317.704  28
  -1  -6  -6 1975.61 248.658   7
   1   6   6 2086.05 313.902  33
   1   6   6 2043.95 324.181  32
   1  -6   6 2059.02 216.169   6
   1  -6   7 15486.9 675.281  25
  -1   6  -7 16829.2 708.209  17
  -1  -6  -7 14672.5 635.514   4
  -1   6  -7 15765.3 665.252   5
   1  -6   7 13461.0 878.497  28
   1  -6   7 15013.4 671.855  15
   1  -6   7 16653.8 683.862   6
  -1  -6  -7 17596.8 787.953   7
   1  -6   8 1668.31 209.988  25
  -1  -6  -8 1816.18 204.498   4
  -1   6  -8 2026.65 234.128  17
   1  -6   8 1629.68 204.019   6
  -1  -6  -8 2017.81 253.511   7
  -1   6  -8 1945.86 221.542   5
   1  -6   8 1738.90 213.954  15
  -1  -6  -9 1647.68 231.847   7
   1  -6   9 1392.64 194.346  25
  -1   6  -9 1571.27 199.283   5
   1  -6   9 1666.83 203.489   6
  -1  -6  -9 1602.07 195.010   4
   1  -6  10 23885.9 905.669  25
  -1  -6 -10 23731.4 858.346   4
   1  -6  10 24724.1 897.650  16
  -1   6 -10 23663.9 869.646   5
  -1  -6 -10 24130.9 970.871   7
   1  -6  11 4050.03 331.914  25
  -1  -6 -11 3986.64 307.137   4
   1  -6  11 4179.91 327.018  16
  -1  -6 -11 4315.23 368.547   7
  -1   6 -11 4079.64 314.685   5
  -1   6 -12 2231.37 218.590   5
  -1  -6 -12 2278.37 216.211   4
  -1  -6 -12 2224.58 247.619   7
   1  -6  12 2217.80 227.293  16
   1  -6  13 66.4481 51.8936  16
  -1   6 -13 13.5672 31.8118   9
  -1  -6 -13 48.2683 48.3140   7
  -1  -6 -13 30.5366 50.3484   4
  -1   6 -14 73.6640 35.4310   9
   1  -6  14 106.163 44.0093   8
   1  -6  14 77.3268 38.7192  16
  -1  -6 -14 186.718 66.4482   7
   1  -6  15 360.207 65.3137   8
  -1  -6 -15 306.723 67.8320   7
   1  -7 -15 2677.77 174.176  26
   1   7 -15 2945.73 184.347   9
  -1   7  14 907.425 114.252  20
  -1  -7  14 1036.34 120.550  11
   1  -7 -14 1074.57 128.975  26
  -1  -7  13 8909.29 427.961  11
  -1   7  13 8508.87 414.790  20
  -1  -7  12 62.6146 47.4381  11
  -1   7  12 80.6534 49.4843  20
  -1  -7  12 33.4274 33.4464   8
   1  -7 -12 43.2440 45.6630   7
  -1  -7  11 6777.76 420.491  25
  -1   7  11 6597.06 416.541  20
   1  -7 -11 5259.94 381.002   7
  -1  -7  11 6622.55 409.787   8
  -1   7  10 864.894 154.551  20
  -1  -7  10 1020.34 170.989  25
  -1  -7  10 1076.88 171.545  15
  -1  -7  10 1154.62 172.136   8
   1  -7 -10 1012.92 173.527   7
  -1  -7   9 4203.21 342.695  25
  -1   7   9 3953.69 335.644  20
  -1  -7   9 4024.92 338.711  15
  -1  -7   9 3987.08 331.124   8
   1  -7  -9 3872.38 346.288   7
  -1  -7   8 1131.66 178.132  25
  -1   7   8 1024.61 171.496  20
  -1  -7   8 897.114 164.012   8
   1  -7  -8 936.701 171.066   7
  -1  -7   8 1020.79 174.061  15
  -1  -7   7 11329.6 585.401  25
  -1   7   7 11629.3 604.074  20
  -1  -7   7 11024.2 576.334   8
  -1  -7   7 12242.5 614.786  15
  -1  -7   6 7097.90 451.450  15
  -1  -7   6 7255.38 449.222  25
  -1   7   6 6443.64 438.362  20
  -1  -7   6 5856.66 402.699   8
  -1  -7   6 6463.64 414.255  24
  -1  -7   5 6914.29 434.344  25
  -1  -7   5 6825.41 422.319  24
  -1   7   5 6476.69 433.164  20
  -1  -7   5 5715.19 390.182   8
  -1  -7   5 7267.16 452.043  15
   1  -7  -5 7025.50 444.520  26
  -1  -7   4 3551.82 299.567  24
  -1   7   4 3758.78 317.595  20
   1   7  -4 3571.87 437.268  33
   1  -7  -4 3777.49 315.832  26
  -1  -7   4 3536.63 302.357  25
  -1  -7   4 3857.36 446.852  28
  -1  -7   3 1547.84 278.283  28
  -1   7   3 1445.78 255.507  32
  -1   7   3 1871.02 317.476  33
   1   7  -3 1408.81 262.845  33
   1   7  -2 5601.17 531.033  33
  -1  -7   2 5952.41 540.115  28
  -1   7   2 5023.95 505.895  33
   1   7  -1 323.773 134.493  33
  -1   7   1 234.928 136.082  33
  -1   7   0 3053.23 381.068  33
   1   7   0 3257.78 397.827  33
  -1   7  -1 7191.27 582.394  33
   1   7   1 7263.10 604.997  33
   1   7   2 761.517 193.416  33
   1  -7   2 825.930 191.227  28
   1  -7   3 50.1552 24.8910  26
   1   7   3-17.3692 69.0020  33
  -1  -7  -3 102.618 61.4986  24
   1  -7   3 1.03193 28.3501  28
   1  -7   3 40.8702 44.3904  25
   1   7   3 28.3565 54.8827  32
   1  -7   3 117.914 51.7190   6
   1  -7   4 1165.85 173.391  26
   1  -7   4 1261.17 251.902  28
  -1  -7  -4 1263.39 158.958  22
   1   7   4 1194.01 269.520  32
  -1  -7  -4 1399.22 208.843   7
   1  -7   4 1226.30 173.183  25
   1   7   4 1131.81 230.441  33
   1  -7   4 953.989 152.641  15
  -1  -7  -4 1279.23 190.110  24
   1  -7   4 1442.81 183.759   6
  -1   7  -5 10986.6 562.939  17
   1  -7   5 10684.5 546.553  25
   1  -7   5 9882.76 526.508  15
   1  -7   5 12121.6 563.729   6
  -1  -7  -5 10931.9 617.546   7
  -1  -7  -5 9970.87 479.450  22
   1  -7   6 5033.07 367.540  25
  -1   7  -6 4881.88 351.336   5
   1  -7   6 4743.06 358.531  15
   1  -7   6 5769.79 383.124   6
  -1  -7  -6 5497.05 432.817   7
  -1   7  -6 5328.48 383.407  17
  -1   7  -7 13993.2 632.230   5
  -1  -7  -7 14503.7 731.654   7
  -1   7  -7 14713.2 677.961  17
   1  -7   7 14583.1 665.181  25
   1  -7   7 14599.5 669.569  15
   1  -7   7 15780.3 671.793   6
   1  -7   8 357.834 103.117  25
   1  -7   8 386.295 100.870   6
  -1   7  -8 389.761 108.975  17
  -1  -7  -8 375.316 93.9096   4
  -1  -7  -8 515.749 145.951   7
  -1   7  -8 326.963 96.5185   5
   1  -7   8 307.758 93.2695  15
   1  -7   9 6378.12 405.406   6
   1  -7   9 5940.85 406.162  25
  -1   7  -9 5797.81 379.578   5
  -1  -7  -9 6327.09 458.057   7
  -1  -7  -9 5595.36 367.674   4
   1  -7  10 5411.16 380.000  25
  -1   7 -10 4835.43 336.882   5
   1  -7  10 5394.67 367.687  16
  -1  -7 -10 5654.46 419.772   7
  -1  -7 -10 5425.06 351.203   4
  -1   7 -11 123.505 52.2861   5
   1  -7  11 25.4454 31.1426  25
   1  -7  11 63.8083 45.1001  16
  -1  -7 -11 110.911 60.2918   7
   1  -7  12 6988.99 384.315  16
   1  -7  12 7420.87 393.244   8
  -1  -7 -12 7439.66 433.148   7
  -1   7 -12 6577.04 359.013   5
   1  -7  13 207.200 63.1302   8
   1  -7  13 165.168 56.6444  16
  -1  -7 -13 68.7530 43.5016   7
  -1  -7 -14 3283.07 218.818  24
   1  -7  14 3539.55 213.778   8
  -1  -7 -14 2917.48 212.837   7
   1  -8 -13 1241.50 131.783  26
  -1  -8  13 1427.28 140.121  11
   1  -8 -12 190.083 56.6598  26
  -1   8  12 148.080 54.1498  20
  -1  -8  12 217.643 72.2395  11
  -1   8  11 4361.23 300.394  20
  -1  -8  11 4807.73 320.784  25
   1  -8 -11 4960.61 325.758  26
  -1  -8  10 350.949 84.6266  25
  -1   8  10 299.499 89.5233  20
  -1  -8  10 414.845 104.466  15
   1  -8 -10 356.969 93.9070  26
   1  -8  -9 727.694 140.787  26
  -1  -8   9 805.025 140.092  25
  -1   8   9 618.959 126.247  20
  -1  -8   9 854.607 150.657  15
  -1  -8   8 965.858 157.047  25
  -1  -8   8 1204.42 180.980  15
  -1   8   8 1146.14 175.318  20
   1  -8  -8 1175.54 180.035  26
  -1  -8   7 2844.16 277.889  25
  -1  -8   7 3026.04 291.842  15
  -1   8   7 2775.38 278.798  20
   1  -8  -7 2393.24 262.078  26
  -1  -8   6 26.1413 45.0713  25
  -1  -8   6-10.2716 37.4082  24
  -1   8   6-4.37242 61.0013  20
  -1  -8   6 23.0058 31.4081  15
   1  -8  -6 0.15127 49.8751  26
   1  -8  -5 2971.00 294.185  26
  -1   8   5 3351.95 306.743  20
  -1  -8   5 3189.01 288.059  24
  -1  -8   5 3539.44 311.404  25
  -1  -8   5 3597.72 318.050  15
   1  -8  -4 132.917 75.1066  26
   1  -8  -4 215.882 76.3761   6
   1  -8  -4 97.3380 60.5426  25
  -1  -8   4 145.023 67.2249  24
  -1  -8   4 76.2639 56.8828  25
  -1  -8   3 19524.1 791.989  25
   1  -8  -3 18222.2 762.360  25
   1  -8  -3 18582.5 753.934   6
  -1  -8   3 16862.5 733.770  24
   1  -8  -3 19287.3 797.967  26
  -1  -8   2 9159.23 513.546  24
   1  -8  -2 9748.74 540.095  26
  -1  -8   2 9366.74 526.025  25
   1  -8  -2 9450.17 511.667   6
   1  -8  -2 9036.56 507.035  25
  -1  -8   1 7743.12 477.400  25
  -1  -8   1 7956.35 477.876  24
   1  -8  -1 8322.63 477.919   6
   1  -8  -1 7990.35 469.503  25
   1  -8  -1 8523.40 500.928  26
   1  -8   0 1127.22 177.512  26
  -1  -8   0 910.275 159.929  24
   1  -8   0 1129.32 169.097   6
  -1  -8   0 1078.34 151.366  22
   1  -8   0 1142.09 171.362  25
  -1  -8   0 939.042 161.679  25
   1  -8   1 51372.7 1478.96  26
   1  -8   1 48203.6 1426.68  25
  -1  -8  -1 49954.5 1367.06  22
  -1  -8  -1 47414.0 1460.63  24
   1  -8   1 52663.5 1451.85   6
  -1  -8  -1 48636.1 1460.39  25
   1  -8   2 11312.9 560.542   6
  -1  -8  -2 9734.15 557.094  24
  -1  -8  -2 10423.0 503.286  22
   1  -8   2 11425.6 582.670  26
   1  -8   2 10335.9 542.851  25
  -1  -8  -2 10222.1 559.125  25
   1  -8   3 25191.6 939.794  15
   1  -8   3 28407.7 986.712  25
  -1  -8  -3 28541.4 1038.90  24
   1  -8   3 29057.7 983.582   6
  -1  -8  -3 27953.2 912.797  22
  -1  -8  -3 28162.7 1018.22  25
   1  -8   3 29459.3 1025.12  26
   1  -8   4 113.646 64.3376  25
  -1  -8  -4 62.1315 46.0703  24
  -1  -8  -4 93.6151 54.3480  22
  -1   8  -4 60.2668 41.1187  17
   1  -8   4 91.8743 53.9326  15
   1  -8   4 26.1580 30.4279   6
   1  -8   5 7942.54 470.788  25
  -1  -8  -5 7892.28 501.199  24
  -1  -8  -5 7227.27 402.805  22
   1  -8   5 7237.75 439.656   6
  -1   8  -5 7500.15 465.215  17
   1  -8   5 7273.95 451.833  15
  -1   8  -6 22918.6 874.407  17
  -1  -8  -6 22854.9 914.593  24
   1  -8   6 22961.7 866.905  25
   1  -8   6 24048.6 865.629   6
   1  -8   6 21042.4 842.196  15
   1  -8   7 56248.8 1555.90  25
  -1  -8  -7 55858.6 1611.79  24
  -1   8  -7 54283.9 1544.45  17
   1  -8   7 56379.8 1531.98   6
   1  -8   7 52363.1 1524.65  15
   1  -8   8 873.134 152.207  25
  -1  -8  -8 972.485 172.581  24
  -1   8  -8 734.758 123.919   5
   1  -8   8 769.447 145.620  15
   1  -8   8 961.430 151.084   6
  -1  -8  -9 703.063 137.396  24
  -1  -8  -9 986.058 169.008   7
   1  -8   9 1118.27 152.625   8
   1  -8   9 1082.95 161.867  25
  -1   8  -9 920.097 133.677   5
   1  -8  10 4401.98 316.168  25
  -1   8 -10 3968.19 270.711   5
   1  -8  10 5040.41 325.297  16
   1  -8  10 4189.85 291.129   8
  -1  -8 -10 4304.18 326.741  24
  -1   8 -11 116.670 46.6753   5
  -1  -8 -11 65.0908 46.2054  24
   1  -8  11 123.249 57.0244   8
   1  -8  11 161.426 60.2493  16
  -1  -8 -12 204.823 57.1913  24
   1  -8  12 358.307 74.9013   8
   1  -8  12 372.872 76.1173  16
   1  -8  13 2846.82 181.484  16
  -1  -8 -13 2976.62 194.800  24
   1  -8  13 3056.32 186.281   8
  -1  -9  12 318.305 64.2342  11
   1  -9 -12 254.138 56.6690  26
  -1  -9  11 816.393 115.289  11
   1  -9 -11 779.937 107.865  26
   1  -9 -11 673.437 96.0348  25
  -1  -9  10 2272.11 200.569  25
  -1  -9  10 2393.64 208.829  11
   1  -9 -10 2104.53 190.456  25
   1  -9 -10 2086.49 193.794  26
   1  -9  -9 152.053 58.2758  26
  -1  -9   9 86.2944 52.3543  25
   1  -9  -9 128.505 55.2765  25
  -1  -9   9 235.584 82.5521  15
  -1  -9   8 20061.6 747.268  25
   1  -9  -8 20360.9 761.310  26
   1  -9  -8 19155.2 731.154  25
  -1  -9   8 20843.5 775.143  15
  -1  -9   7 1553.25 188.180  25
  -1  -9   7 1612.79 200.273  15
   1  -9  -7 1332.67 174.776  25
   1  -9  -7 1750.68 207.022  26
   1  -9  -6 883.785 149.321  26
  -1  -9   6 869.862 147.497  25
   1  -9  -6 853.280 150.515  25
  -1  -9   6 1185.17 174.534  15
  -1  -9   5 1901.45 218.805  25
   1  -9  -5 1705.17 208.717  25
  -1  -9   5 1387.96 178.723  24
  -1  -9   5 1741.53 217.672  15
   1  -9  -5 1776.32 217.615  26
  -1  -9   4 4386.70 344.368  25
   1  -9  -4 5021.54 372.382  26
  -1  -9   4 4225.01 320.616  24
  -1  -9   4 4359.10 347.019  15
   1  -9  -4 3930.04 306.909   6
   1  -9  -4 4284.07 336.499  25
  -1  -9   3 1023.77 165.843  25
  -1  -9   3 808.013 136.071  24
   1  -9  -3 836.042 142.151   6
   1  -9  -3 927.378 157.459  26
   1  -9  -3 916.123 159.105  25
   1  -9  -2 142.637 70.9179  26
   1  -9  -2 178.826 76.0617  25
  -1  -9   2 139.752 67.0916  24
   1  -9  -2 251.675 81.6807   6
  -1  -9   2 312.582 93.4208  25
   1  -9  -1 567.483 122.468  26
  -1  -9   1 562.321 120.644  25
   1  -9  -1 621.893 132.655  25
   1  -9  -1 687.906 135.245   6
  -1  -9   1 442.831 106.698  24
  -1  -9   0 9145.82 517.385  25
  -1  -9   0 8922.91 507.078  24
   1  -9   0 9678.61 514.221   6
   1  -9   0 9392.90 513.586  25
   1  -9   0 9481.52 530.074  26
   1  -9   1 4452.63 344.018  25
  -1  -9  -1 4238.97 341.082  25
   1  -9   1 4602.70 340.665   6
  -1  -9  -1 4334.22 344.143  24
   1  -9   1 4395.63 351.710  26
   1  -9   2 4688.35 352.301  25
   1  -9   2 5164.24 379.447  26
  -1  -9  -2 4771.19 365.759  25
  -1  -9  -2 4330.67 348.730  24
   1  -9   2 5276.11 367.365   6
  -1  -9  -3 2087.96 238.364  25
  -1  -9  -3 1806.58 221.276  24
  -1   9  -3 1758.70 215.485  17
   1  -9   3 1853.82 216.661  15
   1  -9   3 1990.25 220.365   6
   1  -9   3 1954.06 223.272  25
  -1  -9  -4 1909.48 224.463  25
  -1   9  -4 1581.07 202.394  17
  -1  -9  -4 1888.90 227.637  24
   1  -9   4 1447.36 189.699  25
   1  -9   4 1605.10 201.504  15
   1  -9   4 1806.42 212.226   6
   1  -9   5 3869.30 312.815  25
  -1  -9  -5 3827.59 315.802  25
  -1  -9  -5 3871.33 327.456  24
   1  -9   5 3903.96 305.356   6
   1  -9   5 3441.75 293.950  15
  -1   9  -5 3687.68 306.267  17
   1  -9   6 18146.3 738.681  15
  -1  -9  -6 20031.8 796.552  24
   1  -9   6 20930.8 783.091  25
  -1  -9  -6 19817.8 776.242  25
  -1   9  -6 19731.7 760.677  17
   1  -9   6 20813.3 764.867   6
  -1  -9  -7 3752.18 307.504  24
   1  -9   7 3778.94 294.529  15
   1  -9   7 4089.49 307.384  25
   1  -9   7 3944.07 294.635   6
   1  -9   8 523.502 108.932  25
  -1  -9  -8 427.241 109.092  24
   1  -9   9 1112.01 144.666  25
  -1  -9  -9 936.712 137.680  24
   1  -9   9 980.796 129.895  16
   1  -9  10 3100.90 229.986  25
  -1  -9 -10 2887.15 224.754  24
  -1  -9 -10 2893.26 216.466  25
   1  -9  10 3157.33 219.899  16
  -1  -9 -11 78.3446 33.0515  25
   1  -9  11 110.481 42.1980  16
  -1  -9 -11 106.625 38.6702  24
  -1 -10  10 7867.47 332.691  11
   1 -10 -10 8155.28 328.583  26
  -1 -10   9 787.198 103.213  25
   1 -10  -9 680.983 93.0955  25
  -1 -10   9 894.723 112.658  11
   1 -10  -9 871.882 112.643  26
  -1 -10   8 2672.34 209.183  25
  -1 -10   8 2750.30 216.430  11
   1 -10  -8 2402.40 195.159  25
  -1 -10   8 2728.06 219.164  15
   1 -10  -8 2792.04 215.022  26
  -1 -10   7 5019.55 307.235  25
   1 -10  -7 4796.85 300.672  25
  -1 -10   7 4964.04 314.490  15
   1 -10  -7 4910.23 307.246  26
   1 -10  -6 92.0909 48.1728  26
   1 -10  -6 16.8585 25.1496  25
  -1 -10   6 63.0619 30.6290  25
  -1 -10   6 110.982 56.7603  15
   1 -10  -5-11.3149 38.9730  26
  -1 -10   5 133.215 67.4819  25
   1 -10  -5 65.8414 47.4714  25
  -1 -10   5 51.0853 47.7470  15
   1 -10  -4 1793.91 196.841  25
  -1 -10   4 1707.73 191.087  25
  -1 -10   4 1830.21 200.712  15
   1 -10  -4 1740.79 195.969  26
  -1 -10   3 19.1279 28.0055  25
   1 -10  -3 38.7006 31.7342  25
  -1 -10   3 6.82664 42.4307  15
   1 -10  -3 40.0390 30.4888  26
   1 -10  -3 26.2595 23.1534   6
   1 -10  -2 275.514 78.9861  26
  -1 -10   2 408.026 94.0852  25
   1 -10  -2 432.453 101.356  25
   1 -10  -2 543.393 102.121   6
  -1 -10   2 430.352 108.899  15
  -1 -10   1 4756.84 335.527  25
   1 -10  -1 4701.80 331.189  25
   1 -10  -1 4339.07 306.626   6
   1 -10  -1 5250.68 359.093  26
   1 -10   0 242.320 74.8085  26
  -1 -10   0 312.884 87.0638  25
  -1 -10   0 328.219 78.3223  24
   1 -10   0 232.815 75.2676  25
   1 -10   0 313.673 83.8111   6
  -1 -10  -1 12406.3 573.352  25
   1 -10   1 13497.6 575.275   6
   1 -10   1 12396.6 567.089  25
   1 -10   1 13486.7 594.251  26
  -1 -10  -2 4588.97 317.686  24
   1 -10   2 4821.69 331.580  25
  -1  10  -2 4259.63 317.226  17
  -1 -10  -2 4278.12 320.441  25
   1 -10   2 5052.72 333.362   6
   1 -10   3-12.9615 30.0789  25
  -1 -10  -3 14.2263 33.1114  25
   1 -10   3 96.0239 56.6764   6
  -1 -10  -3 38.5376 52.9238  24
  -1  10  -3 4.40764 26.7340  17
   1 -10   4 12743.6 553.725  25
  -1 -10  -4 12410.6 550.760  25
   1 -10   4 10702.6 500.574  15
   1 -10   4 12754.4 543.106   6
  -1  10  -4 11786.3 524.756  17
  -1 -10  -4 11225.5 519.920  24
   1 -10   5 1704.03 184.796  25
  -1 -10  -5 1680.01 186.271  25
  -1 -10  -5 1470.09 172.073  24
   1 -10   5 1465.76 167.292  15
   1 -10   5 1598.35 174.880   6
   1 -10   6 20204.7 693.111  25
  -1 -10  -6 17233.0 645.718  24
  -1 -10  -6 19063.0 679.894  25
   1 -10   6 17294.3 634.452  15
   1 -10   6 19258.4 669.577   6
   1 -10   7 2219.04 196.618  25
  -1 -10  -7 2174.63 194.046  25
  -1 -10  -7 1912.77 177.332  24
  -1 -10  -7 2256.57 204.637  35
   1 -10   8 247.181 60.5435  25
  -1 -10  -8 170.138 47.3421  24
  -1 -10  -8 281.518 71.6039  35
  -1 -10  -8 289.231 66.6367  25
   1 -10   8 342.887 68.7962  16
   1 -10   9 16.2340 25.5672  25
  -1 -10  -9 64.4434 40.5533  35
  -1 -10  -9-11.3167 27.3545  25
   1 -10   9 13.3366 19.4378  16
   1 -11  -7 2846.53 180.297  26
  -1 -11   7 3308.28 202.904  15
  -1 -11   6 773.650 97.6396  25
   1 -11  -6 583.608 83.9117  25
   1 -11  -6 724.236 94.5449  26
  -1 -11   6 729.549 100.001  15
  -1 -11   5 984.195 119.470  25
  -1 -11   5 1084.59 127.349  15
   1 -11  -5 713.340 98.4942  25
   1 -11  -5 957.424 116.025  26
   1 -11  -4 461.792 83.4653  26
  -1 -11   4 466.371 88.0156  15
  -1 -11   4 398.598 77.3265  25
   1 -11  -4 390.851 78.2909  25
   1 -11  -3 61.6902 36.7171  26
   1 -11  -3 35.7365 28.6163  25
  -1 -11   3 63.5115 42.9432  15
  -1 -11   3 43.2244 27.7669  25
  -1 -11   2 377.882 81.0209  25
   1 -11  -2 439.793 85.3702  25
  -1 -11   2 461.529 92.2506  15
   1 -11  -2 370.581 81.3605  26
  -1 -11   1 2003.53 183.678  25
  -1 -11   1 2087.67 197.888  15
   1 -11  -1 2118.79 188.542  25
   1 -11  -1 2146.91 192.348  26
   1 -11  -1 1689.19 156.136   6
  -1 -11   0 4155.27 269.962  25
  -1 -11   0 4186.28 282.502  15
   1 -11   0 3782.50 243.011   6
   1 -11   0 4030.20 265.174  25
  -1  11   0 3405.11 236.724  17
  -1 -11  -1 1026.33 130.810  25
   1 -11   1 1070.20 132.974  25
   1 -11   1 953.987 121.424   6
   1 -11   2 144.546 47.5441  25
  -1 -11  -2 134.332 51.1192  25
   1 -11   2 98.3131 37.1969   6
   1 -11   3 441.885 83.4010  25
  -1 -11  -3 484.341 84.1952  25
   1 -11   3 521.217 89.3078   6
   1 -11   4 1491.62 147.914  25
   1 -11   4 1577.95 150.207   6
  -1 -11  -4 1392.01 143.310  25
   1 -11   5 14.3608 26.0396  25
  -1 -11  -5 35.5765 29.6798  25
   1 -11   6 1706.87 141.058  25
  -1 -11  -6 1527.06 134.711  25
  -2   0  17 22.0285 27.1944  20
  -2   0  16 9872.05 475.261  20
  -2   0  15 31.8040 34.4334  12
  -2   0  15 67.9963 64.3777  20
  -2   0  14 2014.76 240.167  20
  -2   0  13-1.44570 48.8261  20
  -2   0  12 410.488 125.199  20
  -2   0  11 69.7072 78.5169  20
  -2   0  10 38990.4 1730.50  34
  -2   0   9 80.3747 91.4165  34
  -2   0   8 2486.31 358.841  34
  -2   0   7 27.1835 50.1504  34
  -2   0   7 74.1256 55.2654   1
  -2   0   6 8676.22 600.805  34
  -2   0   6 7906.89 506.265   1
  -2   0   5-26.0105 35.9499   1
  -2   0   5 31.4457 59.6819  34
  -2   0   4 79395.8 2057.85   1
  -2   0   4 82963.1 2178.60  34
  -2   0   3 15.3998 46.4174   1
  -2   0   3 18.6377 44.6584  34
  -2   0   2 330.056 89.3833   1
  -2   0   2 278.779 97.2466  34
  -2   0   1 1.24587 40.4588   1
  -2   0   1 41.5618 53.5199  34
  -2   0   0 2892.07 256.595   1
  -2   0  -1-37.8177 31.0337  31
  -2   0  -1-8.40712 35.0805   1
  -2   0  -2 14597.1 624.462   1
  -2   0  -2 15240.7 657.149  31
  -2   0  -3-8.75838 55.0102  31
  -2   0  -3 8.97741 43.9841   1
  -2   0  -4 104136. 2474.14   1
  -2   0  -4 107364. 2601.54  31
  -2   0  -5 6.56409 55.9765   1
  -2   0  -5-10.3727 38.6539  31
  -2   0  -6 3241.55 348.061  31
  -2   0  -6 3208.74 277.535   1
   2   0   6 2714.66 279.048  32
  -2   0  -7 36.2781 62.1044  31
   2   0   7 1.29013 40.9575  32
  -2   0  -8 23220.6 1103.10  31
  -2   0  -9 241.499 153.151  31
  -2   0  -9 321.923 114.931   4
  -2   0 -10 14841.2 630.614   4
  -2   0 -11-5.21298 38.3077   4
  -2   0 -12 1265.28 173.970   4
  -2   0 -13 83.5386 43.4096   4
  -2   0 -13 115.947 83.0678  27
  -2   0 -14 2126.95 237.879  27
  -2   0 -14 1983.30 193.754   4
  -2   0 -15 22.3614 45.9314  27
  -2   0 -15 30.8544 21.7372   4
  -2   0 -16 85.1393 37.9386  27
  -2   0 -16 56.3332 29.9249   4
  -2   1  17 3241.22 225.637  20
  -2  -1  17 3086.17 216.277  20
  -2  -1  16 2667.14 221.235  12
  -2  -1  16 2385.28 218.062  20
  -2   1  16 2690.88 235.817  20
  -2   1  15 92.9802 54.8604  20
  -2  -1  15 105.323 69.6689  20
  -2   1  14 73.9254 72.1150  20
  -2  -1  14 42.1244 37.0087  20
  -2   1  13 871.838 147.170  12
  -2   1  13 757.211 157.357  20
  -2  -1  13 767.616 162.246  20
  -2   1  12 4442.93 370.619  20
  -2  -1  12 4105.61 351.662  20
  -2   1  11 15714.6 725.996  20
  -2  -1  11 14641.4 692.902  20
  -2   1  10 22849.1 1312.37  34
  -2  -1  10 24095.7 1310.38  34
  -2   1   9 4289.65 513.425  34
  -2  -1   9 4176.07 491.985  34
  -2   1   8 2106.77 336.791  34
  -2  -1   8 2097.27 324.959  34
  -2   1   7 1629.51 276.330  34
  -2  -1   7 1843.23 289.810  34
  -2   1   6 29670.7 1199.65  34
  -2  -1   6 29929.7 1193.01  34
  -2   1   5 80669.5 2208.13  34
  -2  -1   5 79739.4 2203.69  34
  -2  -1   5 77604.2 2002.41   1
  -2   1   4 9500.99 567.280  34
  -2  -1   4 9774.95 507.559   1
  -2  -1   4 8778.03 548.919  34
  -2   1   3 25148.0 934.812  34
  -2  -1   3 24598.4 957.489  34
  -2  -1   3 24734.4 871.618   1
  -2  -1   2 2489.03 265.421  34
  -2  -1   2 2276.69 225.286   1
  -2   1   2 2193.28 242.250  34
  -2  -1   1 90274.0 2172.43   1
  -2   1   1 89927.2 2219.58  34
  -2   1   1 91208.1 2230.85   1
  -2  -1   1 96682.7 2317.38  34
  -2   1   0 13751.6 618.957   1
  -2  -1   0 13687.1 588.623   1
  -2   1   0 13487.4 576.228  31
  -2   1  -1 13484.0 609.046   1
  -2  -1  -1 12882.9 575.041   1
  -2   1  -1 13109.7 596.830  31
  -2   1  -2 104.181 33.8442   1
  -2   1  -2 34.9613 36.1787  31
  -2  -1  -2 129.142 53.0462   1
  -2  -1  -3 19147.9 734.717   1
  -2   1  -3 18311.5 727.988   1
  -2   1  -3 19184.5 796.431  31
  -2   1  -4 26917.3 945.809   1
   2   1   4 27194.1 910.506  32
  -2  -1  -4 28426.4 954.727   1
  -2   1  -5 11505.4 557.889   1
  -2  -1  -5 13830.8 700.242  31
   2   1   5 12272.6 599.445  32
  -2  -1  -5 13374.7 607.397   1
  -2   1  -5 13223.0 690.882  31
   2   1   6 44209.1 1421.43  32
  -2  -1  -6 44669.1 1346.42   1
  -2   1  -6 44791.0 1525.40  31
  -2  -1  -6 48708.9 1553.37  31
  -2   1  -7 1582.49 259.243  31
   2   1   7 1517.62 237.903  32
  -2   1  -8 1130.88 288.966  31
   2   1   8-9.96063 60.4417  32
  -2  -1  -9 8291.93 446.480   4
  -2   1  -9 8398.40 447.744   4
  -2   1  -9 8368.25 678.724  31
  -2   1 -10 5996.81 388.428   5
  -2  -1 -10 6463.07 391.366   4
  -2   1 -10 6118.99 384.595   4
   2  -1  10 5418.48 369.717  16
  -2   1 -11 75.1300 57.5997   5
   2  -1  11 19.2011 28.4198  16
  -2   1 -11 51.0393 36.2664   4
  -2  -1 -11 22.5906 36.7132   4
  -2  -1 -11 140.321 83.5721  27
  -2  -1 -12 29428.8 1082.31  27
  -2  -1 -12 30564.1 981.530   4
  -2   1 -12 29617.5 970.025   4
  -2  -1 -13 1802.50 198.138   4
  -2   1 -13 1622.59 183.788   4
  -2  -1 -13 1684.65 226.231  27
  -2  -1 -14 201.107 65.5302   4
  -2   1 -14 151.121 52.3074   4
  -2  -1 -14 116.133 54.6228  27
  -2   1 -14 152.028 73.1956  27
  -2   1 -15 338.043 86.9511  27
  -2  -1 -15 294.572 81.6333  27
  -2  -1 -15 208.890 59.3509   4
  -2   1 -15 163.844 52.8448   4
  -2  -1 -16 2151.06 177.171  27
  -2   1 -16 2492.48 201.968  27
  -2  -1 -16 2141.71 158.714   4
  -2  -2  17-19.2695 23.0663  12
  -2   2  17 33.1799 40.4645  20
  -2  -2  17 3.89091 21.9725  20
  -2  -2  16 102.366 52.2598  12
   2   2 -16 46.1177 31.3231   9
  -2   2  16 104.568 50.9886  20
  -2  -2  16 86.1083 51.7725  20
   2   2 -15 3331.39 255.030   9
  -2   2  15 3865.92 304.222  20
  -2  -2  15 3486.74 281.753  20
   2   2 -14 674.209 128.852   9
  -2   2  14 737.215 152.638  20
  -2  -2  14 587.879 127.118  20
   2   2 -13 3174.22 277.461   9
  -2   2  13 3749.09 332.392  20
  -2  -2  13 3188.94 307.962  20
  -2  -2  12 2137.06 235.914  11
  -2   2  12 2302.89 263.961  20
  -2  -2  12 1727.85 228.711  20
  -2  -2  11 20865.6 826.781  11
  -2   2  11 23397.0 918.421  20
  -2  -2  10 328.537 91.4002  11
  -2   2  10 769.182 229.225  34
  -2  -2  10 414.718 118.746  21
  -2   2  10 508.932 125.614  20
  -2  -2  10 340.186 171.755  34
  -2   2   9 14204.6 965.176  34
  -2  -2   9 14550.1 959.219  34
  -2  -2   8 308.121 132.047  34
  -2   2   8 352.070 166.729  34
  -2  -2   7-28.4020 51.7783  34
  -2   2   7 25.1056 72.8802  34
  -2  -2   6 680.496 182.614  34
  -2   2   6 540.584 174.012  34
  -2  -2   5 11000.0 660.851  34
  -2  -2   5 9558.56 504.143   1
  -2   2   5 10168.7 626.344  34
  -2  -2   4 38.3629 29.5312   1
  -2  -2   4 37.3965 59.6994  34
  -2  -2   3 78415.6 1914.69   1
  -2  -2   3 78947.0 2100.36  34
  -2   2   3 75910.2 1934.91  30
  -2  -2   2 17382.7 687.657   1
  -2   2   2 17113.3 719.602  30
  -2   2   2 15106.8 667.443  34
  -2  -2   2 17338.5 772.152  34
  -2   2   1 23049.3 863.910  30
  -2  -2   1 22001.7 797.623   1
  -2   2   1 20081.7 775.097  34
  -2  -2   1 24108.5 932.508  34
  -2   2   1 20351.1 741.662  31
  -2   2   0 8193.14 485.135  30
  -2  -2   0 7525.29 429.606   1
  -2   2   0 7488.79 421.752  31
  -2  -2  -1 7167.51 411.303   1
  -2   2  -1 7244.86 449.886   1
   2   2   1 6011.99 344.232  33
  -2   2  -1 7863.21 477.247  30
  -2   2  -1 6413.55 408.615  31
  -2   2  -2 19868.2 795.220   1
  -2   2  -2 19099.1 813.986  30
   2   2   2 18127.5 681.050  32
  -2   2  -2 20195.8 801.577  31
  -2  -2  -2 18865.5 729.034   1
  -2  -2  -3 50020.0 1376.33   1
   2   2   3 46120.9 1326.56  32
  -2   2  -3 49562.4 1477.45  31
  -2   2  -3 48853.2 1493.38  30
  -2   2  -3 46017.1 1383.38   1
  -2   2  -4 83551.5 2195.32  31
  -2   2  -4 84733.6 2229.53  30
   2   2   4 80290.4 2052.50  32
  -2  -2  -4 86371.1 2070.34   1
   2   2   5 33616.3 1161.90  32
  -2   2  -5 32926.8 1228.61  31
  -2   2  -6 203.462 108.777  31
   2   2   6 330.910 125.371  32
   2   2   7 295.642 113.344  32
  -2   2  -7 96.4335 47.9902  31
   2   2   8 28727.5 1231.77  32
  -2   2  -8 31035.8 1336.46  31
  -2   2  -9 38483.3 1169.28   5
  -2  -2  -9 40342.7 1164.13   4
  -2   2  -9 37488.8 1124.34   4
   2  -2   9 37011.5 1135.55  16
  -2   2  -9 37190.9 1574.28  31
  -2  -2  -9 37207.0 1226.63  27
  -2  -2 -10 6727.13 464.733  27
  -2   2 -10 7702.20 449.155   5
  -2  -2 -10 7598.47 428.836   4
  -2   2 -10 7270.76 421.859   4
   2  -2  10 6595.42 414.715  16
  -2   2 -11 57012.1 1559.38   5
  -2   2 -11 54583.1 1503.07   4
  -2  -2 -11 53513.0 1623.77  27
   2  -2  11 54872.0 1545.05  16
  -2   2 -12 12124.2 576.067   5
  -2  -2 -12 11906.9 622.483  27
  -2  -2 -12 11944.7 556.095   4
  -2   2 -12 11507.0 536.188   4
   2  -2  12 11854.0 575.054  16
  -2  -2 -13 7664.56 413.720   4
  -2   2 -13 6381.68 367.671   4
  -2  -2 -13 6894.11 446.319  27
  -2  -2 -14 2694.54 248.250  27
  -2  -2 -14 2927.09 231.940   4
  -2   2 -15 3659.95 274.545  27
  -2  -2 -15 2855.56 225.024  27
  -2  -2 -15 3622.07 238.667   4
  -2  -2 -16 325.961 62.0298   4
  -2   2 -16 378.626 76.9416  27
  -2  -3  17 475.444 72.9207  12
  -2   3  17 504.978 81.1009  20
   2   3 -16 6225.88 305.620   9
  -2  -3  16 5648.39 306.531  20
  -2   3  16 5527.60 294.371  10
   2   3 -15 2926.96 232.138   9
  -2   3  15 3237.40 268.531  20
  -2  -3  15 2398.40 219.594  20
  -2   3  14 2632.55 265.801  20
   2   3 -14 2243.98 219.803   9
  -2  -3  14 2265.06 229.593  20
  -2  -3  13 62.4316 50.3081  11
  -2   3  13 96.6133 72.7741  20
   2   3 -13 118.337 64.2818   9
  -2  -3  12 22499.8 868.878  11
  -2   3  12 22986.4 914.852  20
  -2  -3  11 2419.20 260.076  11
  -2   3  11 2853.11 292.366  20
  -2  -3  10 7630.62 460.853  11
  -2  -3  10 6741.89 428.278  21
  -2   3  10 7407.43 482.545  20
  -2  -3  10 7585.15 458.280   8
  -2  -3   9 22595.0 851.582  11
  -2   3   9 23229.5 898.742  20
  -2  -3   9 22617.0 850.183   8
  -2   3   9 20988.4 1208.01  34
  -2  -3   9 23839.9 1247.00  34
  -2   3   8 29704.2 1388.98  34
  -2  -3   8 32650.0 1440.90  34
  -2   3   7 9808.04 701.692  34
  -2  -3   7 10467.0 741.229  34
  -2   3   6 38681.3 1441.13  34
  -2  -3   6 35731.2 1332.25  28
  -2  -3   5 93576.5 2519.68  34
  -2   3   5 90561.5 2358.79  29
  -2  -3   4 1158.91 181.526  28
  -2  -3   4 1512.96 184.889   1
  -2  -3   4 1491.90 245.000  34
  -2   3   4 1121.25 181.670  30
  -2   3   4 1549.91 219.934  29
  -2  -3   3 133383. 2975.87   1
  -2   3   3 133520. 3106.69  30
  -2  -3   3 139953. 3270.72  34
  -2   3   3 130352. 3051.53  29
  -2  -3   3 127598. 2970.32  28
  -2  -3   2 134903. 2988.56   1
  -2   3   2 139288. 3166.80  30
  -2   3   2 126576. 2998.40  29
  -2  -3   2 126611. 2937.81  28
  -2   3   1 73470.6 1909.67  30
  -2  -3   1 68943.2 1744.75   1
  -2   3   0 15800.2 740.615  30
  -2   3   0 13856.8 639.448  31
  -2  -3   0 15314.3 647.757   1
  -2   3  -1 4387.92 374.018  30
   2   3   1 4038.88 319.262  33
   2   3   1 4226.66 323.428  32
  -2  -3  -1 4453.29 329.239   1
   2   3   2 1009.25 163.266  32
  -2   3  -2 879.253 166.474   1
   2   3   2 1149.05 164.317  33
  -2  -3  -2 1159.58 166.568   1
  -2   3  -2 1046.30 188.457  30
  -2   3  -3 21233.1 930.180  30
  -2   3  -3 19785.8 838.983   1
  -2  -3  -3 22582.8 851.177   1
   2   3   3 20534.6 846.357  32
   2   3   4 79977.4 2140.62  32
  -2   3  -4 81197.2 2269.88  30
   2   3   5 2909.01 321.190  32
  -2   3  -5 3330.00 366.249  30
   2   3   6 6489.94 510.882  32
  -2   3  -6 7236.82 564.192  30
   2   3   7 167.844 87.0206  32
  -2   3  -7 111.193 69.4315  31
  -2   3  -8 266.928 76.7303   5
  -2   3  -8 465.887 145.662  31
   2   3   8 199.096 81.4157  32
  -2  -3  -8 383.375 94.4657   4
  -2   3  -9 6541.61 413.305   5
  -2  -3  -9 6144.00 429.326  27
  -2   3  -9 5804.11 371.021   4
   2  -3   9 6344.26 400.635  16
  -2  -3  -9 6742.98 405.024   4
  -2   3 -10 39173.7 1172.30   5
  -2  -3 -10 37882.4 1134.06   4
  -2   3 -10 33493.2 1073.56   4
   2  -3  10 36470.2 1143.50  16
  -2  -3 -10 32969.5 1166.00  27
   2  -3  11 1254.24 180.107  16
  -2   3 -11 1593.09 198.962   5
  -2  -3 -11 1063.98 178.432  27
  -2  -3 -11 1378.43 178.038   4
  -2   3 -11 1336.88 171.582   4
  -2  -3 -11 1372.00 202.748   7
  -2  -3 -12 410.097 116.589  27
  -2   3 -12 610.773 122.497   5
   2  -3  12 617.237 131.365  16
  -2  -3 -12 453.659 108.301   7
  -2  -3 -12 601.928 122.003   4
  -2   3 -13 72.5971 41.0794   5
   2  -3  13 169.757 57.0468  16
  -2  -3 -13 229.193 72.4381   4
  -2  -3 -13 103.736 63.7502   7
  -2  -3 -14 6408.23 340.212   4
  -2  -3 -14 5103.71 336.719   7
  -2  -3 -15 2434.07 185.747   4
  -2   3 -15 2465.22 217.772  27
  -2  -3 -16 7829.81 310.153   4
  -2   3 -16 8394.78 358.930  27
   2   4 -16 204.680 50.4721   9
  -2   4  16 272.828 63.9146  20
   2   4 -15 675.595 106.767   9
  -2   4  15 853.786 130.431  20
   2   4 -14 1193.49 155.390   9
  -2   4  14 1001.42 149.958  20
  -2  -4  13 10777.7 543.976  11
  -2   4  13 12464.0 601.110  20
  -2  -4  12 7774.47 471.923  11
  -2   4  12 7574.77 480.403  20
  -2  -4  11 14072.0 664.904  11
  -2   4  11 13612.8 672.663  20
  -2  -4  10 8469.65 497.504  11
  -2  -4  10 7533.80 461.539  21
  -2   4  10 8328.12 516.373  20
  -2  -4  10 8740.44 504.900   8
  -2  -4   9 13385.4 631.889  11
  -2   4   9 13109.1 650.783  20
  -2  -4   9 12498.2 612.408   8
  -2  -4   8 4648.24 351.106  11
  -2  -4   8 4623.42 346.817  21
  -2   4   8 4737.70 368.928  20
  -2  -4   8 4569.68 346.039   8
  -2  -4   8 4584.55 522.654  34
  -2  -4   7 9128.33 710.259  34
  -2   4   7 9513.64 685.217  29
  -2   4   6 20767.2 1005.09  29
  -2  -4   6 18914.6 942.280  28
  -2  -4   6 19641.9 1032.45  34
  -2  -4   5 2866.00 325.403  28
  -2  -4   5 2582.12 342.329  34
  -2   4   5 2787.76 334.686  29
  -2  -4   4 34339.1 1244.36  28
  -2  -4   4 38807.1 1430.45  34
  -2   4   4 37996.3 1322.31  29
  -2   4   4 33019.8 1231.73  30
  -2  -4   3 10898.9 545.089   1
  -2   4   3 9895.90 606.730  30
  -2   4   3 9261.58 571.140  29
  -2  -4   3 10052.7 667.004  34
  -2  -4   3 9439.35 563.723  28
  -2  -4   2 56161.6 1544.19   1
  -2   4   2 57747.6 1734.19  30
  -2   4   2 52466.5 1577.49  29
  -2  -4   2 52573.4 1576.60  28
  -2   4   1 16964.1 834.926  30
  -2  -4   1 16248.6 710.160   1
   2   4   0 315.530 101.238  33
  -2   4   0 623.282 160.901  30
   2   4   1 26861.4 1019.64  33
  -2   4  -1 29090.7 1148.97  30
   2   4   2 7379.78 485.621  33
   2   4   2 7602.08 514.426  32
  -2   4  -2 6936.09 527.590  30
  -2   4  -3 11449.1 702.140  30
   2   4   3 11300.6 666.300  32
  -2   4  -4 8325.66 613.202  30
   2   4   4 7776.44 557.348  32
  -2   4  -5 2064.01 313.771  30
   2   4   5 2198.82 293.629  32
   2   4   6 8552.82 631.307  32
  -2   4  -6 8140.22 647.135  30
  -2   4  -7 15101.4 637.131  10
  -2   4  -7 13252.6 604.814   5
  -2   4  -7 14628.3 652.840  17
   2   4   7 12540.6 813.484  32
  -2   4  -7 12376.3 837.252  30
  -2   4  -8 5257.84 367.924   5
  -2  -4  -8 5363.40 364.185   4
  -2   4  -9 6936.04 430.989   5
  -2  -4  -9 7633.11 436.865   4
  -2  -4  -9 6643.68 464.026   7
   2  -4   9 7719.26 450.517  16
  -2   4 -10 58.8934 52.5249   5
   2  -4  10 66.8740 64.6801  16
  -2  -4 -10 49.0512 51.3073   7
  -2  -4 -10 97.9157 63.7788   4
  -2   4 -11 25394.9 898.827   5
  -2  -4 -11 25792.4 879.517   4
  -2  -4 -11 23630.4 946.691   7
   2  -4  11 26615.0 920.893  16
  -2   4 -12 12520.9 562.460   5
  -2  -4 -12 12477.8 544.391   4
   2  -4  12 12259.5 571.761  16
  -2  -4 -12 10921.6 576.956   7
  -2   4 -13 174.497 68.1404   5
  -2  -4 -13 188.994 68.4265   4
   2  -4  13 151.320 57.8566  16
  -2  -4 -13 126.418 61.9926   7
  -2  -4 -14 295.372 70.7051   4
  -2  -4 -14 130.133 47.7551   7
  -2   4 -14 290.266 89.5727  27
  -2  -4 -15 1357.94 125.855   4
  -2   4 -15 1253.53 142.488  27
  -2  -5  16 92.6675 36.9140  12
  -2   5  16 120.122 40.5620  20
   2  -5 -15 121.847 42.4965  26
  -2   5  15 132.799 50.9731  20
   2   5 -15 142.279 51.7775   9
  -2   5  14 134.800 60.0698  20
   2   5 -14 137.843 62.7220   9
  -2  -5  13 932.223 150.758  11
  -2   5  13 995.913 157.125  20
  -2  -5  12 3125.69 285.412  11
  -2   5  12 3532.11 307.981  20
  -2  -5  11 11309.5 582.063  11
  -2   5  11 10617.5 573.560  20
  -2  -5  10 6157.99 422.074  11
  -2  -5  10 5184.87 381.789  21
  -2   5  10 5552.50 409.214  20
  -2  -5   9 131.208 65.8865  11
  -2  -5   9 97.3382 59.5758  21
  -2   5   9 89.1087 61.6415  20
  -2  -5   8 6241.80 420.769  11
  -2  -5   8 5510.56 391.664  21
  -2   5   8 5843.25 422.984  20
  -2  -5   7 6414.77 409.413  24
  -2   5   7 6291.06 431.054  20
  -2   5   7 6003.92 574.033  29
  -2  -5   6 1025.44 231.524  28
  -2   5   6 633.930 175.894  29
  -2  -5   5 5875.94 522.288  28
  -2  -5   5 6326.17 579.647  34
  -2   5   5 6942.78 571.294  29
  -2   5   4-196.955 95.3492  29
  -2  -5   4 64.6869 59.4010  28
  -2  -5   3 4070.79 395.699  28
  -2   5   3 3995.58 414.345  30
  -2   5   3 3782.24 387.383  29
  -2   5   2 3854.38 415.336  30
   2   5  -2 3554.77 379.480  33
  -2  -5   2 3460.71 365.456  28
  -2   5   1 13009.9 788.113  30
   2   5  -1 12159.5 716.234  33
  -2   5   0 5386.94 506.374  30
   2   5   0 6407.74 499.270  33
   2   5   1 146.157 90.1861  33
  -2   5  -1 168.725 138.845  30
  -2   5  -2 2264.20 328.790  30
   2   5   2 2262.43 296.237  33
   2   5   2 2156.43 304.647  32
   2   5   3 29488.5 1261.00  32
  -2   5  -3 27283.2 1256.37  30
   2   5   4 3348.54 391.188  32
  -2   5  -4 3508.45 429.824  30
   2   5   5 218.570 107.331  32
  -2   5  -5 122.038 94.9710  30
  -2   5  -6 550.598 122.608  10
  -2   5  -6 602.272 122.314  17
  -2  -5  -6 358.398 104.119   7
   2   5   6 547.621 177.737  32
   2  -5   6 411.302 94.4325   6
  -2   5  -6 123.494 89.2942  30
  -2   5  -7 424.756 104.192   5
  -2   5  -7 481.161 117.565  17
  -2  -5  -7 381.087 107.544   7
  -2  -5  -7 474.651 104.338   4
  -2   5  -8 2256.15 240.144   5
  -2  -5  -8 1937.87 206.405  22
  -2  -5  -8 2277.33 227.838   4
  -2   5  -8 2598.95 265.640  17
  -2  -5  -8 2235.62 266.435   7
  -2   5  -9 4271.41 328.986   5
  -2  -5  -9 3485.83 278.020  22
  -2  -5  -9 4437.19 324.536   4
  -2  -5  -9 3686.11 346.170   7
  -2   5 -10 13035.4 600.589   5
  -2  -5 -10 13704.0 594.927   4
  -2  -5 -10 12163.0 646.947   7
   2  -5  10 13479.5 616.066  16
  -2   5 -11 0.85370 46.7482   5
  -2  -5 -11 53.9443 39.3538   4
   2  -5  11 20.5586 47.4410  16
  -2  -5 -11 49.4261 42.3806   7
  -2   5 -12 6518.76 375.206   5
  -2  -5 -12 6678.67 367.522   4
  -2  -5 -12 6051.71 398.797   7
   2  -5  12 6598.65 390.558  16
  -2   5 -13 3144.14 236.163   5
  -2  -5 -13 3140.25 262.473  35
  -2  -5 -13 3204.54 231.055   4
  -2  -5 -13 2837.47 242.235   7
   2  -5  13 3332.96 248.480  16
  -2   5 -13 2915.63 248.791  27
  -2  -5 -14 41.6599 20.7801   4
  -2  -5 -14-13.3143 34.2266   7
  -2   5 -14-27.6001 24.0668  27
  -2  -5 -15 2639.49 162.021   4
   2  -5  15 3070.35 181.259   8
  -2  -6  15 2998.90 192.931  12
  -2   6  15 3284.90 204.090  20
  -2   6  15 2665.67 186.532  13
   2  -6 -14 326.150 72.3202  26
  -2   6  14 303.387 69.2616  20
   2   6 -14 220.834 64.0507   9
  -2  -6  13 1697.19 186.425  11
  -2   6  13 1834.14 194.799  20
   2  -6 -13 1489.28 173.402  26
  -2  -6  12 135.263 56.3833  11
  -2   6  12 226.053 71.2702  20
  -2  -6  11 4289.71 335.995  11
  -2   6  11 4171.77 335.306  20
  -2  -6  10 3449.18 311.836  11
  -2  -6  10 3295.85 294.661  21
  -2   6  10 3360.70 305.412  20
  -2  -6   9 43.6053 62.3501  11
  -2  -6   9 25.4335 45.6936  21
  -2   6   9 84.2955 71.0731  20
  -2  -6   9 40.2431 42.4089  15
  -2  -6   8 11.1443 56.6953  11
  -2   6   8 101.055 55.3472  20
  -2  -6   8 17.6618 40.1694  15
  -2  -6   7 6864.24 432.107  24
  -2   6   7 6076.71 426.828  20
  -2  -6   7 6013.18 410.726  15
   2  -6  -7 6464.04 429.062  26
  -2   6   6 21589.9 861.216  20
  -2  -6   6 22408.4 844.479  24
  -2  -6   6 19146.6 797.288  15
   2  -6  -6 21120.9 829.991  26
  -2  -6   5 5519.62 381.031  24
  -2   6   5 4889.56 375.640  20
  -2  -6   5 4152.36 333.045  15
  -2   6   5 3836.16 460.432  29
  -2  -6   5 4299.37 468.435  28
   2  -6  -5 4612.61 351.540  26
   2  -6  -4 20.7471 34.4244  26
  -2  -6   4 28.8083 32.7324  24
  -2  -6   4 9.04022 35.3565  22
  -2   6   4 88.7303 66.5131  20
   2   6  -4 221.889 118.203  33
  -2  -6   4 38.2049 43.7790  14
  -2   6   4 61.4633 98.9271  29
  -2   6   4 106.567 70.9566  13
  -2  -6   4 69.9425 68.4066  28
   2   6  -3 1958.62 311.005  33
  -2   6   3 1755.70 298.369  30
  -2  -6   3 1690.55 284.054  28
  -2  -6   3 1781.20 214.080  24
   2   6  -2 3510.08 409.059  33
  -2   6   2 3403.46 420.293  30
   2   6  -1 27898.5 1240.84  33
  -2   6   1 26859.3 1291.73  30
  -2   6   0 17906.0 1028.68  30
   2   6   0 16390.9 917.858  33
  -2   6  -1 12320.1 849.560  30
   2   6   1 11335.9 747.531  33
  -2  -6  -2 10210.1 565.049  24
  -2  -6  -2 11230.4 511.644  22
   2   6   2 9977.51 702.559  33
   2   6   2 10794.4 751.835  32
  -2   6  -2 10569.9 785.578  30
  -2  -6  -3 27721.9 1017.76  24
  -2   6  -3 27270.2 928.744  10
  -2  -6  -3 28653.7 917.063  22
   2  -6   3 27684.0 956.084  26
   2   6   3 25943.5 1276.79  32
  -2  -6  -3 27964.4 889.227  14
   2  -6   3 28392.1 940.757   6
  -2   6  -3 26002.6 1312.44  30
  -2  -6  -4 9268.28 539.431  24
  -2  -6  -4 8652.01 450.260  22
  -2   6  -4 9073.88 482.104  10
   2   6   4 7413.31 645.464  32
  -2  -6  -4 8132.54 425.721  14
   2  -6   4 8165.20 454.872   6
  -2   6  -5 35068.2 1087.47  10
  -2  -6  -5 33622.3 1034.57  22
  -2  -6  -5 28821.0 1123.42   7
   2  -6   5 33249.2 1049.76   6
  -2  -6  -5 30410.4 970.328  14
  -2   6  -5 34004.5 1108.52  17
  -2   6  -6 16637.2 718.559  17
  -2  -6  -6 16343.5 653.940  22
  -2  -6  -6 14435.3 737.130   7
   2  -6   6 14602.5 640.522   6
  -2   6  -7 6446.28 415.750   5
  -2  -6  -7 6195.93 379.168  22
  -2  -6  -7 6548.36 473.962   7
  -2   6  -7 6763.83 437.476  17
   2  -6   7 5937.25 385.289   6
  -2   6  -8 12.9048 42.8542  17
  -2   6  -8 59.5557 57.1891   5
  -2  -6  -8 37.4546 36.6666  22
   2  -6   8 37.5512 46.7119   6
  -2  -6  -8 124.847 57.3003   4
  -2  -6  -8 7.27913 71.0273   7
  -2   6  -9 267.713 88.9064   5
  -2  -6  -9 133.659 58.0173  22
  -2  -6  -9 127.115 56.3291   4
  -2  -6  -9 195.227 95.9444   7
  -2   6 -10-3.56310 32.5970   5
  -2  -6 -10 40.2835 24.1256   4
  -2  -6 -10 58.9450 72.1434   7
   2  -6  10 42.1384 48.9992  16
  -2   6 -11 877.871 134.959   5
  -2  -6 -11 1106.95 140.530   4
  -2  -6 -11 656.542 131.463   7
   2  -6  11 888.234 137.640  16
  -2   6 -12 616.494 104.829   5
  -2  -6 -12 682.622 101.310   4
  -2  -6 -12 480.519 100.467   7
   2  -6  12 710.350 114.801  16
  -2  -6 -13 643.595 104.007  24
  -2  -6 -13 550.165 86.1701   4
  -2  -6 -13 650.312 105.638  35
  -2  -6 -13 541.160 93.2382   7
   2  -6  13 609.795 98.2847  16
  -2  -6 -14 857.134 103.029  24
   2  -6  14 988.469 105.369   8
  -2  -7  14 2225.17 162.347   3
  -2   7  14 2384.09 168.889  20
  -2  -7  13 1417.59 150.925  11
  -2   7  13 1585.90 160.653  20
  -2   7  13 1349.61 149.649  13
   2  -7 -13 1254.28 140.511  26
  -2  -7  12 1864.38 193.096  11
  -2   7  12 1770.14 186.304  20
  -2   7  12 1555.49 179.186  13
   2  -7 -12 1853.83 190.893  26
   2  -7 -11 701.634 127.215  26
  -2  -7  11 712.002 129.920  11
  -2   7  11 805.000 133.384  20
  -2   7  11 717.622 132.386  13
   2  -7 -10 393.447 95.2404  26
  -2  -7  10 480.590 112.107  11
  -2  -7  10 454.319 106.135  21
  -2   7  10 505.887 115.864  20
  -2   7  10 481.820 121.833  13
  -2  -7   9 7185.17 448.494  11
  -2  -7   9 6454.80 417.453  21
  -2   7   9 7136.25 450.822  20
  -2  -7   9 6639.64 423.648  15
  -2   7   9 7285.52 464.503  13
   2  -7  -9 7104.30 441.471  26
  -2  -7   8 2567.51 267.985  11
  -2   7   8 2723.29 273.659  20
  -2  -7   8 2472.91 255.427  15
  -2   7   8 2650.00 282.200  13
   2  -7  -8 2583.24 264.546  26
  -2  -7   7 872.507 158.837  11
  -2   7   7 1531.75 208.958  20
  -2  -7   7 1468.53 200.979  15
  -2   7   7 1243.26 197.017  13
   2  -7  -7 1159.05 181.400  26
   2  -7  -6 687.797 140.933  26
  -2  -7   6 662.022 133.020  24
  -2   7   6 645.672 136.651  20
  -2  -7   6 653.161 134.343  15
  -2   7   6 549.494 132.595  13
  -2  -7   5 1566.67 209.585  24
   2  -7  -5 1626.94 216.062  26
  -2   7   5 2125.82 245.851  20
  -2  -7   5 1487.37 204.889  15
  -2   7   5 1523.47 218.393  13
  -2  -7   4 37173.4 1195.93  24
  -2   7   4 35965.6 1204.51  20
   2  -7  -4 37674.3 1207.71  26
  -2   7   4 37050.8 1245.21  13
  -2  -7   3 12039.2 607.178  24
  -2  -7   3 11975.5 557.057  22
  -2   7   3 11546.5 618.195  13
   2  -7  -3 12703.9 616.809  26
  -2  -7   2 5508.82 396.619  24
  -2  -7   2 5260.97 351.879  22
  -2  -7   2 5662.82 353.453  14
   2  -7  -2 5348.94 387.087  26
  -2   7   2 5359.03 407.487  13
   2  -7  -2 5362.28 377.947   6
  -2  -7   1 30466.1 1057.85  24
   2  -7  -1 29135.1 1020.11  26
  -2  -7   1 29836.4 958.642  22
  -2  -7   1 29796.3 944.414  14
  -2   7   1 28780.0 1056.72  13
   2  -7  -1 28996.7 998.042   6
   2  -7   0 1364.78 189.444  26
  -2  -7   0 1359.96 197.369  24
  -2  -7   0 1410.96 172.798  22
  -2  -7   0 1498.95 179.539  14
   2  -7   0 1388.51 186.056   6
  -2  -7  -1 7481.84 479.505  24
  -2  -7  -1 7554.94 423.742  22
   2  -7   1 7910.36 468.973  26
  -2  -7  -1 6091.16 452.134  35
  -2  -7  -1 8031.97 426.593  14
   2  -7   1 7722.95 452.722   6
  -2  -7  -2 69027.0 1733.87  22
  -2  -7  -2 62446.0 1869.72  35
  -2  -7  -2 66843.5 1856.22  24
  -2  -7  -2 69806.1 1716.90  14
   2  -7   2 69050.0 1781.61   6
   2  -7   2 66562.5 1794.37  26
  -2   7  -3 23633.2 873.869  10
  -2  -7  -3 26961.5 899.452  22
  -2  -7  -3 26304.4 997.036  24
  -2  -7  -3 26467.5 874.961  14
   2  -7   3 26874.3 926.466   6
   2  -7   3 25896.6 944.394  26
  -2   7  -4 7122.26 426.135  10
  -2  -7  -4 7530.43 489.718  24
  -2  -7  -4 8068.16 440.991  22
  -2  -7  -4 6916.48 396.211  14
   2  -7   4 7426.94 440.304   6
  -2   7  -4 7261.95 463.296  17
  -2  -7  -5 19574.7 844.237  24
  -2  -7  -5 20350.3 761.264  22
  -2   7  -5 20886.9 834.783  17
  -2  -7  -5 18964.1 710.158  14
   2  -7   5 21285.1 798.485   6
  -2   7  -6 9225.03 506.434   5
  -2  -7  -6 9091.36 543.755  24
  -2  -7  -6 9068.84 471.023  22
   2  -7   6 9984.26 512.244   6
  -2   7  -6 9461.04 530.005  17
  -2  -7  -7 426.414 114.502  24
  -2   7  -7 367.726 96.0069   5
  -2  -7  -7 427.388 95.3545  22
  -2   7  -7 522.928 123.516  17
   2  -7   7 505.610 110.288   6
  -2  -7  -8 4237.19 348.780  24
  -2  -7  -8 3985.33 280.604  22
  -2   7  -8 4479.05 329.371   5
   2  -7   8 4278.52 310.392   6
  -2   7  -9 11651.5 534.590   5
  -2  -7  -9 11094.9 570.427  24
  -2  -7 -10 41.3673 51.6956  24
  -2   7 -10 48.7246 50.2584   5
  -2  -7 -10 66.3041 43.5443   4
   2  -7  10-4.24240 30.9835  16
  -2   7 -11 1146.11 141.812   5
  -2  -7 -11 1325.13 164.747  24
  -2  -7 -11 1348.12 174.712  35
   2  -7  11 1258.89 147.768  16
  -2   7 -12 701.534 98.4000   5
  -2  -7 -12 709.892 111.358  24
  -2  -7 -12 703.968 116.917  35
   2  -7  12 752.889 102.779   8
   2  -7  12 672.828 101.000  16
  -2  -7 -13 26.0559 21.7128  24
   2  -7  13 63.7551 30.0391   8
   2  -7  13-9.35279 19.2769  16
  -2  -8  12 9943.63 405.255  11
   2  -8 -12 9076.32 376.463  26
  -2  -8  12 9301.27 382.491   3
  -2  -8  11 805.248 124.296  11
   2  -8 -11 928.034 124.658  26
  -2   8  11 981.345 129.430  20
  -2   8  11 806.675 118.774  13
  -2  -8  10 6339.77 372.505  11
  -2  -8  10 5539.61 326.392  21
   2  -8 -10 6756.45 374.860  26
  -2   8  10 6207.48 368.397  13
   2  -8  -9 11.9853 31.0325  26
   2  -8  -9-1.33359 32.3657   6
  -2  -8   9-13.8408 46.4055  11
  -2  -8   9-16.3010 43.0543  21
  -2   8   9 89.2056 60.9894  20
  -2  -8   9 44.0941 46.8599  15
  -2   8   9 34.2191 45.5569  13
  -2  -8   8 1434.98 186.799  11
  -2  -8   8 2219.24 230.681  21
  -2   8   8 1797.36 205.769  20
  -2  -8   8 1673.99 199.498  15
  -2   8   8 1612.78 199.466  13
   2  -8  -8 1584.73 184.220   6
   2  -8  -8 1612.91 192.547  26
  -2  -8   7 1460.12 196.332  11
  -2   8   7 1775.70 215.442  20
  -2  -8   7 1622.02 200.967  15
  -2   8   7 1628.81 210.582  13
   2  -8  -7 1671.75 198.643   6
   2  -8  -7 1656.44 205.286  26
  -2  -8   6 1546.30 203.394  11
  -2  -8   6 1565.93 199.828  24
  -2  -8   6 1339.94 178.044   3
  -2  -8   6 1703.29 209.329  15
  -2   8   6 1431.46 205.011  13
   2  -8  -6 1814.73 210.299   6
   2  -8  -6 1746.40 213.460  26
   2  -8  -5 1031.91 164.410  26
   2  -8  -5 948.385 154.280   6
  -2  -8   5 709.847 137.848  11
  -2  -8   5 852.243 153.045  24
  -2  -8   5 764.554 147.019  15
  -2   8   5 955.815 163.514  13
  -2  -8   4 10713.3 568.844  11
  -2  -8   4 12204.6 605.577  24
   2  -8  -4 12416.2 609.654  26
  -2  -8   4 12662.9 620.355  15
  -2   8   4 12456.4 638.490  13
   2  -8  -4 12159.5 596.178   6
  -2  -8   3 4417.98 354.287  24
  -2   8   3 4349.92 365.897  13
   2  -8  -3 4664.83 356.530   6
   2  -8  -3 4655.91 359.663  26
  -2  -8   2 2506.39 266.897  24
  -2  -8   2 2702.54 245.815  22
   2  -8  -2 2704.13 262.861   6
   2  -8  -2 2732.12 274.601  26
  -2  -8   1 1351.52 197.743  24
  -2  -8   1 1573.00 187.287  22
   2  -8  -1 1497.39 198.059   6
   2  -8  -1 1612.50 208.196  26
  -2  -8   0 13427.1 652.851  24
  -2  -8   0 13322.5 576.728  22
   2  -8   0 12919.5 609.716   6
   2  -8   0 12833.2 624.156  26
   2  -8   1 202.098 86.8478  26
  -2  -8  -1 278.101 93.1212  24
  -2  -8  -1 171.441 60.0730  22
   2  -8   1 274.532 87.9320   6
  -2  -8  -2 10792.9 585.384  24
  -2  -8  -2 11494.7 528.073  22
  -2  -8  -2 9226.88 565.849  35
   2  -8   2 10564.2 537.478   6
   2  -8   2 10892.1 564.226  26
  -2  -8  -3 382.678 115.382  24
  -2  -8  -3 533.802 113.226  22
  -2  -8  -3 378.123 118.077  35
   2  -8   3 490.704 118.683   6
  -2  -8  -4 10079.0 567.839  24
  -2   8  -4 9990.04 547.453  17
  -2  -8  -4 10259.6 603.094  35
   2  -8   4 10238.1 522.859   6
  -2  -8  -4 10877.1 507.276  22
  -2  -8  -5 809.924 158.705  24
  -2   8  -5 808.458 143.314   5
  -2  -8  -5 944.084 141.515  22
  -2   8  -5 890.170 154.636  17
  -2  -8  -5 882.451 168.124  35
   2  -8   5 878.791 148.145   6
  -2   8  -6 6357.37 398.035   5
  -2  -8  -6 6535.98 434.238  24
  -2  -8  -6 6901.30 377.170  22
  -2  -8  -6 6619.01 463.248  35
   2  -8   6 6941.50 410.341   6
  -2   8  -6 6390.91 417.000  17
  -2  -8  -7 43.5058 43.3488  24
  -2   8  -7 5.48423 31.1931   5
  -2  -8  -7 18.9419 25.2839  22
  -2  -8  -7 7.85262 47.1532  35
  -2   8  -7 34.2494 55.3111  17
   2  -8   7 32.3381 29.4517   6
  -2  -8  -8 61.0796 49.4799  24
  -2   8  -8 47.4188 44.4918   5
  -2  -8  -8 13.0407 31.8939  22
  -2  -8  -8 84.4174 76.7868  35
   2  -8   8 62.9465 51.6120   6
  -2  -8  -9 453.623 97.6296  24
  -2   8  -9 225.282 65.2601   5
  -2  -8  -9 338.868 104.154  35
   2  -8   9 340.709 76.3943  16
  -2   8 -10 291.266 68.9039   5
  -2  -8 -10 268.710 71.3414  24
  -2  -8 -10 211.093 69.9304  35
   2  -8  10 253.413 63.2684  16
  -2   8 -11 693.552 91.2514   5
  -2  -8 -11 698.927 102.517  24
  -2  -8 -11 760.743 114.180  35
   2  -8  11 652.221 92.4623  16
  -2  -9  11 1101.64 113.656  11
   2  -9 -11 1005.92 104.083  26
   2  -9 -10 266.356 62.8774  26
  -2  -9  10 178.440 56.7873  11
  -2  -9  10 197.808 47.8428   3
   2  -9  -9 651.233 102.566  26
  -2  -9   9 799.774 114.541  11
  -2  -9   9 488.614 85.6066  21
  -2  -9   9 676.084 99.8651   3
  -2   9   9 461.604 81.9473  13
  -2  -9   8 936.860 133.318  11
  -2  -9   8 841.843 124.943  21
  -2  -9   8 764.105 111.184   3
  -2  -9   8 1121.02 143.987  15
   2  -9  -8 864.908 114.961   6
  -2   9   8 852.912 123.561  13
   2  -9  -8 1133.85 143.307  26
   2  -9  -7-27.3961 36.4597   6
   2  -9  -7 23.2690 28.3316  26
  -2  -9   7-14.1353 38.2412  11
  -2  -9   7-6.65140 26.3104  15
  -2   9   7 64.1799 46.2552  13
   2  -9  -6 168.053 62.9150  26
   2  -9  -6 190.395 59.0649   6
  -2  -9   6 129.132 61.6387  11
  -2  -9   6 166.512 61.2589  15
  -2   9   6 157.998 59.2100  13
   2  -9  -5 617.237 114.341   6
   2  -9  -5 659.661 124.237  26
  -2  -9   5 492.859 105.140  11
  -2  -9   5 560.827 110.571  24
  -2  -9   5 594.712 121.030  15
  -2  -9   4 14596.7 629.587  24
  -2  -9   4 14088.0 633.661  15
   2  -9  -4 14338.4 630.432  26
   2  -9  -4 14039.3 607.162   6
   2  -9  -3 92.0212 55.5746   6
   2  -9  -3 19.5530 49.5191  26
  -2  -9   3 35.4656 39.2741  24
  -2  -9   3 23.8491 36.0640  15
  -2  -9   2 2534.23 253.573  24
   2  -9  -2 2442.76 247.864  26
   2  -9  -2 3196.53 273.388   6
  -2  -9   1 1985.05 225.291  24
   2  -9  -1 1972.96 214.021   6
   2  -9  -1 2081.49 226.906  26
  -2  -9   0 9340.95 510.884  24
   2  -9   0 8754.98 487.414  26
   2  -9   0 8572.34 463.868   6
   2  -9   1 423.289 110.365  26
  -2  -9  -1 200.250 76.5596  24
  -2  -9  -1 362.548 89.1252  22
   2  -9   1 268.551 81.2302   6
  -2  -9  -2 23889.8 889.421  24
  -2  -9  -2 24581.1 810.601  22
   2  -9   2 23335.1 829.196   6
  -2  -9  -3 2772.11 268.018  24
  -2  -9  -3 2863.76 238.013  22
  -2  -9  -3 2437.40 253.540  35
  -2   9  -3 2381.79 248.095  17
   2  -9   3 2766.38 249.310   6
  -2  -9  -4 9.18001 55.2415  24
  -2   9  -4-24.6653 38.6638   5
  -2  -9  -4 38.1166 36.8730  22
  -2   9  -4-11.1115 40.6276  17
   2  -9   4-9.67136 26.9757   6
  -2  -9  -4 20.4867 53.6539  35
  -2   9  -5 2589.24 225.273   5
  -2  -9  -5 2993.33 269.290  24
  -2  -9  -5 2847.26 222.162  22
  -2   9  -5 2848.04 257.179  17
  -2  -9  -5 2639.15 262.614  35
   2  -9   5 2853.16 240.944   6
  -2   9  -6 1795.77 179.956   5
  -2  -9  -6 2036.29 214.523  24
  -2  -9  -6 1750.49 163.331  22
  -2   9  -6 2091.96 215.281  17
  -2  -9  -6 2058.87 224.294  35
   2  -9   6 2005.07 194.200   6
  -2  -9  -7 137.095 60.1599  24
  -2   9  -7 73.1962 36.0796   5
  -2  -9  -7 68.2191 45.2730  35
   2  -9   7 106.508 43.5181   6
  -2   9  -8 5673.09 295.930   5
  -2  -9  -8 6493.39 349.191  24
  -2  -9  -8 6810.68 380.428  35
   2  -9   8 6125.82 321.013  16
  -2   9  -9 85.8166 32.3395   5
  -2  -9  -9-1.99381 22.1680  24
  -2  -9  -9 50.1039 34.4482  35
   2  -9   9 81.5591 35.9522  16
  -2  -9 -10 1295.41 120.771  24
  -2  -9 -10 1332.30 132.050  35
   2  -9  10 1289.48 116.330  16
  -2 -10   8 3506.36 210.933  11
   2 -10  -8 4447.89 237.390  26
  -2 -10   7 1237.99 129.070  11
  -2 -10   7 1373.35 141.516  21
  -2 -10   7 1560.62 147.830  15
   2 -10  -6 13.4842 24.0214  26
  -2 -10   6-11.1104 43.0904  21
  -2 -10   6 5.86781 27.4254  15
   2 -10  -6 34.0680 33.2604   6
  -2 -10   5 830.490 119.621  15
   2 -10  -5 914.061 117.170   6
   2 -10  -5 961.033 129.917  26
   2 -10  -4 9689.48 444.228  26
  -2 -10   4 9109.54 436.778  15
   2 -10  -4 8662.47 401.769   6
  -2 -10   3 11685.4 507.784  24
   2 -10  -3 11856.9 513.029  26
  -2 -10   3 12251.9 527.706  15
   2 -10  -3 12135.1 499.061   6
   2 -10  -2 235.364 71.5746  26
  -2 -10   2 375.956 82.6102  24
  -2 -10   2 342.737 85.6107  15
   2 -10  -2 308.171 75.6926   6
  -2 -10   1 2797.06 239.013  24
  -2 -10   1 3084.46 253.939  15
   2 -10  -1 3350.39 249.233   6
   2 -10  -1 3323.16 255.994  26
  -2 -10   0 3374.76 263.762  24
   2 -10   0 3059.24 239.199   6
   2 -10   0 3715.80 270.721  26
  -2 -10  -1 122.635 56.0453  24
  -2  10  -1 66.3161 48.4058  17
   2 -10   1 2.77269 31.7341   6
  -2 -10  -2 425.148 92.6832  24
  -2  10  -2 411.348 89.3176  17
   2 -10   2 402.840 89.7851   6
  -2 -10  -3 9744.10 450.554  24
  -2  10  -3 9333.97 446.431  17
   2 -10   3 8255.58 401.103   6
  -2 -10  -4 86.1934 31.6679  24
  -2  10  -4 141.419 62.3510  17
   2 -10   4 144.617 50.8212   6
  -2 -10  -5 1866.64 173.800  24
  -2  10  -5 1858.57 176.826  17
   2 -10   5 1683.29 158.565   6
  -2 -10  -6 332.437 68.8324  24
  -2 -10  -6 171.806 46.7370  35
   2 -10   6 246.112 58.3876   6
  -2 -10  -7 1408.88 131.626  24
   2 -10   7 1624.49 138.200  16
   2 -11  -5 10.9095 15.3435  26
  -2 -11   4 4271.30 234.972  21
   2 -11  -4 4112.79 223.009  26
  -2 -11   3 4581.98 245.759  15
   2 -11  -3 4013.08 210.819   6
   2 -11  -2 415.090 67.8714   6
  -2  11   2 340.847 65.1190  17
  -2 -11   2 299.827 64.2811  15
  -2 -11   1-7.38453 19.5698  24
  -2  11   1-2.96427 21.5249  17
  -2 -11   1-6.65591 23.5934  15
   2 -11  -1 17.6309 17.8580   6
  -2 -11   0 397.098 67.6314  24
  -2  11   0 325.774 65.7124  17
  -2 -11   0 395.896 74.9037  15
   2 -11   0 325.614 64.0417   6
  -2 -11  -1 3129.73 193.668  24
  -2  11  -1 3453.15 214.520  17
  -2 -11  -1 3355.64 215.529  15
   2 -11   1 3370.51 204.688   6
  -2 -11  -2 4558.83 232.824  24
  -2  11  -2 4760.92 248.830  17
   2 -11   2 4969.70 247.962   6
  -2 -11  -2 4521.49 250.033  15
  -2 -11  -3 397.049 69.6096  15
   2 -11   3 421.246 66.9211   6
  -3   0  16 0.22143 24.4791  10
  -3   0  15 2515.67 206.815  12
  -3   0  14 72.0019 50.4437  12
  -3   0  13 7623.65 444.396  12
  -3   0  12 40.8301 62.4057  12
  -3   0  11 16606.9 729.133  12
  -3   0  10 59.0310 57.0776  12
  -3   0   9 1006.14 170.900  12
  -3   0   8 45.5702 43.0988  12
  -3   0   7 3967.25 505.788  34
  -3   0   7 4152.68 332.769  12
  -3   0   6-83.2726 96.6090   1
  -3   0   6-126.993 98.9964  34
  -3   0   5 17364.9 1014.75  34
  -3   0   5 16621.0 917.684   1
  -3   0   4 11.5836 73.6184  34
  -3   0   4-37.5716 53.5274   1
  -3   0   3 78124.3 2307.39   1
  -3   0   3 82327.0 2470.60  34
  -3   0   2-19.8136 69.3657   1
  -3   0   1 2151.00 285.564   1
  -3   0   0 89.9391 83.3092   1
  -3   0  -1 3522.98 368.514   1
  -3   0  -2-36.9332 69.6810   1
  -3   0  -3 115917. 3004.63   1
  -3   0  -4 74.9227 71.3797   1
  -3   0  -5 1210.49 224.939   1
  -3   0  -6 267.840 88.0921   2
  -3   0  -6 101.647 69.1906   4
  -3   0  -6 81.0209 86.2395  27
  -3   0  -7 579.856 138.659  27
  -3   0  -7 393.352 97.1714   4
  -3   0  -8 114.368 111.026  23
  -3   0  -8-5.67827 33.6069   4
  -3   0  -8 40.8001 60.4298  27
  -3   0  -9 34074.8 1093.44  23
  -3   0  -9 37425.2 1121.73   4
  -3   0  -9 35516.4 1228.97  27
  -3   0 -10 10.1812 44.2365  23
  -3   0 -10 14.8209 42.2069   4
  -3   0 -10-7.62651 46.8366  27
  -3   0 -11 2221.22 219.748   4
  -3   0 -11 2092.04 249.096  27
  -3   0 -12 26.3930 36.4401   4
  -3   0 -12-4.82539 45.3426  27
  -3   0 -13 320.195 87.3801  27
  -3   0 -13 225.644 62.9174   4
  -3   0 -14-14.0768 24.7184   4
  -3   0 -14-50.7239 53.7847  27
  -3   1  16 1482.02 138.822  10
  -3  -1  16 1475.38 131.893  12
  -3  -1  15 153.444 51.3743  12
  -3   1  14 326.330 81.8331  12
  -3  -1  14 273.681 88.8797  12
  -3   1  14 209.550 63.1150  20
  -3   1  13 4813.18 343.395  20
  -3   1  13 5430.25 360.338  12
  -3   1  12 9556.70 517.083  12
  -3  -1  12 9662.10 529.620  12
  -3   1  11 9035.74 511.433  12
  -3  -1  11 9381.24 527.595  12
  -3   1  10 498.332 120.657  12
  -3  -1  10 407.740 126.096  12
  -3   1   9 6706.68 437.715  12
  -3  -1   9 6459.10 433.740  12
  -3   1   8 625.673 130.566  12
  -3  -1   8 590.233 123.546  12
  -3   1   7 92.1343 55.3104  12
  -3  -1   7 119.599 61.9716  12
  -3   1   7 56.1553 60.8137   1
  -3  -1   7 82.5742 66.5337  21
  -3  -1   7 107.127 103.603  34
  -3   1   6 3493.23 430.566   1
  -3   1   6 3118.02 434.765  34
  -3  -1   6 3318.17 442.860  34
  -3   1   5 9519.63 711.878   1
  -3  -1   5 9231.26 642.375   1
  -3   1   5 9567.55 725.968  34
  -3  -1   5 8977.41 715.605  34
  -3  -1   4 3528.44 386.023   1
  -3   1   4 3381.63 413.933  34
  -3  -1   4 4228.75 474.820  34
  -3   1   4 3251.05 400.378   1
  -3   1   3 14080.6 829.927   1
  -3  -1   3 14033.9 782.737   1
  -3   1   3 13245.7 831.927  34
  -3  -1   3 13507.2 863.163  34
  -3  -1   2 3118.02 354.857   1
  -3   1   2 3575.77 397.071   1
  -3  -1   1 9793.74 635.236   1
  -3   1   1 9282.99 632.419   1
  -3  -1   0 4347.89 407.826   1
  -3   1   0 3559.91 378.596   1
  -3  -1  -1 470.503 140.657   1
  -3   1  -1 506.325 140.917   1
  -3  -1  -2 7329.41 543.209   1
  -3   1  -2 7212.75 554.581   1
  -3   1  -3 61775.4 1955.66   1
  -3  -1  -3 64807.8 1942.88   1
  -3   1  -4 5778.24 497.048   1
  -3   1  -4 7512.62 599.803  31
  -3  -1  -4 6915.73 527.622   1
  -3  -1  -5 17216.7 869.647   1
  -3   1  -5 16897.9 956.097  31
  -3   1  -6 4098.46 316.358  10
  -3  -1  -6 4511.81 326.805  23
  -3  -1  -6 4105.54 321.732   4
  -3  -1  -6 4915.94 337.235   2
  -3  -1  -6 4984.92 390.425  27
  -3   1  -6 4586.10 384.098  27
  -3  -1  -7 334.003 90.5081  23
  -3   1  -7 462.263 109.051  10
  -3  -1  -7 359.634 94.5376   4
  -3   1  -7 426.364 98.6752   4
  -3  -1  -7 592.666 137.079  27
  -3   1  -7 313.359 100.525  27
  -3  -1  -8 8070.87 461.929  23
  -3  -1  -8 9081.94 490.065   4
  -3   1  -8 9932.19 584.080  27
  -3   1  -8 9702.94 498.041   4
  -3  -1  -8 9054.56 547.758  27
  -3  -1  -9 35165.0 1126.57  23
  -3  -1  -9 39526.7 1181.39   4
  -3   1  -9 40068.0 1182.19   4
  -3  -1  -9 39121.7 1290.40  27
  -3   1  -9 38978.5 1307.98  27
  -3  -1 -10 9065.75 464.725  23
  -3   1 -10 9038.30 474.647  23
  -3  -1 -10 9876.93 497.074   4
  -3   1 -10 10526.8 511.547   4
  -3  -1 -10 10097.2 575.498  27
  -3   1 -10 9523.90 566.471  27
  -3   1 -11 679.090 115.357  23
  -3  -1 -11 1186.63 161.985   4
  -3   1 -11 1089.89 153.567   4
  -3  -1 -11 1156.62 184.025  27
  -3   1 -11 876.013 162.805  27
  -3  -1 -12 111.166 58.8627   4
  -3   1 -12 34.0640 35.2125   4
  -3  -1 -12 75.2164 46.2577  27
  -3   1 -12 48.3192 43.8851  27
  -3  -1 -13 1970.18 175.996   4
  -3   1 -13 1983.17 177.081   4
  -3  -1 -13 1910.51 203.224  27
  -3   1 -13 1658.97 190.309  27
  -3  -1 -14 53.6484 23.7034   4
  -3   1 -14 93.5014 40.7023   4
  -3   1 -14 47.3608 26.9381  27
  -3  -2  16 226.430 51.8193  12
  -3   2  16 256.866 53.6848  10
  -3   2  15 1302.02 147.409  10
  -3   2  15 901.137 116.870  20
  -3  -2  15 1298.96 145.287  12
  -3   2  14 4961.67 327.721  10
  -3   2  14 4235.58 298.054  20
  -3  -2  13 97.9671 67.0982  12
  -3   2  13-20.4568 38.9752  20
  -3   2  12 9343.07 519.206  20
  -3   2  12 10031.3 513.589  12
  -3  -2  11 2278.44 238.661   3
  -3   2  11 2411.19 261.337  20
  -3   2  11 2688.98 264.109  12
  -3  -2  11 2750.18 276.474  12
  -3  -2  10 4030.88 329.495   3
  -3   2  10 3525.50 327.892  20
  -3   2  10 3974.52 330.150  12
  -3  -2  10 4254.15 352.484  12
  -3  -2   9 1221.80 181.969   3
  -3  -2   9 1747.07 221.652  21
  -3   2   9 1271.79 190.618  12
  -3  -2   9 1477.68 205.617  12
  -3  -2   8 8799.95 501.346   3
  -3  -2   8 9854.05 539.916  21
  -3   2   8 8682.83 506.616  12
  -3  -2   8 8960.31 524.186  12
  -3   2   7 99.1518 61.5572  12
  -3  -2   7 43.6252 41.0603  12
  -3  -2   7 141.481 88.6304  21
  -3  -2   7 230.496 80.1530   3
  -3   2   6 29879.1 1040.82  10
  -3  -2   6 31363.9 1060.25  21
  -3   2   6 33049.9 1487.56   1
  -3  -2   6 31613.0 1470.95  34
  -3  -2   5 390.538 151.482  34
  -3   2   5 444.263 159.629   1
  -3  -2   4 9663.66 646.992   1
  -3   2   4 9982.06 730.962   1
  -3  -2   4 10663.1 775.627  34
  -3  -2   3 5234.72 461.898   1
  -3   2   3 5235.17 511.050   1
  -3  -2   3 5352.70 542.090  34
  -3  -2   2 8879.28 605.944   1
  -3   2   2 9288.23 678.123   1
  -3   2   1 3592.31 408.197   1
  -3  -2   1 3338.60 364.734   1
  -3   2   0 232.965 101.861   1
  -3  -2   0 253.415 110.716   1
  -3   2  -1 8710.02 633.729   1
  -3  -2  -1 9369.29 604.641   1
  -3   2  -2 29595.4 1227.94   1
  -3   2  -2 28365.4 1204.02  31
  -3  -2  -2 30076.6 1173.02   1
  -3   2  -3 3307.65 378.541   1
  -3   2  -3 3709.41 417.032  31
  -3  -2  -3 4152.79 399.358   1
  -3   2  -4 922.441 207.153  31
  -3  -2  -4 762.164 178.751   1
  -3  -2  -5 616.354 139.063  35
  -3  -2  -5 718.862 127.282   2
  -3  -2  -5 704.061 126.854  23
  -3   2  -5 582.005 119.497  10
  -3   2  -5 441.648 105.871  18
  -3   2  -5 557.869 175.195  31
  -3  -2  -5 556.353 112.793   4
  -3  -2  -5 684.858 148.853  27
  -3   2  -5 581.702 134.027  27
  -3   2  -6 4353.86 330.728  10
  -3  -2  -6 4171.45 313.385  23
  -3  -2  -6 3394.43 292.914   4
  -3  -2  -6 4242.43 312.792   2
  -3  -2  -6 3470.29 333.649  35
  -3  -2  -6 3705.82 339.858  27
  -3   2  -6 3506.24 333.428  27
  -3   2  -7 87.5870 37.1712   5
  -3  -2  -7 107.990 48.2570  23
  -3   2  -7 201.423 77.0201  10
  -3  -2  -7 135.362 62.3527   4
  -3  -2  -7 94.9273 64.2046  27
  -3   2  -7 195.062 79.0997  27
  -3   2  -8 2260.44 233.205   5
  -3  -2  -8 2913.83 256.762  23
  -3  -2  -8 2523.28 247.839   4
  -3  -2  -8 2430.34 236.275  19
  -3   2  -8 2531.20 246.811   4
  -3  -2  -8 2667.27 290.685  27
  -3   2  -8 3038.46 316.437  27
  -3   2  -9 108.950 61.0369   5
  -3  -2  -9 100.931 72.2649  23
  -3  -2  -9 81.8419 55.0360   4
  -3   2  -9 80.4446 54.2583   4
  -3  -2  -9 56.1977 51.2234  27
  -3   2  -9 81.0855 66.6675  27
  -3   2 -10 552.888 109.691   5
  -3  -2 -10 742.165 130.037   4
  -3   2 -10 511.123 107.255   4
  -3  -2 -10 496.122 132.972  27
  -3   2 -10 483.687 126.538  27
  -3   2 -11 493.200 100.048   5
  -3  -2 -11 529.341 106.652   4
  -3   2 -11 676.289 118.676   4
  -3  -2 -11 500.786 113.925  27
  -3   2 -11 508.469 122.858  27
  -3  -2 -12 2320.59 202.972   4
  -3   2 -12 2305.97 203.164   4
  -3  -2 -12 2133.46 227.566  27
  -3   2 -12 2228.19 236.195  27
  -3  -2 -13 2007.40 171.584   4
  -3   2 -13 1908.92 167.534   4
  -3   2 -13 1826.77 191.431  27
  -3  -2 -14 583.824 80.5523   4
  -3   2 -14 520.317 71.4434   4
  -3   2 -14 627.263 99.3471  27
  -3  -3  15 170.075 57.7310  12
  -3   3  15 190.427 51.9248  10
  -3   3  15 134.257 42.6931  20
  -3   3  14 8580.31 418.906  10
  -3   3  14 7569.83 393.803  20
  -3  -3  14 9029.98 427.613  12
  -3  -3  13 5884.45 353.701   3
  -3   3  13 6898.92 401.403  10
  -3   3  13 6190.55 380.244  20
  -3  -3  13 6645.52 395.750  12
  -3  -3  12 3872.74 303.318   3
  -3   3  12 4187.29 325.909  10
  -3   3  12 4082.62 324.470  20
  -3  -3  12 4380.71 337.425  12
  -3   3  11 3121.70 291.289  10
  -3   3  11 3189.48 299.694  20
  -3  -3  11 3645.49 318.022  12
  -3   3  10 6580.55 439.906  10
  -3  -3  10 6841.41 443.740  21
  -3   3  10 6181.93 434.968  20
  -3   3  10 6120.69 403.851  12
  -3  -3  10 6913.99 459.041  12
  -3  -3   9 1252.23 195.271  12
  -3  -3   9 1392.50 203.818  21
  -3   3   9 1239.59 191.140  10
  -3   3   9 1151.41 189.103  20
  -3   3   9 1391.76 194.375  12
  -3  -3   8 2992.98 294.183  11
  -3   3   8 2658.18 276.787  10
  -3  -3   8 3157.55 298.222  21
  -3   3   8 2627.71 277.001  20
  -3   3   8 2775.99 272.659  12
  -3  -3   8 2716.78 283.622  12
  -3  -3   7 943.580 173.262  12
  -3  -3   7 1075.94 181.347  11
  -3   3   7 1244.33 186.887  10
  -3  -3   7 1075.39 172.877  21
  -3  -3   7 1060.70 172.447   3
  -3   3   7 1255.45 183.466  12
  -3  -3   6 6805.31 443.900  11
  -3  -3   6 7113.86 442.633   3
  -3   3   6 6902.24 448.218  10
  -3  -3   6 6924.55 445.833  21
  -3   3   6 7121.26 442.705  12
  -3  -3   6 6879.02 445.506  12
  -3  -3   5 2703.91 272.403  11
  -3  -3   5 2423.52 251.086   3
  -3   3   5 2878.68 273.828  10
  -3  -3   5 2586.73 265.296  21
  -3  -3   5 2950.82 422.992  34
  -3   3   4 3775.54 458.101   1
  -3  -3   4 3799.10 481.761  34
  -3  -3   4 3177.79 352.345   1
  -3   3   3 4558.75 490.108   1
  -3  -3   3 4133.73 402.324   1
  -3   3   2 6543.11 586.084   1
  -3  -3   2 6699.23 518.942   1
  -3   3   1 329.147 165.050   1
  -3  -3   1 228.901 105.265   1
  -3  -3   0 1291.36 221.545   1
  -3   3   0 1150.83 249.588   1
  -3  -3  -1 2611.97 319.325   1
  -3   3  -1 2821.08 366.976   1
  -3  -3  -2 7182.51 538.484   1
  -3   3  -2 6696.87 562.943   1
  -3   3  -2 6532.91 551.272  31
  -3   3  -3 132.109 96.3870   1
  -3  -3  -3 313.816 122.272   1
  -3  -3  -4-6.74667 51.0540  23
  -3  -3  -4 6.58199 42.0640   2
  -3   3  -4 39.6721 50.7989  10
  -3  -3  -4 3.73617 32.3942   3
  -3  -3  -4 13.6330 38.5049  19
  -3   3  -4-0.81407 29.0322  18
  -3  -3  -4 118.828 75.9321  35
  -3   3  -4 34.0069 63.7664  31
  -3   3  -5 15520.9 675.797  10
  -3  -3  -5 16313.0 660.850  23
  -3  -3  -5 15151.4 642.658  19
  -3  -3  -5 15063.5 756.708  35
  -3   3  -5 15066.1 664.608  18
  -3   3  -5 13601.3 648.851  17
  -3  -3  -5 15636.1 650.451   2
  -3   3  -6 16417.6 689.882  10
  -3   3  -6 14178.8 643.887   5
  -3  -3  -6 16019.1 657.753  23
  -3  -3  -6 14406.5 627.079   4
  -3  -3  -6 14737.9 637.547  19
  -3  -3  -6 14526.9 745.942  35
  -3   3  -7 2406.27 249.156  10
  -3   3  -7 1602.49 200.052   5
  -3  -3  -7 1763.03 249.574  35
  -3  -3  -7 2335.98 236.420  23
  -3  -3  -7 2296.32 231.743   4
  -3  -3  -7 1921.94 209.175  19
  -3   3  -7 1681.97 231.450  27
  -3   3  -8 30183.8 1009.01   5
  -3  -3  -8 31945.3 1009.81   4
  -3  -3  -8 28431.9 951.364  19
  -3   3  -8 31596.4 1011.56   4
  -3  -3  -8 29142.1 1111.14  35
  -3   3  -8 28330.5 1088.73  27
  -3   3  -9 172.303 68.1705   5
  -3  -3  -9 134.027 73.6345  35
  -3  -3  -9 238.150 72.6906   4
  -3   3  -9 106.995 45.9282   4
  -3   3  -9 144.856 72.5285  27
  -3   3 -10 11978.4 552.925   5
  -3  -3 -10 12794.0 557.004   4
  -3   3 -10 12945.3 562.782   4
  -3   3 -10 11852.2 626.122  27
  -3   3 -11 7964.25 417.233   5
  -3  -3 -11 8595.25 425.767   4
  -3   3 -11 8604.03 424.975   4
  -3   3 -11 8919.63 500.718  27
  -3   3 -12 1.90377 23.5863  23
  -3  -3 -12 12.9691 28.6143   4
  -3   3 -12 24.9298 34.2952   4
  -3   3 -12 24.6259 52.7468  27
  -3  -3 -13 16.6138 29.7220   4
  -3   3 -13 40.4114 31.2509   4
  -3   3 -13 30.5674 35.6200  27
  -3  -3 -14 795.094 91.4233   4
  -3   3 -14 930.406 109.415  27
  -3   4  15 28.0273 20.9213  20
  -3   4  15-16.6486 31.6126  13
  -3  -4  14 3819.70 240.980   3
  -3   4  14 3439.32 228.877  10
  -3   4  14 4017.51 259.314  20
  -3  -4  13 4789.65 310.092   3
  -3   4  13 4740.45 306.910  10
  -3   4  13 4996.80 322.989  20
  -3  -4  13 5154.56 328.827  12
  -3  -4  12 315.482 92.5628  12
  -3   4  12 112.493 53.0539  10
  -3   4  12 257.075 81.4637  20
  -3  -4  12 319.805 95.1659   3
  -3   4  11 5504.83 379.341  10
  -3  -4  11 6367.35 410.685   3
  -3  -4  11 5854.91 389.688  21
  -3   4  11 5746.87 394.045  20
  -3  -4  11 5507.24 389.431  12
  -3  -4  10 2440.71 259.170  11
  -3   4  10 2434.59 257.900  10
  -3  -4  10 2264.65 252.506  21
  -3   4  10 2548.47 267.408  20
  -3  -4  10 2437.05 264.327  12
  -3  -4   9 4362.11 352.961  11
  -3   4   9 3886.31 336.081  10
  -3  -4   9 4610.44 365.578  21
  -3   4   9 4232.09 355.815  20
  -3  -4   9 4548.67 368.569  12
  -3  -4   8 24279.4 932.938  11
  -3   4   8 24569.0 933.724  10
  -3  -4   8 25454.2 946.660  21
  -3   4   8 23916.1 935.022  20
  -3  -4   8 23574.1 927.788  12
  -3  -4   7 640.989 140.515  12
  -3  -4   7 609.534 139.155  11
  -3  -4   7 585.568 129.989  21
  -3   4   7 633.628 141.289  10
  -3   4   7 534.626 124.555  20
  -3  -4   7 406.808 112.324   3
  -3  -4   6 13271.6 655.394  11
  -3  -4   6 13900.2 648.952  24
  -3   4   6 14028.1 666.845  10
  -3  -4   6 14154.4 656.138   3
  -3  -4   6 14234.9 668.466  21
  -3   4   6 13214.2 651.734  20
  -3   4   6 13173.3 623.522  12
  -3  -4   6 12245.5 614.802  12
  -3  -4   5 8040.57 494.353  11
  -3  -4   5 8027.00 473.952  24
  -3  -4   5 7947.64 472.388   3
  -3   4   5 8405.31 492.461  10
  -3  -4   5 8426.98 500.940  21
  -3   4   5 7438.29 472.505  20
  -3   4   5 9340.61 544.604  13
  -3   4   5 8405.38 481.376  12
  -3  -4   4 5514.27 399.041  11
  -3  -4   4 5723.18 394.830  24
  -3  -4   4 5467.85 376.306   2
  -3  -4   4 6529.01 421.594   3
  -3   4   4 6142.39 413.195  10
  -3  -4   4 6425.23 431.725  21
  -3  -4   4 5915.47 357.472  14
  -3   4   4 6109.03 440.549  13
  -3   4   4 5791.41 396.435  12
  -3  -4   3 3538.13 297.751   2
  -3  -4   3 4230.38 333.013  24
  -3  -4   3 4404.08 344.507   3
  -3   4   3 4817.73 357.428  10
  -3  -4   3 4618.20 360.816  21
  -3  -4   3 4607.41 315.135  14
  -3   4   3 4409.16 368.239  13
  -3   4   3 4104.88 330.931  12
  -3   4   2 434.157 111.568  10
  -3  -4   2 371.967 102.019   3
  -3  -4   2 528.646 144.133   1
  -3   4   2 314.449 94.4801  13
  -3   4   2 462.865 110.065  12
  -3   4   1 138.952 66.0420  10
  -3  -4   1 117.237 58.7367   3
  -3   4   1 154.573 57.2758   1
  -3   4   0 444.831 110.816  10
  -3  -4   0 406.526 98.2019  19
  -3  -4   0 710.641 180.654   1
  -3  -4   0 452.245 126.894  35
  -3   4   0 328.998 144.186   1
  -3  -4  -1 16931.4 729.429   3
  -3   4  -1 15661.2 954.493   1
  -3   4  -1 18997.5 746.944  10
  -3  -4  -1 17855.4 704.017  19
  -3  -4  -1 17782.1 795.015  35
  -3  -4  -2 8855.53 506.086   3
  -3   4  -2 7671.53 467.186  17
  -3  -4  -2 7979.99 492.277  24
  -3   4  -2 9677.13 509.803  10
  -3  -4  -2 9406.36 483.451  19
  -3   4  -2 9535.37 506.161  18
  -3  -4  -2 9067.80 550.078  35
  -3  -4  -2 9759.42 492.711   2
  -3  -4  -3 9378.99 521.134   3
  -3  -4  -3 8017.43 503.081  24
  -3   4  -3 9967.44 527.968  10
  -3  -4  -3 10276.5 511.580  19
  -3   4  -3 9991.97 519.268  18
  -3  -4  -3 9864.85 584.764  35
  -3   4  -3 8713.87 501.108  17
  -3  -4  -3 10256.5 513.433   2
  -3   4  -4 6442.26 409.992  10
  -3  -4  -4 5159.90 400.153  24
  -3   4  -4 5626.08 399.424  17
  -3  -4  -4 6211.39 390.959  19
  -3   4  -4 5847.76 394.935  18
  -3  -4  -4 6183.60 463.205  35
  -3  -4  -4 6235.29 389.221   2
  -3  -4  -4 5835.93 401.877   3
  -3   4  -5 2695.13 262.247  10
  -3  -4  -5 2179.77 255.928  24
  -3  -4  -5 2427.86 241.453  19
  -3   4  -5 2429.98 250.751  18
  -3  -4  -5 2675.04 256.497   2
  -3   4  -5 2245.27 252.122  17
  -3  -4  -5 2463.27 292.883  35
  -3  -4  -6 167.409 84.3336  24
  -3   4  -6 195.994 77.9340   5
  -3   4  -6 240.842 87.1824  10
  -3  -4  -6 174.701 71.6588  19
  -3  -4  -6 53.0688 59.3818  35
  -3   4  -6 273.514 100.327  17
  -3  -4  -7 11286.6 654.962  35
  -3   4  -7 10696.7 551.683   5
  -3  -4  -7 10045.3 571.677  24
  -3  -4  -7 10457.1 512.497   4
  -3  -4  -7 10113.9 512.275  19
  -3   4  -8 9865.50 516.250   5
  -3  -4  -8 8720.47 520.135  24
  -3  -4  -8 9499.74 589.683  35
  -3  -4  -8 9836.69 487.488   4
  -3  -4  -8 9076.38 465.740  19
  -3   4  -8 10728.1 515.535   4
  -3   4  -9 11218.2 534.253   5
  -3  -4  -9 9696.03 533.771  24
  -3  -4  -9 10689.2 499.901   4
  -3   4  -9 10232.3 501.117   4
  -3  -4  -9 10533.7 590.149  35
   3  -4   9 9404.96 480.252  16
  -3   4  -9 9838.32 544.886  27
  -3   4 -10 24.9388 40.0873   5
  -3  -4 -10 54.5412 52.8448  24
  -3  -4 -10 2.69764 47.5776  35
   3  -4  10-14.4877 35.6346  16
  -3  -4 -10 22.2760 34.7850   4
  -3   4 -10 0.53074 35.9555   4
  -3   4 -10 13.7731 58.0169  27
  -3   4 -11 5649.99 331.601   5
  -3  -4 -11 5408.31 302.025  22
  -3  -4 -11 6057.70 328.191   4
  -3   4 -11 5582.38 311.554   4
   3  -4  11 4765.20 298.232  16
  -3   4 -11 4873.96 338.506  27
  -3   4 -12 2407.91 193.418   5
  -3  -4 -12 1942.69 154.437  22
  -3  -4 -12 2449.26 188.880   4
  -3   4 -12 2260.48 203.093  27
  -3  -4 -13 106.819 40.0825   4
  -3   4 -13 82.5438 38.3081  27
  -3  -5  14 1614.36 141.550   3
  -3   5  14 1919.96 158.171  20
  -3   5  14 1607.10 151.459  13
  -3  -5  14 1993.29 162.629  12
  -3  -5  13 8601.22 402.209   3
  -3   5  13 8558.01 403.527  20
  -3   5  13 7933.45 402.621  13
  -3  -5  13 8242.92 396.189  12
  -3  -5  12 1036.71 142.579  12
  -3   5  12 973.308 130.742  10
  -3  -5  12 1231.19 161.294   3
  -3   5  12 1112.74 150.221  20
  -3  -5  11 393.426 97.2081  12
  -3   5  11 524.393 103.086  10
  -3  -5  11 553.548 121.293  21
  -3   5  11 591.638 119.258  20
  -3  -5  11 592.869 124.701   3
  -3  -5  10 188.640 78.0439  12
  -3  -5  10 214.924 97.9393  11
  -3   5  10 150.559 66.1326  10
  -3  -5  10 238.334 94.8348  21
  -3   5  10 235.432 85.2057  20
  -3  -5  10 80.2253 42.6923   3
  -3  -5   9 4330.47 351.038  11
  -3   5   9 4550.37 344.810  10
  -3  -5   9 4606.54 351.794   3
  -3  -5   9 5044.28 376.400  21
  -3   5   9 4741.54 369.066  20
  -3  -5   9 4500.67 347.615  12
  -3  -5   8 3700.77 329.524  11
  -3   5   8 4064.92 333.894  10
  -3  -5   8 3642.72 314.963   3
  -3  -5   8 3873.21 334.030  21
  -3   5   8 3492.31 322.707  20
  -3  -5   8 3329.13 302.493  12
  -3  -5   7 24671.9 961.224  11
  -3   5   7 25035.8 936.181  10
  -3  -5   7 24593.1 930.198   3
  -3  -5   7 25602.0 961.083  21
  -3   5   7 25857.0 980.354  20
  -3   5   7 26418.5 1002.93  13
  -3  -5   6 60265.7 1721.34  11
  -3  -5   6 63899.3 1703.92  24
  -3   5   6 58846.9 1665.43  10
  -3  -5   6 59549.5 1670.05   3
  -3  -5   6 59587.3 1689.15  21
  -3   5   6 58693.5 1706.18  20
  -3   5   6 61071.2 1749.14  13
  -3  -5   5 1434.22 213.806  11
  -3  -5   5 1581.67 210.051  24
  -3  -5   5 1472.23 204.341   3
  -3   5   5 1451.59 198.683  10
  -3  -5   5 1498.59 204.493  21
  -3   5   5 1172.09 188.607  20
  -3  -5   5 1219.86 163.773  14
  -3   5   5 1149.28 194.710  13
  -3  -5   4 8510.58 517.509  11
  -3  -5   4 10598.1 560.699  24
  -3  -5   4 9579.30 534.693   3
  -3   5   4 9313.39 524.336  10
  -3  -5   4 10100.6 565.213  21
  -3   5   4 9342.73 539.028  20
  -3  -5   4 10829.6 505.500  14
  -3   5   4 10184.2 580.798  13
  -3  -5   3 9615.90 536.780  24
  -3  -5   3 9262.34 525.372   3
  -3   5   3 9178.88 516.784  10
  -3  -5   3 9941.79 491.823  14
  -3   5   3 9435.52 555.367  13
  -3  -5   2 40006.8 1265.81  24
  -3  -5   2 36904.0 1224.67   3
  -3   5   2 40310.8 1244.42  10
  -3  -5   2 36477.7 1135.28  22
  -3  -5   2 42538.7 1196.76  14
  -3   5   2 40491.8 1307.09  13
  -3  -5   1 7054.06 450.787   3
  -3  -5   1 7191.39 464.177  24
  -3   5   1 7601.24 458.526  10
  -3  -5   1 7360.37 423.060  22
  -3  -5   1 7806.43 431.563  14
  -3   5   1 7396.41 489.791  13
  -3  -5   0 20600.2 826.816   3
  -3  -5   0 21335.2 866.343  24
  -3   5   0 22497.9 847.115  10
  -3  -5   0 22125.3 797.609  22
  -3  -5   0 20914.0 898.775  35
   3  -5   0 19138.5 779.576   6
  -3  -5  -1 29359.9 1037.36   3
  -3  -5  -1 30754.3 1089.86  24
  -3  -5  -1 32048.4 1154.97  35
  -3   5  -1 33065.9 1072.44  10
  -3  -5  -1 32720.7 1020.08  22
  -3  -5  -1 28141.5 962.408   2
   3  -5   1 29538.3 992.021   6
  -3  -5  -2 6894.33 437.353   3
  -3  -5  -2 6768.36 468.244  24
  -3   5  -2 7633.46 461.018  10
  -3  -5  -2 7411.05 428.843  22
  -3  -5  -2 7705.92 444.556  19
  -3   5  -2 6877.80 434.785  18
  -3  -5  -2 8166.85 532.637  35
  -3   5  -2 6934.88 451.382  17
  -3  -5  -2 7112.10 416.312   2
   3  -5   2 6611.21 403.349   6
  -3   5  -3 1291.08 187.221  10
  -3   5  -3 1253.72 189.754  17
  -3  -5  -3 975.316 174.426  24
  -3  -5  -3 1207.94 166.607  22
  -3  -5  -3 991.291 161.941   3
  -3  -5  -3 1107.10 166.833  19
  -3   5  -3 1049.35 165.269  18
  -3  -5  -3 1087.77 192.406  35
  -3  -5  -3 1313.78 177.129   2
  -3   5  -4 23366.5 852.728  10
  -3  -5  -4 20544.9 875.253  24
  -3  -5  -4 20667.8 782.060  22
  -3  -5  -4 21969.8 810.711  19
  -3   5  -4 21270.9 822.619  18
  -3  -5  -4 20724.1 794.207   2
  -3  -5  -4 21387.1 931.301  35
  -3   5  -4 21488.2 858.559  17
  -3   5  -5 17839.6 713.039  10
  -3  -5  -5 15099.3 728.931  24
  -3   5  -5 15955.1 716.719  17
  -3  -5  -5 15717.8 658.013  22
  -3  -5  -5 15607.7 666.933  19
  -3   5  -5 14759.0 664.570  18
  -3  -5  -5 14967.0 765.289  35
  -3   5  -6 7748.74 445.804  10
  -3  -5  -6 6415.58 450.963  24
  -3   5  -6 6794.76 427.978   5
  -3  -5  -6 7133.41 412.035  22
  -3   5  -6 7292.78 461.309  17
  -3  -5  -6 7174.55 508.630  35
  -3   5  -7 4554.78 341.409   5
  -3  -5  -7 4182.06 352.569  24
  -3  -5  -7 5004.92 336.804  22
  -3  -5  -7 4865.35 409.816  35
  -3   5  -8 3131.67 273.307   5
  -3  -5  -8 3334.51 304.773  24
  -3  -5  -8 3192.64 260.362  22
  -3   5  -8 3141.77 258.358   4
  -3  -5  -8 3332.65 331.357  35
   3  -5   8 2848.43 254.157  16
  -3  -5  -9 40.4572 48.9358  24
  -3   5  -9 5.91281 40.8027   5
  -3  -5  -9 32.5815 39.0948  22
  -3  -5  -9 97.3908 67.0620  35
  -3  -5  -9 10.8807 25.0585   4
   3  -5   9 30.1304 37.4680  16
  -3   5  -9-13.1544 33.5310   4
  -3  -5 -10 57.1342 46.4319  24
  -3   5 -10 98.0611 49.9173   5
  -3  -5 -10 68.4368 47.5604  22
  -3  -5 -10 15.6826 36.2994  35
  -3  -5 -10-6.94569 24.2547   4
   3  -5  10 6.89587 27.4066  16
  -3   5 -10 120.209 47.7058   4
  -3   5 -11 5696.87 309.999   5
  -3  -5 -11 4565.02 292.880  24
  -3  -5 -11 5178.71 268.635  22
  -3  -5 -11 5179.80 279.873   4
  -3  -5 -11 5331.58 330.957  35
   3  -5  11 5283.57 294.762  16
  -3   5 -12 100.747 39.6082   5
  -3  -5 -12 10.2737 20.7598   4
  -3  -6  13 1833.18 155.365   3
  -3   6  13 1895.79 158.589  20
  -3   6  13 1867.46 161.535  13
  -3  -6  13 1546.77 134.328  12
  -3  -6  12 1631.83 163.820   3
  -3   6  12 1709.65 169.784  20
  -3   6  12 1390.01 158.025  13
  -3  -6  12 1396.39 145.037  12
  -3  -6  11 5517.50 334.692   3
  -3  -6  11 5057.58 320.353  21
  -3   6  11 5431.16 335.559  20
  -3   6  11 4873.72 328.981  13
  -3  -6  11 4625.32 296.720  12
  -3  -6  10 10.7839 28.1601  12
  -3  -6  10-2.61090 33.5822  11
  -3  -6  10 86.8697 55.6439  21
  -3   6  10 44.4647 32.7314  20
  -3  -6  10 3.67287 29.8262   3
  -3   6  10 3.22966 39.7290  13
  -3  -6   9 126.039 61.1923  11
  -3  -6   9 106.178 62.1065  21
  -3   6   9 162.546 56.7023  20
  -3  -6   9 105.315 59.3310   3
  -3   6   9 165.782 63.7959  13
  -3  -6   8 2175.56 244.935  11
  -3   6   8 1764.72 204.262  10
  -3  -6   8 2364.28 243.272   3
  -3  -6   8 2184.22 243.650  21
  -3   6   8 2497.69 255.113  20
  -3   6   8 1975.87 238.325  13
  -3  -6   7 4244.64 352.711  11
  -3  -6   7 4320.14 340.540   3
  -3   6   7 4153.73 324.874  10
  -3  -6   7 4254.64 349.694  21
  -3   6   7 4171.08 345.284  20
  -3   6   7 4314.84 362.386  13
  -3  -6   6 267.311 93.4542  11
  -3  -6   6 392.467 108.730  24
  -3   6   6 418.303 114.001  10
  -3  -6   6 365.672 105.809  21
  -3   6   6 506.912 130.273  20
  -3  -6   6 375.724 106.623   3
  -3   6   6 339.915 105.141  13
  -3  -6   5 474.010 121.516  11
  -3  -6   5 880.259 157.682  24
  -3   6   5 650.666 134.313  10
  -3  -6   5 585.511 131.125  21
  -3   6   5 461.635 118.971  20
  -3  -6   5 639.010 132.656   3
  -3   6   5 455.768 123.334  13
  -3  -6   4 796.983 148.246  11
  -3  -6   4 1225.83 187.479  24
  -3   6   4 1340.36 188.656  10
  -3  -6   4 1122.08 177.621   3
  -3  -6   4 1321.23 168.756  14
  -3   6   4 1054.86 182.921  13
  -3  -6   3 4.29106 37.9661  24
  -3  -6   3 107.167 59.2747  22
  -3   6   3 163.289 80.5943  10
  -3  -6   3 137.457 59.0723   3
  -3  -6   3 165.381 64.9808  14
  -3   6   3 6.15588 46.7822  13
  -3  -6   2 4224.36 353.782  24
  -3  -6   2 3936.50 336.742   3
  -3   6   2 4026.53 330.121  10
  -3  -6   2 4442.59 321.166  22
  -3  -6   2 4554.67 324.685  14
  -3   6   2 4586.74 382.062  13
  -3  -6   1 9824.14 542.654   3
  -3  -6   1 11344.4 596.832  24
  -3   6   1 10394.2 553.951  10
  -3  -6   1 11198.1 536.218  22
  -3  -6   1 11166.7 527.869  14
   3  -6  -1 10684.8 551.028   6
   3  -6   0 1149.97 167.111  26
  -3   6   0 1384.66 192.287  10
  -3  -6   0 1130.53 182.003  24
  -3  -6   0 1433.10 186.593  22
  -3  -6   0 1078.99 171.226   3
  -3  -6   0 1431.07 220.920  35
  -3  -6   0 1357.22 176.022  14
   3  -6   0 1426.65 191.969   6
   3  -6   1 712.152 131.453   6
  -3  -6  -1 779.088 151.537  24
  -3   6  -1 703.391 141.529  10
  -3  -6  -1 545.351 115.144  22
  -3  -6  -1 575.217 146.181  35
  -3  -6  -1 881.789 138.200  14
   3  -6   1 558.394 121.600  26
  -3  -6  -2 9065.85 569.313  35
  -3  -6  -2 8994.71 542.223  24
  -3   6  -2 9463.43 516.551  10
  -3  -6  -2 8962.03 473.042  22
  -3   6  -2 8459.22 492.974  18
  -3   6  -2 8712.92 519.839  17
  -3  -6  -2 10046.4 494.974  14
   3  -6   2 8732.30 477.614   6
  -3  -6  -3 596.264 137.469  24
  -3   6  -3 338.389 105.027  10
  -3  -6  -3 380.025 89.4630  22
  -3  -6  -3 534.244 145.595  35
  -3   6  -3 145.153 83.3960  18
  -3   6  -3 405.587 107.810  17
  -3  -6  -3 296.354 80.3359  14
   3  -6   3 317.595 89.4512   6
  -3   6  -4 1375.37 189.303  10
  -3  -6  -4 1152.66 190.257  24
  -3  -6  -4 1245.68 166.563  22
  -3   6  -4 1022.69 159.127  18
  -3  -6  -4 1484.22 226.810  35
  -3   6  -4 1412.11 198.239  17
   3  -6   4 1119.24 156.412   6
  -3  -6  -4 1384.77 173.678  14
  -3   6  -5 2550.17 254.853  10
  -3  -6  -5 2342.66 262.485  24
  -3  -6  -5 2498.63 237.841  22
  -3   6  -5 2396.71 258.119  17
  -3  -6  -5 2145.54 268.098  35
  -3  -6  -5 2388.00 225.189  14
  -3  -6  -6 2513.38 268.583  24
  -3   6  -6 2501.95 246.849   5
  -3  -6  -6 2717.81 242.163  22
  -3   6  -6 2680.77 268.632  17
  -3  -6  -6 2694.12 297.249  35
  -3  -6  -6 2686.10 231.199  14
  -3   6  -7 8433.17 455.804   5
  -3  -6  -7 8500.91 490.649  24
  -3  -6  -7 8748.63 434.043  22
  -3  -6  -7 8230.10 520.011  35
  -3  -6  -7 7553.38 384.879  14
  -3   6  -8 4487.72 309.154   5
  -3  -6  -8 3756.84 308.420  24
  -3  -6  -8 4466.14 289.047  22
  -3   6  -8 3446.60 250.970   4
  -3  -6  -8 4231.04 350.889  35
   3  -6   8 3923.30 283.772  16
  -3  -6  -9 221.452 77.3731  24
  -3   6  -9 341.116 81.2673   5
  -3  -6  -9 253.503 63.9942  22
  -3  -6  -9 238.183 81.4075  35
   3  -6   9 203.617 61.5112  16
  -3   6 -10 6919.45 343.790   5
  -3  -6 -10 6043.65 344.226  24
  -3  -6 -10 6161.72 298.505  22
  -3  -6 -10 6541.70 380.968  35
   3  -6  10 6352.15 327.242  16
  -3   6 -11 4257.83 241.281   5
  -3  -6 -11 3708.32 231.572  24
  -3  -6 -11 3947.15 257.742  35
   3  -6  11 3717.87 219.171  16
  -3  -7  12 621.786 86.8114   3
  -3   7  12 591.838 88.1504  13
  -3  -7  11 3211.03 224.565   3
  -3   7  11 3309.39 235.301  13
  -3  -7  10 946.959 134.266  21
  -3  -7  10 757.129 115.828   3
  -3   7  10 994.795 138.007  13
  -3  -7   9-46.5518 60.1097  11
  -3  -7   9 65.4935 53.5810  21
  -3  -7   9-36.9470 54.1181   3
  -3   7   9 3.75455 51.5541  13
   3  -7  -8 35.2849 34.2032  26
  -3  -7   8 46.5261 37.6110  11
  -3  -7   8 5.19692 48.7102  21
  -3  -7   8 82.2065 45.7327   3
  -3   7   8-16.3427 46.5928  13
  -3  -7   7 4546.71 344.785  11
  -3  -7   7 4854.76 342.868   3
  -3  -7   7 4915.96 350.407  21
  -3   7   7 5127.01 368.732  13
   3  -7  -7 4437.59 313.882  26
  -3  -7   6 12270.4 602.999  11
  -3  -7   6 15013.5 638.328  24
  -3  -7   6 13583.8 621.335   3
  -3  -7   6 13854.7 638.682  21
  -3   7   6 14713.5 670.196  13
   3  -7  -6 12754.8 582.985  26
  -3  -7   5 5199.93 377.612  11
  -3  -7   5 6511.76 410.111  24
  -3  -7   5 6661.24 421.074   3
  -3  -7   5 6660.08 430.685  21
  -3   7   5 6732.50 445.705  13
   3  -7  -5 6231.72 394.644  26
  -3  -7   4 5713.22 392.046  24
  -3  -7   4 4936.08 360.839   3
  -3   7   4 5066.46 351.458  10
  -3   7   4 5656.10 411.584  13
   3  -7  -4 4845.47 345.996  26
   3  -7  -3-13.7409 53.7633  26
   3  -7  -3-8.79961 31.8251   6
  -3  -7   3-34.6538 40.8941  24
  -3  -7   3-11.9058 30.2189  22
  -3   7   3-37.7052 37.9292  10
  -3  -7   3-40.7434 49.4680   3
  -3   7   3-10.8446 50.2618  13
  -3  -7   2 9198.79 509.871   3
  -3  -7   2 10922.6 569.462  24
  -3   7   2 9917.10 520.426  10
  -3  -7   2 10774.8 509.322  22
  -3  -7   2 11183.0 512.198  14
   3  -7  -2 11610.1 559.652   6
   3  -7  -2 9747.34 517.259  26
   3  -7  -1 637.476 125.334  26
   3  -7  -1 730.351 142.414   6
  -3  -7   1 763.623 154.260  24
  -3  -7   1 760.075 133.881  22
  -3   7   1 696.239 135.850  10
  -3  -7   1 940.032 138.798  14
   3  -7   0 504.350 113.419  26
   3  -7   0 552.293 122.267   6
  -3  -7   0 385.270 118.146  24
  -3   7   0 472.756 113.324  10
  -3  -7   0 482.995 99.2779  22
  -3  -7   0 581.193 111.423  14
  -3  -7  -1 17272.2 755.683  24
  -3   7  -1 17939.8 722.678  10
  -3  -7  -1 18054.2 696.391  22
  -3  -7  -1 17052.1 806.178  35
  -3  -7  -1 18817.4 691.920  14
   3  -7   1 17264.8 712.270   6
  -3  -7  -2 4689.00 369.379  24
  -3   7  -2 5021.80 351.593  10
  -3  -7  -2 5134.85 338.379  22
  -3   7  -2 4540.02 338.960  18
  -3  -7  -2 4707.13 406.794  35
  -3   7  -2 4506.65 354.896  17
  -3  -7  -2 5412.50 338.774  14
   3  -7   2 4907.75 344.218   6
  -3   7  -3 3412.45 286.855  10
  -3  -7  -3 3144.00 300.349  24
  -3  -7  -3 3316.81 264.057  22
  -3   7  -3 2823.73 257.754  18
  -3  -7  -3 3208.07 321.627  35
  -3   7  -3 2689.49 273.535  17
  -3  -7  -3 3498.99 266.920  14
   3  -7   3 2952.29 259.549   6
  -3   7  -4 1780.95 202.361  10
  -3  -7  -4 1828.94 225.115  24
  -3  -7  -4 1743.75 188.800  22
  -3  -7  -4 1553.75 220.680  35
  -3   7  -4 1704.59 212.582  17
   3  -7   4 1336.42 170.465   6
  -3  -7  -4 1802.39 186.678  14
  -3  -7  -5 122.986 59.1899  24
  -3   7  -5 151.030 71.8672   5
  -3  -7  -5 103.375 61.8967  35
  -3  -7  -5 129.165 55.9486  22
  -3   7  -5 84.3580 46.0820  17
  -3  -7  -5 61.2861 39.4308  14
   3  -7   5 90.1025 49.6257   6
  -3  -7  -6 205.566 72.1437  24
  -3   7  -6 144.838 55.9016   5
  -3  -7  -6 367.367 84.8079  22
  -3  -7  -6 219.228 80.0947  35
  -3   7  -6 413.972 101.903  17
  -3  -7  -6 286.141 68.8927  14
  -3  -7  -7 353.814 90.9406  24
  -3   7  -7 475.449 95.7614   5
  -3  -7  -7 489.795 95.3023  22
  -3  -7  -7 352.509 97.7334  35
  -3   7  -8 1136.10 139.521   5
  -3  -7  -8 927.031 135.308  24
  -3  -7  -8 995.175 120.328  22
  -3  -7  -8 1144.66 163.912  35
   3  -7   8 1032.32 131.129  16
  -3  -7  -9 480.637 89.3115  24
  -3   7  -9 474.330 84.2717   5
  -3  -7  -9 434.759 71.3046  22
  -3  -7  -9 530.718 107.848  35
   3  -7   9 588.040 92.8815  16
  -3  -7 -10 61.7134 32.0805  24
  -3   7 -10 7.34251 21.3466   5
  -3  -7 -10 51.2451 27.9873  35
   3  -7  10 13.5501 17.3646  16
  -3  -8  10 2788.92 188.474   3
  -3  -8  10 2411.37 173.138  21
  -3   8  10 2864.09 198.519  13
   3  -8 -10 2312.53 163.876   6
  -3  -8   9 1262.15 136.570   3
  -3  -8   9 1004.53 127.305  21
  -3   8   9 1243.28 143.951  13
   3  -8  -9 1031.55 118.889   6
   3  -8  -9 918.799 106.513  26
  -3  -8   8 2028.48 186.590   3
  -3  -8   8 2331.78 208.088  21
  -3   8   8 2433.73 214.379  13
   3  -8  -8 2186.63 187.364   6
   3  -8  -8 1992.85 174.782  26
  -3  -8   7 1331.06 158.038   3
  -3  -8   7 1438.96 170.242  21
  -3   8   7 1403.27 172.740  13
   3  -8  -7 1627.01 169.052   6
   3  -8  -7 1280.24 148.281  26
  -3  -8   6 3589.65 267.098   3
  -3  -8   6 3443.36 275.386  21
  -3   8   6 3272.17 278.686  13
   3  -8  -6 3674.73 267.992   6
   3  -8  -6 3094.71 245.731  26
  -3  -8   5 11746.0 527.991  24
  -3  -8   5 10051.7 485.721   3
  -3  -8   5 10974.2 533.403  21
   3  -8  -5 10766.8 500.992   6
   3  -8  -5 11492.0 513.120  26
   3  -8  -4 39.0986 31.9053  26
   3  -8  -4 29.5302 41.2720   6
  -3  -8   4 43.3508 48.8820  24
  -3  -8   4 100.487 42.4546  21
  -3  -8   4 46.4398 36.4538   3
   3  -8  -3 23.3480 28.2501  26
   3  -8  -3 13.1783 34.8985   6
  -3  -8   3 5.27140 35.4546  24
  -3  -8   2 3936.77 306.749  24
   3  -8  -2 3852.14 298.730   6
   3  -8  -2 3705.89 291.512  26
  -3  -8   1 1533.13 192.879  24
  -3  -8   1 1416.71 165.484  22
   3  -8  -1 1322.47 174.879   6
   3  -8  -1 1374.65 174.648  26
  -3  -8   0 169.443 78.7568  24
  -3  -8   0 60.2879 34.8657  22
   3  -8   0 139.701 62.9665   6
  -3   8  -1 26152.3 849.989  10
  -3  -8  -1 27220.1 929.777  24
  -3  -8  -1 27797.6 859.421  22
  -3   8  -1 23448.2 847.709  18
  -3   8  -1 25267.6 909.756  17
  -3  -8  -1 29129.2 864.276  14
   3  -8   1 26998.3 884.877   6
  -3  -8  -2 209.114 78.5448  24
  -3   8  -2 281.477 78.2669  10
  -3  -8  -2 150.632 66.3826  22
  -3  -8  -2 189.972 87.5899  35
  -3   8  -2 204.832 79.6458  17
  -3  -8  -2 285.110 85.6434  14
   3  -8   2 307.795 86.9502   6
  -3  -8  -3 3.55340 41.9305  24
  -3  -8  -3 84.0370 53.5414  22
  -3  -8  -3-9.20809 54.1138  35
  -3   8  -3 0.12457 45.3016  17
  -3  -8  -3 24.7107 49.9006  14
   3  -8   3 22.9656 38.0686   6
  -3  -8  -4 160.422 61.7704  24
  -3   8  -4 180.961 62.1376   5
  -3  -8  -4 131.908 64.5399  22
  -3  -8  -4 250.094 83.7462  35
  -3   8  -4 371.349 96.9080  17
   3  -8   4 179.353 58.4952   6
  -3  -8  -5 128.644 53.9828  24
  -3   8  -5 47.6362 35.8807   5
  -3  -8  -5 52.1652 39.3420  22
  -3  -8  -5 51.3876 34.8805  35
  -3   8  -5 74.6739 47.4330  17
   3  -8   5 41.3318 29.2863   6
  -3  -8  -6 111.769 47.5037  24
  -3   8  -6 65.1697 40.4086   5
  -3  -8  -6 94.2283 38.5112  22
  -3  -8  -6 53.6664 52.2258  35
   3  -8   6 26.1241 22.8122   6
  -3   8  -7 985.421 119.719   5
  -3  -8  -7 990.616 127.063  24
  -3  -8  -7 1115.08 117.997  22
  -3  -8  -7 953.766 137.711  35
   3  -8   7 997.321 120.432  16
  -3  -8  -8 10.0773 26.4450  24
  -3   8  -8 9.60266 36.2654   5
  -3  -8  -8 5.40351 19.0483  22
  -3  -8  -8 33.4387 35.9955  35
   3  -8   8 4.10795 19.7199  16
  -3   8  -9 179.953 42.5144   5
  -3  -8  -9 141.824 43.7346  35
  -3  -9   8 893.969 104.943  21
   3  -9  -8 840.483 92.3770   6
   3  -9  -7 97.2076 37.1832  26
   3  -9  -7 127.882 39.8190   6
  -3  -9   7 200.574 63.8462  21
   3  -9  -6 191.400 53.0469  26
   3  -9  -6 219.028 57.3871   6
  -3  -9   6 249.928 67.0677  21
  -3  -9   5 5167.26 308.106  21
   3  -9  -5 5317.69 292.237   6
   3  -9  -5 5139.84 289.131  26
  -3  -9   4 23432.1 739.674  24
  -3  -9   4 21878.5 748.367  21
   3  -9  -4 22626.6 719.817   6
   3  -9  -4 22227.5 717.864  26
   3  -9  -3 512.760 98.6302  26
   3  -9  -3 417.693 88.8694   6
  -3  -9   3 365.572 80.0152  24
  -3  -9   3 283.110 78.0194  21
  -3  -9   2 3150.25 241.758  24
  -3  -9   2 2984.61 243.964  21
   3  -9  -2 3382.16 241.421   6
   3  -9  -2 3322.76 245.567  26
  -3  -9   1 3.16098 31.7404  24
  -3  -9   1 19.9770 28.7736  21
  -3   9   1 45.8249 33.4973  18
   3  -9  -1 4.48418 26.4974   6
  -3  -9   0 389.291 89.0535  24
  -3  -9   0 299.947 72.9986  21
  -3   9   0 283.475 75.8254  17
   3  -9   0 500.165 93.6273   6
  -3  -9  -1 1690.89 179.573  24
  -3  -9  -1 1020.03 130.190  21
  -3   9  -1 1397.22 163.322  17
   3  -9   1 1359.47 153.646   6
  -3  -9  -2 19187.4 669.629  24
  -3  -9  -2 18820.0 609.074  22
  -3   9  -2 18473.1 668.131  17
   3  -9   2 18621.5 638.083   6
  -3  -9  -3 145.414 58.6340  24
  -3   9  -3 121.990 52.2943   5
  -3  -9  -3 175.710 55.0164  22
  -3   9  -3 203.447 70.3585  17
   3  -9   3 154.058 59.4179   6
  -3  -9  -4 496.199 91.0988  24
  -3  -9  -4 724.400 94.7467  22
  -3   9  -4 577.544 93.3542   5
  -3   9  -4 580.448 99.1637  17
   3  -9   4 519.487 81.9024   6
  -3   9  -5 7531.83 336.803   5
  -3  -9  -5 7687.23 350.858  24
  -3  -9  -5 7974.12 320.645  22
  -3   9  -6 5916.38 274.464   5
  -3  -9  -6 5911.04 286.713  24
   3  -9   6 5693.66 268.385  16
  -3 -10   4 76.5888 33.8847  21
  -3  10   4 25.3019 23.7174  17
   3 -10  -4 60.5099 28.1032   6
  -3 -10   3 1243.32 124.587  21
  -3  10   3 1532.56 137.199  17
   3 -10  -3 1461.32 125.974   6
  -3 -10   2 48.1199 29.2688  24
  -3 -10   2 7.35351 22.7636  21
  -3  10   2 48.2113 32.8052  17
   3 -10  -2 23.1745 20.2494   6
  -3 -10   1 359.503 69.3551  24
  -3 -10   1 177.500 45.7110  21
  -3  10   1 280.374 62.4949  17
   3 -10  -1 283.815 57.4944   6
  -3 -10   0 99.0399 37.9201  24
  -3  10   0 40.7741 22.0227   5
  -3  10   0 49.2638 26.2415  17
   3 -10   0 57.0726 33.2079   6
  -3 -10  -1 32.1038 21.5296  24
  -3  10  -1-15.3575 18.6070   5
  -3  10  -1 45.1738 27.3050  17
   3 -10   1 29.5306 23.3956   6
  -3 -10  -2 763.511 93.8382  24
  -3  10  -2 947.057 105.540  17
   3 -10   2 729.373 86.6293   6
  -3 -10  -3 2042.33 146.658  24
  -3  10  -3 2330.78 160.136  17
  -4   0  14 129.753 43.9008  10
  -4   0  13-11.0422 24.7071  12
  -4   0  13 36.1816 36.6127  10
  -4   0  12 3074.88 247.255  10
  -4   0  12 3286.93 252.601  12
  -4   0  11 6.03174 35.2520  12
  -4   0  11 84.7830 54.8633  10
  -4   0  10 6809.85 421.472  10
  -4   0  10 6826.76 420.221  12
  -4   0   9 97.7672 73.2510  12
  -4   0   9 1.60586 54.2421  10
  -4   0   8 4809.69 375.193  10
  -4   0   8 5188.80 377.459  12
  -4   0   7-17.1383 46.2203  12
  -4   0   7 24.5187 52.5638  10
  -4   0   6 4471.87 366.190  10
  -4   0   6 4695.94 368.865  12
  -4   0   5 75.3739 67.8829  12
  -4   0   5-15.4980 43.6670  10
  -4   0   5 12.2574 40.9696   2
  -4   0   4 792.554 157.770  12
  -4   0   4 474.708 111.869  10
  -4   0   4 652.439 130.677   3
  -4   0   4 742.032 142.172   2
  -4   0   3-5.76807 55.2710  12
  -4   0   3 46.1758 37.6826  10
  -4   0   3 31.1117 39.2429   3
  -4   0   3 17.0327 44.4085   2
  -4   0   2 26303.3 943.579   3
  -4   0   2 27476.8 939.159   2
  -4   0   2 23923.7 913.999  10
  -4   0   2 26789.7 979.847  12
  -4   0   1 36.0026 49.2452  23
  -4   0   1 21.3290 34.5327   3
  -4   0   1 4.44165 50.3590   2
  -4   0   1-26.9257 29.5654  18
  -4   0   1-9.22163 55.7375  12
  -4   0   0 7753.07 450.229  23
  -4   0   0 7389.65 436.989   2
  -4   0   0 7933.58 475.393   3
  -4   0  -1 130.975 77.1033  23
  -4   0  -1 224.788 95.6916   3
  -4   0  -1-27.7404 36.3295   2
  -4   0  -2 22859.3 852.596  23
  -4   0  -2 22242.2 824.602   2
  -4   0  -3 101.110 66.0879  23
  -4   0  -3 124.386 78.4605   2
  -4   0  -4 24390.0 877.478  23
  -4   0  -4 22413.9 844.175   4
  -4   0  -4 25408.1 871.781   2
  -4   0  -5 118.842 55.3576   2
  -4   0  -5 11.9475 42.9710  23
  -4   0  -5 15.2101 57.7511   4
  -4   0  -6 1283.59 174.602  23
  -4   0  -6 898.608 150.950   4
  -4   0  -7-0.35940 38.4562  23
  -4   0  -7 116.472 69.1549   4
  -4   0  -8 21233.8 752.820  23
  -4   0  -8 21935.7 755.266   4
  -4   0  -9-7.82427 34.7720  23
  -4   0  -9-51.8171 34.6818  19
  -4   0 -10 220.630 62.8922  23
  -4   0 -10 126.340 44.1896  19
  -4   0 -10 96.3391 43.0270   4
  -4   0 -11-8.22022 25.8598   4
  -4   0 -12 1059.07 98.8377   4
  -4  -1  14 7520.98 308.581   2
  -4   1  14 7620.17 318.622  10
  -4  -1  14 7802.08 317.971  12
  -4   1  13-68.0646 30.6088  12
  -4  -1  13 26.2575 33.3281  12
  -4   1  13 26.7458 35.6330  10
  -4  -1  13 44.1087 31.8108  10
  -4   1  12 4028.33 284.365  10
  -4  -1  12 3462.87 259.339  10
  -4   1  12 4033.11 272.800  12
  -4  -1  12 4116.97 283.499  12
  -4   1  11 337.582 87.8954  12
  -4  -1  11 423.739 100.645  12
  -4   1  11 309.791 84.2466  10
  -4  -1  11 228.857 80.4966  10
  -4   1  10 517.851 117.034  12
  -4  -1  10 629.597 125.220  12
  -4   1  10 463.964 110.768  10
  -4  -1  10 687.121 128.840  10
  -4   1   9 3596.11 310.074  10
  -4  -1   9 3567.67 309.579  10
  -4   1   9 3777.44 316.521  12
  -4  -1   9 3929.90 322.265  12
  -4   1   8 4925.84 377.794  10
  -4  -1   8 4626.02 362.036  10
  -4   1   8 5655.29 393.832  12
  -4  -1   8 5386.08 394.109  12
  -4   1   7 76.2051 52.6139  12
  -4  -1   7-50.3445 60.1370  12
  -4   1   7 38.6812 32.8136  10
  -4  -1   7-28.9704 32.0181  10
  -4  -1   7 18.4208 40.4900   3
  -4   1   6 1023.68 172.185  12
  -4   1   6 1197.92 186.985  10
  -4  -1   6 770.865 146.024  10
  -4  -1   6 942.218 158.555   3
  -4  -1   6 1321.11 197.440  12
  -4   1   5 326.191 104.183  12
  -4  -1   5 416.113 102.023  12
  -4   1   5 220.858 96.9700  10
  -4  -1   5 211.744 82.7004   3
  -4  -1   5 238.005 96.9135   2
  -4   1   5 193.431 78.8664   2
  -4  -1   4 34319.0 1121.17   3
  -4  -1   4 34021.0 1105.79   2
  -4   1   4 32033.7 1077.55   2
  -4   1   4 32741.6 1128.78  10
  -4   1   4 34149.1 1138.09  12
  -4  -1   4 33123.7 1140.39  12
  -4   1   3 293.796 104.232  12
  -4  -1   3 129.996 75.5342  12
  -4   1   3 142.670 53.3753  10
  -4  -1   3 87.0896 50.6570   3
  -4   1   3 215.703 76.1647   2
  -4  -1   3 165.324 68.1200   2
  -4   1   3 117.779 65.7070  18
  -4  -1   2 3600.55 310.760   3
  -4   1   2 3243.39 282.086   2
  -4  -1   2 3079.13 279.968   2
  -4   1   2 3033.97 287.820  10
  -4  -1   2 3042.65 271.238  19
  -4   1   2 3060.34 289.403  18
  -4   1   2 3410.26 310.686  12
  -4  -1   2 3607.29 318.255  12
  -4   1   1 2693.48 255.988   2
  -4  -1   1 2904.90 280.387   3
  -4  -1   1 3120.30 276.397   2
  -4  -1   1 3159.18 279.022  23
  -4   1   1 2639.69 271.681  10
  -4  -1   1 2964.66 271.862  19
  -4   1   1 3107.63 291.314  18
  -4   1   1 3269.48 305.405  12
  -4  -1   1 2591.37 270.993  12
  -4   1   1 3051.50 281.390   3
  -4  -1   0 1726.05 214.339   3
  -4   1   0 1579.26 203.636  10
  -4  -1   0 1541.65 197.411  23
  -4   1   0 1549.91 199.952  23
  -4  -1   0 1706.61 204.999  19
  -4   1   0 1926.93 231.380  18
  -4   1   0 1439.15 185.092   2
  -4  -1   0 1370.54 194.484  12
  -4  -1   0 1706.69 206.414   2
  -4   1  -1 7772.71 466.694  10
  -4  -1  -1 9521.93 504.462  23
  -4   1  -1 8717.56 488.185  23
  -4   1  -1 9374.66 522.976  18
  -4   1  -1 8312.51 459.586   2
  -4  -1  -1 9401.19 490.209   2
  -4  -1  -1 9385.27 521.757   3
  -4   1  -2 23905.4 897.019  10
  -4  -1  -2 26024.6 919.346  23
  -4   1  -2 26137.2 934.370  23
  -4   1  -2 25104.0 882.014   2
  -4  -1  -2 27731.9 921.415   2
  -4  -1  -2 26402.1 955.626   3
  -4   1  -3 3210.58 280.142  10
  -4  -1  -3 3915.01 313.960  23
  -4   1  -3 3805.14 310.588  23
  -4   1  -3 3124.31 272.957   2
  -4  -1  -3 4087.05 312.765   2
  -4  -1  -4 18068.0 723.941  23
  -4   1  -4 18345.7 739.102  23
  -4   1  -4 18516.3 720.994   2
  -4  -1  -4 19607.9 741.916   2
  -4  -1  -5-7.72444 34.4990   2
  -4  -1  -5 74.7109 60.1719  23
  -4   1  -5-87.5931 62.3830  23
  -4  -1  -5 30.8795 49.3331   4
  -4   1  -5 32.1694 55.2747   4
  -4  -1  -6 6866.24 406.249  23
  -4   1  -6 6675.60 403.743  23
  -4  -1  -6 6721.21 396.765   4
  -4   1  -6 6499.03 403.058   4
  -4  -1  -7 1031.22 149.986  23
  -4   1  -7 985.159 151.441  23
  -4  -1  -7 1100.35 155.779  19
  -4   1  -7 1003.91 149.918   4
  -4  -1  -7 880.742 134.251   4
  -4  -1  -8 17155.1 642.051  23
  -4   1  -8 16859.3 645.815  23
  -4  -1  -8 15710.4 617.316   4
  -4  -1  -8 15064.8 616.044  19
  -4   1  -8 16790.7 635.867   4
  -4  -1  -9 2389.37 203.988  23
  -4   1  -9 2090.07 196.580  23
  -4  -1  -9 2126.45 190.082   4
  -4   1  -9 2082.67 193.630   4
  -4  -1  -9 1964.83 182.340  19
  -4   1 -10 56.2094 37.9674  23
  -4  -1 -10 44.3318 36.8783  19
  -4   1 -10-22.9472 33.1248  19
  -4  -1 -10 58.0614 35.7913   4
  -4   1 -10 50.0778 35.1952   4
  -4   1 -11 578.476 76.9568  23
  -4  -1 -11 643.847 87.2510   4
  -4   1 -11 575.334 83.3475   4
  -4  -1 -12 12.9805 17.2864   4
  -4   1 -12 33.8477 18.2580   4
  -4  -2  13 2859.04 195.947   2
  -4   2  13 3130.84 210.440  10
  -4  -2  13 2050.06 159.780  10
  -4   2  13 2174.94 158.266  12
  -4  -2  13 3186.10 213.573  12
  -4   2  12 147.346 51.4584  12
  -4  -2  12 210.145 70.1150  12
  -4   2  12 243.467 69.3311  10
  -4  -2  12 241.988 63.4767  10
  -4   2  11 734.794 121.399  12
  -4  -2  11 700.247 121.522  12
  -4   2  11 701.979 120.838  10
  -4  -2  11 454.624 93.0068  10
  -4   2  10 551.914 114.359  12
  -4  -2  10 587.450 121.086  12
  -4   2  10 559.778 116.025  10
  -4  -2  10 586.768 113.171  10
  -4  -2  10 507.803 101.068   3
  -4   2   9 330.225 98.7557  12
  -4  -2   9 282.790 83.4239  12
  -4   2   9 210.480 76.8379  10
  -4  -2   9 527.519 112.365   3
  -4  -2   8 8006.15 460.282   3
  -4   2   8 7997.00 477.094  10
  -4   2   8 8254.21 475.701  12
  -4  -2   8 8493.68 494.831  12
  -4   2   7-70.3642 70.1924  12
  -4  -2   7 78.4500 81.8669  12
  -4   2   7-13.7927 38.1569  10
  -4  -2   7 57.4369 64.1790   3
  -4   2   6-57.1668 87.1590  12
  -4  -2   6-0.15677 36.5268  12
  -4   2   6 35.8644 40.5092  10
  -4  -2   6 41.0644 64.1166   3
  -4  -2   6 100.970 60.4407   2
  -4   2   6-12.4017 36.1529   2
  -4  -2   5 1370.20 198.045  12
  -4  -2   5 1556.29 210.881   3
  -4  -2   5 1391.53 188.233   2
  -4   2   5 1304.91 181.825   2
  -4   2   5 1213.29 186.174  10
  -4   2   5 1246.05 182.903  18
  -4   2   5 1468.93 201.902  12
  -4  -2   4 6611.92 437.221   3
  -4   2   4 5803.89 390.134   2
  -4  -2   4 6259.04 411.737   2
  -4   2   4 6974.67 449.081  10
  -4   2   4 6040.81 410.327  18
  -4   2   4 6807.11 436.953  12
  -4  -2   4 5731.03 411.447  12
  -4   2   3 1686.47 201.578   2
  -4  -2   3 2311.29 249.549   3
  -4  -2   3 1779.44 208.505   2
  -4   2   3 1483.51 207.433  10
  -4   2   3 1840.21 223.135  18
  -4   2   3 1909.49 225.782  12
  -4  -2   3 1429.16 194.993  12
  -4   2   2 1668.22 197.217   2
  -4  -2   2 1904.01 219.168   2
  -4  -2   2 2115.04 239.334   3
  -4   2   2 2318.20 256.839  10
  -4  -2   2 2327.49 237.338  19
  -4   2   2 2193.16 245.767  18
  -4   2   2 2337.73 252.806  12
  -4  -2   1 3530.13 309.924   3
  -4   2   1 2796.22 288.027  10
  -4  -2   1 3166.89 279.861  19
  -4   2   1 3170.00 295.366  18
  -4  -2   1 2882.42 268.479   2
  -4  -2   0 3085.61 289.334   3
  -4   2   0 2876.25 282.891  10
  -4   2   0 2382.59 242.424  23
  -4  -2   0 3084.44 277.044  19
  -4   2   0 3274.23 296.816  18
  -4  -2   0 3216.16 277.917   2
  -4   2  -1 1721.06 219.581  10
  -4  -2  -1 2157.84 227.352  23
  -4   2  -1 1838.26 216.120  23
  -4  -2  -1 2027.61 225.042  19
  -4   2  -1 2101.81 236.792  18
  -4  -2  -1 1962.80 217.534   2
  -4  -2  -1 1868.49 227.935   3
  -4  -2  -2 299.567 89.4102  23
  -4   2  -2 185.092 96.4840  10
  -4  -2  -2 237.601 78.5448   3
  -4  -2  -2 127.632 64.3794   2
  -4  -2  -2 291.904 89.9761  19
  -4   2  -2 238.427 81.3805  18
  -4   2  -3 5174.79 365.968  10
  -4  -2  -3 5364.54 366.091  23
  -4  -2  -3 5471.73 368.813  19
  -4   2  -3 5349.32 381.271  18
  -4  -2  -3 5339.23 360.871   2
  -4   2  -4 5103.54 358.167  10
  -4  -2  -4 5285.13 360.025  23
  -4  -2  -4 5661.89 374.560  19
  -4  -2  -4 5757.43 375.626   2
  -4   2  -5 10388.9 516.623  10
  -4  -2  -5 10849.7 526.473  23
  -4  -2  -5 10383.9 519.672  19
  -4  -2  -5 10520.5 516.095   2
  -4  -2  -6 837.000 136.675  23
  -4   2  -6 835.785 140.299  23
  -4   2  -6 763.646 127.260  10
  -4  -2  -6 1072.22 156.914  19
  -4  -2  -6 818.822 133.647   4
  -4   2  -6 718.097 132.986   4
  -4  -2  -7 784.444 128.198  23
  -4   2  -7 980.210 147.362  23
  -4  -2  -7 801.813 128.147  19
  -4  -2  -7 745.535 122.983   4
  -4   2  -7 944.591 142.240   4
  -4   2  -8 1.92813 45.0018  23
  -4  -2  -8-60.6799 39.8982  19
  -4  -2  -8 84.5442 53.5314   4
  -4   2  -8 120.641 57.8829   4
  -4   2  -9 1999.69 187.346  23
  -4  -2  -9 1869.17 173.655   4
  -4  -2  -9 1527.36 157.305  19
  -4   2  -9 1911.02 179.245   4
  -4   2 -10 147.612 53.4670  23
  -4  -2 -10 148.515 46.0179   4
  -4   2 -10 165.315 54.9357   4
  -4   2 -11 126.765 35.0648  23
  -4  -2 -11 63.3385 31.7021   4
  -4   2 -11 127.168 37.1535   4
  -4  -3  13 48.6314 30.3118  12
  -4   3  13 31.6302 25.9467  10
  -4  -3  13 24.7240 21.1946   2
  -4  -3  12 2836.72 202.005   2
  -4   3  12 3072.76 220.705  10
  -4  -3  12 2771.07 215.800  12
  -4  -3  11 172.811 58.0307  12
  -4   3  11 83.1693 44.1017  10
  -4  -3  11 249.177 64.8739   3
  -4  -3  11 104.135 42.1963   2
  -4   3  11 178.380 47.1389  12
  -4   3  10 821.024 128.498  12
  -4  -3  10 877.728 140.791  12
  -4  -3  10 1027.99 142.400   3
  -4   3  10 946.090 144.289  10
  -4  -3  10 837.783 130.032   2
  -4   3  10 736.045 125.906  13
  -4  -3   9 9550.70 489.229   3
  -4  -3   9 9630.28 480.995   2
  -4   3   9 9547.11 490.797  10
  -4   3   9 8394.53 471.735  13
  -4   3   9 10080.9 494.506  12
  -4  -3   9 9791.10 509.758  12
  -4   3   8 108.091 70.2008  12
  -4  -3   8 25.0402 46.6539  12
  -4   3   8 50.6981 44.1176  10
  -4  -3   8 81.2229 68.9583   3
  -4  -3   8 52.2133 49.1289   2
  -4   3   8 66.6392 56.9019  13
  -4   3   7 57.7842 53.2462  12
  -4  -3   7 86.6044 62.6159  12
  -4   3   7 267.666 94.8684  10
  -4  -3   7 216.591 80.8846   3
  -4  -3   7 160.397 71.9829   2
  -4  -3   6 12893.0 607.484   2
  -4  -3   6 13220.2 632.883   3
  -4   3   6 12313.4 610.305  10
  -4  -3   6 12473.2 623.494  21
  -4   3   6 14339.9 645.677  12
  -4  -3   6 12147.0 608.994  12
  -4  -3   5 4153.09 327.905   2
  -4  -3   5 4053.18 336.857   3
  -4   3   5 4400.42 344.507  10
  -4  -3   5 4760.27 370.792  21
  -4   3   5 4492.01 354.167  12
  -4  -3   5 4003.30 330.858  12
  -4  -3   4 3929.16 315.974   2
  -4  -3   4 3915.00 331.529   3
  -4   3   4 3445.12 313.810  10
  -4  -3   4 4147.68 344.788  21
  -4   3   4 4045.10 335.439  18
  -4   3   4 4254.01 350.173  12
  -4   3   3 45.2344 40.3271  10
  -4  -3   3 170.968 87.2910  21
  -4  -3   3 105.999 53.4925   3
  -4  -3   3 220.037 94.0201   2
  -4   3   3 41.0294 59.0194  18
  -4   3   3 75.1402 59.3836  12
  -4  -3   2 1714.46 206.503   2
  -4  -3   2 2334.42 250.540   3
  -4   3   2 1746.68 217.704  10
  -4  -3   2 2106.68 226.278  19
  -4   3   2 1861.83 230.581  18
  -4  -3   1 3916.66 333.699   3
  -4   3   1 4366.96 346.837  10
  -4  -3   1 4338.11 332.064  19
  -4   3   1 4494.11 351.299  18
  -4  -3   1 4202.16 328.654   2
  -4  -3   0 23800.6 902.777   3
  -4   3   0 23895.0 910.405  10
  -4  -3   0 24756.5 888.838  19
  -4   3   0 24919.5 920.737  18
  -4  -3   0 24716.1 877.529   2
  -4  -3  -1 20149.6 815.707   3
  -4   3  -1 20310.6 806.181  10
  -4  -3  -1 18021.1 727.651  22
  -4  -3  -1 20725.0 790.746  19
  -4   3  -1 21205.1 817.873  18
  -4  -3  -1 21214.5 788.207   2
  -4  -3  -2 72.4898 53.7367   2
  -4   3  -2 82.4927 51.9839  10
  -4  -3  -2 68.1993 68.6714   3
  -4  -3  -2 78.2168 66.7784  19
  -4   3  -2 20.5114 36.5012  18
  -4   3  -3 9758.35 518.507  10
  -4  -3  -3 8999.33 480.935  19
  -4   3  -3 9221.26 511.430  18
  -4  -3  -3 10206.4 506.376   2
  -4   3  -4 10549.9 536.158  10
  -4  -3  -4 10389.9 518.849  19
  -4  -3  -4 11302.4 532.027   2
  -4   3  -5 446.580 100.057  10
  -4  -3  -5 341.431 96.6581  19
  -4   3  -6 758.221 128.620  10
  -4  -3  -6 457.329 103.923  19
  -4  -3  -7 1648.78 180.047  19
  -4   3  -7 1520.04 176.174   4
  -4   3  -8 185.508 65.0617  23
  -4  -3  -8 109.389 44.2098  19
  -4  -3  -8 155.067 49.8974   4
  -4   3  -8 189.087 61.2655   4
  -4   3  -9 3112.68 225.904  23
  -4  -3  -9 2577.37 190.115   4
  -4   3  -9 3245.53 227.761   4
  -4   3 -10 555.030 88.0494  23
  -4  -3 -10 623.223 88.7638  22
  -4  -3 -10 413.705 67.6823   4
  -4   3 -10 514.314 82.5228   4
  -4  -3 -11 64.7777 27.2156  22
  -4   3 -11 47.4005 26.0515   4
  -4  -4  12 304.677 63.8429  12
  -4   4  12 305.905 63.1805  10
  -4  -4  12 288.692 57.2169   3
  -4  -4  11 1176.42 125.246   2
  -4  -4  11 1085.87 129.772   3
  -4   4  11 1265.09 143.339  10
  -4   4  11 1271.52 143.428  13
  -4  -4  11 1260.53 140.926  12
  -4  -4  10 199.518 68.1226  12
  -4   4  10 117.100 58.8784  10
  -4  -4  10 213.602 61.6704   3
  -4  -4  10 171.657 51.7931   2
  -4   4  10 149.883 55.8416  13
  -4  -4   9 135.938 56.3522  12
  -4   4   9 26.6408 42.9319  10
  -4  -4   9 210.398 75.4629   3
  -4  -4   9 92.5597 41.0475   2
  -4   4   9 136.316 60.8635  13
  -4  -4   8 2.93601 37.6206  12
  -4  -4   8 82.3229 52.9847   3
  -4  -4   8 27.1146 43.0374   2
  -4   4   8 26.1605 32.6816  13
  -4  -4   7 34276.6 1075.46   2
  -4  -4   7 38655.8 1162.94   3
  -4   4   7 37779.3 1136.94  10
  -4  -4   7 37710.2 1154.31  21
  -4   4   7 34604.5 1133.71  13
  -4  -4   7 31459.7 1056.84  12
  -4   4   6 107.967 76.0615  10
  -4  -4   6 442.234 123.342  21
  -4  -4   6 215.158 77.2984   3
  -4  -4   6 186.493 77.8812   2
  -4   4   6 205.519 87.3255  13
  -4   4   5 189.611 82.4415  10
  -4  -4   5 311.905 101.719  21
  -4  -4   5 130.928 73.9551   3
  -4  -4   5 200.539 72.5452   2
  -4   4   5 125.271 65.6754  13
  -4   4   4 814.727 145.642  10
  -4  -4   4 741.640 148.674  21
  -4  -4   4 526.927 124.746   3
  -4  -4   4 694.801 128.486   2
  -4   4   4 841.831 154.943  13
  -4  -4   3 3045.63 286.542   3
  -4   4   3 2954.03 275.642  10
  -4  -4   3 3094.27 295.773  21
  -4   4   3 3246.29 301.611  18
  -4  -4   3 3285.62 265.019  14
  -4  -4   3 3492.76 289.770   2
  -4   4   2 458.648 114.299  10
  -4  -4   2 370.688 113.241  21
  -4  -4   2 546.679 116.891   3
  -4  -4   2 476.037 103.103   2
  -4   4   2 434.344 113.294  18
  -4  -4   2 398.888 97.1117  14
  -4  -4   1 8120.51 486.067   3
  -4   4   1 7788.78 462.091  10
  -4   4   1 7886.82 472.421  18
  -4  -4   1 8409.96 445.369  14
  -4  -4   1 8061.95 451.725   2
  -4  -4   0 8024.38 477.341   3
  -4   4   0 7903.20 464.094  10
  -4  -4   0 7129.98 410.454  22
  -4  -4   0 8276.51 466.522  19
  -4   4   0 8037.65 470.273  18
  -4  -4   0 8581.66 460.293   2
  -4  -4  -1 717.111 128.635   2
  -4   4  -1 804.740 148.396  10
  -4  -4  -1 624.144 120.115  22
  -4  -4  -1 657.985 137.799   3
  -4  -4  -1 813.005 141.605  19
  -4   4  -1 696.819 139.455  18
  -4   4  -2 6341.87 408.494  10
  -4  -4  -2 5506.81 359.294  22
  -4  -4  -2 6480.68 400.171  19
  -4   4  -2 6329.43 411.518  18
  -4  -4  -2 6407.53 388.937   2
  -4  -4  -2 6080.72 407.338   3
  -4   4  -3 1641.24 204.268  10
  -4  -4  -3 1696.39 193.359  22
  -4  -4  -3 1511.91 187.019  19
  -4   4  -3 1678.27 215.754  18
  -4  -4  -3 1666.24 195.809   2
  -4   4  -4 1183.19 170.694  10
  -4   4  -4 1037.20 154.686   5
  -4  -4  -4 1607.52 187.440  22
  -4  -4  -4 1165.93 167.510  19
  -4   4  -5 1138.39 158.140  10
  -4   4  -5 850.069 130.246   5
  -4  -4  -5 1015.44 143.657  22
  -4  -4  -5 988.135 144.757  19
  -4   4  -6 1483.21 166.092   5
  -4  -4  -6 2071.43 195.163  22
  -4  -4  -6 1970.55 200.064  19
  -4   4  -7 1040.82 131.602   5
  -4  -4  -7 1359.78 151.900  22
  -4   4  -7 1225.26 150.016   4
  -4   4  -8 1869.41 164.633   5
  -4  -4  -8 2309.62 188.382  22
  -4   4  -8 2409.40 197.365   4
  -4  -4  -8 2045.54 166.297  14
  -4   4  -9 797.538 108.136  23
  -4  -4  -9 833.455 103.791  22
  -4   4  -9 870.198 109.079   4
  -4  -4  -9 528.952 73.6549  14
  -4   4 -10 859.426 96.3636  23
  -4  -4 -10 901.380 95.5975  22
  -4   4 -10 783.129 88.1078   4
  -4   5  11 86.3509 34.0118  10
  -4  -5  11 43.8636 26.9547   3
  -4   5  11 32.9867 33.8662  13
  -4   5  10 57.3078 36.3220  10
  -4  -5  10 93.8903 39.9965   3
  -4   5  10 55.3317 39.6308  13
  -4  -5   9 5151.78 318.476   3
  -4   5   9 5471.06 319.284  10
  -4   5   9 5163.02 324.865  13
  -4   5   8 50.1984 58.8156  10
  -4  -5   8 77.3197 64.3568  21
  -4  -5   8 66.2007 41.6763   2
  -4  -5   8 10.8893 49.3337   3
  -4   5   8 71.3754 55.7548  13
  -4   5   7 730.923 131.528  10
  -4  -5   7 980.428 164.996  21
  -4  -5   7 746.367 114.257   2
  -4  -5   7 800.632 137.388   3
  -4   5   7 726.999 130.697  13
  -4  -5   6 4031.19 310.305   3
  -4   5   6 3962.90 306.052  10
  -4  -5   6 3905.32 309.824  21
  -4   5   6 4012.42 320.928  13
  -4  -5   6 3946.81 279.409   2
  -4  -5   5 3803.57 309.267   3
  -4   5   5 4793.02 337.477  10
  -4  -5   5 4044.18 322.221  21
  -4   5   5 3799.10 319.720  13
  -4  -5   5 3861.78 281.771   2
  -4   5   4 278.342 90.2622  10
  -4  -5   4 201.861 79.9465  21
  -4  -5   4 207.258 69.9923   2
  -4  -5   4 139.259 75.1213   3
  -4  -5   4 121.167 46.6683  14
   4  -5  -3 244.677 79.6793   6
  -4   5   3 410.887 102.404  10
  -4  -5   3 279.469 89.6638  21
  -4  -5   3 279.739 75.8491   2
  -4  -5   3 418.132 103.274   3
  -4   5   3 296.657 99.2958  18
  -4  -5   3 442.255 99.4149  14
   4  -5  -2 798.679 136.540   6
  -4   5   2 1050.60 159.269  10
  -4  -5   2 891.146 136.773   2
  -4  -5   2 889.206 152.635  21
  -4  -5   2 970.729 160.311   3
  -4   5   2 926.349 155.070  18
  -4  -5   2 1142.50 152.359  14
  -4  -5   1 107.763 53.3858  22
  -4   5   1 118.171 76.7949  10
  -4  -5   1 27.9883 32.2454   2
  -4  -5   1 149.794 74.4593   3
  -4   5   1 208.114 70.3862  18
  -4  -5   1 209.140 76.0036  14
  -4  -5   0 11697.4 578.452   3
  -4   5   0 13441.9 601.270  10
  -4  -5   0 11262.9 519.658  22
  -4   5   0 12312.8 588.641  18
  -4  -5   0 12750.7 555.272   2
  -4  -5   0 13306.2 557.997  14
  -4  -5  -1 1039.72 146.306  22
  -4   5  -1 1086.97 163.618  10
  -4  -5  -1 1051.39 161.651   3
  -4   5  -1 979.102 156.976  18
  -4  -5  -1 1034.31 148.422   2
  -4  -5  -1 1051.97 144.404  14
  -4  -5  -2 263.929 80.9260   2
  -4   5  -2 370.283 101.840  10
  -4  -5  -2 333.947 95.0250   3
  -4  -5  -2 302.293 83.2449  22
  -4   5  -2 356.520 99.8082  18
  -4  -5  -2 279.444 81.2030  14
  -4   5  -3 1057.98 154.199  10
  -4  -5  -3 1008.82 141.194  22
  -4   5  -3 868.865 145.458  18
  -4  -5  -3 714.805 118.425  14
  -4   5  -4 492.358 99.2856   5
  -4   5  -4 557.679 104.944  10
  -4  -5  -4 495.292 99.7218  22
  -4  -5  -4 534.421 103.130  14
  -4   5  -5 1877.83 191.232  10
  -4   5  -5 1625.68 176.607   5
  -4  -5  -5 2069.48 193.649  22
  -4  -5  -5 1573.94 165.912  14
  -4   5  -6 12937.9 525.699   5
  -4  -5  -6 14575.4 534.598  22
  -4  -5  -6 14205.0 523.600  14
  -4   5  -7 17090.4 598.604   5
  -4  -5  -7 19802.3 617.657  22
  -4   5  -7 19118.9 629.656   4
  -4  -5  -7 18080.4 585.700  14
  -4   5  -8 154.911 46.7967   5
  -4  -5  -8 237.561 58.5593  22
  -4  -5  -8 242.855 51.9854  14
  -4   5  -8 201.220 53.2918   4
  -4   5  -9 697.594 87.5716  23
  -4  -5  -9 715.375 84.9693  22
  -4  -6  10-23.2476 28.1016   3
  -4   6   9 444.077 73.9723  10
  -4  -6   9 617.188 95.7842   3
  -4   6   9 508.131 82.0747  18
  -4   6   9 567.106 93.9241  13
  -4  -6   8 6965.65 358.458   3
  -4   6   8 7123.93 344.264  10
  -4  -6   8 7199.36 367.595  21
  -4   6   8 7338.21 378.879  13
  -4  -6   7 22577.5 748.777   3
  -4   6   7 22070.2 725.116  10
  -4  -6   7 22097.1 760.310  21
  -4   6   7 22497.5 775.310  13
  -4  -6   6 1144.78 151.789   3
  -4   6   6 1240.46 154.354  10
  -4  -6   6 1203.54 162.943  21
  -4  -6   5 5901.54 364.538   3
  -4   6   5 5860.92 351.233  10
  -4  -6   5 5508.84 358.862  21
   4  -6  -5 5373.01 332.770   6
  -4  -6   4 2242.98 223.900   3
  -4   6   4 2553.62 231.112  10
  -4  -6   4 2053.80 216.094  21
   4  -6  -4 2213.82 213.077   6
   4  -6  -3 739.498 121.746   6
  -4  -6   3 846.820 129.793  24
  -4   6   3 846.765 132.776  10
  -4  -6   3 545.501 122.054  21
  -4  -6   3 779.734 131.684   3
  -4   6   3 625.298 119.315  18
  -4  -6   3 952.253 127.357  14
   4  -6  -2 539.842 106.560   6
  -4  -6   2 528.861 100.676  24
  -4   6   2 609.409 121.829  10
  -4  -6   2 534.304 112.536  21
  -4  -6   2 608.397 121.314   3
  -4   6   2 675.787 124.585  18
  -4  -6   2 585.619 103.477  14
  -4  -6   1 2080.85 215.926   3
  -4  -6   1 1846.73 196.947  24
  -4   6   1 2273.70 226.483  10
  -4  -6   1 1910.64 181.338  22
  -4   6   1 2087.99 219.098  18
  -4  -6   1 2159.36 199.304  14
   4  -6  -1 1812.21 186.717   6
  -4  -6   0 8016.10 432.892  24
  -4   6   0 10159.5 485.215  10
  -4  -6   0 9321.39 431.145  22
  -4   6   0 9372.87 480.351  18
  -4  -6   0 9874.18 445.428  14
  -4  -6   0 9235.47 468.160   3
  -4   6  -1 5406.89 343.584  10
  -4  -6  -1 5361.79 317.919  22
  -4   6  -1 5229.60 347.852  18
  -4  -6  -1 5430.69 319.854  14
  -4  -6  -1 4884.39 327.341   3
  -4   6  -2 32.9890 41.7577  10
  -4  -6  -2 107.237 51.0681  22
  -4   6  -2 140.347 69.7841  18
  -4  -6  -2 81.1022 47.0644  14
  -4   6  -3 838.120 128.068  10
  -4  -6  -3 626.474 104.310  22
  -4   6  -3 571.001 108.820  18
  -4  -6  -3 655.764 105.314  14
  -4   6  -4 395.212 86.4427   5
  -4   6  -4 497.186 97.1607  10
  -4  -6  -4 432.465 89.1605  22
  -4  -6  -4 578.776 100.093  14
  -4   6  -5 56.1323 30.6919   5
  -4  -6  -5 43.6368 32.1948  22
  -4   6  -6 131.248 49.2154   5
  -4  -6  -6 102.361 38.9473  22
  -4  -6  -6 126.808 46.5870  14
  -4   6  -6 78.2182 40.1327   4
  -4   6  -7 4056.48 230.585   5
  -4   6  -7 4297.07 228.385   4
  -4  -6  -7 3721.22 198.140  14
  -4   6  -8 1231.43 113.809  23
  -4  -6  -8 1387.76 113.270  22
  -4  -7   8 4217.00 232.539   3
  -4   7   8 4022.24 223.017  18
   4  -7  -8 3763.72 212.618   6
  -4  -7   7 5949.45 295.391   3
  -4  -7   7 5398.13 291.594  21
  -4   7   7 5530.92 285.292  18
   4  -7  -7 5486.23 274.208   6
  -4  -7   6 1479.02 149.618   3
  -4   7   6 1487.15 135.954  10
  -4  -7   6 1763.66 172.465  21
  -4   7   6 1464.17 151.797  18
   4  -7  -6 1557.36 150.203   6
   4  -7  -5 29.4803 29.7238   6
  -4   7   5 55.9770 34.4351  10
  -4  -7   5 94.2672 49.8837  21
  -4  -7   5 80.4122 35.4426   3
  -4   7   5 32.3630 30.2010  18
   4  -7  -4 97.9818 43.0172   6
  -4   7   4 184.218 56.6644  10
  -4  -7   4 154.607 60.4325  21
  -4  -7   4 194.552 65.9224   3
  -4   7   4 267.299 71.8401  18
   4  -7  -3 334.166 77.2424   6
  -4   7   3 323.747 75.8042  10
  -4  -7   3 363.135 82.1140  21
  -4  -7   3 336.413 79.3223   3
  -4   7   3 320.338 81.9328  18
  -4  -7   2 2165.08 196.736   3
  -4  -7   2 1972.29 184.666  24
  -4   7   2 2627.88 212.867  10
  -4  -7   2 1845.60 182.550  21
  -4   7   2 2462.32 214.994  18
   4  -7  -2 2011.90 183.324   6
  -4  -7   1 570.631 99.8026  24
  -4   7   1 794.074 118.478  10
  -4  -7   1 652.628 95.3524  22
  -4  -7   1 592.337 103.446   3
  -4   7   1 643.088 112.228  18
  -4  -7   1 795.969 107.872  14
   4  -7  -1 471.007 85.6854   6
  -4  -7   0 558.662 98.4547  24
  -4   7   0 653.100 106.822  10
  -4  -7   0 589.275 94.3272  22
  -4  -7   0 704.483 104.605   3
  -4   7   0 584.666 104.511  18
  -4   7   0 585.283 97.8329  17
  -4  -7   0 562.159 89.1694  14
   4  -7   0 471.784 82.0805   6
  -4  -7  -1 1254.89 144.702  24
  -4   7  -1 1608.07 163.501  10
  -4  -7  -1 1415.42 143.226  22
  -4   7  -1 1320.78 154.828  18
  -4   7  -1 1180.26 140.723  17
  -4  -7  -1 1413.83 142.600  14
  -4   7  -2 943.418 125.438  10
  -4  -7  -2 529.805 88.9972  24
  -4  -7  -2 704.814 103.662  22
  -4   7  -2 599.365 103.446  18
  -4   7  -2 647.644 101.846  17
  -4  -7  -2 755.314 104.072  14
  -4  -7  -3 27.0076 24.8360  24
  -4   7  -3 86.4515 47.1187   5
  -4   7  -3 29.1485 29.3355  10
  -4  -7  -3 34.3239 34.2853  22
  -4  -7  -3 28.8597 21.5136  14
  -4   7  -4 1254.84 134.364   5
  -4  -7  -4 1435.35 133.371  22
  -4  -7  -4 1377.29 128.248  14
  -4   7  -5 18.4258 31.5631   5
  -4  -7  -5 19.0505 19.1906  22
  -4  -7  -5 15.5183 22.6163  14
  -4   7  -5 11.1909 23.6365   4
  -4   7  -6 6666.88 290.260   5
  -4  -7  -6 7325.01 285.887  22
  -4  -8   5 1954.34 153.873  21
  -4   8   5 2165.02 160.100  18
   4  -8  -5 2015.05 147.203   6
  -4  -8   4 1042.05 116.404  21
  -4   8   4 1288.44 127.826  18
   4  -8  -4 1279.60 119.697   6
  -4  -8   3 1392.55 132.754  21
   4  -8  -3 1631.57 138.392   6
  -4   8   2 4407.14 221.651  10
   4  -8  -2 4719.47 244.436   6
  -4  -8   1 826.144 100.257  24
  -4   8   1 747.372 89.3076  10
  -4   8   1 954.228 112.619  18
  -4   8   1 793.738 95.1990  17
   4  -8  -1 809.732 95.2944   6
  -4  -8   0 579.557 84.0496  24
  -4   8   0 457.921 70.6881  10
  -4   8   0 410.077 72.9364  18
  -4   8   0 453.541 73.1715  17
   4  -8   0 343.892 58.9337   6
  -4  -8  -1 1898.56 148.870  24
  -4   8  -1 2100.14 165.031   5
  -4   8  -1 1850.60 147.141  18
  -4   8  -1 1873.74 148.356  17
  -4   8  -2 135.282 41.9163   5
  -4  -8  -2 168.753 40.5136  22
  -4   8  -3 3850.65 214.389   5
  -4  -8  -3 4322.89 208.674  22
  -5   0  10-4.70200 21.9308  12
  -5   0   9 138.309 47.3625   2
  -5   0   9 264.161 60.8580  12
  -5   0   8-40.0815 27.6431  10
  -5   0   8-7.38589 25.3237   2
  -5   0   7 24.4100 32.4090   2
  -5   0   7 106.901 58.0712  12
  -5   0   6 99.0656 48.5202   2
  -5   0   6-15.2880 33.8052  12
  -5   0   5 2163.84 196.664   2
  -5   0   4-34.5011 32.6785   2
  -5   0   3 6772.65 368.213   2
  -5   0   2-16.0034 39.9005   2
  -5   0   1 427.495 96.1018   2
  -5   0   0-29.6592 47.7721   2
  -5   0   0-40.4389 45.9144  19
  -5   0  -1 127.453 60.6981   2
  -5   0  -1 170.244 59.6987  19
  -5   0  -2 42.5059 46.6350   2
  -5   0  -2 32.4724 38.4412  19
  -5   0  -3 14736.4 553.409  19
  -5   0  -4 81.0186 50.9792  19
  -5   0  -5 7646.64 329.066   4
  -5   0  -5 10215.4 399.489  19
  -5   0  -6 32.0574 25.7941  19
  -5   0  -6-14.9788 19.4105   4
  -5   0  -7 79.3677 31.2084  19
  -5  -1   9 5843.12 276.950   2
  -5   1   9 4987.53 258.212  10
  -5  -1   9 6183.34 295.175  12
  -5   1   9 5219.60 248.071   2
  -5  -1   8 931.560 113.780   2
  -5   1   8 841.819 109.251  10
  -5  -1   8 891.612 118.983  12
  -5   1   8 821.399 102.628   2
  -5  -1   7 1225.50 139.516   2
  -5   1   7 1053.77 128.737  10
  -5  -1   7 1105.53 139.444  12
  -5   1   7 1172.69 129.607   2
  -5   1   6 1656.78 166.685  10
  -5  -1   6 1767.79 180.714  12
  -5   1   6 1738.01 164.414   2
  -5  -1   6 1624.28 166.486   2
  -5   1   5 7612.02 386.880  10
  -5   1   5 8156.60 387.002   2
  -5  -1   5 8595.85 409.786   2
  -5  -1   5 8007.96 387.754   3
  -5   1   4 1680.89 175.518  10
  -5   1   4 1456.00 158.839   2
  -5  -1   4 1559.13 169.943   2
  -5   1   3 4487.99 293.332  10
  -5   1   3 5016.57 301.622   2
  -5   1   2 1862.32 181.560  10
  -5   1   2 1971.53 183.181   2
  -5  -1   2 1827.88 185.383   2
  -5  -1   1 6848.71 359.949  19
  -5   1   1 7199.27 368.150   2
  -5   1   0-5.34829 27.3117   2
  -5  -1   0-15.3664 29.8245   2
  -5  -1   0 9.87199 31.2529  19
  -5  -1  -1 1025.44 134.908  19
  -5   1  -1 1059.50 136.959  19
  -5   1  -1 898.864 121.237   2
  -5  -1  -1 1081.61 137.613   2
  -5   1  -2 1629.89 164.677  23
  -5  -1  -2 1463.30 157.283  19
  -5   1  -2 1359.97 154.332  19
  -5   1  -2 1264.54 138.907   4
  -5  -1  -2 1641.61 164.292   2
  -5  -1  -3 45.5151 51.2224  19
  -5   1  -3 45.9724 44.8832   4
  -5   1  -4 2027.13 175.909  23
  -5  -1  -4 1873.84 168.956  19
  -5   1  -4 1844.00 167.572  19
  -5   1  -4 1855.48 158.943   4
  -5   1  -5 393.872 81.6349  23
  -5  -1  -5 254.499 57.7088  22
  -5  -1  -5 315.481 68.6663  19
  -5   1  -5 202.773 65.9605  19
  -5   1  -5 327.876 65.8065   4
  -5   1  -6 689.992 92.3921  23
  -5  -1  -6 473.363 70.3484  22
  -5  -1  -6 580.431 84.6238  19
  -5   1  -6 622.857 86.3437  19
  -5   1  -6 418.549 67.2150   4
  -5  -1  -7 16.7272 23.5262  19
  -5   1  -7-19.3958 23.8974  19
  -5   2   9 56.2276 27.5757  10
  -5  -2   9 24.9081 23.6742   2
  -5   2   8 4533.42 257.879  10
  -5  -2   8 4501.44 255.250  12
  -5  -2   8 5104.29 263.087   2
  -5   2   7 7694.67 357.633  10
  -5  -2   7 6720.05 334.565  12
  -5  -2   7 7868.70 349.960   2
  -5  -2   7 6251.05 307.248   3
  -5   2   6 1169.41 140.442  10
  -5  -2   6 1204.11 138.952   2
  -5  -2   6 1168.96 137.763  12
  -5  -2   6 1319.49 145.853   3
  -5   2   5 2741.81 219.763  10
  -5  -2   5 2613.97 211.029   2
  -5  -2   5 3049.46 232.519   3
  -5   2   4 1309.74 151.915  10
  -5  -2   4 1352.85 151.589   2
  -5  -2   4 1242.39 156.864   3
  -5   2   3 7674.70 397.692  10
  -5  -2   3 8348.09 398.200   2
  -5  -2   3 8744.48 434.830   3
  -5   2   2 14344.0 572.618  10
  -5  -2   2 15629.0 575.616   2
  -5   2   1 3857.61 268.079  10
  -5  -2   1 4363.74 279.360   2
  -5  -2   1 3613.24 234.264  14
  -5   2   0 6286.58 341.169  10
  -5  -2   0 6158.80 337.304  19
  -5  -2   0 7061.94 357.087   2
  -5  -2  -1 128.768 53.7036   2
  -5   2  -1 133.401 48.6806  10
  -5  -2  -1 166.695 54.7802  19
  -5   2  -1 65.3141 38.4163  19
  -5   2  -1 148.606 55.0695   4
  -5   2  -2 1568.31 151.461  10
  -5   2  -2 1855.75 168.589  23
  -5  -2  -2 1833.13 171.858  19
  -5   2  -2 1672.63 164.729  19
  -5   2  -2 1744.11 162.211   4
  -5  -2  -2 2026.96 179.291   2
  -5   2  -3 13661.7 506.662  23
  -5  -2  -3 14075.7 520.450  19
  -5   2  -3 13773.7 512.944  19
  -5   2  -3 12658.0 486.681   4
  -5   2  -4 2847.60 201.884  23
  -5  -2  -4 2082.21 159.140  22
  -5  -2  -4 2609.25 193.345  19
  -5   2  -4 2550.84 193.058  19
  -5   2  -4 2591.63 188.801   4
  -5   2  -5 1628.15 145.679  23
  -5  -2  -5 1283.95 119.686  22
  -5  -2  -5 1684.48 146.778  19
  -5   2  -5 1565.93 142.358  19
  -5   2  -5 1335.95 128.755   4
  -5   2  -6 419.058 72.1767  23
  -5  -2  -6 488.037 69.6478  22
  -5   2  -6 577.965 79.0782   4
  -5  -2  -6 508.684 74.8826  19
  -5   2  -6 386.139 69.5147  19
  -5   3   8 115.408 41.3624  10
  -5  -3   8 135.835 37.6993   2
  -5   3   7 384.905 74.3284  10
  -5  -3   7 400.299 72.5999   3
  -5  -3   7 355.522 68.3313   2
  -5   3   6 6989.33 340.394  10
  -5  -3   6 7091.23 330.764   2
  -5  -3   6 7226.06 351.370   3
  -5   3   5 6302.27 334.946  10
  -5  -3   5 6598.80 325.291   2
  -5  -3   5 6681.91 348.245   3
  -5   3   4 2391.66 201.237  10
  -5  -3   4 2346.71 191.878   2
  -5  -3   4 2706.28 221.625   3
  -5   3   3 1591.67 168.197  10
  -5  -3   3 1733.25 166.236   2
  -5  -3   3 1782.68 180.385   3
  -5  -3   2 524.872 103.981   3
  -5   3   2 601.407 106.038  10
  -5  -3   2 614.794 99.8810   2
  -5  -3   1 46.7018 40.1801   2
  -5   3   1-11.6485 26.1577  10
  -5  -3   1-22.6445 23.9372  14
  -5  -3   0 730.657 105.642   2
  -5   3   0 675.460 106.715  10
  -5  -3   0 550.251 88.7188  14
  -5   3  -1 3634.83 244.782  10
  -5   3  -1 3343.31 222.351  19
  -5  -3  -1 4091.13 251.811   2
  -5  -3  -1 3757.93 231.304  14
  -5   3  -2 724.344 100.494  23
  -5   3  -2 678.714 100.400  10
  -5  -3  -2 519.156 83.5200  14
  -5   3  -2 607.664 93.4208   4
  -5   3  -3 1633.77 146.455  10
  -5   3  -3 1646.41 149.748  23
  -5   3  -3 1533.12 145.720   4
  -5  -3  -3 1614.89 142.479  14
  -5   3  -4 2031.98 163.043  23
  -5  -3  -4 1741.29 137.102  22
  -5   3  -4 2097.51 163.940   4
  -5  -3  -4 2065.45 155.464  14
  -5   3  -5 603.744 84.6910  23
  -5  -3  -5 632.702 77.4269  22
  -5   3  -5 654.586 86.3615   4
  -5  -3  -5 760.816 88.8791  14
  -5   3  -6 231.824 48.2357  19
  -5   3  -6 213.598 46.0413   4
  -5  -3  -6 254.902 48.3822  14
  -5   4   7 5820.84 267.205  10
  -5  -4   7 5586.41 265.071   3
  -5   4   6 4453.43 244.745  10
  -5  -4   6 4374.23 227.578   2
  -5  -4   6 4616.91 254.048   3
  -5   4   5 20.1978 32.2853  10
  -5  -4   5 23.6193 25.2643   2
  -5  -4   5 9.14684 32.3604   3
  -5   4   5 33.6677 30.7698  18
  -5   4   4 4892.62 275.512  10
  -5   4   4 4350.73 260.404  18
  -5  -4   4 5035.26 262.193   2
  -5  -4   4 4829.39 281.537   3
  -5  -4   3 337.650 66.1068   2
  -5   4   3 347.201 72.8247  10
  -5  -4   3 375.345 84.2707   3
  -5   4   3 312.337 73.9965  18
  -5  -4   2 429.243 78.8759   2
  -5   4   2 455.060 84.8299  10
  -5  -4   2 618.899 106.766   3
  -5   4   1 5059.96 283.575  10
  -5  -4   1 5299.81 276.569   2
  -5  -4   1 4376.58 235.718  14
  -5   4   0 2831.58 204.507  10
  -5  -4   0 2478.92 185.634   2
  -5  -4   0 2485.79 175.221  14
  -5   4  -1-4.66086 21.9758  10
  -5  -4  -1 40.1040 29.3398  14
  -5   4  -2 487.294 79.1088  10
  -5  -4  -2 335.004 59.8670  14
  -5   4  -3 198.791 49.6170  23
  -5  -4  -3 209.457 51.4879  14
  -5   4  -3 57.6437 29.5686   4
  -5  -4  -4-7.11887 18.7212  14
  -5   4  -4-15.8213 28.2987   4
  -5   5   5 45.2596 25.1601  10
  -5  -5   5 70.8256 33.5124   3
  -5   5   4 1464.55 128.444  10
  -5   5   4 1346.16 125.513  18
  -5  -5   4 1476.56 134.962   3
  -5   5   3 2869.88 188.558  10
  -5   5   3 2826.44 191.806  18
  -5  -5   3 2943.40 198.350   3
  -5  -5   2 191.800 44.0060   2
  -5   5   2 146.316 44.6781  10
  -5   5   1 1219.54 120.769  10
  -5  -5   1 1110.02 100.544  14
  -5   5   0 322.172 62.2646  10
  -5  -5   0 304.249 54.7727  14
  -5   5  -1 469.605 73.7655  10
  -5  -5  -1 375.854 61.1071  14
  -5   5  -2 900.669 95.4949  10
  -5   5  -2 766.069 87.6978   4
  -5  -5  -2 754.323 81.9077  14
   0   0   0    0.00    0.00   0

TITL dan1c in P2(1)/n
REM P2(1)/n (#14 in standard setting)
CELL 1.54184   4.573401   9.822151  15.067150  90.0000  94.5192  90.0000
ZERR    4.00   0.000173   0.000359   0.000644   0.0000   0.0037   0.0000
LATT  1
SYMM -x+1/2, y+1/2,-z+1/2
SFAC C H N O
UNIT 24.00 44.00 4.00 8.00
TREF
HKLF 4
END
;
_shelx_hkl_checksum              84685
_olex2_submission_special_instructions 'No special instructions were received'
_oxdiff_exptl_absorpt_empirical_details
;
Empirical correction (ABSPACK) includes:
- Absorption correction using spherical harmonics
- Frame scaling
- Detector area scaling
;
_oxdiff_exptl_absorpt_empirical_full_max 1.410
_oxdiff_exptl_absorpt_empirical_full_min 0.721
loop_
_space_group_symop_operation_xyz
'x, y, z'
'-x+1/2, y+1/2, -z+1/2'
'-x, -y, -z'
'x-1/2, -y-1/2, z-1/2'
loop_
_atom_site_label
_atom_site_type_symbol
_atom_site_fract_x
_atom_site_fract_y
_atom_site_fract_z
_atom_site_U_iso_or_equiv
_atom_site_adp_type
_atom_site_occupancy
_atom_site_site_symmetry_order
_atom_site_calc_flag
_atom_site_refinement_flags_posn
_atom_site_refinement_flags_occupancy
_atom_site_disorder_assembly
_atom_site_disorder_group
N1 N 0.2743(3) 0.38369(11) 0.55818(8) 0.0251(3) Uani 1 1 d D . . .
H1 H 0.186(4) 0.457(2) 0.5707(12) 0.027(4) Uiso 1 1 d . . . .
C2 C 0.2303(3) 0.32847(13) 0.47801(9) 0.0241(3) Uani 1 1 d D . . .
O3 O 0.0551(2) 0.37058(10) 0.41715(7) 0.0293(3) Uani 1 1 d D . . .
C4 C 0.4329(3) 0.20817(15) 0.47123(11) 0.0338(4) Uani 1 1 d D . . .
H4A H 0.591278 0.229279 0.432227 0.041 Uiso 1 1 calc R . . .
H4B H 0.323784 0.127273 0.447494 0.041 Uiso 1 1 calc R . . .
C5 C 0.5576(3) 0.18428(14) 0.56741(10) 0.0287(4) Uani 1 1 d D . . .
H5A H 0.768365 0.160440 0.569536 0.034 Uiso 0.908(4) 1 calc R P A 1
H5B H 0.450807 0.110046 0.595362 0.034 Uiso 0.908(4) 1 calc R P A 1
H5C H 0.767411 0.210087 0.574383 0.034 Uiso 0.092(4) 1 calc R P A 2
H5D H 0.539998 0.087031 0.583405 0.034 Uiso 0.092(4) 1 calc R P A 2
C6 C 0.5127(3) 0.32096(14) 0.61487(10) 0.0229(4) Uani 0.908(4) 1 d D P A 1
H6 H 0.694205 0.377731 0.614747 0.027 Uiso 0.908(4) 1 calc R P A 1
C7 C 0.4289(3) 0.30131(15) 0.70954(10) 0.0244(4) Uani 0.908(4) 1 d D P A 1
H7 H 0.253091 0.240758 0.709358 0.029 Uiso 0.908(4) 1 calc R P A 1
O8 O 0.6805(12) 0.2325(4) 0.7523(3) 0.0341(8) Uani 0.908(4) 1 d D P A 1
H8 H 0.632(5) 0.203(3) 0.8049(19) 0.047(6) Uiso 0.908(4) 1 d . P A 1
C9 C 0.3684(6) 0.4342(2) 0.7568(2) 0.0281(6) Uani 0.908(4) 1 d D P A 1
H9A H 0.331542 0.415157 0.818755 0.042 Uiso 0.908(4) 1 calc GR P A 1
H9B H 0.196051 0.478471 0.726650 0.042 Uiso 0.908(4) 1 calc GR P A 1
H9C H 0.538762 0.494443 0.755314 0.042 Uiso 0.908(4) 1 calc GR P A 1
C6B C 0.370(3) 0.2777(13) 0.6308(7) 0.021(3) Uiso 0.092(4) 1 d D P A 2
H6B H 0.202644 0.228831 0.655470 0.025 Uiso 0.092(4) 1 calc R P A 2
C7B C 0.569(3) 0.3480(14) 0.6999(8) 0.021(3) Uiso 0.092(4) 1 d D P A 2
H7B H 0.742053 0.389402 0.673458 0.025 Uiso 0.092(4) 1 calc R P A 2
O8B O 0.656(11) 0.232(3) 0.758(3) 0.021(3) Uiso 0.092(4) 1 d D P A 2
H8B H 0.714396 0.167988 0.726411 0.032 Uiso 0.092(4) 1 calc GR P A 2
C9B C 0.413(7) 0.451(3) 0.755(2) 0.021(3) Uiso 0.092(4) 1 d D P A 2
H9B1 H 0.350788 0.528908 0.717571 0.032 Uiso 0.092(4) 1 calc GR P A 2
H9B2 H 0.546942 0.481977 0.804860 0.032 Uiso 0.092(4) 1 calc GR P A 2
H9B3 H 0.240721 0.408181 0.778012 0.032 Uiso 0.092(4) 1 calc GR P A 2
loop_
_atom_site_aniso_label
_atom_site_aniso_U_11
_atom_site_aniso_U_22
_atom_site_aniso_U_33
_atom_site_aniso_U_23
_atom_site_aniso_U_13
_atom_site_aniso_U_12
N1 0.0293(6) 0.0186(6) 0.0269(7) -0.0001(4) -0.0009(5) 0.0056(4)
C2 0.0257(7) 0.0186(6) 0.0281(7) -0.0005(5) 0.0025(5) -0.0004(5)
O3 0.0364(6) 0.0238(5) 0.0270(6) -0.0019(4) -0.0022(4) 0.0062(4)
C4 0.0367(8) 0.0275(8) 0.0364(9) -0.0070(6) -0.0022(6) 0.0098(6)
C5 0.0308(7) 0.0207(7) 0.0345(8) -0.0015(5) 0.0022(6) 0.0061(5)
C6 0.0219(8) 0.0189(7) 0.0279(8) 0.0028(5) 0.0030(6) 0.0007(5)
C7 0.0236(8) 0.0209(7) 0.0285(8) 0.0037(5) 0.0019(6) 0.0010(6)
O8 0.0348(17) 0.0375(8) 0.0298(10) 0.0116(6) 0.0021(10) 0.0115(7)
C9 0.0330(14) 0.0242(11) 0.0271(8) 0.0002(8) 0.0037(9) -0.0009(8)
loop_
_atom_type_symbol
_atom_type_description
_atom_type_scat_dispersion_real
_atom_type_scat_dispersion_imag
_atom_type_scat_source
C C 0.0181 0.0091 'International Tables Vol C Tables 4.2.6.8 and 6.1.1.4'
H H 0.0000 0.0000 'International Tables Vol C Tables 4.2.6.8 and 6.1.1.4'
N N 0.0311 0.0180 'International Tables Vol C Tables 4.2.6.8 and 6.1.1.4'
O O 0.0492 0.0322 'International Tables Vol C Tables 4.2.6.8 and 6.1.1.4'
loop_
_exptl_crystal_face_index_h
_exptl_crystal_face_index_k
_exptl_crystal_face_index_l
_exptl_crystal_face_perp_dist
0 -5 -5 0.0433
3 2 -3 0.0894
0 5 6 0.0204
0 4 -7 0.0415
3 2 3 0.0866
0 -4 7 0.0526
-3 -1 -1 0.1477
loop_
_geom_angle_atom_site_label_1
_geom_angle_atom_site_label_2
_geom_angle_atom_site_label_3
_geom_angle
C2 N1 H1 120.4(12)
C2 N1 C6 114.31(11)
C2 N1 C6B 112.5(4)
C6 N1 H1 124.7(12)
C6B N1 H1 121.5(13)
N1 C2 C4 109.39(12)
O3 C2 N1 125.49(12)
O3 C2 C4 125.10(12)
C2 C4 H4A 111.0
C2 C4 H4B 111.0
C2 C4 C5 103.91(11)
H4A C4 H4B 109.0
C5 C4 H4A 111.0
C5 C4 H4B 111.0
C4 C5 H5A 110.8
C4 C5 H5B 110.8
C4 C5 H5C 110.3
C4 C5 H5D 110.3
C4 C5 C6 104.59(11)
C4 C5 C6B 107.2(4)
H5A C5 H5B 108.9
H5C C5 H5D 108.5
C6 C5 H5A 110.8
C6 C5 H5B 110.8
C6B C5 H5C 110.3
C6B C5 H5D 110.3
N1 C6 C5 102.45(11)
N1 C6 H6 110.1
N1 C6 C7 111.68(12)
C5 C6 H6 110.1
C7 C6 C5 112.19(12)
C7 C6 H6 110.1
C6 C7 H7 109.6
C6 C7 C9 113.50(16)
O8 C7 C6 103.2(2)
O8 C7 H7 109.6
O8 C7 C9 111.2(2)
C9 C7 H7 109.6
C7 O8 H8 107.8(16)
C7 C9 H9A 109.5
C7 C9 H9B 109.5
C7 C9 H9C 109.5
H9A C9 H9B 109.5
H9A C9 H9C 109.5
H9B C9 H9C 109.5
N1 C6B C5 95.6(6)
N1 C6B H6B 113.8
C5 C6B H6B 113.8
C7B C6B N1 107.7(10)
C7B C6B C5 110.5(10)
C7B C6B H6B 113.8
C6B C7B H7B 111.5
C6B C7B O8B 100.0(17)
C6B C7B C9B 113.6(15)
O8B C7B H7B 111.5
O8B C7B C9B 108(2)
C9B C7B H7B 111.5
C7B O8B H8B 109.5
C7B C9B H9B1 109.5
C7B C9B H9B2 109.5
C7B C9B H9B3 109.5
H9B1 C9B H9B2 109.5
H9B1 C9B H9B3 109.5
H9B2 C9B H9B3 109.5
loop_
_geom_bond_atom_site_label_1
_geom_bond_atom_site_label_2
_geom_bond_distance
N1 H1 0.85(2)
N1 C2 1.3250(19)
N1 C6 1.4667(17)
N1 C6B 1.548(11)
C2 O3 1.2402(17)
C2 C4 1.5100(18)
C4 H4A 0.9900
C4 H4B 0.9900
C4 C5 1.533(2)
C5 H5A 0.9900
C5 H5B 0.9900
C5 H5C 0.9900
C5 H5D 0.9900
C5 C6 1.5424(19)
C5 C6B 1.618(11)
C6 H6 1.0000
C6 C7 1.518(2)
C7 H7 1.0000
C7 O8 1.442(4)
C7 C9 1.522(2)
O8 H8 0.89(3)
C9 H9A 0.9800
C9 H9B 0.9800
C9 H9C 0.9800
C6B H6B 1.0000
C6B C7B 1.497(14)
C7B H7B 1.0000
C7B O8B 1.468(18)
C7B C9B 1.521(17)
O8B H8B 0.8400
C9B H9B1 0.9800
C9B H9B2 0.9800
C9B H9B3 0.9800
loop_
_geom_torsion_atom_site_label_1
_geom_torsion_atom_site_label_2
_geom_torsion_atom_site_label_3
_geom_torsion_atom_site_label_4
_geom_torsion
N1 C2 C4 C5 11.44(16)
N1 C6 C7 O8 176.8(2)
N1 C6 C7 C9 -62.8(2)
N1 C6B C7B O8B -175(2)
N1 C6B C7B C9B 69.8(19)
C2 N1 C6 C5 -16.89(16)
C2 N1 C6 C7 -137.15(13)
C2 N1 C6B C5 34.5(8)
C2 N1 C6B C7B 148.1(8)
C2 C4 C5 C6 -20.86(15)
C2 C4 C5 C6B 10.6(6)
O3 C2 C4 C5 -170.11(13)
C4 C5 C6 N1 22.47(15)
C4 C5 C6 C7 142.38(13)
C4 C5 C6B N1 -24.7(8)
C4 C5 C6B C7B -136.1(8)
C5 C6 C7 O8 62.4(3)
C5 C6 C7 C9 -177.18(16)
C5 C6B C7B O8B -72(2)
C5 C6B C7B C9B 173.0(17)
C6 N1 C2 O3 -174.81(13)
C6 N1 C2 C4 3.64(16)
C6B N1 C2 O3 150.5(6)
C6B N1 C2 C4 -31.1(6)
loop_
_exptl_oxdiff_crystal_face_indexfrac_h
_exptl_oxdiff_crystal_face_indexfrac_k
_exptl_oxdiff_crystal_face_indexfrac_l
_exptl_oxdiff_crystal_face_x
_exptl_oxdiff_crystal_face_y
_exptl_oxdiff_crystal_face_z
-0.0614 -5.4325 -5.0866 -0.1602 0.8658 0.4740
2.7329 2.1418 -2.6624 -0.0534 0.2835 -0.9575
-0.2779 5.2603 5.5068 0.1696 -0.9162 -0.3630
-0.3068 4.0294 -7.4059 0.9428 0.1751 -0.2837
2.6719 1.5234 2.8648 -0.4820 -0.0889 -0.8717
-0.1473 -4.3900 7.0901 -0.8823 -0.1639 0.4411
-3.0000 -1.0000 -1.0000 0.4569 -0.1325 0.9232
