#------------------------------------------------------------------------------
#$Date: 2019-11-03 15:24:51 +0200 (Sun, 03 Nov 2019) $
#$Revision: 221755 $
#$URL: file:///home/coder/svn-repositories/cod/cif/4/12/86/4128674.cif $
#------------------------------------------------------------------------------
#
# This file is available in the Crystallography Open Database (COD),
# http://www.crystallography.net/
#
# All data on this site have been placed in the public domain by the
# contributors.
#
data_4128674
loop_
_publ_author_name
'Zhu, Jie S.'
'Li, Clarabella J.'
'Tsui, Ka Yi'
'Kraemer, Niklas'
'Son, Jung-Ho'
'Haddadin, Makhluf J.'
'Tantillo, Dean J.'
'Kurth, Mark J.'
_publ_section_title
;
 Accessing Multiple Classes of 2 H-Indazoles: Mechanistic Implications for
 the Cadogan and Davis-Beirut Reactions.
;
_journal_issue                   15
_journal_name_full               'Journal of the American Chemical Society'
_journal_page_first              6247
_journal_page_last               6253
_journal_paper_doi               10.1021/jacs.8b13481
_journal_volume                  141
_journal_year                    2019
_chemical_formula_sum            'C10 H12 N2 O'
_chemical_formula_weight         176.22
_space_group_crystal_system      monoclinic
_space_group_IT_number           4
_space_group_name_Hall           'P 2yb'
_space_group_name_H-M_alt        'P 1 21 1'
_atom_sites_solution_hydrogens   geom
_audit_creation_method           SHELXL-2017/1
_cell_angle_alpha                90
_cell_angle_beta                 106.537(2)
_cell_angle_gamma                90
_cell_formula_units_Z            2
_cell_length_a                   6.1799(9)
_cell_length_b                   8.3702(13)
_cell_length_c                   9.1069(14)
_cell_measurement_reflns_used    4072
_cell_measurement_temperature    293(2)
_cell_measurement_theta_max      27.42
_cell_measurement_theta_min      2.33
_cell_volume                     451.59(12)
_computing_cell_refinement       'Bruker SAINT'
_computing_data_collection       'Bruker APEX2'
_computing_data_reduction        'Bruker SAINT'
_computing_molecular_graphics    'Bruker SHELXTL'
_computing_publication_material  'Bruker SHELXTL'
_computing_structure_refinement  'SHELXL-2014 (Sheldrick 2014)'
_computing_structure_solution    'SHELXS-97 (Sheldrick 2008)'
_diffrn_ambient_temperature      293(2)
_diffrn_measured_fraction_theta_full 0.984
_diffrn_measured_fraction_theta_max 0.972
_diffrn_measurement_device_type  'Bruker APEX-II CCD'
_diffrn_measurement_method       '\f and \w scans'
_diffrn_radiation_type           MoK\a
_diffrn_radiation_wavelength     0.71073
_diffrn_reflns_av_R_equivalents  0.0183
_diffrn_reflns_av_unetI/netI     0.0195
_diffrn_reflns_Laue_measured_fraction_full 0.984
_diffrn_reflns_Laue_measured_fraction_max 0.972
_diffrn_reflns_limit_h_max       7
_diffrn_reflns_limit_h_min       -8
_diffrn_reflns_limit_k_max       10
_diffrn_reflns_limit_k_min       -10
_diffrn_reflns_limit_l_max       11
_diffrn_reflns_limit_l_min       -11
_diffrn_reflns_number            4113
_diffrn_reflns_point_group_measured_fraction_full 0.890
_diffrn_reflns_point_group_measured_fraction_max 0.863
_diffrn_reflns_theta_full        25.242
_diffrn_reflns_theta_max         27.417
_diffrn_reflns_theta_min         2.333
_exptl_absorpt_coefficient_mu    0.086
_exptl_crystal_colour            colourless
_exptl_crystal_density_diffrn    1.296
_exptl_crystal_description       block
_exptl_crystal_F_000             188
_exptl_crystal_size_max          0.724
_exptl_crystal_size_mid          0.382
_exptl_crystal_size_min          0.380
_refine_diff_density_max         0.392
_refine_diff_density_min         -0.641
_refine_diff_density_rms         0.180
_refine_ls_abs_structure_details
;
 Flack x determined using 699 quotients [(I+)-(I-)]/[(I+)+(I-)]
 (Parsons, Flack and Wagner, Acta Cryst. B69 (2013) 249-259).
;
_refine_ls_abs_structure_Flack   -0.3(3)
_refine_ls_extinction_method     none
_refine_ls_goodness_of_fit_ref   1.262
_refine_ls_hydrogen_treatment    constr
_refine_ls_matrix_type           full
_refine_ls_number_parameters     120
_refine_ls_number_reflns         1770
_refine_ls_number_restraints     1
_refine_ls_restrained_S_all      1.261
_refine_ls_R_factor_all          0.0382
_refine_ls_R_factor_gt           0.0381
_refine_ls_shift/su_max          0.000
_refine_ls_shift/su_mean         0.000
_refine_ls_structure_factor_coef Fsqd
_refine_ls_weighting_details
'w=1/[\s^2^(Fo^2^)+(0.0622P)^2^+0.0512P] where P=(Fo^2^+2Fc^2^)/3'
_refine_ls_weighting_scheme      calc
_refine_ls_wR_factor_gt          0.0983
_refine_ls_wR_factor_ref         0.0984
_reflns_Friedel_coverage         0.664
_reflns_Friedel_fraction_full    0.781
_reflns_Friedel_fraction_max     0.739
_reflns_number_gt                1761
_reflns_number_total             1770
_reflns_threshold_expression     'I > 2\s(I)'
_cod_data_source_file            ja8b13481_si_004.cif
_cod_data_source_block           n-isopropyl-n-oxide
_cod_original_sg_symbol_H-M      'P 21'
_cod_database_code               4128674
_shelx_shelxl_version_number     2017/1
_shelx_space_group_comment
;
The symmetry employed for this shelxl refinement is uniquely defined
by the following loop, which should always be used as a source of
symmetry information in preference to the above space-group names.
They are only intended as comments.
;
_shelx_estimated_absorpt_t_min   0.940
_shelx_estimated_absorpt_t_max   0.968
_shelx_res_file
;
TITL p21-multi_a.res in P2(1)
    p21-multi_a.res
    created by SHELXL-2017/1 at 00:21:01 on 17-Oct-2018
CELL  0.71073   6.1799   8.3702   9.1069   90.000  106.537   90.000
ZERR    2.000   0.0009   0.0013   0.0014    0.000    0.002    0.000
LATT -1
SYMM -X, 1/2+Y, -Z
SFAC C  H  N  O
UNIT 20  24  4  2
L.S. 10
ACTA
BOND $H
FMAP 2
PLAN 20
SIZE 0.380 0.382 0.724
WGHT    0.062200    0.051200
FVAR       2.41955
C1    1    0.667686    0.513200    0.325376    11.00000    0.01329    0.01478 =
         0.01393    0.00043    0.00476   -0.00067
AFIX  43
H1    2    0.821029    0.536406    0.359780    11.00000   -1.20000
AFIX   0
C2    1    0.517732    0.562022    0.186748    11.00000    0.01519    0.01166 =
         0.01334   -0.00125    0.00466    0.00111
C3    1    0.535241    0.655645    0.060080    11.00000    0.02082    0.01505 =
         0.01707    0.00049    0.00755   -0.00028
AFIX  43
H3    2    0.672582    0.699602    0.058076    11.00000   -1.20000
AFIX   0
C4    1    0.343754    0.679225   -0.059014    11.00000    0.03055    0.01486 =
         0.01370    0.00231    0.00547    0.00277
AFIX  43
H4    2    0.353253    0.740191   -0.142330    11.00000   -1.20000
AFIX   0
C5    1    0.129950    0.613150   -0.059301    11.00000    0.02321    0.01771 =
         0.01550   -0.00144   -0.00069    0.00361
AFIX  43
H5    2    0.004610    0.632653   -0.142323    11.00000   -1.20000
AFIX   0
C6    1    0.105660    0.521716    0.060066    11.00000    0.01554    0.01728 =
         0.01781   -0.00170    0.00123    0.00070
AFIX  43
H6    2   -0.032531    0.477614    0.059909    11.00000   -1.20000
AFIX   0
C7    1    0.302476    0.498242    0.183402    11.00000    0.01438    0.01258 =
         0.01374   -0.00116    0.00430    0.00104
C8    1    0.545907    0.472242    0.666749    11.00000    0.02292    0.02085 =
         0.01342   -0.00100    0.00578   -0.00062
AFIX 137
H8A   2    0.622778    0.572352    0.669532    11.00000   -1.50000
H8B   2    0.585417    0.426541    0.767586    11.00000   -1.50000
H8C   2    0.385812    0.489471    0.631941    11.00000   -1.50000
AFIX   0
C9    1    0.615470    0.358246    0.557249    11.00000    0.01584    0.01414 =
         0.01197    0.00220    0.00323   -0.00073
AFIX  13
H9    2    0.535229    0.257029    0.555924    11.00000   -1.20000
AFIX   0
C10   1    0.868496    0.323541    0.605037    11.00000    0.01722    0.03010 =
         0.01840    0.00874    0.00377    0.00550
AFIX 137
H10A  2    0.905000    0.259013    0.528238    11.00000   -1.50000
H10B  2    0.909059    0.267476    0.700967    11.00000   -1.50000
H10C  2    0.950511    0.422313    0.615953    11.00000   -1.50000
AFIX   0
N1    3    0.547406    0.425351    0.400633    11.00000    0.01143    0.01412 =
         0.01253    0.00041    0.00271   -0.00101
N2    3    0.324153    0.417216    0.315793    11.00000    0.01126    0.01557 =
         0.01411    0.00079    0.00314    0.00021
O1    4    0.173335    0.343455    0.365704    11.00000    0.01266    0.02436 =
         0.02185    0.00231    0.00700   -0.00508
HKLF 4




REM  p21-multi_a.res in P2(1)
REM R1 =  0.0381 for    1761 Fo > 4sig(Fo)  and  0.0382 for all    1770 data
REM    120 parameters refined using      1 restraints

END

WGHT      0.0647      0.0340

REM Highest difference peak  0.392,  deepest hole -0.641,  1-sigma level  0.180
Q1    1   1.1284  0.4561  0.8028  11.00000  0.05    0.39
Q2    1   0.7651  0.6061  0.6237  11.00000  0.05    0.38
Q3    1  -0.0589  0.3011 -0.0522  11.00000  0.05    0.38
Q4    1   0.9636  0.5578  0.7004  11.00000  0.05    0.38
Q5    1   0.6454  0.9160  0.0768  11.00000  0.05    0.35
Q6    1   0.6234  0.1141  0.5474  11.00000  0.05    0.35
Q7    1   0.2794  0.4437 -0.1237  11.00000  0.05    0.34
Q8    1   0.6140  0.6061  0.5392  11.00000  0.05    0.33
Q9    1   0.5502  0.3976  0.9366  11.00000  0.05    0.30
Q10   1   0.3419  0.9247 -0.0389  11.00000  0.05    0.28
Q11   1   0.8786  0.0656  0.6381  11.00000  0.05    0.25
Q12   1   0.7902  0.1327  0.6469  11.00000  0.05    0.25
Q13   1   0.7953  0.1172  0.5880  11.00000  0.05    0.24
Q14   1   0.9074  0.0831  0.7174  11.00000  0.05    0.24
Q15   1  -0.2015  0.4375  0.1433  11.00000  0.05    0.23
Q16   1  -0.1318  0.4612  0.1968  11.00000  0.05    0.22
Q17   1   0.4372  0.3474  0.8078  11.00000  0.05    0.19
Q18   1   0.9880  0.2978  0.5250  11.00000  0.05    0.16
Q19   1   0.2272  0.3375  0.6782  11.00000  0.05    0.15
Q20   1   1.1596  0.2927  0.5883  11.00000  0.05    0.13
;
_shelx_res_checksum              70377
_shelx_hkl_file
;
  -1   0   0 5713.13  118.09
  -1   0   0 4486.85  118.19
  -1   0   0 5446.75  114.79
  -2   0   0  587.84   12.60
  -2   0   0  588.94   12.90
  -2   0   0  556.24   12.90
  -3   0   0  491.05   11.00
  -3   0   0  460.45   11.20
  -3   0   0  492.75   10.70
  -3   0   0  471.25   11.00
  -4   0   0 1146.19   25.60
  -4   0   0 1140.79   25.90
  -4   0   0 1187.28   25.10
  -4   0   0 1142.59   25.60
  -5   0   0  897.51   20.20
  -5   0   0  850.61   19.80
  -5   0   0  871.81   19.10
  -5   0   0  826.92   19.70
  -6   0   0  756.72   17.50
  -6   0   0  723.93   17.60
  -6   0   0  744.83   16.70
  -7   0   0   39.80    2.30
  -7   0   0   36.30    2.10
   0  -1   0   -8.10    0.20
   0  -1   0   -8.70    0.20
   0   1   0   -8.60    0.20
   0   1   0   -8.90    0.20
  -1  -1   0 1595.24   35.50
  -1  -1   0 1619.64   35.20
  -1   1   0 1625.34   35.60
  -1   1   0 1677.93   35.50
  -1   1   0 1685.03   35.60
  -1   1   0 1678.73   37.00
   1   1   0 1648.54   36.00
  -2  -1   0 3287.17   69.39
  -2  -1   0 3150.58   68.99
  -2  -1   0 3212.78   68.39
  -2   1   0 3127.09   68.79
  -2   1   0 3208.08   69.39
  -2   1   0 3108.19   67.59
   2   1   0 3093.79   69.49
  -2   1   0 3207.68   68.79
  -3  -1   0 2511.55   54.59
  -3  -1   0 2565.14   53.99
  -3  -1   0 2534.65   54.49
  -3   1   0 2447.35   54.29
   3   1   0 2590.54   54.49
  -3   1   0 2521.85   54.09
  -3   1   0 2541.85   54.39
  -3   1   0 2541.35   54.89
  -4  -1   0 1487.95   31.50
  -4  -1   0 1471.15   32.20
  -4  -1   0 1437.46   32.10
  -4   1   0 1449.06   32.50
   4   1   0 1464.75   32.10
  -4   1   0 1468.05   31.60
  -4   1   0 1438.06   31.80
  -4   1   0 1445.76   32.00
  -5  -1   0  936.11   21.90
  -5  -1   0  941.01   21.90
  -5  -1   0  965.80   21.10
  -5   1   0  973.60   21.20
  -5   1   0  934.01   21.70
  -5   1   0  969.90   21.60
  -5   1   0  961.90   22.40
   5   1   0  977.90   21.90
  -6  -1   0    7.80    1.10
  -6  -1   0    7.20    1.10
  -6   1   0    7.70    1.00
  -6   1   0    8.80    1.30
  -6   1   0    9.20    0.90
  -6   1   0    7.40    1.10
  -7  -1   0  355.96    9.70
  -7  -1   0  342.27    9.60
  -7   1   0  363.06    9.70
   0  -2   0 8514.45  179.48
   0  -2   0 8489.95  179.78
   0   2   0 8217.38  179.58
   1  -2   0 2195.48   47.80
  -1  -2   0 2113.29   47.20
  -1  -2   0 2228.68   47.70
   1  -2   0 2229.58   47.20
   1   2   0 2166.98   48.00
   1   2   0 2285.67   48.00
  -1   2   0 2227.38   48.10
  -1   2   0 2225.38   49.50
   2  -2   0  723.13   15.10
   2  -2   0  690.43   15.20
  -2  -2   0  696.53   15.10
  -2  -2   0  661.03   15.50
   2   2   0  712.13   15.20
   2   2   0  680.13   15.40
  -2   2   0  691.03   15.30
  -2   2   0  713.73   15.80
   3  -2   0  149.29    3.80
  -3  -2   0  151.08    3.70
  -3  -2   0  149.69    4.20
  -3   2   0  146.99    4.00
  -3   2   0  174.68    4.70
  -3   2   0  154.68    3.80
   3   2   0  149.49    4.00
   4  -2   0  248.58    6.00
  -4  -2   0  233.68    6.50
  -4  -2   0  247.48    5.80
  -4  -2   0  245.28    6.50
  -4   2   0  231.08    6.80
  -4   2   0  251.97    6.00
  -4   2   0  239.98    6.20
   4   2   0  254.97    6.20
  -5  -2   0  859.01   18.90
   5  -2   0  887.91   19.10
  -5  -2   0  833.02   19.90
  -5  -2   0  867.71   19.90
  -5   2   0  839.32   20.40
  -5   2   0  859.01   19.20
   5   2   0  830.42   19.50
  -5   2   0  868.71   19.60
  -6  -2   0    7.40    1.10
  -6   2   0   10.70    1.40
  -6   2   0    9.40    1.20
  -7  -2   0   63.39    3.10
  -7   2   0   62.99    3.00
  -7   2   0   62.99    3.50
   0   3   0   -1.40    0.20
  -1  -3   0  239.88    5.90
   1  -3   0  257.27    5.50
   1  -3   0  236.88    5.70
  -1  -3   0  238.98    5.60
   1   3   0  237.78    5.80
   1   3   0  249.08    5.80
  -1   3   0  272.17    5.70
  -2  -3   0  232.68    5.90
  -2  -3   0  239.18    5.30
   2  -3   0  233.08    5.50
   2  -3   0  238.58    5.20
   2   3   0  236.58    5.40
  -2   3   0  229.38    5.50
  -2   3   0  225.78    6.10
   2   3   0  228.78    5.70
  -3  -3   0  631.24   13.50
   3  -3   0  628.44   13.40
   3  -3   0  591.64   13.70
  -3  -3   0  588.94   14.20
  -3   3   0  606.24   14.60
  -3   3   0  615.74   13.80
   3   3   0  617.34   14.00
   3   3   0  622.74   13.70
   4  -3   0  566.84   12.40
   4  -3   0  557.34   12.60
  -4  -3   0  547.15   13.30
  -4  -3   0  563.74   12.30
   4   3   0  540.45   12.90
   4   3   0  552.94   12.60
  -4   3   0  542.25   12.80
  -4   3   0  535.35   13.70
  -5  -3   0  247.48    7.00
  -5  -3   0  248.98    6.00
  -5   3   0  247.68    7.40
  -5   3   0  251.87    6.60
   5   3   0  230.18    6.30
  -6  -3   0  103.39    4.00
  -6   3   0  100.89    4.40
  -6   3   0  101.99    3.70
  -7  -3   0  501.15   13.20
  -7   3   0  501.95   12.70
  -7   3   0  489.35   13.80
   0  -4   0  187.78    4.60
   0   4   0  188.18    4.90
   0   4   0  190.38    4.50
  -1  -4   0 2430.86   51.79
  -1  -4   0 2325.37   51.79
   1  -4   0 2419.86   51.59
   1  -4   0 2473.95   51.49
  -1   4   0 2385.56   52.99
   1   4   0 2489.45   51.69
  -1   4   0 2366.76   52.19
   1   4   0 2392.46   51.59
  -2  -4   0  157.88    4.50
   2  -4   0  180.68    3.80
  -2  -4   0  167.08    4.00
   2  -4   0  160.28    4.10
   2   4   0  165.48    4.10
   2   4   0  157.78    4.30
  -2   4   0  166.68    4.90
  -2   4   0  165.58    4.20
   3  -4   0 1437.96   30.10
  -3  -4   0 1389.26   31.20
  -3  -4   0 1451.65   30.40
   3  -4   0 1367.96   30.60
  -3   4   0 1354.16   31.60
   3   4   0 1443.76   30.50
  -3   4   0 1403.06   30.70
   3   4   0 1407.86   30.90
   4  -4   0  265.57    6.60
  -4  -4   0  267.57    6.30
  -4  -4   0  253.27    7.40
  -4   4   0  270.37    6.80
   4   4   0  269.47    6.50
  -4   4   0  266.77    7.70
  -5  -4   0  227.08    6.90
  -5   4   0  246.28    7.50
  -5   4   0  235.78    6.40
  -6  -4   0   15.70    1.60
  -6   4   0   17.80    1.50
  -6   4   0   17.60    1.80
  -7  -4   0    4.20    1.10
  -7   4   0    2.40    1.10
   0  -5   0   -0.10    0.20
   0  -5   0   -0.20    0.20
   0   5   0    2.40    0.40
   0   5   0   -0.10    0.30
  -1  -5   0   32.90    1.20
   1  -5   0   32.50    1.30
  -1  -5   0   32.90    1.40
   1  -5   0   33.90    1.10
  -1   5   0   32.40    1.20
   1   5   0   34.90    1.50
   1   5   0   32.40    1.30
  -1   5   0   30.50    1.70
  -2  -5   0  535.65   12.60
   2  -5   0  519.05   12.10
  -2  -5   0  525.15   11.90
   2  -5   0  545.65   11.60
   2   5   0  525.95   12.30
   2   5   0  560.44   12.20
  -2   5   0  530.05   12.10
  -2   5   0  529.05   13.10
   3  -5   0   58.29    2.10
  -3  -5   0   60.89    1.90
  -3  -5   0   57.79    2.50
   3   5   0   57.49    2.20
  -3   5   0   62.09    2.10
  -3   5   0   54.69    3.10
   3   5   0   61.39    2.00
  -4  -5   0  657.33   14.80
  -4   5   0  651.83   16.70
  -4   5   0  673.53   15.20
  -5  -5   0  490.75   12.80
  -5   5   0  476.35   13.20
  -5   5   0  502.65   12.00
  -6  -5   0   92.69    4.00
  -6   5   0   93.89    3.50
  -6   5   0   83.99    4.30
   0  -6   0 1127.89   24.60
   0  -6   0 1126.09   24.60
   0   6   0 1127.49   24.60
   0   6   0 1110.29   25.20
   1  -6   0   78.09    2.40
   1  -6   0   79.49    2.30
  -1  -6   0   78.49    2.70
  -1  -6   0   79.89    2.40
   1   6   0   80.99    2.70
  -1   6   0   82.39    3.10
  -1   6   0   79.19    2.40
   1   6   0   79.29    2.50
   2  -6   0  370.96    9.20
  -2  -6   0  386.76    9.60
  -2  -6   0  389.16    8.90
  -2   6   0  387.96    9.00
   2   6   0  392.46    9.20
  -2   6   0  390.16   10.20
   2   6   0  382.26    9.20
  -3  -6   0  158.68    4.10
  -3   6   0  156.98    4.30
   3   6   0  152.58    4.50
  -4  -6   0  307.97    7.40
  -4   6   0  319.37    7.90
   4   6   0  301.97    8.10
  -5   6   0    2.80    1.00
  -5   6   0    3.50    0.90
  -6  -6   0   52.29    3.00
  -6   6   0   48.60    3.30
   0  -7   0    0.00    0.30
   0  -7   0    0.10    0.30
   0   7   0    0.10    0.40
   0   7   0    0.00    0.40
  -1  -7   0   19.10    1.10
  -1  -7   0   16.80    1.20
  -1   7   0   16.40    1.40
  -1   7   0   21.40    1.10
   1   7   0   14.80    1.00
   1   7   0   16.20    1.30
   2  -7   0  448.26   10.90
  -2  -7   0  470.15   10.70
   2   7   0  464.05   11.00
  -2   7   0  470.75   10.80
  -3  -7   0   27.80    1.30
  -3   7   0   27.70    1.40
   3   7   0   28.60    1.60
   4   7   0  193.58    5.60
  -4   7   0  188.28    5.40
   5   7   0   66.79    2.90
   0  -8   0   26.60    1.40
   0  -8   0   22.00    1.30
   0   8   0   25.80    1.80
   0   8   0   25.40    1.40
  -1  -8   0  256.57    6.50
   1  -8   0  246.98    6.50
  -1  -8   0  259.27    6.80
   1   8   0  249.18    6.90
   1   8   0  250.57    6.50
  -1   8   0  256.37    6.40
   2  -8   0  129.79    4.00
  -2  -8   0  139.89    3.90
  -2   8   0  138.49    3.90
   2   8   0  135.29    4.10
  -3  -8   0  240.88    6.20
   3   8   0  243.58    6.60
  -3   8   0  248.98    6.40
   4   8   0  108.09    3.80
   5   8   0  173.38    5.60
   0  -9   0   -0.10    0.40
   0   9   0   -0.30    0.50
  -1  -9   0   18.40    1.30
   1  -9   0   18.20    1.30
   1   9   0   18.40    1.30
  -1   9   0   19.70    1.30
  -2  -9   0   17.00    1.20
   2  -9   0   16.10    1.30
   2   9   0   15.30    1.30
  -2   9   0   16.60    1.20
   3  -9   0  129.69    4.10
   3   9   0  125.59    4.20
  -3   9   0  127.19    4.00
   4   9   0   45.90    2.40
   0 -10   0   94.09    3.30
   0  10   0   96.09    3.30
  -1 -10   0  234.68    6.30
   1 -10   0  224.58    6.30
  -1  10   0  225.28    6.20
   1  10   0  228.68    6.30
   2 -10   0  230.68    6.50
  -2 -10   0  235.48    6.30
  -2  10   0  235.88    6.40
   2  10   0  232.08    6.50
  -7   0   1   23.10    1.80
  -7   0   1   25.70    1.80
  -6   0   1   28.00    1.50
  -6   0   1   30.90    1.80
  -6   0   1   28.20    1.70
  -6   0   1   30.90    2.00
  -5   0   1 1349.77   29.50
  -5   0   1 1315.47   29.20
  -5   0   1 1313.07   28.70
  -5   0   1 1262.97   29.10
  -4   0   1  210.08    5.30
  -4   0   1  208.48    5.60
  -4   0   1  231.18    5.90
  -4   0   1  216.28    5.70
  -3   0   1   14.80    0.70
  -3   0   1   16.90    1.00
  -3   0   1   17.20    0.90
  -3   0   1   15.90    0.90
  -2   0   1 1042.70   22.40
  -2   0   1 1024.80   22.30
  -2   0   1 1021.30   22.50
  -2   0   1 1049.09   22.50
  -1   0   1 6494.65  141.29
  -1   0   1 6682.73  141.39
   0   0  -1  435.06   10.80
   0   0   1  464.85    9.50
   0   0   1  449.56    9.70
   0   0  -1  431.26    9.60
  -1   0  -1  759.32   16.60
  -1   0  -1  764.02   16.50
   1   0   1  779.02   16.30
   1   0   1  756.72   16.70
  -2   0  -1  230.38    5.10
  -2   0  -1  226.98    5.40
  -2   0  -1  218.28    5.70
  -3   0  -1  131.29    3.20
  -3   0  -1  130.79    3.70
  -3   0  -1  132.09    3.90
  -3   0  -1  132.59    3.60
  -4   0  -1    1.20    0.40
   4   0   1    0.60    0.40
  -4   0  -1    1.40    0.30
  -4   0  -1    1.50    0.60
  -5   0  -1   87.79    3.30
  -5   0  -1   92.39    3.20
  -5   0  -1   89.39    2.60
   5   0   1   90.89    3.50
  -6   0  -1    0.80    0.50
  -6   0  -1    0.90    0.70
  -7   0  -1   17.40    1.70
  -7   0  -1   20.10    1.70
  -7  -1   1   45.70    2.50
  -7   1   1   47.00    2.40
  -7   1   1   46.90    2.80
  -7   1   1   49.30    2.40
  -7   1   1   47.60    2.10
  -6  -1   1 1247.58   28.10
  -6  -1   1 1234.18   28.00
  -6  -1   1 1253.47   27.20
   6   1  -1 1198.78   27.90
  -6   1   1 1213.58   28.50
  -6   1   1 1242.38   27.90
  -6   1   1 1248.58   27.80
  -6   1   1 1244.58   27.30
  -5  -1   1  486.45   11.90
  -5  -1   1  486.05   11.80
  -5  -1   1  488.85   11.30
  -5   1   1  489.15   11.40
  -5   1   1  491.05   11.60
  -5   1   1  493.45   12.20
   5   1  -1  493.35   11.80
  -5   1   1  494.35   11.70
  -4  -1   1   65.09    2.30
  -4  -1   1   65.69    2.30
  -4  -1   1   65.09    2.00
  -4   1   1   67.49    2.60
  -4   1   1   65.69    2.10
  -4   1   1   68.29    2.30
  -4   1   1   64.89    2.20
  -3  -1   1  789.02   17.60
  -3  -1   1  775.92   17.20
  -3  -1   1  792.82   17.50
  -3  -1   1  798.52   17.70
  -3   1   1  784.72   17.40
  -3   1   1  778.52   17.80
  -3   1   1  779.02   17.30
  -3   1   1  809.92   17.40
  -2  -1   1  663.13   14.70
  -2  -1   1  687.03   14.70
  -2  -1   1  678.53   15.00
  -2   1   1  690.13   14.70
  -2   1   1  684.93   14.80
  -2   1   1  684.23   14.80
   2   1  -1  657.53   14.80
  -2   1   1  658.83   15.10
  -1  -1   1 8284.87  173.18
  -1   1   1 8261.87  172.48
   1   1  -1 7956.70  172.28
  -1   1   1 7739.03  173.88
   0  -1  -1 3012.10   79.09
   0   1  -1 3386.76   75.39
   0   1  -1 3361.26   76.19
   0   1   1 3685.63   74.29
  -1  -1  -1  445.46    9.80
   1  -1   1  440.66    9.60
  -1  -1  -1  435.36    9.80
  -1   1  -1  438.56    9.50
  -1   1  -1  441.26   10.00
  -1   1  -1  436.46    9.70
   1   1   1  439.26    9.80
  -2  -1  -1 2348.36   52.79
  -2  -1  -1 2501.85   51.19
   2  -1   1 2414.96   50.99
  -2  -1  -1 2390.06   51.49
  -2   1  -1 2371.86   51.69
   2   1   1 2308.57   51.39
  -2   1  -1 2387.86   52.19
  -2   1  -1 2441.16   52.39
  -3  -1  -1 2489.25   54.39
   3  -1   1 2539.05   53.79
  -3  -1  -1 2572.14   54.49
  -3  -1  -1 2607.64   53.69
  -3   1  -1 2396.46   53.99
   3   1   1 2492.55   54.39
  -3   1  -1 2465.85   54.29
  -3   1  -1 2606.94   54.89
  -4  -1  -1  305.47    7.00
  -4  -1  -1  305.47    7.80
   4  -1   1  303.97    7.10
  -4  -1  -1  302.47    7.90
   4   1   1  301.87    7.80
  -4   1  -1  313.47    8.30
  -4   1  -1  299.27    7.70
  -4   1  -1  312.57    7.50
  -5  -1  -1  950.70   22.20
  -5  -1  -1  954.90   22.10
   5  -1   1  991.10   21.20
   5   1   1  973.80   22.20
  -5   1  -1  954.50   22.70
  -5   1  -1  953.30   22.10
  -5   1  -1  966.50   21.70
  -6  -1  -1   50.69    2.50
  -6  -1  -1   50.99    2.60
  -6   1  -1   54.39    2.60
  -6   1  -1   54.49    2.40
  -7  -1  -1  109.09    4.40
  -7  -1  -1  116.89    4.40
  -7   1  -1  116.29    4.40
  -7  -2   1   42.80    2.50
  -7   2   1   40.90    2.70
  -7   2   1   43.30    2.30
  -6  -2   1  330.17    8.20
  -6  -2   1  335.17    9.10
  -6   2   1  339.67    8.50
  -6   2   1  341.37    8.70
  -6   2   1  333.67    8.30
  -6   2   1  343.57    9.60
  -5  -2   1  112.39    3.90
  -5  -2   1  117.89    3.30
  -5   2   1  116.89    3.50
  -5   2   1  112.39    4.20
  -5   2   1  114.99    3.60
  -5   2   1  116.09    3.40
   5   2  -1  116.99    3.50
  -4  -2   1  363.96    8.40
  -4  -2   1  356.86    9.10
   4   2  -1  363.46    8.80
  -4   2   1  374.16    8.60
  -4   2   1  374.16    8.70
  -4   2   1  371.86    8.60
   4   2  -1  364.36    8.60
  -4   2   1  356.66    9.40
  -3  -2   1 1983.30   42.20
   3  -2  -1 2018.50   42.30
   3   2  -1 1987.10   42.20
  -3   2   1 1853.11   43.00
   3   2  -1 1960.90   42.50
  -3   2   1 1964.30   42.40
  -3   2   1 2020.20   42.40
  -2  -2   1 1099.39   23.40
   2  -2  -1 1098.29   23.40
  -2   2   1 1089.69   23.40
  -2   2   1 1073.89   24.00
  -2   2   1 1067.29   23.50
   1  -2  -1 5288.87  119.59
  -1  -2   1 4783.72  119.29
  -1   2   1 4849.41  133.39
   1   2  -1 5192.08  121.59
   0  -2   1 8503.75  193.88
   0  -2  -1 9999.00  192.38
   0   2  -1 7578.04  196.98
   0   2   1 8508.85  206.68
   1  -2   1 3648.03   77.49
  -1  -2  -1 3557.74   76.69
  -1  -2  -1 3382.36   77.69
   1   2   1 3639.24   77.89
  -1   2  -1 3775.52   77.89
  -1   2  -1 3498.95   79.49
   1   2   1 3580.84   77.99
  -2  -2  -1  482.75   10.40
  -2  -2  -1  480.15   11.10
  -2  -2  -1  472.65   11.10
   2  -2   1  477.15   10.60
  -2   2  -1  501.45   10.50
   2   2   1  476.15   10.90
  -2   2  -1  474.35   10.90
  -2   2  -1  478.75   11.40
   3  -2   1  427.86    9.80
  -3  -2  -1  443.06    9.60
  -3  -2  -1  447.16   10.40
  -3  -2  -1  436.46   10.40
  -3   2  -1  430.96   10.20
   3   2   1  425.36   10.20
  -3   2  -1  425.36   10.80
  -3   2  -1  451.65    9.80
  -4  -2  -1  843.12   19.60
  -4  -2  -1  880.51   18.60
  -4  -2  -1  846.02   19.60
   4  -2   1  875.51   18.80
  -4   2  -1  821.52   20.00
  -4   2  -1  854.51   18.90
   4   2   1  874.11   19.40
  -4   2  -1  837.42   19.40
   5  -2   1  476.15   11.10
  -5  -2  -1  490.05   12.00
  -5  -2  -1  475.75   12.00
   5   2   1  484.55   11.80
  -5   2  -1  492.45   12.70
  -5   2  -1  479.05   11.90
  -5   2  -1  474.95   11.30
  -6  -2  -1   14.10    1.40
  -6  -2  -1   13.30    1.40
  -6   2  -1   14.80    1.40
  -6   2  -1   14.20    1.60
  -7  -2  -1  198.38    6.50
  -7  -2  -1  196.38    6.40
  -7   2  -1  190.78    6.20
  -7  -3   1  202.18    6.60
  -7   3   1  202.28    7.10
  -6  -3   1  228.18    7.00
  -6   3   1  241.18    6.60
  -6   3   1  235.08    7.40
   5  -3  -1 1331.97   29.80
  -5  -3   1 1388.46   29.70
  -5  -3   1 1327.17   30.70
  -5   3   1 1424.16   30.20
  -5   3   1 1339.37   31.30
  -4  -3   1   52.79    2.30
  -4  -3   1   54.49    1.80
   4  -3  -1   53.19    1.80
  -4   3   1   53.99    1.90
  -4   3   1   51.79    2.50
   4   3  -1   52.69    1.70
   4   3  -1   53.19    2.10
   3  -3  -1 1330.57   28.10
   3  -3  -1 1298.07   28.30
  -3  -3   1 1325.87   28.20
  -3   3   1 1303.97   28.20
   3   3  -1 1315.57   27.90
  -3   3   1 1247.58   29.10
   3   3  -1 1290.17   28.50
   2  -3  -1  958.20   20.10
   2  -3  -1  923.81   20.30
  -2  -3   1  927.51   20.70
  -2  -3   1  939.01   20.20
   2   3  -1  929.31   20.40
  -2   3   1  898.81   21.00
  -2   3   1  943.41   20.20
   1  -3  -1  895.51   19.90
   1  -3  -1  920.81   19.90
  -1  -3   1  928.21   19.90
  -1  -3   1  916.91   20.10
   1   3  -1  948.21   19.90
  -1   3   1  937.41   20.50
  -1   3   1  901.51   19.80
   0  -3  -1 1335.77   28.80
   0  -3   1 1346.97   28.80
   0  -3  -1 1348.86   29.00
   0  -3   1 1324.97   28.90
   0   3  -1 1334.57   29.10
   0   3  -1 1347.47   29.20
   0   3   1 1367.26   29.20
   0   3   1 1353.86   28.80
  -1  -3  -1   38.80    1.10
  -1  -3  -1   38.90    1.50
   1  -3   1   38.40    1.20
  -1   3  -1   39.80    1.60
   1   3   1   38.40    1.40
  -1   3  -1   39.40    1.30
   1   3   1   39.60    1.30
  -2  -3  -1 2529.85   55.49
   2  -3   1 2538.05   54.99
  -2  -3  -1 2566.74   55.09
  -2   3  -1 2602.84   55.19
  -2   3  -1 2527.85   55.79
   2   3   1 2576.94   55.29
   2   3   1 2663.23   55.19
   3  -3   1  852.91   19.10
  -3  -3  -1  882.41   19.80
  -3  -3  -1  877.61   18.80
   3   3   1  879.11   19.40
  -3   3  -1  860.41   19.40
  -3   3  -1  858.61   20.20
   3   3   1  877.51   19.60
   4  -3   1  910.51   19.90
  -4  -3  -1  918.71   19.60
  -4  -3  -1  899.81   20.80
  -4   3  -1  883.81   20.40
  -4   3  -1  911.41   19.70
   4   3   1  919.71   20.40
  -4   3  -1  876.91   21.30
  -5  -3  -1  252.97    7.30
   5   3   1  254.87    6.80
  -5   3  -1  255.07    7.00
  -5   3  -1  253.57    7.80
  -6  -3  -1   57.89    2.90
  -6   3  -1   59.39    3.30
  -6   3  -1   58.99    2.80
  -7  -3  -1  298.47    8.80
  -7   3  -1  289.17    9.50
  -7   3  -1  293.57    8.50
  -7  -4   1   15.00    1.70
  -7   4   1   16.00    1.90
  -6  -4   1  340.27    9.50
  -6   4   1  322.07    9.90
  -6   4   1  356.36    8.90
  -5  -4   1  669.13   14.90
  -5  -4   1  662.63   16.00
  -5   4   1  629.94   16.40
  -5   4   1  668.33   15.30
   4  -4  -1  154.38    5.00
   4  -4  -1  175.88    4.30
  -4  -4   1  181.48    4.40
  -4   4   1  176.38    4.60
  -4   4   1  170.08    5.50
  -3  -4   1  150.48    4.40
   3  -4  -1  151.58    4.00
   3  -4  -1  153.48    3.70
  -3  -4   1  154.48    3.80
   3   4  -1  141.79    4.10
  -3   4   1  143.19    4.70
  -3   4   1  150.58    3.90
   3   4  -1  154.48    3.60
   2  -4  -1 1797.02   38.40
   2  -4  -1 1743.53   38.60
  -2  -4   1 1800.32   38.50
  -2  -4   1 1787.22   39.00
   2   4  -1 1791.02   38.80
  -2   4   1 1816.72   38.50
  -2   4   1 1738.13   39.50
   2   4  -1 1866.31   38.40
  -1  -4   1    3.90    0.50
   1  -4  -1    4.30    0.40
  -1  -4   1    3.80    0.40
   1  -4  -1    6.50    0.50
   1   4  -1    4.60    0.50
  -1   4   1    4.20    0.40
   1   4  -1    5.00    0.50
  -1   4   1    4.20    0.60
   0  -4  -1  284.87    6.40
   0  -4   1  276.17    6.40
   0  -4   1  282.07    6.50
   0  -4  -1  280.67    6.60
   0   4   1  274.47    6.40
   0   4   1  287.57    6.90
   0   4  -1  274.67    6.80
   0   4  -1  279.07    6.50
  -1  -4  -1  488.35   10.70
  -1  -4  -1  490.75   11.30
   1  -4   1  478.05   10.90
  -1   4  -1  490.65   11.00
  -1   4  -1  479.65   11.50
   1   4   1  482.65   11.10
   1   4   1  500.55   11.00
   2  -4   1  214.08    5.30
  -2  -4  -1  221.88    5.80
  -2  -4  -1  220.88    5.10
   2   4   1  213.48    5.50
  -2   4  -1  215.18    6.10
   2   4   1  222.88    5.50
  -2   4  -1  223.68    5.40
   3  -4   1  143.99    3.80
  -3  -4  -1  147.29    3.50
  -3  -4  -1  145.99    4.40
   3   4   1  149.09    4.00
   3   4   1  144.29    4.20
  -3   4  -1  138.99    4.80
  -3   4  -1  147.39    4.10
   4  -4   1  531.45   12.50
  -4  -4  -1  543.15   13.40
  -4   4  -1  526.55   13.80
  -4   4  -1  561.64   12.90
   4   4   1  560.84   12.70
  -5  -4  -1  153.68    5.20
  -5   4  -1  153.48    4.70
  -5   4  -1  140.09    5.40
  -6  -4  -1  176.88    6.10
  -6   4  -1  180.98    6.60
  -6   4  -1  182.88    5.70
  -6  -5   1   38.10    2.40
  -6   5   1   37.00    2.70
  -5  -5   1   79.29    2.50
  -5   5   1   80.19    2.80
  -5   5   1   71.99    3.60
  -4  -5   1  513.05   11.50
  -4   5   1  509.15   11.60
  -4   5   1  474.45   12.90
  -3  -5   1  708.63   16.70
   3  -5  -1  722.03   15.70
  -3  -5   1  718.73   16.00
   3  -5  -1  705.13   16.20
  -3   5   1  703.43   17.30
  -3   5   1  754.82   16.00
   3   5  -1  711.33   16.30
  -2  -5   1  185.58    5.10
   2  -5  -1  190.98    4.50
   2  -5  -1  173.98    4.70
  -2  -5   1  186.78    4.60
  -2   5   1  184.18    5.50
   2   5  -1  190.98    4.60
   2   5  -1  180.48    4.80
  -2   5   1  189.98    4.50
   1  -5  -1   13.40    0.80
  -1  -5   1   13.20    0.80
  -1  -5   1   11.80    0.70
   1  -5  -1   12.60    0.70
   1   5  -1   12.90    0.80
  -1   5   1   12.70    1.10
   1   5  -1   12.90    0.80
  -1   5   1   12.70    0.70
   0  -5  -1  305.67    7.30
   0  -5  -1  298.87    7.00
   0  -5   1  304.07    7.10
   0  -5   1  299.27    7.00
   0   5   1  297.97    7.60
   0   5  -1  305.57    7.10
   0   5  -1  304.57    7.50
   0   5   1  304.27    7.10
  -1  -5  -1  844.72   18.20
   1  -5   1  848.62   18.00
  -1  -5  -1  821.92   18.70
   1  -5   1  829.92   18.40
   1   5   1  851.81   18.50
  -1   5  -1  830.82   19.10
  -1   5  -1  790.52   18.30
   1   5   1  842.72   18.70
  -2  -5  -1  485.05   11.50
   2  -5   1  462.15   10.90
  -2  -5  -1  466.65   10.60
  -2   5  -1  493.25   11.00
   2   5   1  491.95   11.10
   2   5   1  458.05   11.00
  -2   5  -1  473.65   11.90
   3  -5   1  102.79    3.50
  -3  -5  -1  117.49    3.00
   3   5   1  112.79    3.50
   3   5   1  120.49    3.40
  -3   5  -1  111.79    3.40
  -4   5  -1  299.87    7.70
   4   5   1  299.97    7.90
  -5  -5  -1  110.09    4.40
  -5   5  -1  113.99    4.70
  -5   5  -1  108.59    3.80
  -6  -5  -1   87.89    3.90
  -6   5  -1   77.99    4.20
  -6   5  -1   85.39    3.50
  -6   6   1  154.88    6.20
  -5   6   1  116.19    4.90
  -4  -6   1   98.99    3.00
  -4   6   1  101.89    3.20
  -3  -6   1  259.57    6.40
   3   6  -1  256.67    6.70
  -3   6   1  263.27    6.40
  -2  -6   1 1048.80   22.90
  -2  -6   1 1017.40   22.30
   2  -6  -1 1003.70   22.40
   2  -6  -1 1057.49   22.10
  -2   6   1 1033.30   22.20
   2   6  -1 1009.30   22.50
   2   6  -1 1017.10   22.30
  -2   6   1  911.21   23.40
  -1  -6   1  137.39    3.70
  -1  -6   1  135.99    3.90
   1  -6  -1  134.49    3.70
   1  -6  -1  143.39    3.70
  -1   6   1  135.79    3.60
   1   6  -1  131.49    3.90
  -1   6   1  140.39    4.50
   1   6  -1  134.99    3.80
   0  -6  -1   97.19    2.80
   0  -6   1   98.99    2.90
   0  -6  -1   99.89    3.00
   0  -6   1   98.79    2.80
   0   6   1  100.39    3.40
   0   6   1  100.49    2.80
   0   6  -1  100.39    3.30
   0   6  -1   99.89    2.90
  -1  -6  -1  525.65   12.10
   1  -6   1  492.85   11.70
  -1  -6  -1  512.15   11.50
   1   6   1  506.55   11.70
  -1   6  -1  497.75   11.60
  -1   6  -1  513.05   12.50
   1   6   1  523.25   12.10
  -2  -6  -1   76.79    2.30
  -2  -6  -1   78.69    2.90
   2   6   1   75.99    2.60
   2   6   1   78.19    2.70
  -2   6  -1   79.49    2.50
  -2   6  -1   76.19    3.20
  -3  -6  -1   16.30    0.90
  -3   6  -1   16.70    1.10
   3   6   1   15.50    1.20
  -4   6  -1  725.63   16.80
   4   6   1  718.13   17.00
   5   6   1  302.87    8.50
  -5   6  -1  319.97    8.40
  -6  -6  -1   71.79    3.60
  -6   6  -1   68.89    3.10
  -6   6  -1   63.49    3.80
  -6   7   1   52.99    3.60
  -4  -7   1  551.24   12.80
   4   7  -1  551.54   13.30
  -3  -7   1   29.80    1.40
   3  -7  -1   30.90    1.50
  -3   7   1   29.90    1.40
   3   7  -1   29.70    1.60
  -2  -7   1  283.87    7.40
  -2  -7   1  276.97    6.80
   2  -7  -1  278.77    6.90
   2   7  -1  272.87    7.00
  -2   7   1  271.77    6.70
   1  -7  -1  160.38    4.30
   1  -7  -1  157.78    4.30
  -1  -7   1  161.68    4.60
  -1  -7   1  162.28    4.40
   1   7  -1  161.78    4.70
   1   7  -1  157.48    4.40
  -1   7   1  165.98    4.20
  -1   7   1  160.68    5.20
   0  -7   1  373.96    9.00
   0  -7  -1  371.86    9.00
   0  -7   1  372.26    9.00
   0  -7  -1  390.46    9.30
   0   7   1  392.06    9.90
   0   7  -1  385.86    9.10
   0   7   1  381.26    9.00
   0   7  -1  380.66    9.70
   1  -7   1  524.55   12.30
  -1  -7  -1  529.55   12.10
  -1  -7  -1  544.15   12.70
   1   7   1  544.15   12.90
  -1   7  -1  531.75   13.20
  -1   7  -1  523.05   12.20
   1   7   1  518.95   12.20
  -2  -7  -1  477.05   11.00
   2   7   1  487.95   11.60
   2   7   1  482.45   11.40
  -2   7  -1  476.05   11.30
   3   7   1   84.19    3.10
  -3   7  -1   85.89    3.00
   4   7   1  138.69    4.50
  -4   7  -1  144.19    4.50
  -5   7  -1  260.07    7.40
   5   7   1  270.57    7.60
   5   8  -1   16.30    1.50
  -4  -8   1   86.89    2.90
   4   8  -1   92.19    3.40
   3  -8  -1  270.17    7.00
  -3  -8   1  274.27    6.70
  -3   8   1  249.28    6.70
   3   8  -1  267.97    7.10
  -2  -8   1   85.69    2.80
   2  -8  -1   80.99    2.80
   2   8  -1   80.69    2.90
  -2   8   1   82.19    2.60
  -1  -8   1  215.88    5.60
  -1  -8   1  210.28    5.80
   1  -8  -1  211.98    5.60
   1   8  -1  212.98    5.70
  -1   8   1  214.98    5.50
   0  -8  -1  264.47    6.90
   0  -8  -1  256.77    6.60
   0  -8   1  257.57    6.70
   0   8  -1  260.67    6.70
   0   8   1  265.37    6.60
   0   8  -1  260.97    7.30
  -1  -8  -1  145.89    4.00
   1  -8   1  138.89    4.10
   1   8   1  145.09    4.10
   1   8   1  135.99    4.60
  -1   8  -1  136.99    4.00
  -2  -8  -1   47.40    1.80
   2   8   1   47.50    2.10
  -2   8  -1   49.30    2.10
   3   8   1  211.68    6.00
  -3   8  -1  206.98    5.80
  -4   8  -1  279.27    7.50
   4   8   1  274.67    7.60
   4   9  -1   17.90    1.50
  -3  -9   1  349.17    8.50
   3   9  -1  334.07    8.90
  -2  -9   1  541.25   12.50
   2  -9  -1  511.65   12.60
   2   9  -1  529.65   12.70
  -2   9   1  530.05   12.40
  -1  -9   1  185.48    5.20
   1  -9  -1  177.38    5.10
   1   9  -1  188.48    5.30
  -1   9   1  188.78    5.00
   0  -9  -1  263.77    6.80
   0  -9   1  265.97    7.00
   0   9  -1  268.37    7.00
   0   9   1  265.57    6.80
  -1  -9  -1  265.47    6.70
   1  -9   1  245.48    6.80
  -1   9  -1  261.57    6.80
   1   9   1  253.57    6.70
  -2  -9  -1  367.26    8.80
   2  -9   1  352.46    9.10
   2   9   1  365.66    9.20
  -2   9  -1  363.96    9.10
  -3   9  -1  425.56   10.60
   3   9   1  420.66   10.60
   4   9   1  100.99    3.80
   3 -10  -1   31.30    1.90
  -3 -10   1   29.50    1.70
   3  10  -1   28.90    1.90
  -2 -10   1  148.89    4.40
   2 -10  -1  138.09    4.50
   2  10  -1  140.39    4.50
  -1 -10   1  199.18    5.70
   1 -10  -1  199.18    5.70
  -1  10   1  202.58    5.60
   1  10  -1  206.58    5.90
   0 -10   1   91.79    3.30
   0 -10  -1   95.49    3.30
   0  10  -1   95.49    3.30
   0  10   1   93.99    3.20
   1 -10   1   88.99    3.40
  -1 -10  -1  100.99    3.30
   1  10   1   97.29    3.40
  -1  10  -1   95.79    3.40
   2 -10   1   14.00    1.40
   2  10   1   13.50    1.30
  -2  10  -1   15.10    1.30
  -7   0   2   33.00    1.70
  -7   0   2   34.00    2.10
  -6   0   2  186.78    5.60
  -6   0   2  194.38    5.90
  -6   0   2  193.98    5.50
  -6   0   2  197.08    5.20
  -5   0   2  659.93   15.20
  -5   0   2  647.24   14.90
  -5   0   2  617.14   15.00
  -5   0   2  646.74   14.60
  -4   0   2    0.40    0.30
  -4   0   2    0.30    0.30
  -4   0   2    0.20    0.30
  -4   0   2    0.90    0.40
  -3   0   2 2222.88   47.50
  -3   0   2 2139.59   47.70
  -3   0   2 2285.27   47.80
  -2   0   2   16.40    0.80
  -2   0   2   15.60    0.80
  -2   0   2   15.50    0.70
   2   0  -2   16.90    0.60
  -1   0   2 1171.68   24.70
   1   0  -2 1065.49   24.70
  -1   0   2 1223.48   25.50
   0   0   2  462.45    9.80
   0   0  -2  443.96    9.90
   0   0   2  449.26   10.10
   0   0  -2  443.06    9.90
   1   0   2 6687.23  142.89
  -1   0  -2 6329.27  140.59
  -1   0  -2 6577.74  141.59
   2   0   2 1356.76   28.30
  -2   0  -2 1353.66   28.80
  -2   0  -2 1329.87   29.00
   2   0   2 1271.87   29.10
   3   0   2    8.80    0.90
  -3   0  -2    5.50    0.60
   3   0   2    6.90    0.40
  -3   0  -2    5.50    0.70
   4   0   2 1349.47   28.90
  -4   0  -2 1313.27   30.00
  -4   0  -2 1344.57   29.70
   4   0   2 1370.06   30.30
  -5   0  -2   68.09    2.90
  -5   0  -2   73.09    2.80
  -6   0  -2  168.88    5.30
  -6   0  -2  168.68    5.60
  -7   0  -2   44.60    2.70
  -7  -1   2   28.30    2.00
  -7  -1   2   29.60    1.60
  -7   1   2   30.90    1.90
  -7   1   2   30.80    1.70
  -7   1   2   31.20    1.90
  -7   1   2   29.50    2.20
  -6  -1   2  155.98    5.00
  -6  -1   2  159.28    4.50
  -6   1   2  160.58    4.50
  -6   1   2  160.88    4.70
  -6   1   2  159.98    4.80
  -6   1   2  154.68    5.20
  -5  -1   2  332.57    8.10
  -5  -1   2  325.37    8.60
  -5  -1   2  342.37    8.40
  -5   1   2  333.67    8.80
   5   1  -2  337.47    8.30
  -5   1   2  334.67    8.20
  -5   1   2  344.67    8.30
  -5   1   2  342.77    8.40
  -4  -1   2  441.06   10.20
  -4  -1   2  454.45   10.70
  -4  -1   2  442.86   10.40
  -4   1   2  447.06   10.80
   4   1  -2  448.16   10.30
  -4   1   2  448.06   10.30
  -4   1   2  440.26   10.30
  -4   1   2  443.36   10.50
  -3  -1   2 2133.39   46.70
  -3  -1   2 2121.79   46.30
  -3  -1   2 2261.17   46.40
  -3   1   2 2103.19   46.40
  -3   1   2 2071.59   46.80
   3   1  -2 2132.79   46.30
  -3   1   2 2199.58   46.40
  -3   1   2 2256.47   46.30
  -2  -1   2  173.58    4.30
  -2  -1   2  197.78    4.20
  -2  -1   2  187.18    4.60
   2  -1  -2  181.78    4.50
   2   1  -2  174.68    4.30
  -2   1   2  181.38    4.70
  -2   1   2  188.48    4.20
  -2   1   2  179.68    4.40
  -1  -1   2 3890.01   91.69
  -1  -1   2 4469.75   91.89
  -1  -1   2 4234.88   91.19
   1  -1  -2 4438.66   91.89
  -1   1   2 3955.90  102.79
  -1   1   2 4361.06   93.19
   1   1  -2 4329.87   91.39
   0  -1  -2   26.20    0.90
   0  -1  -2   24.40    0.90
   0  -1   2   24.10    0.80
   0  -1   2   24.90    1.00
   0   1  -2   24.50    0.80
   0   1   2   22.40    1.00
   0   1   2   24.00    0.70
   0   1  -2   23.70    0.80
  -1  -1  -2  326.87    7.60
  -1  -1  -2  325.17    7.60
   1  -1   2  336.27    7.30
  -1   1  -2  340.67    7.30
   1   1   2  328.67    7.70
  -1   1  -2  324.17    7.50
   2  -1   2 2931.91   59.39
  -2  -1  -2 2867.91   60.09
  -2  -1  -2 2753.82   61.49
  -2   1  -2 2740.53   61.19
   2   1   2 2760.72   60.09
  -2   1  -2 2759.02   62.19
  -2   1  -2 2753.02   60.09
   3  -1   2   94.89    2.50
  -3  -1  -2  102.69    3.10
  -3  -1  -2   95.39    3.10
   3   1   2   96.19    3.20
  -3   1  -2   94.79    3.10
  -3   1  -2  104.19    2.80
  -3   1  -2   98.79    3.40
   4  -1   2  511.35   12.90
  -4  -1  -2  506.35   12.40
   4  -1   2  524.95   11.50
  -4  -1  -2  524.75   12.60
  -4   1  -2  509.95   12.50
   4   1   2  508.65   11.30
   4   1   2  529.65   12.70
  -4   1  -2  539.85   12.10
  -5  -1  -2  211.58    6.10
  -5  -1  -2  206.48    6.20
  -5   1  -2  205.68    6.10
  -5   1  -2  215.58    5.80
  -6  -1  -2  249.18    7.20
  -6  -1  -2  243.38    7.30
  -6   1  -2  246.78    7.30
  -7  -1  -2   27.60    2.00
  -7  -1  -2   25.00    2.00
  -7   1  -2   24.70    2.00
  -7  -2   2   15.00    1.60
  -7   2   2   16.40    1.30
  -7   2   2   15.50    1.70
  -6  -2   2  701.63   17.20
  -6  -2   2  707.03   16.30
  -6   2   2  705.13   16.50
  -6   2   2  737.83   16.70
  -6   2   2  734.83   17.70
  -5  -2   2 1238.08   28.50
   5  -2  -2 1274.87   28.00
  -5  -2   2 1266.17   27.80
   5   2  -2 1281.97   28.10
  -5   2   2 1287.77   28.00
  -5   2   2 1234.58   28.80
  -5   2   2 1288.77   28.00
   4  -2  -2    8.80    0.70
  -4  -2   2    7.30    0.80
  -4  -2   2   12.60    0.80
   4   2  -2   10.80    0.80
  -4   2   2   10.30    1.00
  -4   2   2    8.20    0.70
  -4   2   2    8.30    0.70
   4   2  -2    8.70    0.60
  -3  -2   2  193.28    5.10
   3  -2  -2  195.68    4.70
  -3  -2   2  186.78    4.70
   3   2  -2  189.08    4.70
  -3   2   2  190.58    4.80
   3   2  -2  200.78    4.40
  -3   2   2  192.88    4.60
  -3   2   2  171.68    5.20
  -2  -2   2  254.47    6.30
  -2  -2   2  257.77    6.00
   2  -2  -2  253.47    6.00
  -2   2   2  258.87    6.10
  -2   2   2  265.47    6.60
  -2   2   2  267.07    5.80
   2   2  -2  262.17    6.10
  -1  -2   2 6680.23  147.19
  -1  -2   2 7171.48  156.58
   1  -2  -2 6792.82  153.08
  -1   2   2 5794.62  166.08
   0  -2   2 3892.61   83.59
   0  -2  -2 3904.51   83.09
   0  -2  -2 3757.62   84.59
   0   2  -2 3769.72   84.19
   0   2   2 3930.01   83.49
   0   2  -2 3846.02   85.09
   0   2   2 3864.71   85.29
   0   2  -2 4087.89   83.69
   1  -2   2  538.45   11.80
  -1  -2  -2  535.15   12.10
  -1  -2  -2  542.15   12.10
  -1   2  -2  531.35   12.00
   1   2   2  546.25   12.10
  -1   2  -2  531.95   12.40
  -2  -2  -2 1085.39   24.30
  -2  -2  -2 1108.09   24.30
   2  -2   2 1095.29   23.70
  -2   2  -2 1075.99   24.10
   2   2   2 1114.59   24.30
  -2   2  -2 1105.89   24.70
  -2   2  -2 1110.89   23.60
  -3  -2  -2  587.34   13.60
   3  -2   2  580.94   12.80
  -3  -2  -2  586.94   13.60
  -3   2  -2  564.94   13.40
  -3   2  -2  580.14   14.10
  -3   2  -2  587.04   12.90
   3   2   2  579.94   13.60
   4  -2   2  181.98    4.60
  -4  -2  -2  182.68    5.40
  -4  -2  -2  187.88    5.40
   4   2   2  187.98    5.40
  -4   2  -2  184.98    4.80
  -4   2  -2  188.38    5.90
  -4   2  -2  183.58    5.30
  -5  -2  -2  466.15   11.70
   5  -2   2  445.96   10.50
  -5  -2  -2  454.65   11.60
  -5   2  -2  473.45   12.40
  -5   2  -2  454.15   11.50
  -6  -2  -2   77.19    3.30
  -6  -2  -2   76.59    3.40
  -6   2  -2   73.89    3.30
  -7  -2  -2   26.60    2.10
  -7  -2  -2   26.50    2.10
  -7   2  -2   24.60    2.00
  -7  -3   2   23.90    1.90
  -7   3   2   23.70    2.20
  -6  -3   2  272.27    6.80
   6  -3  -2  258.17    7.00
  -6  -3   2  262.57    7.70
  -6   3   2  272.47    7.00
  -6   3   2  273.57    8.20
  -5  -3   2   42.00    1.70
   5  -3  -2   37.70    1.60
  -5  -3   2   41.00    2.10
  -5   3   2   40.60    1.80
  -5   3   2   40.30    2.30
  -5   3   2   40.30    1.70
  -4  -3   2  263.97    6.40
   4  -3  -2  266.37    6.40
  -4   3   2  260.87    6.50
  -4   3   2  271.07    6.40
  -4   3   2  255.17    7.30
   4   3  -2  257.27    6.60
   3  -3  -2 1468.05   31.00
  -3  -3   2 1416.56   31.60
  -3  -3   2 1462.95   31.10
  -3   3   2 1382.36   31.90
   3   3  -2 1438.56   31.20
  -3   3   2 1447.46   30.90
  -3   3   2 1420.86   31.20
  -2  -3   2  335.67    7.50
  -2  -3   2  327.87    7.80
   2  -3  -2  324.47    7.40
   2   3  -2  328.37    7.60
  -2   3   2  310.37    7.50
  -2   3   2  325.87    8.20
  -2   3   2  332.97    7.20
   1  -3  -2 3474.45   74.49
   1  -3  -2 3473.65   73.89
  -1  -3   2 3408.46   74.19
  -1  -3   2 3484.95   73.89
   1   3  -2 3445.16   74.19
  -1   3   2 3284.77   74.69
   1   3  -2 3270.97   82.99
  -1   3   2 3457.65   73.39
   0  -3  -2 2392.16   50.19
   0  -3   2 2350.16   50.59
   0  -3  -2 2398.86   51.39
   0   3  -2 2305.87   50.79
   0   3   2 2324.87   50.39
   0   3   2 2370.86   50.79
   0   3  -2 2367.06   51.19
   1  -3   2  462.85   10.30
  -1  -3  -2  467.65   10.60
  -1  -3  -2  461.35   10.00
  -1   3  -2  456.25   10.80
   1   3   2  451.45   10.50
   1   3   2  449.76   10.40
   2  -3   2  142.99    3.60
  -2  -3  -2  139.19    4.00
  -2  -3  -2  149.19    3.30
   2   3   2  141.69    3.90
  -2   3  -2  140.79    3.90
  -2   3  -2  142.59    4.40
  -3  -3  -2   84.29    2.90
  -3  -3  -2   78.79    2.90
   3  -3   2   80.99    2.30
   3   3   2   83.19    2.80
  -3   3  -2   81.59    2.10
  -3   3  -2   80.19    2.70
  -3   3  -2   78.99    3.20
  -4  -3  -2  177.98    5.40
   4  -3   2  175.18    4.50
   4   3   2  180.38    5.10
  -4   3  -2  183.58    5.90
  -4   3  -2  175.08    5.10
  -5  -3  -2  196.08    6.00
  -5  -3  -2  186.58    5.90
  -5   3  -2  189.48    6.50
  -5   3  -2  191.38    5.80
  -6  -3  -2    6.70    1.40
  -6  -3  -2    6.20    1.20
  -6   3  -2    4.30    1.20
  -6   3  -2    8.10    1.20
  -7  -4   2   34.10    2.40
  -7   4   2   34.60    2.60
  -6  -4   2   68.59    2.50
  -6  -4   2   67.39    3.20
  -6   4   2   66.39    3.50
   5  -4  -2  422.76   10.10
  -5  -4   2  445.26   10.30
  -5   4   2  443.86   10.40
  -5   4   2  432.76   11.60
   4  -4  -2  358.96    8.40
  -4  -4   2  373.46    8.60
  -4   4   2  377.26    9.90
   4   4  -2  335.27    9.20
  -4   4   2  373.56    8.60
  -3  -4   2    2.70    0.40
  -3  -4   2    1.70    0.50
   3  -4  -2    2.00    0.40
   3  -4  -2    1.80    0.30
  -3   4   2    2.40    0.40
   3   4  -2    2.50    0.60
  -3   4   2    1.60    0.50
  -2  -4   2 1509.45   32.10
   2  -4  -2 1518.35   32.00
   2  -4  -2 1467.05   32.10
  -2  -4   2 1517.55   32.50
  -2   4   2 1437.66   33.00
   2   4  -2 1472.35   32.20
  -2   4   2 1466.85   31.80
   1  -4  -2 5981.40  127.49
  -1  -4   2 5918.91  128.29
   1  -4  -2 5936.81  127.19
  -1  -4   2 5952.80  127.39
   1   4  -2 5946.90  127.19
  -1   4   2 5905.61  126.59
  -1   4   2 5545.35  129.39
   1   4  -2 5970.70  127.89
   0  -4  -2 1036.70   22.70
   0  -4   2 1029.50   22.30
   0  -4   2 1032.60   22.60
   0  -4  -2 1047.10   22.40
   0   4  -2 1013.00   22.60
   0   4  -2 1032.60   22.90
   0   4   2 1047.60   23.10
   0   4   2 1049.70   22.50
  -1  -4  -2 1196.28   26.20
   1  -4   2 1192.08   25.80
  -1  -4  -2 1182.98   25.40
  -1   4  -2 1206.78   26.50
   1   4   2 1196.38   25.90
   1   4   2 1150.88   26.10
  -1   4  -2 1173.08   25.80
  -2  -4  -2  143.99    4.20
   2  -4   2  139.19    3.70
  -2  -4  -2  145.99    3.40
  -2   4  -2  148.69    4.60
  -2   4  -2  146.59    4.00
   2   4   2  137.39    4.00
   2   4   2  152.38    4.10
  -3  -4  -2  197.58    5.70
   3  -4   2  202.18    5.00
   3   4   2  201.38    5.50
   3   4   2  204.58    5.50
  -3   4  -2  203.48    5.40
  -3   4  -2  201.28    6.20
  -4  -4  -2 1176.78   26.60
   4  -4   2 1168.48   26.70
  -4   4  -2 1133.69   27.20
  -4   4  -2 1167.88   26.20
   4   4   2 1180.48   26.00
   4   4   2 1141.69   26.20
  -5  -4  -2  437.86   11.40
  -5   4  -2  426.56   12.10
   5   4   2  429.06   11.60
  -5   4  -2  434.86   11.10
  -6  -4  -2   91.49    4.00
  -6   4  -2   91.99    3.70
  -6   4  -2   83.09    4.30
  -7  -5   2  200.58    6.80
  -7   5   2  202.48    7.40
  -6   5   2   98.89    4.50
  -5  -5   2  431.16   10.10
  -5   5   2  414.76   11.60
   4  -5  -2  180.88    4.60
  -4  -5   2  182.38    4.90
  -4   5   2  195.08    4.80
  -4   5   2  183.68    6.10
   3  -5  -2  412.66    9.10
  -3  -5   2  396.76    9.30
  -3  -5   2  401.66    9.90
   3  -5  -2  393.76    9.40
   3   5  -2  389.26    9.50
  -3   5   2  397.76    9.10
   2  -5  -2  627.54   13.30
  -2  -5   2  593.84   13.30
   2  -5  -2  589.54   13.40
  -2  -5   2  592.54   13.70
  -2   5   2  586.84   13.00
   2   5  -2  586.74   13.50
  -2   5   2  568.64   14.30
  -1  -5   2   81.29    2.50
   1  -5  -2   81.19    2.40
  -1  -5   2   76.49    2.40
   1  -5  -2   76.09    2.30
  -1   5   2   84.19    3.00
   1   5  -2   77.29    2.40
   1   5  -2   81.59    2.40
  -1   5   2   76.89    2.20
   0  -5  -2 1023.80   22.80
   0  -5  -2 1030.00   22.40
   0  -5   2 1045.00   22.40
   0  -5   2 1028.20   22.60
   0   5   2 1018.60   22.40
   0   5  -2 1057.39   23.00
   0   5   2 1031.40   23.20
   0   5  -2 1013.10   22.60
  -1  -5  -2  158.78    4.40
   1  -5   2  156.28    4.10
  -1  -5  -2  154.98    3.80
   1   5   2  156.68    4.40
   1   5   2  153.78    4.10
  -1   5  -2  148.89    4.60
  -1   5  -2  153.78    4.10
  -2  -5  -2  143.09    4.30
  -2  -5  -2  142.69    3.50
   2  -5   2  142.09    3.80
  -2   5  -2  142.09    4.00
   2   5   2  143.29    4.10
  -2   5  -2  142.29    4.70
   2   5   2  139.39    4.00
  -3   5  -2  104.69    3.40
   3   5   2  106.19    3.30
   3   5   2   98.39    3.30
  -4  -5  -2   46.40    2.50
   4   5   2   39.20    2.10
  -4   5  -2   51.99    2.20
   4   5   2   43.30    2.00
  -5  -5  -2  234.38    7.30
   5   5   2  237.88    6.90
  -5   5  -2  244.08    6.90
  -5   5  -2  236.08    7.90
  -6  -5  -2  173.38    6.10
  -6   5  -2  163.08    6.60
  -6   5  -2  169.68    5.70
  -6   6   2  225.68    7.90
  -5  -6   2  100.69    3.10
  -5   6   2   92.59    4.30
  -4  -6   2  779.12   17.50
  -4   6   2  772.12   20.50
  -3  -6   2  357.56    8.60
   3  -6  -2  367.36    8.50
   3  -6  -2  356.66    8.80
  -3   6   2  366.46    8.40
  -2  -6   2   65.39    2.20
   2  -6  -2   68.89    2.20
  -2  -6   2   67.09    2.50
   2  -6  -2   61.89    2.20
  -2   6   2   65.29    3.10
   2   6  -2   64.39    2.30
  -2   6   2   67.69    2.00
  -1  -6   2   86.89    2.70
   1  -6  -2   92.09    2.80
  -1  -6   2   91.39    2.80
   1  -6  -2   88.29    2.60
   1   6  -2   87.99    2.80
   1   6  -2   90.49    2.80
  -1   6   2   88.59    2.50
  -1   6   2   91.99    3.40
   0  -6  -2  176.28    4.40
   0  -6  -2  181.48    4.90
   0  -6   2  175.48    4.40
   0  -6   2  175.88    4.60
   0   6   2  173.48    4.40
   0   6  -2  174.78    4.60
   0   6   2  175.98    5.20
   0   6  -2  177.68    5.00
  -1  -6  -2   65.99    2.00
  -1  -6  -2   64.39    2.50
  -1   6  -2   74.39    2.90
   1   6   2   68.69    2.60
  -1   6  -2   64.79    2.30
   1   6   2   66.09    2.20
  -2  -6  -2  375.46    8.50
  -2   6  -2  385.66    9.10
   2   6   2  358.96    9.00
   2   6   2  372.26    9.30
   3   6   2  173.28    5.00
   3   6   2  170.28    4.90
  -3   6  -2  166.68    4.90
  -4   6  -2 1060.09   24.30
   4   6   2 1069.19   24.40
  -5  -6  -2   39.20    2.50
   5   6   2   33.50    2.20
  -5   6  -2   38.60    2.20
  -6   7   2  108.39    5.20
  -5  -7   2   63.19    2.40
  -5   7   2   64.19    3.60
  -4  -7   2   62.39    2.30
   3  -7  -2  252.77    6.40
  -3  -7   2  245.08    6.30
   3   7  -2  238.38    6.50
  -2  -7   2   12.10    0.90
  -2  -7   2   11.10    1.10
   2  -7  -2   12.00    0.90
   2  -7  -2   11.20    0.90
  -2   7   2   12.40    0.80
   2   7  -2   13.20    1.00
   1  -7  -2  358.06    8.60
  -1  -7   2  353.26    8.80
  -1  -7   2  363.96    8.80
   1  -7  -2  371.46    8.80
   1   7  -2  360.26    8.90
   1   7  -2  361.36    8.80
  -1   7   2  373.66    8.50
   0  -7  -2  202.88    5.50
   0  -7   2  196.68    5.30
   0  -7  -2  195.88    5.10
   0   7   2  199.48    6.00
   0   7  -2  202.58    5.80
   0   7  -2  201.88    5.30
   0   7   2  203.98    5.10
  -1  -7  -2  437.46    9.90
   1   7   2  426.46   10.80
  -1   7  -2  439.76   10.30
  -1   7  -2  419.16   11.00
   1   7   2  428.46   10.10
  -2  -7  -2  156.48    4.10
   2   7   2  164.78    5.00
  -2   7  -2  166.78    4.70
   2   7   2  161.38    4.60
   3   7   2  236.38    6.50
  -3   7  -2  243.88    6.60
  -4   7  -2   93.49    3.50
   4   7   2   91.79    3.50
  -5   7  -2  102.79    3.90
   5   7   2  101.79    4.00
   4  -8  -2  203.28    5.70
  -4  -8   2  196.38    5.40
   4   8  -2  194.88    5.70
  -3  -8   2  288.17    7.20
   3  -8  -2  288.07    7.40
   3   8  -2  276.17    7.50
   2  -8  -2  387.06    9.40
  -2  -8   2  385.56    9.40
  -2   8   2  374.46    9.10
   2   8  -2  398.36    9.60
  -1  -8   2  331.47    8.20
   1  -8  -2  326.17    8.20
   1  -8  -2  324.57    8.00
   1   8  -2  320.17    8.20
  -1   8   2  317.07    7.80
   0  -8  -2    9.50    0.90
   0  -8   2    8.80    0.90
   0   8   2    8.10    0.80
   0   8  -2    6.90    0.90
   0   8  -2    7.10    1.10
  -1  -8  -2  321.47    7.60
  -1   8  -2  309.07    8.00
   1   8   2  310.67    7.80
  -2   8  -2  145.69    4.40
   2   8   2  144.69    4.30
   3   8   2  502.45   12.20
  -3   8  -2  494.55   12.20
  -4   8  -2  480.75   12.30
   4   8   2  500.65   12.40
   4  -9  -2   75.39    3.00
  -4  -9   2   75.69    2.80
   4   9  -2   79.19    3.20
   3  -9  -2   66.59    2.70
  -3  -9   2   69.89    2.70
   3   9  -2   70.09    2.80
  -2  -9   2  368.96    9.20
   2  -9  -2  373.26    9.20
   2   9  -2  365.26    9.40
  -1  -9   2  358.16    9.00
   1  -9  -2  354.86    8.80
  -1   9   2  356.76    8.60
   1   9  -2  356.76    9.00
   0  -9   2  123.79    3.90
   0  -9  -2  123.39    3.70
   0   9  -2  121.89    3.90
   0   9   2  126.39    3.80
  -1  -9  -2  340.57    8.20
   1  -9   2  335.87    8.60
  -1   9  -2  324.97    8.50
   1   9   2  335.47    8.40
   2   9   2    4.10    0.90
  -2   9  -2    4.40    1.00
  -3   9  -2  168.78    5.30
   3   9   2  171.28    5.20
   3 -10  -2   69.69    2.90
  -3 -10   2   70.49    2.80
   3  10  -2   67.69    2.90
  -2 -10   2   22.80    1.60
   2 -10  -2   22.80    1.60
   2  10  -2   22.60    1.60
   1 -10  -2  322.77    8.20
  -1 -10   2  318.27    8.40
   1  10  -2  318.37    8.40
   0 -10   2   36.70    2.00
   0 -10  -2   34.50    1.80
   0  10  -2   35.50    1.90
   0  10   2   35.90    1.80
   1 -10   2    9.50    1.20
  -1 -10  -2    9.90    1.10
   1  10   2   11.90    1.20
  -1  10  -2   11.80    1.20
   2  10   2  482.95   12.00
  -2  10  -2  490.05   12.20
  -8   0   3    4.50    0.90
  -8   0   3    3.50    1.00
  -7   0   3  203.78    5.70
  -7   0   3  198.88    6.10
   6   0  -3  779.92   18.00
  -6   0   3  808.62   18.10
  -6   0   3  785.72   18.60
  -6   0   3  798.42   18.60
  -5   0   3  325.87    8.30
  -5   0   3  321.27    8.20
   5   0  -3  327.57    7.80
  -5   0   3  314.97    7.90
  -4   0   3 1028.10   22.20
  -4   0   3  968.10   22.20
  -4   0   3  973.70   21.90
   4   0  -3 1001.00   21.70
  -3   0   3  134.99    3.70
  -3   0   3  157.28    3.90
  -3   0   3  137.29    3.80
   3   0  -3  141.09    3.50
  -2   0   3 1338.17   29.50
   2   0  -3 1394.16   29.20
   2   0  -3 1332.47   29.70
  -2   0   3 1413.26   29.70
   1   0  -3    4.00    0.40
  -1   0   3    4.30    0.40
   1   0  -3    3.90    0.30
  -1   0   3    4.00    0.40
   0   0   3 8246.78  170.58
   0   0  -3 7550.44  171.68
   0   0  -3 7860.21  171.68
   0   0   3 8293.57  173.68
   1   0   3   33.90    1.50
   1   0   3   34.10    0.90
  -1   0  -3   32.00    1.30
  -1   0  -3   30.20    1.20
   2   0   3 2672.13   55.99
  -2   0  -3 2799.12   57.89
  -2   0  -3 2608.14   56.69
   2   0   3 2440.56   56.79
  -3   0  -3   66.99    2.30
   3   0   3   62.89    2.60
   3   0   3   69.79    1.70
  -3   0  -3   63.99    2.50
  -4   0  -3  369.06    9.00
  -4   0  -3  356.26    9.30
  -5   0  -3   76.09    2.90
  -5   0  -3   68.59    3.10
  -6   0  -3    0.80    0.60
  -6   0  -3    0.50    0.80
  -7  -1   3  122.99    4.50
  -7  -1   3  125.59    4.00
  -7   1   3  127.99    4.10
  -7   1   3  131.89    4.80
   6  -1  -3  252.87    6.60
  -6  -1   3  270.97    6.80
  -6  -1   3  258.07    7.30
  -6   1   3  272.47    7.60
  -6   1   3  260.57    6.80
  -5  -1   3  358.36    9.20
  -5  -1   3  378.36    8.90
   5  -1  -3  364.46    9.10
  -5  -1   3  366.16    8.80
  -5   1   3  360.56    9.40
   5   1  -3  366.96    8.70
  -5   1   3  354.56    8.80
  -4  -1   3  280.67    6.70
   4  -1  -3  271.27    7.00
   4  -1  -3  276.77    6.50
  -4  -1   3  272.17    6.70
  -4  -1   3  289.57    7.20
  -4   1   3  271.37    6.80
   4   1  -3  283.37    6.70
  -4   1   3  275.27    7.20
  -3  -1   3 1120.49   23.80
  -3  -1   3 1067.89   24.20
   3  -1  -3 1122.29   24.10
   3  -1  -3 1091.39   23.60
  -3  -1   3 1090.39   24.00
   3   1  -3 1105.39   23.80
  -3   1   3 1084.09   24.40
  -2  -1   3   19.20    1.00
   2  -1  -3   20.20    0.90
  -2  -1   3   22.10    0.80
  -2   1   3   22.20    1.10
  -2   1   3   22.60    0.90
   2   1  -3   21.50    0.80
  -1  -1   3  173.78    4.10
   1  -1  -3  169.58    3.80
   1  -1  -3  166.28    4.10
  -1  -1   3  179.28    4.10
  -1   1   3  170.78    4.30
   1   1  -3  170.28    3.90
   1   1  -3  167.58    4.10
  -1   1   3  167.68    4.00
   0  -1   3    3.10    0.50
   0  -1   3    3.80    0.30
   0  -1  -3    3.60    0.40
   0   1   3    3.50    0.30
   0   1   3    2.90    0.50
   0   1  -3    5.30    0.40
   0   1  -3    4.30    0.40
  -1  -1  -3  567.94   12.80
  -1  -1  -3  568.84   12.90
   1  -1   3  562.44   13.10
   1  -1   3  585.44   12.40
  -1   1  -3  585.94   12.60
  -1   1  -3  566.94   12.80
   1   1   3  567.54   13.10
   2  -1   3 2080.69   42.40
  -2  -1  -3 1958.90   43.10
  -2  -1  -3 2056.79   43.00
   2  -1   3 2020.90   43.40
   2   1   3 1891.21   43.20
  -2   1  -3 1960.80   42.90
  -2   1  -3 1929.21   43.00
   3  -1   3  479.75   10.30
  -3  -1  -3  459.85   11.30
   3  -1   3  466.55   11.60
  -3  -1  -3  467.35   11.10
  -3   1  -3  465.05   11.20
  -3   1  -3  485.55   10.80
   3   1   3  453.05   11.40
   4  -1   3   65.39    1.80
  -4  -1  -3   61.99    2.60
  -4  -1  -3   64.79    2.60
   4   1   3   61.79    2.80
  -4   1  -3   58.39    2.60
  -4   1  -3   67.09    2.30
  -5  -1  -3   66.99    2.80
  -5  -1  -3   63.09    2.90
  -5   1  -3   66.99    2.60
  -5   1  -3   66.09    3.00
  -6  -1  -3  120.69    4.60
  -6  -1  -3  127.49    4.50
  -6   1  -3  123.69    4.70
  -7  -2   3   57.09    2.80
  -7  -2   3   52.39    2.30
  -7   2   3   55.09    2.40
  -7   2   3   51.69    2.90
  -6  -2   3  268.77    7.50
  -6  -2   3  268.57    6.90
  -6   2   3  260.37    7.00
  -6   2   3  267.87    7.80
  -5  -2   3  548.85   12.80
   5  -2  -3  562.44   13.00
  -5  -2   3  542.65   13.40
  -5   2   3  539.85   13.60
   5   2  -3  564.84   12.90
  -5   2   3  554.44   12.90
  -5   2   3  561.04   12.60
   4  -2  -3    3.60    0.60
  -4  -2   3    2.80    0.40
  -4  -2   3    2.50    0.60
  -4  -2   3    2.50    0.50
  -4   2   3    3.20    0.40
  -4   2   3    2.30    0.50
  -4   2   3    3.50    0.70
   4   2  -3    3.50    0.60
  -3  -2   3  279.97    7.00
  -3  -2   3  272.37    6.60
   3  -2  -3  276.07    6.70
  -3   2   3  281.97    6.20
   3   2  -3  278.97    6.60
  -3   2   3  289.27    7.30
  -3   2   3  276.37    6.70
  -2  -2   3  364.86    8.30
  -2  -2   3  362.26    8.50
   2  -2  -3  354.76    8.30
  -2   2   3  362.16    8.30
   2   2  -3  368.06    8.20
  -2   2   3  368.26    8.80
   1  -2  -3 1980.00   42.70
  -1  -2   3 2045.70   43.60
  -1  -2   3 1996.40   42.80
   1   2  -3 1976.80   43.10
   1   2  -3 1937.91   42.90
  -1   2   3 1946.91   43.00
  -1   2   3 2043.90   42.50
  -1   2   3 1978.00   42.50
   0  -2  -3 1265.27   27.50
   0  -2   3 1257.47   27.20
   0  -2   3 1254.87   27.50
   0  -2  -3 1258.17   27.30
   0   2  -3 1281.77   27.50
   0   2  -3 1262.97   27.30
   0   2   3 1265.77   27.00
   0   2   3 1268.27   27.60
  -1  -2  -3 1299.27   28.40
   1  -2   3 1303.47   28.10
   1  -2   3 1357.66   28.80
  -1  -2  -3 1302.67   28.50
  -1   2  -3 1310.27   27.90
  -1   2  -3 1284.47   28.40
   1   2   3 1282.77   28.60
  -2  -2  -3  242.38    6.30
  -2  -2  -3  254.97    6.40
   2  -2   3  263.27    5.80
  -2   2  -3  243.68    6.30
  -2   2  -3  250.67    5.80
   2   2   3  250.57    6.50
   3  -2   3  516.25   11.20
  -3  -2  -3  502.95   12.10
  -3  -2  -3  502.05   12.00
   3   2   3  505.45   12.20
  -3   2  -3  496.55   12.00
  -3   2  -3  509.95   11.40
   4  -2   3  476.05   10.60
  -4  -2  -3  484.15   11.70
  -4   2  -3  469.05   10.90
   4   2   3  474.75   11.80
  -4   2  -3  456.25   11.60
  -5  -2  -3  175.98    5.50
  -5  -2  -3  169.08    5.50
  -5   2  -3  169.88    5.50
  -6  -2  -3   94.49    3.90
  -6  -2  -3   98.19    4.00
  -6   2  -3   90.79    3.90
  -7  -3   3  233.78    7.30
  -7  -3   3  244.98    6.50
  -7   3   3  237.98    6.70
  -7   3   3  243.88    7.80
  -6  -3   3  104.39    4.00
  -6  -3   3  111.09    3.50
  -6   3   3  107.19    3.60
  -6   3   3  106.39    4.30
  -5  -3   3  451.95   10.60
   5  -3  -3  442.66   10.60
  -5  -3   3  446.46   11.20
  -5   3   3  448.36   10.70
  -5   3   3  438.56   11.60
  -4  -3   3  861.41   19.20
  -4  -3   3  840.92   19.70
   4  -3  -3  851.71   19.20
   4   3  -3  866.61   19.20
  -4   3   3  847.32   20.20
  -4   3   3  877.31   18.80
  -4   3   3  878.61   19.30
  -3  -3   3  247.88    5.90
  -3  -3   3  201.28    5.30
   3  -3  -3  211.58    5.30
   3   3  -3  208.48    5.30
  -3   3   3  217.08    4.90
  -3   3   3  212.88    6.10
  -3   3   3  209.08    5.40
  -2  -3   3 1468.35   31.70
  -2  -3   3 1472.05   31.90
   2  -3  -3 1498.45   31.80
  -2   3   3 1475.45   31.70
   2   3  -3 1395.86   31.70
  -2   3   3 1491.05   32.40
  -1  -3   3 4375.06   94.49
  -1  -3   3 4275.37   93.99
  -1  -3   3 4473.55   94.29
   1  -3  -3 4279.27   93.99
  -1   3   3 4273.57   92.99
  -1   3   3 4424.86   95.89
   1   3  -3 4365.26   94.99
  -1   3   3 4330.87   93.69
   0  -3  -3  935.51   19.70
   0  -3   3  910.11   19.90
   0  -3  -3  884.81   20.10
   0   3   3  893.81   20.40
   0   3  -3  897.21   20.00
   0   3   3  911.81   19.80
   0   3  -3  912.71   20.30
   0   3  -3  963.30   19.70
  -1  -3  -3  617.34   13.80
   1  -3   3  612.14   13.50
  -1  -3  -3  634.44   13.20
  -1  -3  -3  608.24   14.00
  -1   3  -3  600.24   14.30
  -1   3  -3  601.34   13.80
   1   3   3  611.14   14.00
   2  -3   3  344.07    8.00
  -2  -3  -3  346.97    8.50
  -2  -3  -3  352.96    8.70
  -2   3  -3  345.57    8.40
   2   3   3  346.17    8.60
  -2   3  -3  359.46    9.10
  -3  -3  -3 1040.30   23.50
   3  -3   3 1041.60   22.60
  -3  -3  -3 1028.70   23.40
  -3   3  -3 1003.70   24.20
  -3   3  -3 1020.50   23.30
   3   3   3 1074.19   23.40
   4  -3   3  939.51   20.60
  -4  -3  -3  933.91   21.80
   4   3   3  946.11   21.60
  -4   3  -3  939.51   21.60
  -4   3  -3  937.31   22.60
  -5  -3  -3  267.57    7.80
  -5   3  -3  278.17    7.80
  -6  -3  -3  120.59    4.60
  -6  -3  -3  111.09    4.50
  -6   3  -3  112.89    4.50
  -7  -4   3  243.88    7.70
  -7   4   3  258.77    8.40
  -6  -4   3  648.94   16.50
  -6  -4   3  698.53   15.70
  -6   4   3  679.53   17.20
   5  -4  -3  188.58    5.10
  -5  -4   3  194.98    5.20
  -5   4   3  194.18    5.30
  -5   4   3  187.18    6.30
   4  -4  -3  598.34   13.10
  -4  -4   3  566.54   13.10
   4   4  -3  556.14   13.30
  -4   4   3  579.94   14.40
  -4   4   3  563.74   13.30
   3  -4  -3  525.15   11.50
  -3  -4   3  501.55   12.00
  -3  -4   3  502.15   11.50
   3   4  -3  489.75   11.60
  -3   4   3  499.25   12.60
  -3   4   3  510.45   11.10
  -3   4   3  500.05   11.60
   2  -4  -3 1809.32   39.10
   2  -4  -3 1822.32   39.10
  -2  -4   3 1770.82   39.10
  -2  -4   3 1808.02   39.40
  -2   4   3 1795.82   40.00
  -2   4   3 1867.51   38.70
   2   4  -3 1815.72   39.20
  -1  -4   3 6348.96  133.19
  -1  -4   3 5956.60  133.19
   1  -4  -3 6255.57  132.69
   1  -4  -3 5911.71  152.38
  -1   4   3 6172.38  136.59
   1   4  -3 5941.41  132.99
  -1   4   3 6337.47  132.19
   1   4  -3 6338.37  133.29
   0  -4  -3  603.34   14.00
   0  -4  -3  637.84   13.50
   0  -4   3  609.34   13.80
   0   4  -3  619.04   14.20
   0   4   3  624.84   13.60
   0   4   3  600.94   14.30
   0   4  -3  609.94   13.80
   0   4  -3  631.74   13.50
  -1  -4  -3  106.59    3.30
  -1  -4  -3  105.69    2.60
   1   4   3  106.29    3.00
  -1   4  -3  102.69    3.00
  -1   4  -3  105.89    3.50
   2  -4   3   77.79    2.40
  -2  -4  -3   78.19    1.90
  -2  -4  -3   77.09    2.80
   2   4   3   80.89    2.80
   2   4   3   79.69    2.60
  -2   4  -3   78.39    3.20
  -2   4  -3   80.29    2.70
  -3  -4  -3  569.54   13.90
   3  -4   3  572.54   13.00
   3   4   3  559.44   13.60
   3   4   3  598.34   13.70
  -3   4  -3  572.74   13.60
  -4  -4  -3   18.20    1.50
   4   4   3   18.40    1.40
  -4   4  -3   18.90    1.40
  -5  -4  -3   89.79    3.80
   5   4   3   86.99    3.50
  -5   4  -3   94.19    4.40
  -5   4  -3   89.29    3.60
  -6  -4  -3   75.49    3.70
  -6   4  -3   72.59    3.40
  -7  -5   3  122.39    4.90
  -7   5   3  117.99    5.30
  -6  -5   3  365.16    9.10
  -6   5   3  356.06   10.60
  -5  -5   3  232.58    6.10
  -5   5   3  233.88    7.50
  -4  -5   3  324.77    8.00
   4  -5  -3  329.27    7.90
  -4   5   3  332.47    9.40
  -3  -5   3   71.99    2.40
  -3  -5   3   74.39    2.70
   3  -5  -3   75.09    2.30
   3  -5  -3   71.99    2.40
  -3   5   3   63.29    2.00
  -3   5   3   73.79    3.20
   3   5  -3   70.99    2.80
  -2  -5   3 1190.68   26.40
   2  -5  -3 1162.88   26.00
  -2  -5   3 1192.18   26.10
   2  -5  -3 1214.08   26.10
  -2   5   3 1205.48   25.60
  -2   5   3 1169.48   27.20
   2   5  -3 1199.88   26.20
  -1  -5   3 2394.66   50.89
   1  -5  -3 2371.26   50.99
   1  -5  -3 2376.36   50.69
  -1  -5   3 2373.86   50.79
   1   5  -3 2426.96   50.89
  -1   5   3 2323.67   51.59
  -1   5   3 2276.37   50.39
   1   5  -3 2365.36   50.89
   0  -5  -3   89.59    2.90
   0  -5  -3   94.69    2.50
   0  -5   3   90.79    2.70
   0  -5   3   91.29    2.40
   0   5  -3  108.19    3.20
   0   5   3   90.59    3.20
   0   5  -3   89.39    2.80
   0   5   3   94.09    2.60
   1  -5   3  953.80   20.80
  -1  -5  -3  971.90   20.40
  -1  -5  -3  954.50   21.30
  -1   5  -3  903.11   21.50
   1   5   3  970.00   21.40
   1   5   3  956.70   20.90
  -1   5  -3  884.41   20.90
   2  -5   3  503.65   11.60
  -2   5  -3  499.55   12.70
  -2   5  -3  502.65   11.90
   2   5   3  508.65   12.10
   2   5   3  509.35   11.90
  -3   5  -3  242.88    6.60
   3   5   3  242.18    6.50
   3   5   3  235.68    6.50
  -4  -5  -3  913.51   21.80
  -4   5  -3  910.61   21.30
   4   5   3  932.21   21.40
  -5  -5  -3   86.89    3.90
  -5   5  -3   86.59    3.60
  -5   5  -3   86.99    5.10
   5   5   3   89.09    3.60
  -6  -6   3   17.40    1.30
  -6   6   3   14.40    1.90
  -5  -6   3   15.80    1.20
  -5   6   3   16.90    1.90
   4  -6  -3  232.58    6.20
  -4  -6   3  233.68    6.10
  -4   6   3  235.88    7.50
   3  -6  -3  781.42   17.30
  -3  -6   3  751.72   17.40
   3  -6  -3  776.32   17.50
  -2  -6   3  708.73   16.30
  -2  -6   3  734.23   16.60
   2  -6  -3  734.03   16.30
   2  -6  -3  714.53   16.30
  -2   6   3  722.43   15.80
  -1  -6   3  843.62   18.90
   1  -6  -3  869.31   19.10
   1  -6  -3  845.02   18.80
  -1  -6   3  839.82   19.00
   1   6  -3  839.52   19.00
   1   6  -3  862.21   19.10
  -1   6   3  847.32   18.60
  -1   6   3  854.81   19.90
   0  -6  -3  238.98    5.70
   0  -6  -3  236.88    6.30
   0   6  -3  231.28    6.30
   0   6   3  241.28    5.80
   0   6  -3  235.18    6.00
   0   6   3  237.38    6.60
  -1  -6  -3  205.68    4.90
   1   6   3  199.28    5.20
   1   6   3  201.28    5.80
  -1   6  -3  197.28    5.30
  -1   6  -3  198.98    5.90
  -2   6  -3  340.17    8.50
   2   6   3  342.87    8.40
   2   6   3  329.17    8.70
   3   6   3  972.10   21.80
  -3   6  -3  925.71   21.40
   3   6   3  905.91   21.40
   4   6   3   32.90    2.00
  -4   6  -3   35.30    2.10
  -5  -6  -3   54.29    3.10
   5   6   3   51.79    2.70
  -5   6  -3   57.39    2.80
  -6   7   3   27.50    2.60
  -5  -7   3  178.88    5.10
  -5   7   3  175.58    6.70
  -4  -7   3  424.86   10.30
   4  -7  -3  432.86   10.60
   3  -7  -3  617.34   14.40
  -3  -7   3  626.04   14.40
  -2  -7   3  524.75   12.50
  -2  -7   3  540.15   12.70
   2  -7  -3  544.55   12.50
   2  -7  -3  525.95   12.40
   2   7  -3  531.15   12.60
  -1  -7   3  431.96   10.30
   1  -7  -3  427.46   10.40
  -1  -7   3  427.16   10.10
   1  -7  -3  427.16   10.00
  -1   7   3  428.96    9.80
   1   7  -3  434.96   10.30
   0  -7   3   67.49    2.40
   0  -7  -3   69.79    2.20
   0   7  -3   65.09    2.70
   0   7  -3   65.39    2.40
   0   7   3   67.39    2.20
  -1  -7  -3  164.18    4.20
  -1   7  -3  164.58    4.70
   1   7   3  164.38    4.50
   2   7   3  289.97    7.40
  -2   7  -3  283.57    7.50
   3   7   3   93.19    3.30
  -3   7  -3   88.59    3.30
   4   7   3  128.19    4.40
  -4   7  -3  128.69    4.40
   5  -8  -3   76.49    3.60
  -5  -8   3   75.89    2.90
   4  -8  -3   64.49    2.70
  -4  -8   3   66.79    2.60
   3  -8  -3  211.18    5.70
  -3  -8   3  210.48    5.70
   3   8  -3  204.68    5.90
   2  -8  -3  107.69    3.40
  -2  -8   3  104.69    3.40
   2   8  -3  110.39    3.60
  -1  -8   3  254.67    6.80
   1  -8  -3  255.37    6.50
   1   8  -3  257.77    6.80
  -1   8   3  259.37    6.30
   0  -8  -3   30.90    1.40
   0  -8   3   27.60    1.60
   0   8  -3   27.90    1.60
   0   8   3   31.60    1.40
   0   8  -3   28.30    1.80
  -1  -8  -3    9.40    0.90
   1   8   3   10.80    1.00
  -1   8  -3    9.50    1.00
   2   8   3  827.72   18.80
  -2   8  -3  809.12   19.00
   3   8   3  644.54   15.20
  -3   8  -3  625.34   15.30
  -4   8  -3  124.39    4.50
   4   8   3  131.19    4.50
  -4  -9   3   39.30    2.00
   4  -9  -3   39.50    2.10
  -3  -9   3    4.60    0.90
   3  -9  -3    1.70    0.70
   3   9  -3    3.60    0.90
   2  -9  -3  182.08    5.30
  -2  -9   3  192.68    5.50
   2   9  -3  192.78    5.60
  -1  -9   3  277.67    7.30
   1  -9  -3  268.57    7.00
   1   9  -3  270.77    7.30
   0  -9  -3  218.68    5.80
   0  -9   3  215.58    6.10
   0   9  -3  225.98    6.20
   0   9   3  220.68    5.80
  -1   9  -3  219.18    6.20
   1   9   3  225.28    6.00
  -2   9  -3  169.08    5.30
   2   9   3  172.48    5.10
  -3   9  -3  150.38    5.00
   3   9   3  154.48    4.90
  -2 -10   3   24.30    1.70
   2 -10  -3   26.70    1.60
   2  10  -3   22.20    1.70
  -1 -10   3  154.38    4.90
   1 -10  -3  160.38    4.70
   1  10  -3  160.78    5.00
   0 -10   3  181.68    5.50
   0 -10  -3  187.58    5.20
   0  10  -3  182.88    5.50
   1 -10   3   15.30    1.40
   1  10   3   15.30    1.30
  -1  10  -3   14.90    1.40
  -7   0   4    3.20    0.70
  -6   0   4  371.66   10.00
   6   0  -4  397.76    9.30
  -6   0   4  404.46   10.00
  -6   0   4  389.06    9.60
  -5   0   4  344.87    8.70
  -5   0   4  367.86    9.00
   5   0  -4  361.16    8.40
  -4   0   4  138.89    4.00
  -4   0   4  153.28    4.20
   4   0  -4  138.09    4.20
   4   0  -4  151.98    3.70
   3   0  -4 1053.99   22.20
   3   0  -4 1033.90   22.90
  -3   0   4 1003.80   22.60
  -3   0   4 1035.20   22.80
  -2   0   4  448.26   10.30
  -2   0   4  470.35   10.50
   2   0  -4  462.75    9.90
   2   0  -4  441.16   10.40
  -1   0   4  806.82   18.00
   1   0  -4  816.12   17.90
  -1   0   4  805.32   17.70
   1   0  -4  827.42   17.60
   0   0  -4 4097.29   91.59
   0   0  -4 4197.08   90.39
   0   0   4 4235.68   90.99
  -1   0  -4  872.31   19.60
   1   0   4  866.11   19.90
   1   0   4  906.11   19.00
  -1   0  -4  889.71   19.40
   2   0   4  206.28    5.80
  -2   0  -4  205.28    5.20
   2   0   4  213.58    4.60
  -2   0  -4  196.98    5.40
  -3   0  -4  299.97    7.90
  -3   0  -4  308.87    7.50
   3   0   4  294.97    8.10
  -4   0  -4  244.98    6.60
  -5   0  -4  375.36    9.50
  -5   0  -4  365.46   10.00
  -6   0  -4    5.00    1.30
  -7  -1   4  117.79    4.30
  -7  -1   4  113.89    3.80
  -7   1   4  110.79    3.80
  -6  -1   4  551.14   13.10
  -6  -1   4  550.14   13.60
  -6   1   4  586.04   13.80
   6   1  -4  539.65   12.80
  -6   1   4  542.55   13.10
  -5  -1   4   95.79    3.30
  -5  -1   4   90.89    2.90
   5  -1  -4   86.49    2.50
  -5  -1   4   88.69    2.90
  -5   1   4   87.69    3.30
   5   1  -4   83.79    2.60
  -5   1   4   86.09    2.90
   4  -1  -4 1369.56   29.40
  -4  -1   4 1404.06   29.80
  -4  -1   4 1347.47   30.30
   4  -1  -4 1313.17   30.10
  -4  -1   4 1332.37   29.90
  -4   1   4 1339.67   29.90
   4   1  -4 1431.96   29.70
  -4   1   4 1395.76   30.40
   3  -1  -4  168.28    3.60
  -3  -1   4  167.18    4.10
   3  -1  -4  151.18    4.30
  -3  -1   4  161.98    4.20
   3   1  -4  156.18    4.40
   3   1  -4  162.88    3.90
  -3   1   4  154.58    4.20
  -3   1   4  162.88    4.50
  -2  -1   4  236.78    5.50
  -2  -1   4  232.08    5.60
   2  -1  -4  232.08    5.70
  -2   1   4  230.38    5.60
   2   1  -4  237.08    5.40
  -2   1   4  230.38    5.90
   2   1  -4  231.78    5.80
  -1  -1   4  776.82   16.80
   1  -1  -4  753.52   16.70
   1  -1  -4  757.22   16.30
  -1  -1   4  750.02   16.50
   1   1  -4  768.22   16.70
  -1   1   4  752.12   16.90
  -1   1   4  745.43   16.50
   1   1  -4  746.73   16.50
   0  -1   4 1352.46   29.40
   0  -1   4 1363.96   28.90
   0  -1  -4 1309.37   29.10
   0  -1  -4 1327.37   29.00
   0   1   4 1342.57   29.40
   0   1  -4 1358.26   29.10
   0   1   4 1359.36   28.70
   0   1  -4 1319.97   28.90
  -1  -1  -4  583.44   13.20
   1  -1   4  585.64   12.70
   1  -1   4  593.94   13.60
  -1  -1  -4  544.15   13.10
  -1   1  -4  586.84   13.20
  -1   1  -4  597.14   12.90
  -2  -1  -4  931.51   21.40
   2  -1   4  929.71   21.70
  -2  -1  -4  991.60   21.30
   2  -1   4  974.60   20.60
  -2   1  -4  905.51   21.30
  -2   1  -4  989.20   21.00
   2   1   4  954.90   21.70
   3  -1   4 1212.08   29.10
   3  -1   4 1263.17   26.90
  -3  -1  -4 1264.37   28.30
  -3  -1  -4 1267.17   27.80
  -3   1  -4 1268.27   27.50
   3   1   4 1235.68   28.30
  -4  -1  -4  633.84   15.20
  -4   1  -4  663.53   14.90
  -4   1  -4  627.24   15.50
  -5  -1  -4  108.49    4.20
  -5  -1  -4  110.89    4.00
  -5   1  -4  110.99    4.20
  -6  -1  -4   68.19    3.50
  -6  -1  -4   77.09    3.30
  -6   1  -4   74.49    3.50
  -7  -2   4  133.29    4.90
  -7  -2   4  139.69    4.40
  -7   2   4  140.79    4.50
  -7   2   4  141.59    5.20
  -6  -2   4  514.25   13.20
  -6  -2   4  532.95   12.60
  -6   2   4  529.45   12.70
  -6   2   4  543.05   13.50
   5  -2  -4  194.08    5.50
  -5  -2   4  192.68    5.30
  -5  -2   4  200.48    5.80
   5   2  -4  199.18    5.10
  -5   2   4  198.38    6.00
  -5   2   4  194.98    5.30
   4  -2  -4  718.53   16.00
   4  -2  -4  710.93   15.20
  -4  -2   4  666.33   15.40
  -4  -2   4  692.23   16.30
  -4  -2   4  708.83   15.90
   4   2  -4  714.73   15.70
  -4   2   4  704.23   16.60
  -4   2   4  700.63   15.90
  -3  -2   4 1513.95   33.60
   3  -2  -4 1504.45   33.30
  -3  -2   4 1474.15   33.30
   3   2  -4 1571.24   33.10
  -3   2   4 1577.34   33.90
  -3   2   4 1550.74   33.30
  -2  -2   4  326.97    7.80
   2  -2  -4  337.67    7.90
  -2  -2   4  331.47    7.50
  -2   2   4  339.97    8.30
  -2   2   4  342.07    7.80
   2   2  -4  334.87    7.60
   2   2  -4  327.07    7.90
  -1  -2   4 1610.64   34.20
   1  -2  -4 1584.44   33.80
  -1  -2   4 1567.54   34.10
   1  -2  -4 1566.64   34.20
   1   2  -4 1564.94   34.00
  -1   2   4 1605.94   34.00
  -1   2   4 1555.14   34.50
   1   2  -4 1594.44   34.10
   0  -2   4 1748.63   38.20
   0  -2  -4 1806.52   37.90
   0  -2   4 1725.83   37.70
   0  -2  -4 1780.62   38.10
   0   2  -4 1776.82   37.90
   0   2  -4 1705.63   38.50
   0   2   4 1739.63   38.30
   0   2   4 1795.12   37.60
  -1  -2  -4  882.01   19.40
   1  -2   4  869.61   19.80
  -1  -2  -4  871.01   19.50
   1  -2   4  878.01   19.00
   1   2   4  868.41   19.80
  -1   2  -4  867.01   19.40
  -1   2  -4  877.91   19.00
  -2  -2  -4  171.18    4.80
   2  -2   4  183.28    4.20
  -2  -2  -4  168.58    4.80
  -2   2  -4  174.98    4.30
   2   2   4  167.58    5.00
  -2   2  -4  171.68    4.80
   3  -2   4 1128.99   23.90
  -3  -2  -4 1098.09   24.90
   3   2   4 1107.89   25.20
  -3   2  -4 1087.89   24.90
  -3   2  -4 1096.89   24.20
  -4  -2  -4   70.79    2.90
  -4   2  -4   67.99    2.90
  -5  -2  -4   40.30    2.30
  -5   2  -4   40.20    2.40
  -6  -2  -4  122.89    4.90
  -6  -2  -4  137.39    5.00
  -6   2  -4  131.49    5.00
  -7  -3   4  449.66   11.00
  -7  -3   4  442.56   11.80
  -7   3   4  433.76   11.00
  -7   3   4  438.66   12.20
  -6  -3   4  230.78    6.90
  -6  -3   4  236.38    6.30
  -6   3   4  233.08    7.20
  -6   3   4  227.98    6.40
   5  -3  -4  361.76    8.90
  -5  -3   4  366.06    8.90
  -5   3   4  358.06    9.00
  -5   3   4  355.16    9.80
   4  -3  -4   37.30    1.60
  -4  -3   4   37.50    1.60
  -4  -3   4   35.30    2.10
  -4   3   4   37.30    2.10
   4   3  -4   39.20    1.60
   3  -3  -4  444.66   10.30
  -3  -3   4  439.26   10.30
  -3  -3   4  432.06   10.60
  -3   3   4  443.26   11.10
  -3   3   4  446.36   10.30
   3   3  -4  448.16   10.20
  -2  -3   4  414.86    9.50
   2  -3  -4  404.36    9.40
  -2  -3   4  403.96    9.40
  -2  -3   4  411.46    8.90
   2   3  -4  398.86    9.30
  -2   3   4  391.66    9.90
  -2   3   4  412.06    9.40
  -1  -3   4  530.15   11.80
   1  -3  -4  534.55   12.00
  -1  -3   4  515.65   11.80
  -1   3   4  498.15   12.30
   1   3  -4  541.55   11.80
   1   3  -4  510.55   11.80
  -1   3   4  531.05   11.70
  -1   3   4  539.05   11.40
   0  -3  -4  648.74   15.10
   0  -3  -4  668.43   14.50
   0  -3   4  668.83   15.20
   0  -3  -4  669.63   14.80
   0  -3   4  663.33   14.70
   0   3  -4  691.83   14.60
   0   3   4  662.03   15.30
   0   3  -4  656.53   14.90
  -1  -3  -4 1719.23   37.40
   1  -3   4 1707.23   37.70
   1  -3   4 1758.72   36.90
  -1  -3  -4 1710.73   37.20
   1   3   4 1690.63   37.60
  -1   3  -4 1693.33   36.60
  -1   3  -4 1706.63   37.20
   2  -3   4  460.45   10.30
  -2  -3  -4  445.66   11.00
  -2  -3  -4  453.15   11.00
   2  -3   4  458.85   11.50
  -2   3  -4  450.55   10.90
   2   3   4  456.35   11.10
  -2   3  -4  465.25   10.10
   3  -3   4  316.57    7.40
  -3  -3  -4  316.87    8.30
  -3   3  -4  306.07    8.10
   3   3   4  315.67    8.30
   4  -3   4  616.34   14.00
  -4  -3  -4  624.74   15.20
  -4   3  -4  625.64   15.10
  -5  -3  -4   32.70    2.10
  -5   3  -4   32.90    2.10
  -6  -3  -4   37.20    2.50
  -6   3  -4   37.20    2.50
  -7  -4   4  179.58    5.30
  -7  -4   4  176.18    6.00
  -7   4   4  167.08    5.30
  -7   4   4  174.68    6.50
  -6  -4   4   32.40    1.80
  -6   4   4   34.40    1.90
  -6   4   4   34.80    2.40
  -5  -4   4   84.89    3.00
   5  -4  -4   83.29    2.90
  -5   4   4   93.29    3.90
  -5   4   4   87.59    3.10
   4  -4  -4  591.74   13.40
  -4  -4   4  588.04   13.50
   4   4  -4  577.14   14.00
  -4   4   4  574.84   14.60
  -3  -4   4  289.57    7.30
   3  -4  -4  289.67    7.00
  -3  -4   4  285.47    7.00
  -3   4   4  287.27    7.10
  -3   4   4  270.27    7.90
   3   4  -4  291.07    7.00
  -2  -4   4  918.01   20.00
   2  -4  -4  906.01   20.00
  -2  -4   4  885.71   19.90
   2   4  -4  901.61   19.90
  -2   4   4  870.61   20.70
  -2   4   4  910.31   19.90
   1  -4  -4  692.73   15.60
  -1  -4   4  703.43   15.40
   1  -4  -4  686.43   15.20
  -1  -4   4  680.23   15.30
  -1   4   4  671.33   16.00
   1   4  -4  688.83   15.40
   1   4  -4  693.43   15.30
  -1   4   4  684.93   14.90
   0  -4  -4   55.89    2.10
   0  -4   4   56.29    1.90
   0  -4   4   57.69    2.20
   0  -4  -4   61.89    1.70
   0   4   4   57.49    2.30
   0   4  -4   59.79    2.00
   0   4   4   60.39    1.80
   0   4  -4   61.49    1.70
  -1  -4  -4  299.87    6.50
  -1  -4  -4  293.07    7.50
   1  -4   4  289.27    7.00
  -1   4  -4  290.07    7.30
   1   4   4  301.17    7.70
  -1   4  -4  297.67    7.90
   1   4   4  294.17    7.20
  -2  -4  -4  387.96    9.50
   2  -4   4  392.66    8.90
  -2  -4  -4  372.96    9.60
   2   4   4  395.76    9.70
  -2   4  -4  382.36    9.40
  -2   4  -4  372.26   10.10
   3  -4   4 1122.09   24.60
  -3  -4  -4 1112.69   25.70
  -3   4  -4 1135.79   25.50
   4  -4   4  279.67    8.50
  -4  -4  -4  281.47    8.00
  -4   4  -4  282.97    7.90
  -5  -4  -4   24.20    1.90
  -5   4  -4   23.50    1.90
  -7  -5   4  187.48    5.50
  -7   5   4  177.58    6.90
  -6  -5   4   39.40    2.00
  -6   5   4   36.70    2.70
   5  -5  -4  118.29    4.00
  -5  -5   4  115.09    3.60
  -5   5   4  110.59    4.70
   4  -5  -4 1613.74   35.00
  -4  -5   4 1562.94   34.80
   4  -5  -4 1596.14   34.70
  -4   5   4 1578.64   36.20
  -3  -5   4  751.52   17.40
   3  -5  -4  772.22   17.30
   3  -5  -4  763.92   17.40
  -3  -5   4  786.72   17.80
  -3   5   4  781.62   18.70
   2  -5  -4  247.38    6.30
  -2  -5   4  257.67    6.40
  -2  -5   4  244.38    6.20
   2  -5  -4  248.88    6.20
   2   5  -4  258.07    6.30
  -2   5   4  243.78    7.10
  -1  -5   4  477.95   10.80
   1  -5  -4  472.35   10.60
   1  -5  -4  465.85   11.00
  -1  -5   4  451.85   10.80
  -1  -5   4  470.35   10.60
  -1   5   4  459.05   11.60
  -1   5   4  457.65   10.30
   1   5  -4  464.85   10.80
   0  -5   4  308.07    7.60
   0  -5  -4  323.87    7.20
   0  -5  -4  307.37    7.80
   0   5   4  316.57    7.40
   0   5  -4  315.27    7.10
   0   5   4  313.27    8.20
   0   5  -4  307.77    7.70
   0   5  -4  318.37    8.00
   1  -5   4  294.37    7.20
  -1  -5  -4  300.27    6.70
  -1   5  -4  304.67    8.10
   1   5   4  295.37    7.30
   1   5   4  290.37    7.80
   2   5   4  229.48    6.10
  -2   5  -4  219.78    6.10
   2   5   4  230.08    6.40
  -3  -5  -4  496.45   12.70
  -3   5  -4  502.45   12.40
   3   5   4  510.95   12.30
  -4  -5  -4   70.59    3.30
  -4   5  -4   73.39    3.10
   4   5   4   70.89    3.00
  -5  -5  -4   74.89    3.60
   5  -5   4   72.79    3.90
  -5   5  -4   76.59    3.50
   5   5   4   75.19    3.40
  -6  -6   4  198.78    5.70
  -6   6   4  197.88    7.20
  -5  -6   4   14.30    1.20
   5  -6  -4   11.60    1.20
  -5   6   4   13.00    1.70
  -4  -6   4   17.00    1.20
   4  -6  -4   17.40    1.30
   4  -6  -4   18.00    1.20
  -4   6   4   18.10    1.80
   3  -6  -4   44.70    1.90
  -3  -6   4   48.00    2.00
   3  -6  -4   47.70    1.90
   2  -6  -4 3512.15   76.19
   2  -6  -4 3597.54   76.49
  -2  -6   4 3536.85   76.29
  -2  -6   4 3572.34   76.39
  -1  -6   4 1670.73   37.80
  -1  -6   4 1709.73   37.00
   1  -6  -4 1731.33   37.50
   1  -6  -4 1746.53   37.00
  -1   6   4 1693.43   36.70
   1   6  -4 1701.83   37.30
   0  -6  -4  109.39    2.90
   0   6  -4  107.29    3.30
   0   6  -4  102.89    3.60
   0   6   4  104.99    3.00
   1   6   4  205.88    5.30
  -1   6  -4  202.88    5.60
  -1   6  -4  201.38    6.10
  -2   6  -4  893.11   21.00
   2   6   4  945.71   20.90
   3   6   4   54.89    2.50
  -3   6  -4   58.29    2.60
  -4  -6  -4  264.77    8.00
  -4   6  -4  276.17    7.70
   4   6   4  261.87    7.50
  -5  -6  -4   21.10    2.00
   5   6   4   23.40    1.90
  -5   6  -4   24.70    2.00
  -6  -7   4   75.49    3.00
  -6   7   4   73.59    4.20
  -5  -7   4   73.29    2.80
   5  -7  -4   71.69    2.90
  -5   7   4   67.19    3.90
  -4  -7   4  132.29    4.10
   4  -7  -4  140.29    4.30
  -3  -7   4  117.79    3.70
   3  -7  -4  123.39    3.80
   3  -7  -4  122.29    3.70
   2  -7  -4  554.14   12.70
  -2  -7   4  539.15   12.80
  -2  -7   4  521.75   12.80
   2  -7  -4  561.84   13.50
   1  -7  -4   59.29    2.00
  -1  -7   4   55.39    2.20
   1   7  -4   56.89    2.30
   0  -7  -4  455.95   10.40
   0   7  -4  444.76   11.20
   0   7   4  461.15   10.40
   0   7  -4  437.46   10.90
   1   7   4  348.87    8.50
   2   7   4  301.87    7.70
  -2   7  -4  293.17    7.90
  -3   7  -4  279.77    7.80
   3   7   4  280.47    7.60
  -4   7  -4   82.19    3.50
   4   7   4   81.99    3.40
   5  -8  -4   33.70    2.00
  -5  -8   4   30.80    1.80
  -5   8   4   35.10    2.90
  -4  -8   4   42.70    2.10
   4  -8  -4   43.70    2.10
   3  -8  -4   96.39    3.30
  -3  -8   4   93.99    3.30
   2  -8  -4  231.38    6.20
  -2  -8   4  241.18    6.50
   2   8  -4  248.18    6.60
  -1  -8   4  299.97    7.90
   1  -8  -4  312.77    7.60
   1   8  -4  309.97    8.00
   0  -8  -4   63.49    2.20
   0   8  -4   64.79    2.60
   0   8   4   64.29    2.30
  -1   8  -4  127.79    4.20
   1   8   4  128.99    3.80
  -2   8  -4  116.29    4.00
   2   8   4  116.69    3.80
  -3   8  -4  161.28    5.30
   3   8   4  161.58    5.10
   4  -9  -4   25.60    1.70
  -4  -9   4   26.40    1.70
   3  -9  -4   53.29    2.30
  -3  -9   4   47.50    2.30
   2  -9  -4   25.90    1.50
  -2  -9   4   25.40    1.60
   2   9  -4   24.60    1.70
  -1  -9   4  176.38    5.30
   1  -9  -4  178.78    4.90
   1   9  -4  172.38    5.20
   0  -9   4  305.47    8.30
   0   9  -4  315.97    8.30
   1   9   4   29.10    1.60
  -1   9  -4   32.00    1.90
  -2   9  -4   30.70    2.00
   2   9   4   33.50    1.90
   2 -10  -4   56.79    2.50
  -2 -10   4   56.09    2.60
   2  10  -4   56.69    2.70
  -1 -10   4   56.19    2.60
   1 -10  -4   55.09    2.30
   1  10  -4   57.49    2.60
   0 -10   4   67.39    2.90
   0  10  -4   70.39    3.00
  -7   0   5  168.38    5.20
  -6   0   5  176.38    5.10
  -5   0   5   24.60    1.50
   5   0  -5   24.50    1.10
  -5   0   5   22.30    1.30
  -4   0   5  581.44   13.90
   4   0  -5  594.44   14.20
   4   0  -5  610.24   13.20
  -4   0   5  627.74   14.10
   3   0  -5 1033.40   23.90
   3   0  -5 1091.59   23.20
  -3   0   5 1109.09   23.90
   2   0  -5   73.59    1.90
   2   0  -5   74.79    2.40
  -2   0   5   80.19    2.40
  -2   0   5   74.09    2.30
   1   0  -5 1129.59   25.40
  -1   0   5 1168.78   25.20
   1   0  -5 1187.28   25.10
  -1   0   5 1161.98   25.60
   0   0  -5  335.07    7.70
   0   0   5  329.87    8.10
   0   0   5  327.27    7.40
   0   0  -5  320.87    7.70
  -1   0  -5  293.67    7.20
   1   0   5  295.57    7.70
   1   0   5  307.67    6.70
  -1   0  -5  292.77    7.30
  -2   0  -5  209.28    5.70
   2   0   5  204.08    6.00
  -2   0  -5  211.08    5.40
  -3   0  -5  780.62   17.80
  -4   0  -5    8.50    1.00
  -7  -1   5    1.20    0.60
  -7   1   5    0.60    0.60
  -6  -1   5  710.43   16.30
  -6   1   5  716.83   16.80
  -6   1   5  710.03   16.30
   6   1  -5  644.14   15.70
  -5  -1   5   88.79    3.00
  -5   1   5   88.79    3.30
   5   1  -5   89.19    2.60
  -5   1   5   82.49    2.90
   4  -1  -5   29.60    1.50
  -4  -1   5   28.60    1.30
  -4  -1   5   29.10    1.40
  -4   1   5   29.70    1.40
   4   1  -5   27.40    1.60
   4   1  -5   30.20    1.10
  -4   1   5   29.10    1.60
   3  -1  -5  334.97    8.20
  -3  -1   5  329.17    8.00
  -3  -1   5  352.66    8.00
  -3   1   5  343.67    8.40
   3   1  -5  325.27    8.30
  -3   1   5  324.17    8.00
   3   1  -5  344.27    7.60
  -2  -1   5 1538.85   33.30
   2  -1  -5 1461.15   33.40
  -2  -1   5 1538.45   33.30
   2  -1  -5 1578.44   32.70
   2   1  -5 1541.25   33.40
  -2   1   5 1513.15   33.60
   2   1  -5 1591.14   33.00
  -2   1   5 1522.35   33.20
   1  -1  -5  311.97    7.10
  -1  -1   5  317.77    7.30
  -1  -1   5  313.87    7.60
   1  -1  -5  315.77    7.50
   1   1  -5  318.27    7.20
  -1   1   5  305.67    7.20
   1   1  -5  316.27    7.40
  -1   1   5  308.57    7.70
   0  -1  -5  956.60   21.30
   0  -1   5  991.60   21.00
   0  -1   5  968.10   21.60
   0  -1  -5  963.90   21.20
   0   1  -5  953.80   21.10
   0   1   5  966.40   20.80
   0   1  -5  967.50   21.20
   0   1   5  949.80   21.70
   1  -1   5   16.90    0.70
   1  -1   5   16.80    1.20
  -1  -1  -5   15.20    1.00
  -1  -1  -5   16.00    1.00
   1   1   5   16.00    0.60
   1   1   5   14.10    1.10
  -1   1  -5   14.10    1.00
  -1   1  -5   15.50    0.80
  -2  -1  -5  445.06   10.70
   2  -1   5  445.96   11.30
   2  -1   5  464.15   10.00
  -2  -1  -5  451.15   11.00
  -2   1  -5  463.55   10.50
  -2   1  -5  449.66   11.00
   2   1   5  445.26   11.30
  -3  -1  -5  632.04   15.00
  -3   1  -5  655.33   14.80
  -4  -1  -5  231.78    6.50
  -5  -1  -5   66.89    3.00
  -5   1  -5   65.39    3.20
  -7  -2   5    4.30    1.00
  -7  -2   5    4.90    0.90
  -7   2   5    4.10    0.90
  -7   2   5    4.70    1.10
  -6  -2   5    2.40    0.80
  -6  -2   5    2.60    0.70
  -6   2   5    3.50    0.70
  -6   2   5    4.10    1.00
  -5  -2   5  273.97    7.10
  -5  -2   5  266.17    7.60
  -5   2   5  283.07    7.70
  -5   2   5  264.77    7.10
   5   2  -5  280.77    6.70
  -4  -2   5  463.45   11.20
   4  -2  -5  471.35   11.30
   4   2  -5  489.85   10.90
  -4   2   5  477.65   11.80
  -3  -2   5   17.20    0.80
   3  -2  -5   15.10    1.00
  -3  -2   5   16.80    1.00
   3   2  -5   17.20    1.10
   3   2  -5   19.00    0.90
  -3   2   5   20.60    1.10
  -3   2   5   17.80    1.30
  -2  -2   5  837.62   18.30
  -2  -2   5  828.12   18.50
   2  -2  -5  837.72   18.70
  -2   2   5  851.71   18.50
   2   2  -5  848.12   18.30
  -2   2   5  812.02   19.00
   2   2  -5  831.12   18.70
   1  -2  -5  114.59    2.80
   1  -2  -5  111.19    3.20
  -1  -2   5  111.09    3.00
  -1  -2   5  112.69    3.20
  -1   2   5  112.59    2.90
   1   2  -5  112.59    3.00
   1   2  -5  110.69    3.10
   0  -2   5  485.85   10.90
   0  -2  -5  493.45   11.00
   0  -2  -5  477.15   11.20
   0  -2   5  486.95   11.50
   0   2  -5  479.55   10.90
   0   2   5  467.55   11.60
   0   2  -5  482.45   11.10
   0   2   5  498.85   10.70
   1  -2   5  570.94   13.60
  -1  -2  -5  579.84   13.30
   1  -2   5  577.04   12.70
  -1  -2  -5  578.84   13.20
  -1   2  -5  580.74   13.30
   1   2   5  546.05   13.50
  -1   2  -5  567.64   12.70
   2  -2   5  337.17    7.40
  -2  -2  -5  327.27    8.20
   2  -2   5  318.27    8.60
  -2  -2  -5  315.07    8.10
   2   2   5  313.07    8.40
  -2   2  -5  320.87    8.50
  -2   2  -5  320.17    7.60
  -3  -2  -5  610.74   14.30
   3  -2   5  583.14   14.80
  -4  -2  -5  185.38    5.70
  -4   2  -5  187.28    5.90
  -5  -2  -5   65.79    3.00
  -5   2  -5   63.39    3.20
  -7  -3   5   81.99    3.70
  -7  -3   5   89.79    3.30
  -7   3   5   83.29    4.00
  -7   3   5   81.89    3.30
  -6  -3   5   20.40    1.70
  -6  -3   5   17.80    1.40
  -6   3   5   22.30    1.90
  -6   3   5   18.40    1.40
  -5  -3   5  493.35   11.90
  -5   3   5  507.05   12.90
  -5   3   5  492.95   12.00
  -4  -3   5 1684.73   36.40
   4  -3  -5 1649.04   36.40
   4   3  -5 1653.13   36.10
  -4   3   5 1666.73   37.30
  -3  -3   5  201.58    5.30
   3  -3  -5  196.68    5.30
  -3  -3   5  193.08    5.40
   3   3  -5  205.28    5.10
  -3   3   5  200.38    5.20
  -3   3   5  212.18    5.90
  -2  -3   5  280.17    6.50
  -2  -3   5  274.47    6.80
   2  -3  -5  285.17    7.00
  -2   3   5  283.67    6.80
   2   3  -5  283.37    6.70
  -2   3   5  280.97    7.50
   2   3  -5  287.57    7.00
   1  -3  -5  222.38    5.70
  -1  -3   5  225.58    5.60
  -1  -3   5  220.98    5.40
  -1   3   5  212.68    6.00
   1   3  -5  210.88    5.40
   1   3  -5  220.88    5.40
  -1   3   5  226.18    5.30
  -1   3   5  222.68    5.10
   0  -3  -5  709.73   16.30
   0  -3   5  711.73   16.50
   0  -3   5  723.83   15.90
   0  -3  -5  716.93   16.00
   0   3  -5  711.43   16.20
   0   3  -5  729.53   15.80
   0   3   5  721.43   16.70
   0   3   5  722.23   15.60
   1  -3   5  676.33   14.70
   1  -3   5  655.93   15.60
  -1  -3  -5  667.43   15.10
  -1  -3  -5  651.13   15.30
  -1   3  -5  671.53   15.20
  -1   3  -5  654.53   14.50
   1   3   5  655.63   15.70
  -2  -3  -5  663.03   15.70
   2  -3   5  691.33   15.00
  -2  -3  -5  658.53   15.80
   2  -3   5  679.43   16.30
   3  -3   5  220.08    7.00
  -3  -3  -5  230.18    6.50
   3  -3   5  229.68    5.50
  -3   3  -5  219.48    6.40
  -4  -3  -5   30.50    2.00
  -4   3  -5   31.30    2.00
  -5  -3  -5   13.30    1.50
  -5   3  -5   13.70    1.50
  -7  -4   5   69.39    2.90
  -7  -4   5   67.39    3.40
  -7   4   5   70.49    3.00
  -7   4   5   69.99    3.70
  -6  -4   5  110.19    3.80
  -6   4   5  116.19    3.90
  -6   4   5  112.99    4.70
  -5  -4   5  350.46    8.90
  -5   4   5  362.76   10.10
  -4  -4   5   75.99    2.70
   4  -4  -5   76.39    3.10
  -4   4   5   71.59    3.30
   3  -4  -5  327.87    8.10
  -3  -4   5  342.67    8.40
  -3  -4   5  325.37    8.10
   3   4  -5  345.17    8.10
  -3   4   5  338.67    8.10
  -3   4   5  319.17    8.90
  -2  -4   5 1213.48   26.20
   2  -4  -5 1209.28   26.80
  -2  -4   5 1160.18   26.60
  -2   4   5 1206.58   26.50
  -2   4   5 1225.68   27.50
   2   4  -5 1236.38   26.80
   2   4  -5 1222.78   26.50
  -1  -4   5  395.36    9.20
  -1  -4   5  384.26    9.10
   1  -4  -5  374.06    9.40
  -1   4   5  401.06    8.70
   1   4  -5  393.06    9.00
  -1   4   5  381.26    9.90
  -1   4   5  393.36    8.90
   0  -4  -5  396.86    9.80
   0  -4  -5  401.96    8.90
   0  -4   5  395.36    9.30
   0  -4   5  405.36    9.80
   0   4  -5  391.96    9.50
   0   4   5  410.66    9.20
   0   4  -5  401.46    9.00
   0   4   5  392.86   10.10
   1  -4   5  458.35   10.60
   1  -4   5  450.55   11.40
  -1  -4  -5  465.75   10.90
   1   4   5  457.15   11.40
  -2  -4  -5  912.61   21.90
   2  -4   5  954.80   22.40
   2  -4   5  986.90   21.10
  -2   4  -5  950.50   21.80
  -3  -4  -5  186.68    5.90
   3  -4   5  205.48    5.40
   3  -4   5  195.88    6.40
  -3   4  -5  190.08    5.80
  -4  -4  -5   78.19    3.40
   4  -4   5   79.99    3.90
  -4   4  -5   76.79    3.40
  -5  -4  -5   83.49    3.80
  -5   4  -5   86.99    3.90
  -6  -5   5   89.19    3.30
  -6   5   5   91.99    3.40
  -6   5   5   92.29    4.40
  -5  -5   5   92.79    3.20
  -5   5   5   90.69    4.10
  -4  -5   5  188.58    5.20
  -4   5   5  184.78    6.30
  -3  -5   5  640.14   15.40
  -3  -5   5  655.23   15.10
   3  -5  -5  666.73   15.10
  -3   5   5  660.53   16.20
   2  -5  -5 1421.06   31.30
   2  -5  -5 1416.46   31.00
   1  -5  -5  279.07    7.30
   1  -5  -5  280.17    6.70
  -1  -5   5  282.97    7.00
   1   5  -5  289.87    6.80
  -1   5   5  281.07    6.50
   0  -5  -5  373.36    8.30
   0  -5   5  362.06    9.20
   0   5   5  357.86    8.50
   1  -5   5  838.32   20.00
   1   5   5  867.21   19.20
  -2  -5  -5  252.57    8.10
   2  -5   5  264.27    7.80
   2   5   5  275.97    7.00
  -2   5  -5  266.07    7.20
  -3  -5  -5  214.48    6.60
   3  -5   5  215.88    7.10
  -3   5  -5  225.58    6.50
   3   5   5  226.48    6.30
   4  -5   5   16.20    1.90
  -4  -5  -5   21.00    1.80
  -4   5  -5   18.00    1.60
   4   5   5   19.50    1.60
  -5  -5  -5  139.99    5.40
   5  -5   5  136.39    5.80
  -5   5  -5  137.29    5.20
   5   5   5  139.49    5.00
  -6  -6   5  120.29    4.10
  -6   6   5  124.29    5.40
   5  -6  -5   68.49    2.80
  -5  -6   5   70.19    2.80
  -5   6   5   81.59    4.00
   4  -6  -5    7.10    0.90
  -4  -6   5    7.80    0.90
  -4   6   5    8.60    1.40
  -3  -6   5  185.78    5.20
   3  -6  -5  194.68    5.10
  -3   6   5  177.38    6.30
  -2  -6   5  514.85   12.00
   2  -6  -5  516.15   11.90
  -2  -6   5  503.85   12.00
   1  -6  -5  188.98    4.70
   1   6  -5  176.28    4.70
   0  -6  -5   16.90    0.90
   0  -6   5   16.80    1.30
   1  -6   5  501.85   12.80
   1   6   5  509.85   11.90
  -1   6  -5  508.65   12.30
   2   6   5  455.65   11.00
  -2   6  -5  442.26   11.20
  -3  -6  -5  370.86   11.20
  -3   6  -5  384.46   10.10
   3   6   5  383.36    9.80
   4  -6   5  411.06   12.00
  -4  -6  -5  402.66   11.40
  -4   6  -5  418.66   11.10
   4   6   5  424.46   10.90
  -5  -7   5  174.48    5.30
   5  -7  -5  172.78    5.30
  -5   7   5  178.08    6.80
   4  -7  -5  131.59    4.10
  -4  -7   5  126.79    4.10
  -4   7   5  128.09    5.30
   3  -7  -5  353.46    8.80
  -3  -7   5  350.76    8.90
   2  -7  -5  930.51   20.60
  -2  -7   5  917.51   20.90
  -2  -7   5  910.01   20.80
   1  -7  -5  677.33   15.30
   0  -7   5   13.20    1.30
   0   7  -5   11.60    1.10
   1   7   5  357.36    8.70
  -1   7  -5  351.06    9.20
  -2   7  -5   58.49    2.70
   2   7   5   63.79    2.60
   3   7   5  212.08    6.20
  -3   7  -5  209.88    6.50
   5  -8  -5   18.30    1.60
  -5  -8   5   16.90    1.40
  -5   8   5   18.20    2.20
  -4  -8   5   37.20    2.00
   4  -8  -5   35.00    2.00
   3  -8  -5  411.86   10.20
  -3  -8   5  415.16   10.40
   2  -8  -5 1324.07   29.20
  -2  -8   5 1315.47   29.60
   1  -8  -5  110.39    3.30
   1   8  -5  109.29    3.70
   0   8  -5  182.48    5.40
  -1   8  -5   79.89    3.20
   1   8   5   77.39    2.80
   2   8   5   67.79    2.70
  -2   8  -5   66.79    3.00
   3   8   5  213.78    6.30
  -3   8  -5  209.38    6.60
  -3  -9   5    4.00    0.80
   3  -9  -5    3.30    0.80
  -2  -9   5   61.59    2.70
   2  -9  -5   61.39    2.50
  -1  -9   5  107.29    3.80
   1  -9  -5  108.09    3.40
   1   9  -5  108.19    3.80
   0   9  -5   68.99    2.90
  -1   9  -5   91.19    3.60
  -7   0   6   63.39    2.80
  -6   0   6  343.97    8.90
  -5   0   6  362.46    9.10
  -5   0   6  347.87    8.90
  -4   0   6  309.27    7.90
  -3   0   6    6.70    0.70
   3   0  -6    6.60    0.40
   3   0  -6    6.70    0.80
  -3   0   6    6.20    0.70
  -2   0   6  444.36   10.90
   2   0  -6  478.15   10.30
   2   0  -6  460.05   10.80
  -2   0   6  464.65   10.60
  -1   0   6  298.27    7.10
   1   0  -6  305.87    7.10
  -1   0   6  304.87    7.60
   1   0  -6  296.77    7.30
   0   0   6   12.80    0.70
   0   0   6   12.60    1.10
   0   0  -6   12.30    0.90
   0   0  -6   11.60    0.80
   1   0   6  141.19    3.30
  -1   0  -6  136.69    4.00
   1   0   6  133.99    4.40
  -1   0  -6  136.29    3.90
   2   0   6 1672.53   37.10
  -2   0  -6 1615.34   36.00
  -3   0  -6  670.93   15.60
  -4   0  -6   86.29    3.20
  -7  -1   6   15.30    1.40
  -7   1   6   16.40    1.50
  -6  -1   6   29.50    1.70
  -6   1   6   28.40    1.90
  -6   1   6   27.10    1.70
  -5  -1   6  723.53   16.60
  -5   1   6  692.43   16.60
  -5   1   6  727.33   17.00
  -4  -1   6  281.37    7.10
  -4   1   6  275.47    7.50
   4   1  -6  288.67    6.60
  -3  -1   6  254.17    6.20
  -3  -1   6  246.48    6.30
   3  -1  -6  233.98    6.30
   3   1  -6  247.28    6.40
  -3   1   6  246.18    6.20
  -3   1   6  244.58    6.60
   3   1  -6  257.17    5.80
  -2  -1   6  734.33   16.30
  -2  -1   6  727.33   16.30
   2  -1  -6  715.43   15.70
   2  -1  -6  727.43   16.40
   2   1  -6  743.23   16.00
  -2   1   6  713.63   16.20
   2   1  -6  710.13   16.40
  -2   1   6  731.13   16.70
   1  -1  -6  656.43   15.10
   1  -1  -6  648.64   14.70
  -1  -1   6  676.83   15.30
  -1  -1   6  689.13   14.90
   1   1  -6  661.33   15.00
  -1   1   6  654.43   14.70
  -1   1   6  646.04   15.40
   1   1  -6  683.23   14.80
   0  -1   6  583.94   12.70
   0  -1  -6  559.34   13.10
   0  -1  -6  566.34   13.00
   0  -1   6  544.05   13.40
   0   1   6  571.04   12.50
   0   1   6  581.84   13.60
   0   1  -6  555.34   12.90
   0   1  -6  582.74   13.10
  -1  -1  -6  489.85   11.60
   1  -1   6  492.95   12.20
  -1  -1  -6  485.15   11.60
   1  -1   6  503.55   11.00
   1   1   6  495.35   12.10
  -1   1  -6  488.65   11.70
  -1   1  -6  488.35   11.30
   2  -1   6   63.39    2.90
  -2  -1  -6   64.29    2.50
  -2   1  -6   70.19    2.30
  -3  -1  -6  367.26    9.40
  -3   1  -6  373.56    9.10
  -4  -1  -6   89.99    3.40
  -5  -1  -6    2.50    0.80
  -7  -2   6  104.39    3.80
  -7   2   6   96.09    3.70
  -6  -2   6  247.38    6.80
  -6   2   6  227.18    6.60
  -6   2   6  252.17    7.40
  -5   2   6  360.06    9.60
   5   2  -6  337.97    9.40
   5   2  -6  371.96    8.50
  -4  -2   6  605.54   14.20
   4   2  -6  607.34   14.60
   4   2  -6  624.34   13.70
  -4   2   6  606.94   14.80
   3  -2  -6  314.07    7.90
  -3  -2   6  314.67    7.50
  -3  -2   6  321.27    7.80
   3   2  -6  327.87    7.40
  -3   2   6  307.17    8.30
  -3   2   6  318.47    7.80
   3   2  -6  317.97    8.00
   2  -2  -6  374.76    9.00
  -2  -2   6  371.96    8.90
  -2  -2   6  373.86    8.80
   2   2  -6  356.16    8.90
   2   2  -6  384.56    8.70
  -2   2   6  378.56    9.40
  -2   2   6  378.86    8.80
   1  -2  -6  855.51   18.60
  -1  -2   6  848.82   18.80
  -1  -2   6  859.71   19.20
   1  -2  -6  836.42   19.10
   1   2  -6  845.62   18.90
   1   2  -6  849.22   18.90
  -1   2   6  835.92   19.50
  -1   2   6  872.51   18.70
   0  -2  -6  852.81   19.80
   0  -2  -6  867.61   19.50
   0  -2   6  893.71   19.30
   0  -2   6  868.11   20.10
   0   2  -6  878.21   19.40
   0   2  -6  868.21   19.60
   0   2   6  896.61   19.10
   0   2   6  895.91   20.30
   1  -2   6  704.23   16.80
  -1  -2  -6  685.83   16.30
  -1  -2  -6  706.03   16.20
   1  -2   6  714.73   15.60
  -1   2  -6  722.53   16.30
  -1   2  -6  713.13   15.80
  -2  -2  -6  887.21   20.30
   2  -2   6  898.51   21.00
   2  -2   6  901.81   19.40
  -2   2  -6  860.31   19.70
  -3  -2  -6   98.09    3.50
   3  -2   6   93.09    4.00
  -4  -2  -6  114.89    4.20
  -5  -2  -6   48.80    2.70
  -5   2  -6   52.69    3.00
  -7  -3   6   47.40    2.40
  -7   3   6   49.40    3.00
  -7   3   6   47.70    2.40
  -6  -3   6   81.19    3.10
  -6   3   6   85.49    3.80
  -6   3   6   79.39    3.10
  -5  -3   6  467.65   11.40
  -5   3   6  484.75   12.40
   5   3  -6  453.75   11.90
  -4  -3   6  413.56   10.10
   4   3  -6  411.56   10.50
   4   3  -6  430.76    9.80
  -4   3   6  407.36   10.90
   3   3  -6  831.92   18.20
  -3   3   6  805.62   18.40
   3   3  -6  828.62   18.80
  -3   3   6  806.22   19.20
  -2  -3   6   61.39    2.00
  -2  -3   6   58.69    2.10
   2  -3  -6   73.39    2.50
   2   3  -6   63.99    2.10
  -2   3   6   61.49    2.60
  -2   3   6   61.39    2.10
   2   3  -6   62.69    2.20
  -1  -3   6  608.74   13.90
  -1  -3   6  596.34   13.60
   1  -3  -6  600.24   13.30
   1  -3  -6  605.64   14.00
  -1   3   6  619.74   13.50
  -1   3   6  579.74   14.40
   1   3  -6  606.34   13.60
   1   3  -6  593.94   13.60
   0  -3   6    8.60    0.70
   0  -3  -6    8.20    0.70
   0  -3   6    7.70    0.90
   0  -3  -6    7.30    0.80
   0   3  -6    7.20    0.80
   0   3   6    8.10    1.00
   0   3   6    7.60    0.50
   0   3  -6    6.90    0.70
   1  -3   6  340.27    7.80
   1  -3   6  320.37    8.80
  -1  -3  -6  331.77    8.50
  -1  -3  -6  333.97    8.30
  -1   3  -6  334.97    7.70
  -2  -3  -6   60.49    2.60
   2  -3   6   59.19    2.90
   2  -3   6   61.89    2.00
  -3  -3  -6   97.99    3.70
   3  -3   6   98.79    4.10
   4  -3   6   31.40    2.40
  -4  -3  -6   28.90    2.00
  -4   3  -6   28.80    2.10
  -5  -3  -6  253.37    7.80
  -5   3  -6  260.17    8.10
  -7  -4   6   20.90    1.70
  -7   4   6   20.30    1.70
  -7   4   6   22.30    2.20
  -6  -4   6   20.90    1.50
  -6   4   6   18.00    1.70
  -6   4   6   18.90    1.90
  -5  -4   6   78.79    3.00
  -5   4   6   76.69    3.60
  -4  -4   6  180.88    5.10
   4   4  -6  184.08    5.50
  -4   4   6  181.48    6.00
  -3   4   6  180.98    5.70
   3   4  -6  190.18    5.30
   3   4  -6  178.58    5.30
  -2  -4   6  239.28    6.40
  -2   4   6  271.67    7.50
  -2   4   6  271.37    6.60
   2   4  -6  271.07    6.70
   2   4  -6  276.27    6.60
  -1  -4   6   61.19    2.40
  -1  -4   6   62.09    2.30
   1   4  -6   63.29    2.20
  -1   4   6   61.99    2.00
   1   4  -6   62.49    2.10
   0  -4   6  652.03   15.20
   0  -4  -6  646.24   14.10
   0  -4   6  636.34   14.60
   0   4  -6  633.54   14.30
   0   4   6  649.24   14.50
   1  -4   6 1845.92   41.80
  -1  -4  -6 1907.21   41.10
   1  -4   6 1925.51   40.80
  -1  -4  -6 1843.62   41.50
   2  -4   6  237.08    6.10
  -2  -4  -6  223.58    6.60
   2  -4   6  227.28    7.00
  -3  -4  -6  106.69    4.00
   3  -4   6  110.79    4.50
  -3   4  -6  110.39    4.10
   4  -4   6  171.78    6.30
  -4  -4  -6  169.18    5.80
  -4   4  -6  168.38    5.80
  -6  -5   6    0.80    0.60
  -6   5   6    0.60    0.70
  -5  -5   6  200.78    5.70
  -5   5   6  195.78    6.80
  -4  -5   6   65.99    2.60
  -4   5   6   65.49    3.30
  -3  -5   6   61.89    2.40
  -3   5   6   68.19    3.20
   3   5  -6   67.19    2.60
   2  -5  -6  873.21   19.30
  -2   5   6  814.02   20.50
   2   5  -6  904.51   19.60
  -1  -5   6  271.57    7.00
   1  -5  -6  273.17    6.60
   1   5  -6  276.87    6.70
   0  -5   6  281.67    7.60
   0   5   6  283.97    6.90
   1  -5   6   31.70    2.00
   1   5   6   33.20    1.60
   2  -5   6  107.09    4.30
  -2  -5  -6  109.89    4.10
   2   5   6  107.89    3.60
  -3  -5  -6   37.70    2.30
   3  -5   6   38.20    2.60
  -3   5  -6   36.50    2.20
   3   5   6   38.60    2.10
  -4  -5  -6  134.59    5.10
   4  -5   6  133.59    5.60
  -4   5  -6  148.59    5.20
   4   5   6  132.09    4.80
  -6  -6   6  164.68    5.20
   6  -6  -6  162.28    5.20
  -6   6   6  166.28    6.60
  -5  -6   6   31.90    1.80
   5  -6  -6   32.70    1.90
  -5   6   6   35.70    2.60
  -4  -6   6   31.40    1.70
   4  -6  -6   29.80    1.70
  -4   6   6   30.90    2.40
   3  -6  -6   12.60    1.10
  -3  -6   6   11.50    1.10
  -3   6   6   13.10    1.60
   3   6  -6   11.80    1.20
   2  -6  -6  288.77    7.20
   2   6  -6  287.87    7.40
   1  -6  -6  179.48    4.60
   0  -6   6   10.80    1.20
   1  -6   6  251.07    7.40
   2  -6   6  368.66   10.30
  -2   6  -6  354.56    9.60
   2   6   6  374.06    9.30
  -3  -6  -6   65.09    3.30
   3  -6   6   70.29    3.70
  -3   6  -6   67.49    3.10
   3   6   6   70.99    3.00
  -5  -7   6  294.67    7.90
   5  -7  -6  297.57    7.90
  -5   7   6  282.57    9.40
   4  -7  -6   57.09    2.50
  -4  -7   6   56.79    2.50
  -4   7   6   57.09    3.40
  -3  -7   6  355.36    9.20
   3  -7  -6  371.36    9.00
   2  -7  -6  312.47    7.80
   1  -7  -6  119.49    3.40
   1  -7   6    5.50    1.10
  -1   7  -6    5.90    1.00
   2  -7   6   69.49    3.50
  -2   7  -6   64.29    3.00
   2   7   6   67.59    2.80
   3  -7   6  116.29    5.00
   3   7   6  117.99    4.20
  -3   7  -6  114.59    4.40
   4  -8  -6   35.40    2.00
  -4  -8   6   39.30    2.10
   3  -8  -6  327.27    8.30
  -3  -8   6  322.07    8.60
  -2  -8   6  345.87    9.10
   2  -8  -6  361.86    8.80
   0   8  -6   59.19    2.70
   1  -8   6  147.99    5.40
  -1   8  -6  156.28    5.00
   2  -8   6  150.68    5.70
  -2   8  -6  145.29    5.10
  -2  -9   6  161.08    5.10
   2  -9  -6  162.48    4.70
   0   9  -6   62.89    2.90
  -7   0   7    0.70    0.60
  -6   0   7  288.37    7.80
  -4   0   7   67.49    2.60
   4   0  -7   63.59    2.70
   3   0  -7  596.84   14.30
  -3   0   7  638.04   14.30
  -3   0   7  605.54   14.30
   2   0  -7  599.84   13.00
  -2   0   7  576.04   13.20
  -2   0   7  571.84   13.60
   2   0  -7  570.54   13.50
  -1   0   7    6.10    0.60
   1   0  -7    3.60    0.70
  -1   0   7    3.90    0.70
   0   0   7 1233.18   26.50
   0   0  -7 1240.98   27.00
   0   0   7 1197.88   27.60
   0   0  -7 1212.78   27.00
  -1   0  -7   44.80    2.00
   1   0   7   43.00    2.30
  -1   0  -7   42.80    1.90
  -2   0  -7  350.66    8.60
   2   0   7  330.87    9.40
  -3   0  -7  156.38    4.80
  -7  -1   7  241.48    6.90
  -7   1   7  235.18    6.90
  -6  -1   7  324.77    8.50
  -6   1   7  307.07    8.40
  -5  -1   7 1317.67   30.20
  -5   1   7 1337.77   29.90
   5   1  -7 1295.87   30.00
  -4  -1   7  822.02   18.30
   4   1  -7  778.62   18.60
  -4   1   7  806.62   18.70
   3  -1  -7 1001.80   22.40
  -3  -1   7  985.00   22.20
   3   1  -7 1036.20   21.60
   3   1  -7  978.00   22.30
  -3   1   7  963.30   22.50
  -3   1   7  972.90   22.10
   2  -1  -7  191.68    4.70
  -2  -1   7  200.38    5.10
  -2  -1   7  197.88    5.30
   2  -1  -7  188.18    5.30
   2   1  -7  205.88    4.90
   2   1  -7  196.78    5.30
  -2   1   7  197.28    5.60
  -2   1   7  199.18    5.10
  -1  -1   7  624.64   14.80
   1  -1  -7  628.44   14.20
   1  -1  -7  617.84   14.60
  -1  -1   7  636.44   14.20
   1   1  -7  636.64   14.50
   1   1  -7  637.34   14.30
  -1   1   7  638.94   14.20
  -1   1   7  636.84   15.00
   0  -1   7  225.28    6.40
   0  -1  -7  231.18    5.90
   0  -1   7  238.88    5.60
   0  -1  -7  222.48    6.00
   0   1  -7  227.58    5.90
   0   1   7  225.58    5.40
   0   1   7  231.58    6.50
   0   1  -7  231.38    6.00
   1  -1   7  228.88    6.70
  -1  -1  -7  234.38    6.30
   1  -1   7  241.48    5.60
  -1  -1  -7  230.78    6.30
  -1   1  -7  227.58    6.00
   1   1   7  229.38    6.80
  -2  -1  -7  639.04   15.00
   2  -1   7  627.94   15.80
  -2   1  -7  633.94   14.70
   3  -1   7   90.69    4.00
  -3  -1  -7   90.39    3.40
  -4  -1  -7   11.60    1.30
  -7  -2   7   88.09    3.60
  -7   2   7   91.39    3.50
  -6  -2   7  160.68    5.10
   6   2  -7  150.08    6.10
  -6   2   7  187.08    5.90
  -5   2   7  140.19    4.90
   4   2  -7   48.40    1.70
  -4   2   7   46.70    2.40
   4   2  -7   47.90    2.30
  -3  -2   7  333.07    8.10
   3   2  -7  337.67    7.80
  -3   2   7  333.97    8.80
   3   2  -7  331.07    8.40
  -2  -2   7  445.16   10.60
   2  -2  -7  445.86   10.80
  -2  -2   7  445.06   10.50
   2   2  -7  448.36   10.60
   2   2  -7  453.15   10.30
  -2   2   7  436.56   11.10
  -2   2   7  452.85   10.40
  -1  -2   7  165.98    4.80
   1  -2  -7  163.98    4.20
  -1  -2   7  165.58    4.40
   1  -2  -7  162.38    4.70
  -1   2   7  166.18    4.20
  -1   2   7  162.88    5.00
   1   2  -7  161.08    4.40
   1   2  -7  167.08    4.50
   0  -2  -7  492.35   11.70
   0  -2   7  490.15   12.00
   0  -2  -7  483.35   11.40
   0  -2   7  479.25   11.10
   0   2  -7  500.85   11.60
   0   2  -7  483.35   11.20
   0   2   7  475.75   12.10
   1  -2   7  894.51   19.30
  -1  -2  -7  868.01   20.00
   1  -2   7  870.11   20.70
  -1  -2  -7  897.21   20.20
  -1   2  -7  855.81   19.50
  -2  -2  -7  822.32   19.30
   2  -2   7  840.42   20.10
   3  -2   7   32.40    2.40
  -3  -2  -7   33.20    2.00
  -4  -2  -7   54.39    2.70
  -7  -3   7  121.49    4.30
  -7   3   7  118.69    4.30
  -7   3   7  120.79    5.00
   7   3  -7  111.89    5.30
  -6  -3   7   26.50    1.80
  -6   3   7   26.80    2.10
   6   3  -7   28.50    2.00
  -5  -3   7  121.39    4.00
  -5   3   7  115.39    4.50
   5   3  -7  116.39    4.20
  -4   3   7  210.38    6.60
   4   3  -7  218.98    6.20
   4   3  -7  220.58    5.50
   3   3  -7  750.42   16.70
  -3   3   7  736.83   17.80
   3   3  -7  750.02   17.30
  -2  -3   7 1047.80   22.70
   2   3  -7 1003.90   22.70
  -2   3   7 1034.50   22.50
   2   3  -7 1017.40   22.50
  -2   3   7  985.00   23.50
  -1  -3   7  544.95   12.50
  -1  -3   7  535.35   12.80
   1  -3  -7  544.05   12.90
  -1   3   7  552.24   12.20
   1   3  -7  545.25   12.40
   1   3  -7  540.35   12.60
  -1   3   7  519.75   13.30
   0  -3   7  365.26    8.50
   0  -3  -7  353.66    9.10
   0  -3   7  363.36    9.30
   0  -3  -7  353.06    8.60
   0   3  -7  357.46    8.40
   0   3   7  356.96    9.50
  -1  -3  -7  420.46   10.70
  -1  -3  -7  440.26   10.60
   1  -3   7  431.76   10.00
   1  -3   7  433.96   11.20
  -2  -3  -7  315.67    8.60
   2  -3   7  328.77    9.20
   3  -3   7  476.05   12.90
  -3  -3  -7  470.95   12.20
   4  -3   7  105.39    4.80
  -4  -3  -7  101.09    4.10
  -6  -4   7  204.78    6.10
  -6   4   7  215.38    7.10
   6   4  -7  195.78    6.50
  -5  -4   7   46.20    2.30
  -5   4   7   51.49    2.90
   5   4  -7   53.19    2.60
  -4  -4   7   64.89    2.70
   4   4  -7   65.39    2.80
  -4   4   7   72.99    3.30
   3   4  -7  143.69    4.40
  -3   4   7  139.89    4.90
   2   4  -7  143.19    4.10
  -2   4   7  135.09    3.90
  -1  -4   7  634.74   14.70
  -1   4   7  622.04   14.00
  -1   4   7  609.84   15.40
   1   4  -7  636.94   14.30
   0  -4  -7    2.10    0.60
   0  -4   7    1.70    0.60
   0  -4  -7    1.60    0.60
   1  -4   7    4.00    0.90
  -1  -4  -7    5.90    1.00
  -1  -4  -7    3.70    0.80
  -2  -4  -7  217.18    6.60
   2  -4   7  227.18    7.10
  -3  -4  -7  360.06   10.00
   3  -4   7  376.26   10.80
  -4  -4  -7   53.99    3.00
  -6  -5   7    4.60    0.90
  -6   5   7    6.80    1.50
   6   5  -7    3.50    1.00
  -5  -5   7  247.18    7.00
   5   5  -7  248.78    7.40
  -5   5   7  258.27    8.20
  -4  -5   7   41.60    2.10
   4   5  -7   43.50    2.30
  -3   5   7   45.00    2.60
   3   5  -7   46.00    2.10
  -2   5   7  217.08    6.90
   2   5  -7  228.98    5.90
   1  -5  -7   87.39    2.60
  -1  -5   7   86.99    3.10
   0  -5   7  295.57    8.10
   1  -5   7  146.39    5.10
  -1  -5  -7  139.49    4.80
   1   5   7  148.89    4.30
  -2  -5  -7   80.79    3.60
   2  -5   7   86.59    3.90
   2   5   7   87.69    3.20
  -3  -5  -7  238.88    7.50
   3  -5   7  252.27    8.10
   3   5   7  250.17    7.10
   5  -6  -7  140.49    4.60
  -5  -6   7  149.19    4.70
   5   6  -7  157.88    5.20
  -5   6   7  134.59    5.70
  -4  -6   7    1.90    0.60
   4  -6  -7    2.20    0.70
   4   6  -7    3.80    0.90
  -4   6   7    2.40    0.90
   3  -6  -7    2.30    0.60
  -3   6   7    3.10    1.00
   3   6  -7    2.00    0.60
   2  -6  -7  178.28    4.80
   0  -6   7  367.06    9.70
   1  -6   7  192.18    6.20
   2  -6   7   50.19    2.90
  -2  -6  -7   50.09    2.80
   2   6   7   52.09    2.40
  -3  -6  -7   31.60    2.30
   3  -6   7   29.00    2.50
  -3   6  -7   29.50    2.20
   3   6   7   29.10    2.00
   5  -7  -7  271.17    7.40
  -5  -7   7  255.17    7.40
  -5   7   7  260.87    8.90
   5   7  -7  268.27    7.90
   4  -7  -7   99.49    3.50
  -4  -7   7  100.09    3.70
   4   7  -7  107.59    4.00
  -4   7   7  101.69    4.80
  -3  -7   7   25.30    1.70
   3  -7  -7   26.50    1.60
  -3   7   7   23.90    2.60
   2  -7  -7   10.00    1.00
   1  -7   7  108.79    4.30
   2  -7   7  105.79    4.60
  -2   7  -7  102.29    4.10
   3  -8  -7   86.29    3.10
  -3  -8   7   84.49    3.30
  -1   8  -7   93.49    3.80
  -7   0   8    4.50    1.00
  -4   0   8  646.34   15.10
   4   0  -8  622.44   15.10
  -3   0   8 1007.50   22.80
   3   0  -8  983.70   22.60
  -2   0   8   30.80    1.50
   2   0  -8   29.80    1.30
   2   0  -8   29.50    1.60
  -2   0   8   29.70    1.70
   1   0  -8  660.13   15.10
   1   0  -8  659.13   15.40
  -1   0   8  669.33   15.90
  -1   0   8  668.53   15.00
   0   0  -8 2428.96   52.99
   0   0  -8 2479.45   53.09
   0   0   8 2383.56   52.39
   0   0   8 2475.85   53.79
   1   0   8  739.33   18.10
  -1   0  -8  759.52   17.40
   2   0   8  132.09    4.90
  -2   0  -8  128.59    4.10
  -3   0  -8   43.40    2.20
  -7  -1   8   25.30    1.90
  -7   1   8   25.90    1.90
  -6  -1   8  572.74   14.10
  -5   1   8  297.07    8.10
   5   1  -8  273.97    7.80
  -4   1   8  981.30   22.50
   4   1  -8  958.20   22.20
   3  -1  -8  147.09    4.50
  -3  -1   8  150.48    4.40
   3   1  -8  148.79    4.50
  -3   1   8  148.59    4.70
  -2  -1   8  617.24   14.70
   2  -1  -8  624.94   14.60
   2   1  -8  606.74   14.50
  -2   1   8  624.14   15.00
   2   1  -8  646.24   14.20
  -2   1   8  630.74   14.30
   1  -1  -8  430.56   10.50
  -1  -1   8  429.26   10.70
  -1  -1   8  426.96   10.00
   1  -1  -8  420.46   10.00
  -1   1   8  425.46   10.90
  -1   1   8  426.46    9.90
   1   1  -8  423.06   10.30
   1   1  -8  439.96   10.20
   0  -1  -8   31.20    1.60
   0  -1  -8   37.10    1.90
   0  -1   8   31.40    1.90
   0  -1   8   30.50    1.30
   0   1  -8   30.30    1.60
   0   1   8   31.40    2.00
  -1  -1  -8  551.24   13.10
   1  -1   8  520.75   13.60
  -1   1  -8  554.94   12.80
   1   1   8  541.45   13.70
   2  -1   8   68.79    3.40
  -2  -1  -8   75.29    2.90
  -2   1  -8   71.19    2.70
   2   1   8   72.39    4.00
  -3  -1  -8   65.69    2.90
   3  -1   8   68.19    3.50
  -7  -2   8   40.00    2.40
  -7   2   8   42.00    2.40
  -6  -2   8  113.09    4.10
   6   2  -8  109.99    4.30
  -6   2   8  110.29    4.40
  -5   2   8  251.57    7.50
   5   2  -8  244.88    7.20
   4   2  -8  249.38    6.90
  -4   2   8  253.17    7.30
  -3  -2   8  944.01   22.70
   3   2  -8 1057.89   22.40
  -3   2   8 1037.10   23.60
   3   2  -8 1014.20   23.00
  -2  -2   8  251.27    6.60
   2  -2  -8  245.38    6.70
   2   2  -8  253.87    6.30
   2   2  -8  247.78    6.50
  -2   2   8  249.58    6.30
  -2   2   8  246.78    7.10
  -1  -2   8    3.30    0.60
  -1  -2   8    1.80    0.60
   1  -2  -8    1.50    0.50
   1   2  -8    3.30    0.60
   1   2  -8    1.70    0.60
  -1   2   8    1.00    0.60
  -1   2   8    1.40    0.40
   0  -2   8 1020.80   23.80
   0  -2  -8 1023.20   23.50
   0  -2   8 1029.90   22.80
   0  -2  -8 1030.70   23.10
   0   2   8 1049.09   24.10
   0   2  -8 1040.80   23.00
  -1  -2  -8   53.99    2.50
   1  -2   8   51.19    2.70
  -1   2  -8   52.19    2.10
   1   2   8   52.29    2.80
  -2  -2  -8   25.20    1.70
   2  -2   8   25.90    2.10
  -3  -2  -8  384.86   10.20
   3  -2   8  375.76   11.00
  -6  -3   8   28.80    1.90
  -6   3   8   28.10    2.20
   6   3  -8   28.00    2.10
   5   3  -8   29.60    2.00
  -5   3   8   27.80    2.10
  -4   3   8  143.39    5.10
   4   3  -8  148.29    4.70
  -3   3   8  258.47    7.60
   3   3  -8  263.57    7.00
  -2  -3   8  113.29    3.50
   2   3  -8  109.19    3.50
  -2   3   8  104.49    4.10
  -2   3   8  110.69    3.30
   1  -3  -8  112.09    3.80
  -1  -3   8  113.49    3.80
  -1   3   8  102.99    3.10
   1   3  -8  113.19    3.40
  -1   3   8  112.29    4.20
   0  -3  -8  218.48    6.30
   0  -3   8  219.88    6.50
   0   3  -8  225.98    5.70
   0   3   8  212.48    6.70
   1  -3   8   76.09    3.40
  -1  -3  -8   77.49    3.10
   2  -3   8  400.26   11.30
  -2  -3  -8  412.26   10.70
  -3  -3  -8  137.09    4.90
   3  -3   8  141.29    5.60
  -6  -4   8   13.40    1.40
   6   4  -8   16.00    1.70
  -6   4   8   15.50    1.80
  -5  -4   8   49.99    2.40
   5   4  -8   49.99    2.60
  -5   4   8   49.50    3.00
   4   4  -8   69.59    2.90
  -4   4   8   71.39    3.40
  -3   4   8  240.18    7.50
   3   4  -8  253.07    6.70
   2   4  -8  319.97    8.00
  -2   4   8  311.87    9.00
  -1  -4   8   40.20    2.00
  -1   4   8   39.80    2.40
   1   4  -8   39.60    1.70
   0  -4  -8   78.19    3.20
   0  -4   8   79.09    3.30
  -1  -4  -8  203.48    6.20
   1  -4   8  201.08    6.50
   2  -4   8  103.89    4.40
  -2  -4  -8   97.89    4.00
  -3  -4  -8    1.80    0.80
   3  -4   8    0.90    0.80
  -5  -5   8  229.28    6.60
   5   5  -8  225.88    7.00
  -5   5   8  231.08    7.80
   4   5  -8   72.69    3.10
  -4   5   8   72.59    3.70
   3   5  -8  160.48    4.80
  -3   5   8  150.98    5.60
  -2   5   8   25.30    2.00
   2   5  -8   25.50    1.50
   0  -5   8  191.48    6.00
   1  -5   8  280.77    8.30
  -1  -5  -8  274.37    8.00
   2  -5   8  175.88    6.30
  -2  -5  -8  169.38    5.90
   2   5   8  178.28    5.40
  -5  -6   8   69.59    3.00
   5   6  -8   68.69    3.30
  -5   6   8   61.39    3.70
   4  -6  -8   19.00    1.50
   4   6  -8   20.50    1.60
  -4   6   8   19.80    2.00
   3  -6  -8  150.18    4.30
   3   6  -8  145.59    4.50
  -3   6   8  131.39    5.40
  -2   6   8   62.49    3.40
   1  -6   8   78.49    3.70
   2  -6   8    4.90    1.30
  -2  -6  -8    3.70    1.10
   4  -7  -8   23.70    1.60
  -4  -7   8   22.10    1.70
  -4   7   8   22.20    2.30
   4   7  -8   22.90    1.80
   3  -7  -8   43.20    2.00
  -3   7   8   42.30    2.90
   5   0  -9  415.86   10.80
  -4   0   9  355.06    9.30
   4   0  -9  348.07    9.20
   3   0  -9  826.52   19.30
  -3   0   9  841.32   19.50
   2   0  -9    1.20    0.60
  -2   0   9    1.00    0.60
  -1   0   9  119.69    4.30
  -1   0   9  117.49    3.50
   1   0  -9  121.49    3.90
   1   0  -9  119.29    3.70
   0   0  -9  414.76   10.30
   0   0   9  403.86   10.90
  -1   0  -9   82.39    3.10
   1   0   9   76.69    3.50
   2   0   9   87.99    4.00
  -2   0  -9   83.49    3.20
   3   0   9  159.18    6.10
   6   1  -9  114.79    4.40
  -5   1   9  185.68    6.40
   5   1  -9  230.58    6.40
   4  -1  -9   99.49    3.70
   4   1  -9   99.39    3.60
  -4   1   9  103.69    3.90
  -3  -1   9  139.29    4.50
   3  -1  -9  139.99    4.50
  -3   1   9  149.79    4.90
   3   1  -9  135.69    4.40
  -2  -1   9   99.19    3.60
   2  -1  -9   96.09    3.40
   2   1  -9  101.59    3.40
   2   1  -9   97.59    3.10
  -2   1   9   95.89    3.70
   1  -1  -9  969.70   22.10
  -1  -1   9  972.20   22.50
   1   1  -9  963.70   21.90
  -1   1   9  950.90   22.60
   0  -1   9  316.97    8.80
   0  -1  -9  307.27    8.30
   0   1  -9  328.97    8.10
   0   1   9  296.27    8.80
   1  -1   9  106.59    4.30
  -1  -1  -9  111.89    3.90
   1   1   9  105.89    4.30
  -1   1  -9  108.99    3.70
  -2  -1  -9   54.39    2.60
   2  -1   9   55.19    3.10
   2   1   9   54.09    3.10
  -3  -1  -9  169.18    5.50
   3  -1   9  167.38    6.30
   6   2  -9  120.59    4.50
  -5   2   9   44.00    2.60
   5   2  -9   45.30    2.40
   4   2  -9  355.46    9.30
  -4   2   9  357.96    9.80
   3  -2  -9  143.19    4.60
  -3   2   9  142.09    4.90
   3   2  -9  143.49    4.50
   2  -2  -9  144.59    4.60
  -2  -2   9  146.09    4.60
  -2   2   9  151.08    5.10
   2   2  -9  145.59    4.40
   1  -2  -9  417.46   10.80
  -1  -2   9  430.46   11.00
   1   2  -9  440.06   10.40
  -1   2   9  420.26   11.30
   0  -2  -9  369.56    9.70
   0  -2   9  368.06   10.00
   0   2  -9  382.26    9.20
   0   2   9  364.76   10.20
   1  -2   9   64.69    3.20
  -1  -2  -9   65.79    2.90
   1   2   9   65.39    3.30
  -2  -2  -9   30.10    2.00
   2  -2   9   29.60    2.30
  -3  -2  -9   25.30    2.00
   3  -2   9   22.60    2.20
  -6  -3   9  898.31   21.10
  -6   3   9  916.21   22.20
   6   3  -9  877.21   21.50
   5   3  -9  170.58    5.50
  -5   3   9  169.48    6.00
  -4   3   9   38.30    2.40
   4   3  -9   34.60    2.00
  -3   3   9  118.39    4.60
   3   3  -9  123.29    4.00
   2  -3  -9  123.19    4.20
   2   3  -9  126.99    3.90
  -2   3   9  120.59    4.60
   1  -3  -9   57.99    2.70
  -1  -3   9   58.39    2.70
   1   3  -9   57.39    2.30
  -1   3   9   55.89    3.00
   0  -3   9  412.56   10.80
   0  -3  -9  395.06   10.50
   0   3   9  404.56   11.10
  -1  -3  -9   47.50    2.50
   1  -3   9   47.30    2.80
  -2  -3  -9   70.59    3.30
   2  -3   9   75.59    3.80
   5   4  -9   15.10    1.60
  -5   4   9   14.70    1.80
   4   4  -9   94.79    3.50
  -4   4   9   87.39    4.00
   3   4  -9  193.68    5.60
  -3   4   9  189.68    6.50
   2   4  -9    4.20    0.80
  -2   4   9    2.80    0.90
   1  -4  -9  174.78    5.60
  -1  -4   9  176.18    5.50
  -1   4   9  180.48    6.20
   0  -4   9   67.49    3.20
   0   4   9   70.59    3.60
   1  -4   9  281.67    8.40
  -1  -4  -9  272.07    8.00
   2  -4   9  110.09    4.80
  -2  -4  -9  106.79    4.30
  -5   5   9   64.49    3.70
   5   5  -9   70.29    3.20
   4   5  -9  120.49    4.20
  -4   5   9  114.59    4.90
   3   5  -9   27.60    1.70
  -3   5   9   24.90    2.20
  -2   5   9  359.66   10.50
  -1   5   9  116.49    4.90
   0  -5  -9   29.50    2.10
   0  -5   9   28.00    2.00
   1  -5   9  158.78    5.80
  -1  -5  -9  153.08    5.50
   4  -6  -9   67.49    2.80
  -4   6   9   64.49    3.70
   4   6  -9   70.29    3.00
   3  -6  -9   35.50    1.80
  -3   6   9   37.60    2.80
  -2   6   9   55.09    3.30
   5   0 -10    0.70    0.60
   4   0 -10   22.80    1.70
   3   0 -10   99.39    3.70
  -3   0  10  103.69    3.90
  -2   0  10  161.88    5.30
   2   0 -10  153.38    4.90
   1   0 -10   33.00    1.90
  -1   0  10   31.20    2.10
   0   0 -10   77.49    3.10
   0   0  10   75.59    3.60
   1   0  10    1.00    0.80
  -1   0 -10    1.90    0.70
   2   0  10  107.09    4.70
   5   1 -10    0.50    0.60
   4  -1 -10  248.28    7.20
   4   1 -10  251.67    7.20
  -4   1  10  258.47    7.60
   3  -1 -10  558.84   13.90
  -3  -1  10  570.74   14.00
   3   1 -10  565.14   13.80
  -3   1  10  580.74   14.40
   2  -1 -10  240.18    6.90
  -2  -1  10  241.28    7.10
   2   1 -10  249.78    6.80
  -2   1  10  248.48    7.40
  -1  -1  10  108.49    4.20
   1  -1 -10  109.29    3.90
  -1   1  10  110.89    4.40
   1   1 -10  112.49    3.80
   0  -1  10   76.69    3.50
   0  -1 -10   80.19    3.30
   0   1  10   78.79    3.60
   0   1 -10   76.39    3.10
   1  -1  10    5.00    1.20
  -1  -1 -10    6.10    1.20
   1   1  10    6.30    1.30
   2  -1  10  478.85   13.30
  -2  -1 -10  479.55   12.40
   2   1  10  491.05   13.40
   5   2 -10  166.68    5.60
  -5   2  10  173.38    6.00
  -4   2  10  110.29    4.40
   4   2 -10  113.79    4.10
   3  -2 -10   82.19    3.30
   3   2 -10   82.69    3.20
  -3   2  10   82.69    3.70
  -2  -2  10   91.99    3.50
   2  -2 -10   92.89    3.60
   2   2 -10   93.99    3.40
  -2   2  10   98.69    4.10
   1  -2 -10  442.26   11.50
  -1  -2  10  446.66   11.60
  -1   2  10  436.36   12.00
   1   2 -10  454.35   11.00
   0  -2 -10  224.58    6.60
   0  -2  10  221.28    6.90
   0   2  10  216.98    7.00
   0   2 -10  193.18    6.00
  -1  -2 -10   50.79    2.70
   1  -2  10   48.60    2.90
   1   2  10   52.29    3.10
   5   3 -10  412.56   10.90
  -5   3  10  416.06   11.60
   4   3 -10   27.30    1.90
  -4   3  10   26.60    2.20
   3   3 -10   42.50    2.20
  -3   3  10   41.30    2.60
   2  -3 -10  101.89    3.90
   2   3 -10  102.79    3.60
  -2   3  10  103.29    4.40
  -1  -3  10  166.58    5.40
   1  -3 -10  166.48    5.40
  -1   3  10  163.48    5.90
   1   3 -10  151.68    4.70
   0  -3  10   22.40    1.90
   0  -3 -10   26.50    1.90
   0   3  10   24.50    2.10
  -1  -3 -10   36.80    2.30
   1  -3  10   35.70    2.50
   1   3  10   37.20    2.60
  -4   4  10  338.07   10.20
   4   4 -10  352.46    9.30
   3   4 -10   18.40    1.50
  -3   4  10   18.60    1.90
   2   4 -10   82.49    3.10
  -2   4  10   91.29    4.20
   1  -4 -10  396.56   10.70
  -1   4  10  390.96   11.30
   0  -4  10   38.40    2.50
   0  -4 -10   37.10    2.40
   0   4  10   36.60    2.70
  -1  -4 -10  136.09    5.20
   1  -4  10  148.79    5.60
  -3   5  10    3.50    1.20
  -2   5  10  194.78    7.00
  -1   5  10    2.10    1.00
   0  -5 -10  104.09    4.30
   4   0 -11  225.78    6.80
   3   0 -11  122.39    4.30
  -3   0  11  122.59    4.60
  -2   0  11    0.10    0.60
   2   0 -11    0.50    0.60
  -1   0  11   97.09    4.10
   1   0 -11   97.89    3.70
   0   0  11  112.29    4.70
   0   0 -11  116.69    4.20
   4  -1 -11  202.18    6.30
   4   1 -11  202.28    6.20
  -4   1  11  202.28    6.60
   3  -1 -11   10.50    1.30
   3   1 -11    8.00    1.20
  -3   1  11    9.20    1.40
  -2  -1  11   92.69    3.80
   2  -1 -11   85.99    3.50
   2   1 -11   89.39    3.40
  -2   1  11   89.39    4.00
   1  -1 -11  405.36   10.70
  -1  -1  11  400.76   11.00
   1   1 -11  416.36   10.50
  -1   1  11  391.56   11.20
   0  -1 -11   46.80    2.60
   0  -1  11   44.10    2.80
   0   1  11   48.60    2.90
   0   1 -11   48.60    2.40
   4  -2 -11  179.28    5.80
  -4   2  11  175.38    6.20
   4   2 -11  178.38    5.70
   3  -2 -11  184.58    6.00
  -3   2  11  190.08    6.40
   3   2 -11  187.98    5.80
   2  -2 -11   34.30    2.20
   2   2 -11   33.70    2.00
  -2   2  11   35.90    2.50
  -1  -2  11   18.30    1.80
   1  -2 -11   16.80    1.60
   1   2 -11   17.50    1.50
  -1   2  11   15.80    1.80
   0  -2 -11   24.40    1.90
   0  -2  11   24.20    2.10
   0   2  11   25.30    2.30
   3  -3 -11  154.18    5.40
  -3   3  11  156.68    5.90
   3   3 -11  162.08    5.10
   2  -3 -11  743.83   18.50
   2   3 -11  777.02   17.90
  -2   3  11  757.32   19.30
  -1  -3  11  129.09    5.00
   1  -3 -11  150.28    5.20
  -1   3  11  151.48    5.70
   0   0   0    0.00    0.00

_computing_structure_solution     'SHELXT 2014/5 (Sheldrick, 2014)'
;
_shelx_hkl_checksum              96784
loop_
_space_group_symop_operation_xyz
'x, y, z'
'-x, y+1/2, -z'
loop_
_atom_site_label
_atom_site_type_symbol
_atom_site_fract_x
_atom_site_fract_y
_atom_site_fract_z
_atom_site_U_iso_or_equiv
_atom_site_adp_type
_atom_site_occupancy
_atom_site_site_symmetry_order
_atom_site_calc_flag
_atom_site_refinement_flags_posn
_atom_site_refinement_flags_adp
C1 C 0.6677(3) 0.5132(2) 0.3254(2) 0.0138(4) Uani 1 1 d . .
H1 H 0.821029 0.536406 0.359780 0.017 Uiso 1 1 calc R U
C2 C 0.5177(3) 0.5620(2) 0.1867(2) 0.0133(4) Uani 1 1 d . .
C3 C 0.5352(3) 0.6556(3) 0.0601(2) 0.0172(4) Uani 1 1 d . .
H3 H 0.672582 0.699602 0.058076 0.021 Uiso 1 1 calc R U
C4 C 0.3438(4) 0.6792(2) -0.0590(2) 0.0199(4) Uani 1 1 d . .
H4 H 0.353253 0.740191 -0.142330 0.024 Uiso 1 1 calc R U
C5 C 0.1300(3) 0.6132(2) -0.0593(2) 0.0201(4) Uani 1 1 d . .
H5 H 0.004610 0.632653 -0.142323 0.024 Uiso 1 1 calc R U
C6 C 0.1057(3) 0.5217(2) 0.0601(2) 0.0176(4) Uani 1 1 d . .
H6 H -0.032531 0.477614 0.059909 0.021 Uiso 1 1 calc R U
C7 C 0.3025(3) 0.4982(2) 0.1834(2) 0.0135(4) Uani 1 1 d . .
C8 C 0.5459(3) 0.4722(3) 0.6667(2) 0.0189(4) Uani 1 1 d . .
H8A H 0.622778 0.572352 0.669532 0.028 Uiso 1 1 calc R U
H8B H 0.585417 0.426541 0.767586 0.028 Uiso 1 1 calc R U
H8C H 0.385812 0.489471 0.631941 0.028 Uiso 1 1 calc R U
C9 C 0.6155(3) 0.3582(2) 0.5572(2) 0.0141(4) Uani 1 1 d . .
H9 H 0.535229 0.257029 0.555924 0.017 Uiso 1 1 calc R U
C10 C 0.8685(3) 0.3235(3) 0.6050(2) 0.0222(4) Uani 1 1 d . .
H10A H 0.905000 0.259013 0.528238 0.033 Uiso 1 1 calc R U
H10B H 0.909059 0.267476 0.700967 0.033 Uiso 1 1 calc R U
H10C H 0.950511 0.422313 0.615953 0.033 Uiso 1 1 calc R U
N1 N 0.5474(2) 0.42535(19) 0.40063(18) 0.0128(3) Uani 1 1 d . .
N2 N 0.3242(2) 0.4172(2) 0.31579(19) 0.0137(3) Uani 1 1 d . .
O1 O 0.1733(2) 0.34345(19) 0.36570(16) 0.0192(3) Uani 1 1 d . .
loop_
_atom_site_aniso_label
_atom_site_aniso_U_11
_atom_site_aniso_U_22
_atom_site_aniso_U_33
_atom_site_aniso_U_23
_atom_site_aniso_U_13
_atom_site_aniso_U_12
C1 0.0133(7) 0.0148(8) 0.0139(8) 0.0004(7) 0.0048(6) -0.0007(6)
C2 0.0152(8) 0.0117(8) 0.0133(8) -0.0012(7) 0.0047(6) 0.0011(7)
C3 0.0208(9) 0.0151(8) 0.0171(9) 0.0005(7) 0.0075(7) -0.0003(7)
C4 0.0305(10) 0.0149(9) 0.0137(9) 0.0023(7) 0.0055(8) 0.0028(8)
C5 0.0232(10) 0.0177(9) 0.0155(9) -0.0014(8) -0.0007(8) 0.0036(8)
C6 0.0155(8) 0.0173(9) 0.0178(9) -0.0017(8) 0.0012(7) 0.0007(7)
C7 0.0144(8) 0.0126(8) 0.0137(8) -0.0012(7) 0.0043(7) 0.0010(6)
C8 0.0229(9) 0.0209(9) 0.0134(8) -0.0010(7) 0.0058(7) -0.0006(7)
C9 0.0158(8) 0.0141(8) 0.0120(8) 0.0022(7) 0.0032(7) -0.0007(6)
C10 0.0172(9) 0.0301(10) 0.0184(9) 0.0087(9) 0.0038(7) 0.0055(8)
N1 0.0114(7) 0.0141(7) 0.0125(7) 0.0004(6) 0.0027(6) -0.0010(6)
N2 0.0113(7) 0.0156(7) 0.0141(7) 0.0008(6) 0.0031(6) 0.0002(6)
O1 0.0127(6) 0.0244(7) 0.0218(7) 0.0023(6) 0.0070(5) -0.0051(6)
loop_
_atom_type_symbol
_atom_type_description
_atom_type_scat_dispersion_real
_atom_type_scat_dispersion_imag
_atom_type_scat_source
C C 0.0033 0.0016 'International Tables Vol C Tables 4.2.6.8 and 6.1.1.4'
H H 0.0000 0.0000 'International Tables Vol C Tables 4.2.6.8 and 6.1.1.4'
N N 0.0061 0.0033 'International Tables Vol C Tables 4.2.6.8 and 6.1.1.4'
O O 0.0106 0.0060 'International Tables Vol C Tables 4.2.6.8 and 6.1.1.4'
loop_
_geom_angle_atom_site_label_1
_geom_angle_atom_site_label_2
_geom_angle_atom_site_label_3
_geom_angle
N1 C1 C2 107.22(16)
N1 C1 H1 126.4
C2 C1 H1 126.4
C1 C2 C7 106.53(16)
C1 C2 C3 135.15(17)
C7 C2 C3 118.32(17)
C4 C3 C2 118.16(18)
C4 C3 H3 120.9
C2 C3 H3 120.9
C3 C4 C5 122.24(18)
C3 C4 H4 118.9
C5 C4 H4 118.9
C6 C5 C4 121.54(19)
C6 C5 H5 119.2
C4 C5 H5 119.2
C5 C6 C7 116.31(18)
C5 C6 H6 121.8
C7 C6 H6 121.8
N2 C7 C6 128.33(17)
N2 C7 C2 108.23(15)
C6 C7 C2 123.44(17)
C9 C8 H8A 109.5
C9 C8 H8B 109.5
H8A C8 H8B 109.5
C9 C8 H8C 109.5
H8A C8 H8C 109.5
H8B C8 H8C 109.5
N1 C9 C10 109.53(14)
N1 C9 C8 109.68(15)
C10 C9 C8 112.85(16)
N1 C9 H9 108.2
C10 C9 H9 108.2
C8 C9 H9 108.2
C9 C10 H10A 109.5
C9 C10 H10B 109.5
H10A C10 H10B 109.5
C9 C10 H10C 109.5
H10A C10 H10C 109.5
H10B C10 H10C 109.5
C1 N1 N2 110.34(15)
C1 N1 C9 130.15(15)
N2 N1 C9 119.13(13)
O1 N2 C7 130.36(15)
O1 N2 N1 121.96(15)
C7 N2 N1 107.67(14)
loop_
_geom_bond_atom_site_label_1
_geom_bond_atom_site_label_2
_geom_bond_distance
C1 N1 1.361(2)
C1 C2 1.398(3)
C1 H1 0.9300
C2 C7 1.426(2)
C2 C3 1.424(3)
C3 C4 1.373(3)
C3 H3 0.9300
C4 C5 1.432(3)
C4 H4 0.9300
C5 C6 1.372(3)
C5 H5 0.9300
C6 C7 1.415(2)
C6 H6 0.9300
C7 N2 1.356(2)
C8 C9 1.528(3)
C8 H8A 0.9600
C8 H8B 0.9600
C8 H8C 0.9600
C9 N1 1.478(2)
C9 C10 1.527(2)
C9 H9 0.9800
C10 H10A 0.9600
C10 H10B 0.9600
C10 H10C 0.9600
N1 N2 1.378(2)
N2 O1 1.303(2)
