#------------------------------------------------------------------------------
#$Date: 2019-11-03 12:10:59 +0200 (Sun, 03 Nov 2019) $
#$Revision: 221355 $
#$URL: file:///home/coder/svn-repositories/cod/cif/4/12/82/4128226.cif $
#------------------------------------------------------------------------------
#
# This file is available in the Crystallography Open Database (COD),
# http://www.crystallography.net/
#
# All data on this site have been placed in the public domain by the
# contributors.
#
data_4128226
loop_
_publ_author_name
'Zhou, Zhiyao'
'Gao, Alison X.'
'Snyder, Scott A.'
_publ_section_title
;
 Total Synthesis of (+)-Arborisidine.
;
_journal_issue                   19
_journal_name_full               'Journal of the American Chemical Society'
_journal_page_first              7715
_journal_page_last               7720
_journal_paper_doi               10.1021/jacs.9b03248
_journal_volume                  141
_journal_year                    2019
_chemical_formula_moiety         'C16 H18 N2 O3'
_chemical_formula_sum            'C16 H18 N2 O3'
_chemical_formula_weight         286.32
_space_group_crystal_system      monoclinic
_space_group_IT_number           4
_space_group_name_Hall           'P 2yb'
_space_group_name_H-M_alt        'P 1 21 1'
_symmetry_space_group_name_Hall  'P 2yb'
_symmetry_space_group_name_H-M   'P 1 21 1'
_atom_sites_solution_hydrogens   mixed
_atom_sites_solution_primary     dual
_audit_creation_date             2018-09-15
_audit_creation_method
;
Olex2 1.2
(compiled 2018.05.29 svn.r3508 for OlexSys, GUI svn.r5506)
;
_cell_angle_alpha                90
_cell_angle_beta                 110.2320(10)
_cell_angle_gamma                90
_cell_formula_units_Z            2
_cell_length_a                   7.1091(3)
_cell_length_b                   11.7371(4)
_cell_length_c                   9.2881(3)
_cell_measurement_reflns_used    9862
_cell_measurement_temperature    100(2)
_cell_measurement_theta_max      29.55
_cell_measurement_theta_min      2.34
_cell_volume                     727.18(5)
_computing_cell_refinement       'SAINT V.8.35A (Bruker AXS Inc., 2013)'
_computing_data_collection       'APEX3 v.2015.9-0 (Bruker AXS Inc., 2015)'
_computing_data_reduction        'SAINT V.8.35A (Bruker AXS Inc., 2013)'
_computing_molecular_graphics
;
OLEX2: a complete structure solution, refinement and analysis program 
Dolomanov et al., 2009

Mercury: visualization and analysis of crystal structures
Macrae, et al., 2006

O. V. Dolomanov, L. J. Bourhis, R. J. Gildea, J. A. K. Howard and H. Puschmann.
J. Appl. Cryst. (2009). 42, 339-341;

C. F. Macrae, P. R. Edgington, P. McCabe, E. Pidcock, G. P. Shields, R. Taylor,
M. Towler and J. van de Streek, J. Appl. Cryst. (2006). 39, 453-457.
;
_computing_publication_material
;
 APEX3 v.2015.5-2 (Bruker AXS Inc., 2015)
 OLEX2 (Dolomanov et al., 2009)
;
_computing_structure_refinement  'XL-2018/1 (Sheldrick, 2015b)'
_computing_structure_solution    'XT 2014/5 (Sheldrick, 2015a)'
_diffrn_ambient_temperature      100(2)
_diffrn_detector                 'Bruker PHOTON 100'
_diffrn_detector_area_resol_mean 10.4167
_diffrn_detector_type            CMOS
_diffrn_measured_fraction_theta_full 1.000
_diffrn_measured_fraction_theta_max 1.000
_diffrn_measurement_device_type  'Bruker D8 Venture'
_diffrn_measurement_method       'omega and phi scans'
_diffrn_radiation_monochromator  mirrors
_diffrn_radiation_type           MoK\a
_diffrn_radiation_wavelength     0.71073
_diffrn_reflns_av_R_equivalents  0.0292
_diffrn_reflns_av_unetI/netI     0.0195
_diffrn_reflns_Laue_measured_fraction_full 1.000
_diffrn_reflns_Laue_measured_fraction_max 1.000
_diffrn_reflns_limit_h_max       9
_diffrn_reflns_limit_h_min       -9
_diffrn_reflns_limit_k_max       16
_diffrn_reflns_limit_k_min       -16
_diffrn_reflns_limit_l_max       12
_diffrn_reflns_limit_l_min       -12
_diffrn_reflns_number            28704
_diffrn_reflns_point_group_measured_fraction_full 1.000
_diffrn_reflns_point_group_measured_fraction_max 0.999
_diffrn_reflns_theta_full        25.242
_diffrn_reflns_theta_max         29.566
_diffrn_reflns_theta_min         2.337
_diffrn_source                   'micro-focus X-ray tube'
_diffrn_source_type              'INCOATEC ImuS'
_diffrn_standards_number         0
_exptl_absorpt_coefficient_mu    0.091
_exptl_absorpt_correction_T_max  0.7459
_exptl_absorpt_correction_T_min  0.6856
_exptl_absorpt_correction_type   multi-scan
_exptl_absorpt_process_details
'SADABS-2016/2 (Bruker,2016/2) was used for absorption correction. wR2(int) was 0.0804 before and 0.0428 after correction. The Ratio of minimum to maximum transmission is 0.9192. The \l/2 correction factor is Not present.'
_exptl_crystal_colour            'clear colourless'
_exptl_crystal_colour_lustre     clear
_exptl_crystal_colour_primary    colourless
_exptl_crystal_density_diffrn    1.308
_exptl_crystal_description       block
_exptl_crystal_F_000             304
_exptl_crystal_size_max          0.37
_exptl_crystal_size_mid          0.23
_exptl_crystal_size_min          0.16
_refine_diff_density_max         0.373
_refine_diff_density_min         -0.206
_refine_diff_density_rms         0.061
_refine_ls_abs_structure_details
;
 Flack x determined using 1731 quotients [(I+)-(I-)]/[(I+)+(I-)]
 (Parsons, Flack and Wagner, Acta Cryst. B69 (2013) 249-259).
;
_refine_ls_abs_structure_Flack   -0.3(3)
_refine_ls_extinction_method     none
_refine_ls_goodness_of_fit_ref   1.097
_refine_ls_hydrogen_treatment    mixed
_refine_ls_matrix_type           full
_refine_ls_number_parameters     197
_refine_ls_number_reflns         4065
_refine_ls_number_restraints     1
_refine_ls_restrained_S_all      1.097
_refine_ls_R_factor_all          0.0386
_refine_ls_R_factor_gt           0.0349
_refine_ls_shift/su_max          0.000
_refine_ls_shift/su_mean         0.000
_refine_ls_structure_factor_coef Fsqd
_refine_ls_weighting_details
'w=1/[\s^2^(Fo^2^)+(0.0481P)^2^+0.1483P] where P=(Fo^2^+2Fc^2^)/3'
_refine_ls_weighting_scheme      calc
_refine_ls_wR_factor_gt          0.0860
_refine_ls_wR_factor_ref         0.0882
_reflns_Friedel_coverage         0.911
_reflns_Friedel_fraction_full    1.000
_reflns_Friedel_fraction_max     0.998
_reflns_number_gt                3841
_reflns_number_total             4065
_reflns_threshold_expression     'I > 2\s(I)'
_cod_data_source_file            ja9b03248_si_003.cif
_cod_data_source_block           0674_snyder_zz
_cod_database_code               4128226
_shelx_shelxl_version_number     2018/3
_shelx_space_group_comment
;
The symmetry employed for this shelxl refinement is uniquely defined
by the following loop, which should always be used as a source of
symmetry information in preference to the above space-group names.
They are only intended as comments.
;
_shelx_estimated_absorpt_t_max   0.986
_shelx_estimated_absorpt_t_min   0.967
_olex2_refinement_description
;
1. Fixed Uiso
 At 1.2 times of:
  All C(H) groups, All C(H,H) groups, All N(H) groups
 At 1.5 times of:
  All C(H,H,H) groups
2.a Ternary CH refined with riding coordinates:
 C9(H9)
2.b Secondary CH2 refined with riding coordinates:
 C8(H8A,H8B)
2.c Aromatic/amide H refined with riding coordinates:
 N2(H2), C2(H2A), C3(H3), C4(H4), C5(H5)
2.d Idealised Me refined as rotating group:
 C11(H11A,H11B,H11C), C14(H14A,H14B,H14C), C16(H16A,H16B,H16C)
;
_shelx_res_file
;
TITL 0674_snyder_zz_a.res in P2(1)
    0674_snyder_zz.res
    created by SHELXL-2018/3 at 13:23:21 on 15-Sep-2018
REM Old TITL 0674_Snyder_ZZ in P2(1)
REM SHELXT solution in P2(1): R1 0.073, Rweak 0.026, Alpha 0.003
REM <I/s> 1.160 for 6 systematic absences, Orientation as input
REM Flack x = -0.358 ( 0.248 ) from 1345 Parsons' quotients
REM Formula found by SHELXT: C16 N2 O3
CELL 0.71073 7.1091 11.7371 9.2881 90 110.232 90
ZERR 2 0.0003 0.0004 0.0003 0 0.001 0
LATT -1
SYMM -X,0.5+Y,-Z
SFAC C H N O
UNIT 32 36 4 6

L.S. 10
PLAN  20
SIZE 0.37 0.23 0.16
TEMP -173.16
BOND
list 4
fmap 2 53
ACTA
REM <olex2.extras>
REM <HklSrc "%.\\0674_Snyder_ZZ.hkl">
REM </olex2.extras>

WGHT    0.048100    0.148300
FVAR       1.29256
O1    4    0.325387    0.298639    0.410985    11.00000    0.02040    0.01553 =
         0.03571   -0.00702    0.00700   -0.00108
O2    4    0.291212    0.745036    0.727845    11.00000    0.02630    0.01489 =
         0.01994    0.00328    0.01183    0.00527
O3    4    0.298014    0.623459    0.914345    11.00000    0.02712    0.01593 =
         0.02146    0.00372    0.01478    0.00635
N1    3    0.403403    0.578524    0.568823    11.00000    0.01618    0.01128 =
         0.01338   -0.00024    0.00520   -0.00065
H1    2    0.476586    0.638524    0.567951    11.00000    0.02009
N2    3    0.765991    0.347934    0.564407    11.00000    0.01488    0.01551 =
         0.01502   -0.00289    0.00512    0.00110
AFIX  43
H2    2    0.735824    0.315235    0.473962    11.00000   -1.20000
AFIX   0
C1    1    0.935452    0.327741    0.689429    11.00000    0.01454    0.01328 =
         0.01696    0.00013    0.00668   -0.00090
C2    1    1.096718    0.255468    0.703227    11.00000    0.01948    0.01717 =
         0.02228   -0.00085    0.00936    0.00193
AFIX  43
H2A   2    1.099485    0.208778    0.620434    11.00000   -1.20000
AFIX   0
C3    1    1.252935    0.254888    0.843428    11.00000    0.01619    0.01808 =
         0.02602    0.00422    0.00705    0.00398
AFIX  43
H3    2    1.364964    0.206595    0.856833    11.00000   -1.20000
AFIX   0
C4    1    1.249238    0.323848    0.965594    11.00000    0.01671    0.01924 =
         0.02004    0.00410    0.00264    0.00188
AFIX  43
H4    2    1.358965    0.321785    1.059790    11.00000   -1.20000
AFIX   0
C5    1    1.088130    0.395031    0.951293    11.00000    0.01706    0.01492 =
         0.01618    0.00108    0.00429   -0.00062
AFIX  43
H5    2    1.086602    0.441246    1.034851    11.00000   -1.20000
AFIX   0
C6    1    0.927417    0.397685    0.811403    11.00000    0.01434    0.01183 =
         0.01594    0.00161    0.00570   -0.00027
C7    1    0.742149    0.459234    0.754730    11.00000    0.01427    0.01361 =
         0.01388    0.00000    0.00484    0.00058
C8    1    0.648865    0.541790    0.832751    11.00000    0.01678    0.01894 =
         0.01340   -0.00327    0.00248    0.00393
AFIX  23
H8A   2    0.719168    0.615993    0.846984    11.00000   -1.20000
H8B   2    0.657410    0.512364    0.934716    11.00000   -1.20000
AFIX   0
C9    1    0.427344    0.556023    0.728952    11.00000    0.01485    0.01119 =
         0.01409    0.00046    0.00517    0.00134
AFIX  13
H9    2    0.354509    0.483927    0.733234    11.00000   -1.20000
AFIX   0
C10   1    0.331033    0.652170    0.786549    11.00000    0.01124    0.01430 =
         0.01411   -0.00116    0.00382    0.00054
C11   1    0.193215    0.708672    0.971165    11.00000    0.03222    0.02245 =
         0.02560    0.00369    0.01937    0.00959
AFIX 137
H11A  2    0.064949    0.726750    0.891115    11.00000   -1.50000
H11B  2    0.275185    0.777793    0.999011    11.00000   -1.50000
H11C  2    0.168740    0.679019    1.061741    11.00000   -1.50000
AFIX   0
C12   1    0.651400    0.427952    0.604552    11.00000    0.01325    0.01227 =
         0.01463   -0.00076    0.00569   -0.00107
C13   1    0.466537    0.482933    0.494224    11.00000    0.01271    0.01263 =
         0.01249   -0.00057    0.00397   -0.00056
C14   1    0.509941    0.530540    0.354029    11.00000    0.01874    0.02197 =
         0.01495    0.00197    0.00698   -0.00204
AFIX 137
H14A  2    0.389291    0.567680    0.284382    11.00000   -1.50000
H14B  2    0.548843    0.468020    0.300213    11.00000   -1.50000
H14C  2    0.619255    0.586156    0.388451    11.00000   -1.50000
AFIX   0
C15   1    0.292066    0.397796    0.428509    11.00000    0.01605    0.01577 =
         0.01420   -0.00213    0.00499   -0.00235
C16   1    0.082995    0.445148    0.379710    11.00000    0.01415    0.01763 =
         0.02550   -0.00317    0.00477   -0.00192
AFIX 137
H16A  2   -0.011337    0.389279    0.315260    11.00000   -1.50000
H16B  2    0.076146    0.515516    0.321318    11.00000   -1.50000
H16C  2    0.047808    0.461533    0.470722    11.00000   -1.50000
AFIX   0
HKLF 4




REM  0674_snyder_zz_a.res in P2(1)
REM wR2 = 0.0882, GooF = S = 1.097, Restrained GooF = 1.097 for all data
REM R1 = 0.0349 for 3841 Fo > 4sig(Fo) and 0.0386 for all 4065 data
REM 197 parameters refined using 1 restraints

END

WGHT      0.0481      0.1484

REM Highest difference peak  0.373,  deepest hole -0.206,  1-sigma level  0.061
Q1    1   0.5376  0.5496  0.7790  11.00000  0.05    0.37
Q2    1   1.1722  0.2603  0.7798  11.00000  0.05    0.31
Q3    1   0.5580  0.4600  0.5451  11.00000  0.05    0.29
Q4    1   1.0035  0.3999  0.8809  11.00000  0.05    0.29
Q5    1   1.2409  0.2763  0.9137  11.00000  0.05    0.29
Q6    1   0.3789  0.6027  0.7626  11.00000  0.05    0.29
Q7    1   0.9330  0.3571  0.7610  11.00000  0.05    0.29
Q8    1   0.6774  0.4404  0.6933  11.00000  0.05    0.27
Q9    1   1.1618  0.3643  0.9478  11.00000  0.05    0.26
Q10   1   0.6979  0.5040  0.7998  11.00000  0.05    0.26
Q11   1   0.8372  0.4387  0.7893  11.00000  0.05    0.24
Q12   1   0.2562  0.6640  0.9375  11.00000  0.05    0.23
Q13   1   0.3765  0.6436  0.8994  11.00000  0.05    0.23
Q14   1   0.8614  0.3399  0.6245  11.00000  0.05    0.22
Q15   1   0.4781  0.5025  0.4230  11.00000  0.05    0.22
Q16   1   0.1815  0.4234  0.3909  11.00000  0.05    0.20
Q17   1   0.3793  0.4456  0.4685  11.00000  0.05    0.19
Q18   1   0.2953  0.5811  0.9389  11.00000  0.05    0.19
Q19   1   0.2424  0.6247  0.8468  11.00000  0.05    0.19
Q20   1   0.4388  0.5291  0.5343  11.00000  0.05    0.19
;
_shelx_res_checksum              58748
_shelx_hkl_file
;
  -1   0   0 1187.18   27.70
  -1   0   0 1181.28   27.30
  -1   0   0 1224.58   27.80
  -1   0   0 1181.28   27.60
  -1   0   0 1213.28   27.60
  -1   0   0 1181.08   27.30
   1   0   0 1184.68   27.70
   1   0   0 1135.09   27.60
   1   0   0 1221.28   27.60
   1   0   0 1185.28   27.70
   1   0   0 1211.98   27.40
   1   0   0 1211.98   27.40
  -2   0   0 2617.54   59.39
  -2   0   0 2613.14   58.59
  -2   0   0 2613.14   58.59
  -2   0   0 2520.75   59.19
  -2   0   0 2564.54   59.09
  -2   0   0 2427.06   59.19
   2   0   0 2627.64   59.39
   2   0   0 2579.24   59.09
   2   0   0 2514.25   58.59
   2   0   0 2514.25   58.59
   2   0   0 2551.54   58.99
  -3   0   0 2169.18   52.49
  -3   0   0 2229.18   51.39
  -3   0   0 2188.08   51.19
  -3   0   0 2205.58   52.39
  -3   0   0 2234.98   52.39
  -3   0   0 2228.88   52.19
  -3   0   0 2229.08   51.39
   3   0   0 2198.78   52.59
   3   0   0 2265.47   52.19
   3   0   0 2185.58   52.09
   3   0   0 2218.88   52.39
   3   0   0 2258.07   51.39
   3   0   0 2258.17   51.39
  -4   0   0   74.79    4.30
  -4   0   0   75.19    3.40
  -4   0   0   74.59    4.20
  -4   0   0   68.79    4.30
  -4   0   0   70.49    4.30
   4   0   0   76.09    3.20
   4   0   0   76.79    3.50
   4   0   0   67.29    4.50
   4   0   0   76.09    3.20
   4   0   0   76.79    3.50
   4   0   0   72.39    3.90
   4   0   0   73.49    4.20
   4   0   0   72.29    4.10
  -5   0   0 1238.08   31.90
  -5   0   0 1222.18   31.10
  -5   0   0 1264.37   31.90
  -5   0   0 1258.87   33.60
  -5   0   0 1242.58   29.80
   5   0   0 1197.68   31.30
   5   0   0 1243.18   30.10
   5   0   0 1228.88   30.20
   5   0   0 1228.88   30.20
   5   0   0 1277.37   32.00
   5   0   0 1255.27   31.30
   5   0   0 1243.18   30.10
  -6   0   0  277.57    8.80
  -6   0   0  254.57   10.20
  -6   0   0  282.27   11.00
  -6   0   0  278.77   11.00
   6   0   0  282.87   10.50
   6   0   0  280.17    8.80
   6   0   0  337.77   13.00
   6   0   0  337.77   13.00
   6   0   0  280.17    8.80
   6   0   0  263.77   10.80
  -7   0   0  145.29    9.00
  -7   0   0  133.59    8.70
  -7   0   0  144.09    7.10
   7   0   0  152.58    8.60
   7   0   0  137.29    6.40
   7   0   0  137.29    6.40
   7   0   0  145.79    8.50
  -8   0   0   36.10    6.40
  -8   0   0   46.00    6.60
  -8   0   0   31.80    4.90
   8   0   0   34.70    5.70
   8   0   0   43.60    4.50
   8   0   0   43.90    7.10
   8   0   0   43.60    4.60
  -9   0   0   -1.90    7.40
  -9   0   0   13.00    7.30
   9   0   0    4.60   11.80
   9   0   0   -3.60    4.80
   9   0   0   -3.60    4.80
   9   0  -1    7.80    4.40
   9   0  -1   23.80    6.30
   9   0  -1    7.80    4.40
  -9   0   1   11.20    7.10
  -9   0   1    6.50    6.40
  -9   0   1   -4.50    6.30
   8   0  -1   28.30    3.90
   8   0  -1   30.90    5.50
   8   0  -1   28.30    3.90
   8   0  -1   25.80    5.00
  -8   0   1   22.70    4.10
  -8   0   1   30.00    5.70
   7   0  -1    9.00    2.50
   7   0  -1    7.60    3.30
   7   0  -1   11.70    3.50
   7   0  -1    9.00    2.50
  -7   0   1    9.50    3.60
  -7   0   1   12.10    3.20
  -7   0   1   11.20    3.70
   6   0  -1  144.89    7.20
   6   0  -1  141.99    5.70
   6   0  -1  141.99    5.70
   6   0  -1  147.09    6.90
  -6   0   1  155.38    7.10
  -6   0   1  129.19    7.50
  -6   0   1  135.09    5.90
  -6   0   1  147.79    7.50
  -6   0   1  155.38    7.10
  -6   0   1  130.69    7.40
   5   0  -1    3.40    2.10
   5   0  -1    1.80    1.30
   5   0  -1    1.80    1.30
   5   0  -1    1.50    1.70
   5   0  -1    3.90    2.90
   5   0  -1    3.20    2.10
  -5   0   1   -1.20    1.40
  -5   0   1    3.20    2.50
  -5   0   1    3.10    2.20
  -5   0   1    4.80    2.20
  -5   0   1    4.80    2.00
  -5   0   1    3.30    2.10
  -5   0   1   -1.20    1.40
   4   0  -1  287.67    8.50
   4   0  -1  280.87    9.00
   4   0  -1  278.87    9.50
   4   0  -1  285.97    8.00
   4   0  -1  281.97    8.70
   4   0  -1  285.97    8.00
  -4   0   1  300.47    8.10
  -4   0   1  288.17    8.80
  -4   0   1  285.27    9.30
  -4   0   1  290.67    9.00
  -4   0   1  269.87    9.10
  -4   0   1  290.47    8.00
  -4   0   1  290.47    8.00
   3   0  -1   13.90    2.30
   3   0  -1   14.00    1.60
   3   0  -1   11.70    1.50
   3   0  -1   12.20    1.30
   3   0  -1   10.30    1.80
   3   0  -1   12.20    1.30
  -3   0   1   12.80    1.40
  -3   0   1   12.80    1.40
  -3   0   1   13.00    1.80
  -3   0   1   12.20    1.60
  -3   0   1    8.60    1.90
  -3   0   1   11.40    1.60
  -3   0   1   11.70    1.70
   2   0  -1  165.48    4.90
   2   0  -1  159.28    4.40
   2   0  -1  163.88    4.60
   2   0  -1  166.18    4.80
   2   0  -1  159.28    4.40
   2   0  -1  165.88    5.10
  -2   0   1  167.68    4.60
  -2   0   1  165.58    4.90
  -2   0   1  167.28    4.50
  -2   0   1  167.98    4.90
  -2   0   1  167.28    4.50
  -2   0   1  163.08    5.00
   1   0  -1 1329.37   29.90
   1   0  -1 1317.27   30.10
   1   0  -1 1257.87   30.10
   1   0  -1 1294.47   29.90
   1   0  -1 1311.77   30.00
   1   0  -1 1329.37   29.90
  -1   0   1 1316.17   29.90
  -1   0   1 1291.27   29.90
  -1   0   1 1309.07   30.00
  -1   0   1 1250.17   30.10
  -1   0   1 1310.07   30.10
  -1   0   1 1316.17   29.90
   0   0  -1  450.95   10.50
   0   0  -1  450.95   10.50
  -1   0  -1 2676.13   59.99
  -1   0  -1 2714.83   60.09
  -1   0  -1 2633.44   60.09
  -1   0  -1 2585.64   59.59
  -1   0  -1 2482.45   59.99
  -1   0  -1 2585.64   59.59
   1   0   1 2598.34   59.89
   1   0   1 2636.54   60.19
   1   0   1 2622.34   59.59
   1   0   1 2600.84   60.09
   1   0   1 2622.34   59.59
   1   0   1 2588.34   60.09
  -2   0  -1 2451.95   58.89
  -2   0  -1 2470.05   58.69
  -2   0  -1 2560.64   58.79
  -2   0  -1 2532.15   58.89
   2   0   1 2590.64   58.99
   2   0   1 2517.65   57.99
   2   0   1 2577.34   59.09
   2   0   1 2529.05   57.99
   2   0   1 2529.05   57.99
   2   0   1 2489.45   58.89
   2   0   1 2517.45   57.99
   2   0   1 2578.54   58.79
  -3   0  -1   48.60    3.30
  -3   0  -1   46.20    3.30
  -3   0  -1   45.70    3.30
  -3   0  -1   45.90    3.30
   3   0   1   50.89    2.40
   3   0   1   49.00    3.40
   3   0   1   45.80    3.50
   3   0   1   47.30    2.40
   3   0   1   50.89    2.40
   3   0   1   47.10    3.10
   3   0   1   47.30    2.40
   3   0   1   53.29    3.50
  -4   0  -1  135.19    4.60
  -4   0  -1  128.89    5.90
  -4   0  -1  132.29    6.00
  -4   0  -1  135.49    6.00
  -4   0  -1  125.49    5.60
   4   0   1  131.59    4.70
   4   0   1  140.59    4.90
   4   0   1  131.39    4.70
   4   0   1  142.59    5.80
   4   0   1  140.59    4.90
   4   0   1  135.39    5.90
   4   0   1  126.89    5.90
   4   0   1  136.99    6.10
  -5   0  -1   18.80    3.10
  -5   0  -1   19.00    2.40
  -5   0  -1   10.70    3.10
  -5   0  -1   24.90    3.50
   5   0   1   15.30    3.10
   5   0   1   16.10    2.10
   5   0   1   19.20    2.60
   5   0   1   19.20    2.60
   5   0   1   10.40    2.40
   5   0   1   16.10    2.10
   5   0   1   16.70    3.10
  -6   0  -1  252.37   10.50
  -6   0  -1  244.78    8.00
  -6   0  -1  252.37   10.50
   6   0   1  231.38   13.60
   6   0   1  253.87    8.30
   6   0   1  244.18   10.30
   6   0   1  253.87    8.30
  -7   0  -1   -3.10    3.40
  -7   0  -1   -6.30    3.80
   7   0   1   -4.00    2.50
   7   0   1    5.50    3.30
   7   0   1    2.60    4.20
   7   0   1   -4.00    2.50
  -8   0  -1   68.39    8.10
  -8   0  -1   44.50    6.80
   8   0   1   58.19    7.10
   8   0   1   75.19    8.70
   8   0   1   51.89    5.10
   8   0   1   51.89    5.10
   9   0  -2   10.10    4.30
   9   0  -2    9.10    5.90
   9   0  -2    7.70    6.00
   9   0  -2   10.10    4.30
  -9   0   2   15.00    6.60
  -9   0   2    9.20    4.40
  -9   0   2   -3.00    6.50
   8   0  -2   67.39    5.70
   8   0  -2   67.39    5.70
   8   0  -2   59.69    6.20
   8   0  -2   68.59    7.70
  -8   0   2   81.29    8.70
  -8   0   2   73.99    6.10
  -8   0   2   76.39    8.10
   7   0  -2   13.20    4.70
   7   0  -2   10.00    2.50
   7   0  -2   10.00    2.50
   7   0  -2   20.10    3.60
  -7   0   2   23.00    3.30
  -7   0   2   22.20    4.50
  -7   0   2   19.40    4.20
  -7   0   2   18.60    4.30
   6   0  -2   47.30    3.70
   6   0  -2   39.10    4.10
   6   0  -2   53.59    5.10
   6   0  -2   47.30    3.70
   6   0  -2   53.09    4.50
  -6   0   2   49.60    5.70
  -6   0   2   53.69    4.80
  -6   0   2   43.40    4.90
  -6   0   2   50.69    5.20
   5   0  -2   26.60    2.40
   5   0  -2   26.60    2.40
   5   0  -2   27.10    3.00
   5   0  -2   25.70    3.10
   5   0  -2   30.70    3.10
   5   0  -2   24.30    3.70
  -5   0   2   30.10    3.00
  -5   0   2   27.20    2.40
  -5   0   2   26.20    3.30
  -5   0   2   28.10    3.30
  -5   0   2   27.90    3.10
  -5   0   2   31.40    3.40
  -5   0   2   27.20    2.40
   4   0  -2  525.35   14.20
   4   0  -2  519.55   14.90
   4   0  -2  524.65   13.50
   4   0  -2  523.75   13.80
   4   0  -2  501.85   14.30
   4   0  -2  524.75   13.50
  -4   0   2  533.85   13.50
  -4   0   2  534.15   13.60
  -4   0   2  543.35   14.50
  -4   0   2  533.85   13.50
  -4   0   2  532.55   14.40
  -4   0   2  518.85   14.70
  -4   0   2  538.45   13.70
   3   0  -2  194.38    6.20
   3   0  -2  191.18    6.10
   3   0  -2  198.18    5.70
   3   0  -2  195.38    6.20
   3   0  -2  192.98    5.60
   3   0  -2  192.98    5.60
   3   0  -2  195.28    6.60
  -3   0   2  191.28    5.80
  -3   0   2  190.68    5.60
  -3   0   2  196.38    5.60
  -3   0   2  184.68    6.50
  -3   0   2  193.78    6.20
  -3   0   2  196.38    5.60
   2   0  -2  332.47    8.60
   2   0  -2  333.17    8.20
   2   0  -2  322.97    8.50
   2   0  -2  289.77    9.00
   2   0  -2  318.47    8.20
   2   0  -2  340.47    8.70
   2   0  -2  318.47    8.20
  -2   0   2  323.77    8.20
  -2   0   2  329.37    8.20
  -2   0   2  325.17    8.40
  -2   0   2  347.47    8.60
  -2   0   2  323.77    8.20
  -2   0   2  329.27    8.50
  -2   0   2  331.57    8.80
   1   0  -2 5518.05  122.89
   1   0  -2 5337.17  123.29
   1   0  -2 5294.47  122.89
   1   0  -2 5518.05  122.89
   1   0  -2 5426.96  123.89
   1   0  -2 5284.67  123.29
  -1   0   2 5249.27  123.19
  -1   0   2 5122.89  121.09
  -1   0   2 5366.96  122.19
  -1   0   2 5122.79  121.09
  -1   0   2 5437.86  123.89
  -1   0   2 5287.67  122.39
   0   0  -2    5.80    0.70
   0   0  -2    8.20    1.00
   0   0  -2    7.70    1.00
   0   0  -2    6.60    0.80
   0   0  -2    7.00    0.80
   0   0  -2    7.50    0.70
   0   0  -2    7.50    0.70
   0   0   2    6.10    0.80
   0   0   2    6.50    0.80
   0   0   2    7.90    0.70
   0   0   2    7.90    0.70
  -1   0  -2 2036.30   48.00
  -1   0  -2 2062.69   47.70
  -1   0  -2 2070.89   48.40
  -1   0  -2 2050.29   48.30
  -1   0  -2 2062.69   47.70
  -1   0  -2 2142.19   48.60
   1   0   2 2107.09   48.00
   1   0   2 2082.39   48.40
   1   0   2 2108.59   47.70
   1   0   2 2108.69   47.70
   1   0   2 2098.19   48.50
   1   0   2 2007.00   48.30
  -2   0  -2  114.59    4.00
  -2   0  -2  121.69    4.70
  -2   0  -2  119.59    4.80
  -2   0  -2  117.59    4.90
  -2   0  -2  114.59    4.00
  -2   0  -2  128.29    4.70
   2   0   2  118.79    3.80
   2   0   2  119.69    5.00
   2   0   2  123.69    5.50
   2   0   2  118.79    3.80
   2   0   2  119.39    4.40
  -3   0  -2 1525.75   37.10
  -3   0  -2 1520.95   36.60
  -3   0  -2 1457.55   36.50
  -3   0  -2 1529.25   36.80
   3   0   2 1469.75   37.00
   3   0   2 1481.95   36.70
   3   0   2 1533.75   35.50
   3   0   2 1495.45   35.50
   3   0   2 1495.45   35.50
   3   0   2 1533.85   35.50
   3   0   2 1503.15   37.10
   3   0   2 1558.34   36.60
  -4   0  -2  754.42   21.00
  -4   0  -2  742.33   18.70
  -4   0  -2  800.72   20.90
  -4   0  -2  744.83   20.60
  -4   0  -2  797.32   21.30
   4   0   2  821.52   21.50
   4   0   2  742.83   20.70
   4   0   2  796.92   19.50
   4   0   2  780.82   19.50
   4   0   2  780.72   19.50
   4   0   2  797.02   19.50
   4   0   2  788.12   20.90
   4   0   2  783.92   21.10
  -5   0  -2  124.79    6.70
  -5   0  -2  132.79    7.20
  -5   0  -2  119.59    4.90
   5   0   2  121.39    6.90
   5   0   2  113.19    5.60
   5   0   2  132.59    5.20
   5   0   2  113.19    5.60
   5   0   2  119.29    6.60
   5   0   2  132.59    5.20
  -6   0  -2    3.30    3.50
  -6   0  -2    0.00    3.10
   6   0   2    2.50    2.50
   6   0   2   -2.20    2.00
   6   0   2   -2.20    2.00
   6   0   2    2.70    3.40
  -7   0  -2    8.20    4.40
  -7   0  -2    1.50    4.50
   7   0   2    9.30    4.00
   7   0   2    4.50    3.10
   7   0   2    4.50    3.10
   7   0   2   10.70    4.80
  -8   0  -2   10.60    6.70
  -8   0  -2    7.20    6.40
   8   0   2    1.90    4.10
   8   0   2   15.30    6.60
   8   0   2    1.90    4.10
   8   0   2   16.70    5.40
   9   0  -3   26.60    4.30
   9   0  -3   29.00    6.30
   9   0  -3   29.20    6.20
   9   0  -3   26.60    4.30
  -9   0   3   25.90    6.40
  -9   0   3   28.20    4.70
   8   0  -3  155.98    7.30
   8   0  -3  155.88    7.30
   8   0  -3  152.98    9.60
   8   0  -3  147.99    8.50
   8   0  -3  152.48    9.10
  -8   0   3  156.78    9.60
  -8   0   3  143.59    7.70
   7   0  -3   52.69    5.50
   7   0  -3   50.59    4.30
   7   0  -3   57.69    6.00
   7   0  -3   54.89    5.80
   7   0  -3   50.59    4.30
  -7   0   3   60.29    6.70
  -7   0   3   53.39    5.40
  -7   0   3   47.70    4.90
   6   0  -3  128.49    6.70
   6   0  -3  131.79    5.40
   6   0  -3  121.69    6.20
   6   0  -3  119.09    6.70
   6   0  -3  131.79    5.40
   6   0  -3  126.09    5.80
  -6   0   3  130.79    5.80
  -6   0   3  120.79    6.90
  -6   0   3  124.59    6.70
   5   0  -3  456.75   13.30
   5   0  -3  466.05   13.20
   5   0  -3  454.55   12.40
   5   0  -3  449.86   13.10
   5   0  -3  407.66   13.80
   5   0  -3  457.55   12.20
   5   0  -3  457.55   12.20
  -5   0   3  447.56   12.20
  -5   0   3  442.56   12.20
  -5   0   3  436.76   13.30
  -5   0   3  464.75   13.80
  -5   0   3  442.56   12.20
  -5   0   3  451.35   12.50
   4   0  -3  146.69    5.50
   4   0  -3  142.99    5.60
   4   0  -3  143.79    5.60
   4   0  -3  146.99    4.90
   4   0  -3  146.19    6.00
   4   0  -3  146.99    4.90
   4   0  -3  146.89    5.00
  -4   0   3  126.59    5.30
  -4   0   3  153.38    5.30
  -4   0   3  148.19    5.00
  -4   0   3  139.59    5.80
  -4   0   3  148.19    5.00
  -4   0   3  147.69    5.50
   3   0  -3  315.27    9.30
   3   0  -3  325.47    9.20
   3   0  -3  326.37    8.70
   3   0  -3  325.87    9.30
   3   0  -3  325.27    9.50
   3   0  -3  331.17    8.60
   3   0  -3  326.37    8.70
  -3   0   3  327.77    9.60
  -3   0   3  318.37    9.10
  -3   0   3  325.67    9.00
  -3   0   3  342.47    8.80
  -3   0   3  342.47    8.80
  -3   0   3  333.17    8.80
   2   0  -3  157.48    5.00
   2   0  -3  156.38    4.60
   2   0  -3  159.08    4.80
   2   0  -3  143.59    5.60
   2   0  -3  156.38    4.60
  -2   0   3  147.49    4.50
  -2   0   3  159.38    5.10
  -2   0   3  147.49    4.50
  -2   0   3  160.78    4.60
  -2   0   3  154.88    4.60
  -2   0   3  160.58    4.90
  -2   0   3  150.68    4.80
  -2   0   3  153.08    5.00
   1   0  -3 2394.96   59.69
   1   0  -3 2738.23   59.69
   1   0  -3 2395.16   59.69
   1   0  -3 2745.43   59.99
   1   0  -3 2707.33   59.59
   1   0  -3 2672.43   59.79
  -1   0   3 2383.26   60.49
  -1   0   3 2584.44   59.69
  -1   0   3 2714.73   59.69
  -1   0   3 2472.15   59.49
  -1   0   3 2691.13   59.69
   0   0  -3  312.77    8.00
   0   0  -3  315.97    8.20
   0   0  -3  321.17    8.10
   0   0  -3  319.67    8.70
   0   0  -3  326.37    8.60
   0   0  -3  329.97    8.50
   0   0  -3  321.17    8.10
   0   0   3  327.67    8.70
   0   0   3  288.17    8.30
   0   0   3  288.17    8.30
   0   0   3  321.77    8.40
   0   0   3  339.37    8.70
  -1   0  -3    5.10    1.30
  -1   0  -3    4.00    1.40
  -1   0  -3    4.60    1.00
  -1   0  -3    4.60    1.00
  -1   0  -3    3.70    1.20
  -1   0  -3    6.50    1.20
   1   0   3    4.30    1.20
   1   0   3    4.60    1.30
   1   0   3    5.60    1.00
   1   0   3    7.70    2.00
   1   0   3    7.40    1.50
   1   0   3    5.60    1.00
  -2   0  -3  896.81   23.10
  -2   0  -3  903.61   22.20
  -2   0  -3  938.21   23.60
  -2   0  -3  896.61   23.10
  -2   0  -3  903.61   22.20
   2   0   3  941.81   22.70
   2   0   3  941.51   22.10
   2   0   3  927.01   23.30
   2   0   3  894.91   23.70
   2   0   3  941.51   22.10
   2   0   3  948.31   23.50
  -3   0  -3   42.90    2.80
  -3   0  -3   41.90    3.40
  -3   0  -3   42.90    2.80
  -3   0  -3   33.40    3.60
  -3   0  -3   39.40    3.50
  -3   0  -3   36.90    3.60
   3   0   3   40.50    3.90
   3   0   3   42.90    2.80
   3   0   3   37.80    4.20
   3   0   3   39.40    3.90
   3   0   3   40.00    3.50
   3   0   3   42.90    2.80
  -4   0  -3  167.78    7.30
  -4   0  -3  185.78    7.90
   4   0   3  185.08    7.90
   4   0   3  169.78    7.90
   4   0   3  176.58    6.10
   4   0   3  163.98    6.20
   4   0   3  180.78    8.10
   4   0   3  163.98    6.20
   4   0   3  176.58    6.10
  -5   0  -3   23.80    3.70
  -5   0  -3   31.50    4.00
   5   0   3   27.60    2.70
   5   0   3   26.30    4.00
   5   0   3   28.40    3.30
   5   0   3   18.50    3.30
   5   0   3   28.40    3.30
   5   0   3   27.60    2.70
  -6   0  -3    2.20    3.90
  -6   0  -3    0.40    3.80
   6   0   3    7.70    2.60
   6   0   3   -0.50    3.00
   6   0   3   -0.10    4.60
   6   0   3    7.70    2.60
  -7   0  -3  124.19   10.50
  -7   0  -3  124.59   10.70
   7   0   3  131.79   11.00
   7   0   3  119.89    7.20
   7   0   3  119.89    7.20
   7   0   3  136.79    9.20
  -8   0  -3   27.40    8.20
  -8   0  -3   19.40    7.60
   8   0   3   14.60    4.90
   8   0   3   20.20    8.00
   8   0   3   14.60    4.90
   9   0  -4   34.10    6.60
   9   0  -4   28.10    4.60
   9   0  -4   29.80    6.00
   9   0  -4   28.10    4.60
  -9   0   4   34.70    5.10
  -9   0   4   30.30    6.20
   8   0  -4   47.00    5.50
   8   0  -4   46.90    4.40
   8   0  -4   46.90    4.40
   8   0  -4   41.90    4.80
   8   0  -4   51.69    6.00
  -8   0   4   60.99    7.40
  -8   0   4   42.90    4.80
   7   0  -4   66.19    4.60
   7   0  -4   66.19    4.60
   7   0  -4   65.19    6.50
   7   0  -4   71.69    5.90
   7   0  -4   69.99    5.20
  -7   0   4   79.49    7.30
  -7   0   4   58.99    7.30
  -7   0   4   55.09    5.00
   6   0  -4    1.30    2.50
   6   0  -4    1.30    2.20
   6   0  -4    1.30    1.80
   6   0  -4   -0.90    1.80
   6   0  -4   -0.90    1.80
   6   0  -4   -3.60    2.60
  -6   0   4    1.80    2.30
  -6   0   4   -0.40    2.20
  -6   0   4   -0.50    2.40
  -6   0   4    3.70    3.30
   5   0  -4    1.60    2.00
   5   0  -4    0.20    1.90
   5   0  -4   -0.30    1.30
   5   0  -4    1.90    1.70
   5   0  -4   -0.30    1.30
   5   0  -4    5.30    2.90
  -5   0   4   -2.20    1.90
  -5   0   4    1.60    2.10
  -5   0   4    4.60    1.90
  -5   0   4    4.60    1.90
  -5   0   4   -0.60    1.80
   4   0  -4  122.19    5.30
   4   0  -4  121.99    5.20
   4   0  -4  122.59    5.10
   4   0  -4  127.89    4.50
   4   0  -4  129.59    5.70
   4   0  -4  127.89    4.50
  -4   0   4  121.29    5.10
  -4   0   4  112.09    4.50
  -4   0   4  112.09    4.50
  -4   0   4  121.19    4.40
  -4   0   4  127.49    5.50
  -4   0   4  127.39    5.00
   3   0  -4    0.30    1.20
   3   0  -4    0.40    0.90
   3   0  -4    0.40    0.90
   3   0  -4   -0.80    1.00
   3   0  -4   -0.30    1.00
  -3   0   4    0.60    1.10
  -3   0   4    2.30    1.10
  -3   0   4    2.40    1.30
  -3   0   4    1.00    1.30
  -3   0   4    1.40    1.40
  -3   0   4   -0.80    0.90
  -3   0   4    1.40    1.10
  -3   0   4    2.30    1.10
   2   0  -4   54.39    2.90
   2   0  -4   57.99    2.80
   2   0  -4   53.99    2.80
   2   0  -4   63.09    2.70
   2   0  -4   62.99    2.70
   2   0  -4   53.59    3.00
  -2   0   4   59.29    3.20
  -2   0   4   61.09    2.80
  -2   0   4   57.39    2.70
  -2   0   4   55.39    3.00
  -2   0   4   57.39    2.70
  -2   0   4   65.19    3.30
  -2   0   4   58.19    2.80
   1   0  -4 3284.57   74.29
   1   0  -4 3155.68   74.29
   1   0  -4 3160.78   74.79
   1   0  -4 3155.58   74.29
   1   0  -4 3307.27   75.09
  -1   0   4 3111.99   74.49
  -1   0   4 3285.77   75.09
  -1   0   4 3210.68   74.59
  -1   0   4 3390.46   74.29
  -1   0   4 3279.17   74.69
  -1   0   4 3361.06   74.39
  -1   0   4 3390.36   74.29
  -1   0   4 2965.00   75.19
   0   0  -4   50.09    2.50
   0   0  -4   57.49    3.30
   0   0  -4   50.09    2.50
   0   0  -4   46.10    2.70
   0   0  -4   49.00    2.40
   0   0  -4   53.59    2.50
   0   0  -4   53.29    2.90
   0   0   4   51.99    2.70
   0   0   4   52.69    2.40
   0   0   4   52.69    2.40
   0   0   4   52.19    3.30
   0   0   4   47.10    2.80
  -1   0  -4 2165.88   51.39
  -1   0  -4 2201.88   51.29
  -1   0  -4 2138.99   50.39
  -1   0  -4 2170.68   50.39
  -1   0  -4 2141.19   50.39
  -1   0  -4 2176.48   51.69
   1   0   4 2148.09   51.19
   1   0   4 2199.18   51.49
   1   0   4 2197.18   50.29
   1   0   4 2197.18   50.29
   1   0   4 2111.79   51.59
   1   0   4 2163.68   50.49
  -2   0  -4    7.00    2.00
  -2   0  -4    6.40    1.50
  -2   0  -4    6.40    1.50
  -2   0  -4    8.30    2.00
  -2   0  -4    9.70    2.20
  -2   0  -4    7.20    1.60
   2   0   4    6.70    1.70
   2   0   4    8.40    2.00
   2   0   4    6.50    1.40
   2   0   4    6.10    1.70
   2   0   4    6.50    1.40
   2   0   4    7.40    2.40
  -3   0  -4  360.06   11.20
  -3   0  -4  366.66   10.30
  -3   0  -4  368.76   12.10
  -3   0  -4  323.37   11.30
  -3   0  -4  366.66   10.30
   3   0   4  376.36   12.00
   3   0   4  358.86   11.10
   3   0   4  369.96   12.60
   3   0   4  365.96   10.20
   3   0   4  365.96   10.20
  -4   0  -4  494.65   15.40
  -4   0  -4  477.95   14.30
  -4   0  -4  480.25   13.20
  -4   0  -4  480.25   13.20
   4   0   4  443.46   12.90
   4   0   4  475.25   12.90
   4   0   4  475.05   15.20
   4   0   4  443.36   12.90
   4   0   4  463.85   15.40
   4   0   4  451.15   14.60
   4   0   4  475.15   12.90
  -5   0  -4   67.39    7.60
  -5   0  -4   61.29    6.00
   5   0   4   72.29    6.90
   5   0   4   57.69    5.90
   5   0   4   71.89    4.60
   5   0   4   71.89    4.60
  -6   0  -4  220.68   11.90
  -6   0  -4  201.38   13.70
   6   0   4  220.98   11.50
   6   0   4  221.18   10.70
   6   0   4  228.98    8.80
   6   0   4  228.98    8.80
  -7   0  -4   56.49    7.60
  -7   0  -4   46.40    7.70
   7   0   4   35.50    4.70
   7   0   4   64.19    8.40
   7   0   4   44.30    6.20
   7   0   4   35.50    4.70
   9   0  -5  350.46   12.30
   9   0  -5  322.67   15.40
   9   0  -5  350.46   12.30
  -9   0   5  330.57   12.70
  -9   0   5  345.77   15.80
   8   0  -5    9.00    3.10
   8   0  -5    7.90    4.20
   8   0  -5    9.00    3.90
   8   0  -5    3.10    4.30
   8   0  -5    9.00    3.10
  -8   0   5   13.50    4.70
  -8   0   5   11.10    3.70
   7   0  -5  257.07   10.10
   7   0  -5  262.97    8.70
   7   0  -5  246.28   10.60
  -7   0   5  247.38    9.50
  -7   0   5  245.18    9.60
  -7   0   5  262.37   11.40
   6   0  -5   18.30    3.30
   6   0  -5   24.30    2.80
   6   0  -5   16.90    3.40
   6   0  -5   19.20    3.00
   6   0  -5   24.30    2.80
  -6   0   5   14.80    2.80
  -6   0   5   20.50    3.00
  -6   0   5   20.50    2.40
  -6   0   5   21.30    3.90
  -6   0   5   19.30    3.30
   5   0  -5  164.78    6.70
   5   0  -5  167.08    6.00
   5   0  -5  167.28    6.90
   5   0  -5  159.88    7.10
   5   0  -5  167.08    6.00
  -5   0   5  166.48    7.00
  -5   0   5  157.98    6.30
  -5   0   5  169.48    6.60
  -5   0   5  166.68    6.10
  -5   0   5  170.48    7.40
   4   0  -5  381.96   11.20
   4   0  -5  376.66   11.60
   4   0  -5  385.36   10.60
   4   0  -5  385.36   10.60
   4   0  -5  375.46   11.20
  -4   0   5  379.06   10.70
  -4   0   5  391.96   11.80
  -4   0   5  391.56   10.80
  -4   0   5  398.86   11.60
  -4   0   5  389.86   11.20
  -4   0   5  396.36   11.20
  -4   0   5  379.06   10.70
   3   0  -5  213.58    7.10
   3   0  -5  216.18    6.80
   3   0  -5  199.98    6.50
   3   0  -5  199.98    6.50
   3   0  -5  209.48    7.00
  -3   0   5  213.78    7.30
  -3   0   5  234.48    7.00
  -3   0   5  215.18    6.90
  -3   0   5  196.88    6.90
  -3   0   5  219.88    6.60
  -3   0   5  219.88    6.60
  -3   0   5  221.08    7.30
  -3   0   5  219.68    6.80
   2   0  -5  267.27    8.40
   2   0  -5  274.37    8.20
   2   0  -5  281.07    7.80
   2   0  -5  261.67    7.80
   2   0  -5  281.07    7.80
   2   0  -5  268.27    8.00
  -2   0   5  275.87    7.80
  -2   0   5  284.67    8.10
  -2   0   5  279.37    8.10
  -2   0   5  275.87    7.80
  -2   0   5  266.57    8.40
  -2   0   5  282.27    8.10
   1   0  -5  313.37    8.40
   1   0  -5  309.87    8.50
   1   0  -5  309.87    8.50
   1   0  -5  299.27    9.30
   1   0  -5  300.37    9.10
  -1   0   5  307.47    8.50
  -1   0   5  306.67    9.00
  -1   0   5  315.47    9.00
  -1   0   5  307.47    8.50
  -1   0   5  310.57    9.40
  -1   0   5  322.97    8.80
  -1   0   5  319.37    8.80
  -1   0   5  304.77    8.70
   0   0  -5  240.18    7.70
   0   0  -5  238.28    8.10
   0   0  -5  237.58    7.00
   0   0  -5  242.68    6.90
   0   0  -5  249.28    8.00
   0   0  -5  248.18    7.00
   0   0  -5  237.58    7.00
   0   0   5  245.98    8.00
   0   0   5  245.78    7.50
   0   0   5  238.88    7.00
   0   0   5  238.88    7.00
   0   0   5  249.18    7.30
  -1   0  -5   57.49    3.00
  -1   0  -5   60.69    3.20
  -1   0  -5   57.49    3.00
  -1   0  -5   59.99    4.10
  -1   0  -5   58.89    3.80
   1   0   5   54.09    3.40
   1   0   5   60.59    4.40
   1   0   5   59.09    3.60
   1   0   5   59.89    3.10
   1   0   5   59.79    3.70
   1   0   5   59.89    3.10
  -2   0  -5  281.47    9.90
  -2   0  -5  300.77   10.60
  -2   0  -5  313.07    9.00
  -2   0  -5  301.57    9.50
  -2   0  -5  313.17    9.00
   2   0   5  293.17    8.80
   2   0   5  293.17    8.80
   2   0   5  306.57    9.50
   2   0   5  303.37    8.90
   2   0   5  321.37   11.20
   2   0   5  312.27   10.30
  -3   0  -5  897.31   22.10
  -3   0  -5  897.31   22.10
  -3   0  -5  896.21   22.90
  -3   0  -5  889.51   24.40
   3   0   5  843.82   21.80
   3   0   5  846.12   24.60
   3   0   5  871.71   24.10
   3   0   5  863.01   23.00
   3   0   5  843.82   21.80
  -4   0  -5    1.10    2.70
  -4   0  -5    1.90    2.30
  -4   0  -5    4.70    3.30
  -4   0  -5    1.90    2.30
   4   0   5   -2.40    2.70
   4   0   5    1.40    3.30
   4   0   5   -4.00    4.20
  -5   0  -5   10.10    4.30
  -5   0  -5    6.70    3.90
   5   0   5    9.30    2.80
   5   0   5   11.40    4.20
   5   0   5    4.50    3.60
   5   0   5    9.30    2.80
  -6   0  -5   58.49    7.00
  -6   0  -5   50.19    6.80
   6   0   5   65.79    6.50
   6   0   5   59.49    7.50
   6   0   5   51.69    7.10
   6   0   5   65.79    6.50
  -7   0  -5   58.99    9.30
  -7   0  -5   53.59    8.40
   7   0   5   58.39    8.30
   7   0   5   67.99    9.20
   7   0   5   58.39    8.30
   9   0  -6   54.69    8.10
   9   0  -6   56.09    7.60
   9   0  -6   49.10    5.10
   9   0  -6   49.10    5.10
  -9   0   6   39.40    7.30
  -9   0   6   56.39    6.30
   8   0  -6   79.29    6.00
   8   0  -6   82.39    7.60
   8   0  -6   79.29    6.00
   8   0  -6   85.19    8.60
  -8   0   6   73.09    6.40
  -8   0   6   74.29    8.60
   7   0  -6  528.55   15.20
   7   0  -6  521.95   16.20
   7   0  -6  532.65   16.80
   7   0  -6  528.65   15.20
  -7   0   6  500.55   15.80
  -7   0   6  539.05   17.80
  -7   0   6  528.25   14.30
   6   0  -6   16.60    2.90
   6   0  -6   11.00    2.40
   6   0  -6   11.00    2.40
   6   0  -6   14.80    3.00
   6   0  -6   12.50    3.60
  -6   0   6   12.10    3.60
  -6   0   6   13.20    2.10
  -6   0   6    7.10    3.40
  -6   0   6   13.40    3.00
  -6   0   6   10.20    3.00
   5   0  -6    6.90    2.20
   5   0  -6    5.80    3.10
   5   0  -6    9.20    2.10
   5   0  -6    7.50    2.20
   5   0  -6    9.20    2.10
  -5   0   6    6.10    2.60
  -5   0   6    8.70    2.60
  -5   0   6    7.70    2.60
  -5   0   6    9.30    1.70
  -5   0   6    9.00    2.70
   4   0  -6  105.79    5.00
   4   0  -6  106.69    5.70
   4   0  -6  102.19    4.50
   4   0  -6  102.19    4.50
   4   0  -6  107.49    5.10
  -4   0   6  105.49    5.60
  -4   0   6  103.19    5.20
  -4   0   6  110.29    4.50
  -4   0   6  105.99    5.10
  -4   0   6  110.19    6.20
  -4   0   6  104.79    5.80
  -4   0   6  109.29    5.30
  -4   0   6  110.19    6.20
   3   0  -6  113.79    5.10
   3   0  -6  116.19    4.70
   3   0  -6  105.99    5.00
   3   0  -6  112.29    5.10
   3   0  -6  113.59    4.50
   3   0  -6  113.59    4.50
  -3   0   6  118.19    5.10
  -3   0   6  113.19    5.10
  -3   0   6  107.59    4.60
  -3   0   6  107.59    4.60
  -3   0   6  109.49    5.50
  -3   0   6  107.99    4.90
  -3   0   6  111.39    5.10
  -3   0   6  107.69    4.50
   2   0  -6  514.75   13.50
   2   0  -6  498.65   14.30
   2   0  -6  505.75   14.20
   2   0  -6  514.75   13.50
   2   0  -6  517.55   13.50
  -2   0   6  519.45   13.50
  -2   0   6  525.95   13.80
  -2   0   6  519.45   13.50
  -2   0   6  502.15   14.50
  -2   0   6  517.65   14.00
  -2   0   6  520.35   13.90
  -2   0   6  513.85   13.90
  -2   0   6  521.65   13.80
   1   0  -6  241.78    8.10
   1   0  -6  242.98    7.30
   1   0  -6  235.08    8.20
   1   0  -6  229.68    7.30
   1   0  -6  229.68    7.30
   1   0  -6  239.08    7.30
  -1   0   6  247.28    7.60
  -1   0   6  249.97    7.40
  -1   0   6  244.98    7.70
  -1   0   6  249.08    8.10
  -1   0   6  249.97    7.40
  -1   0   6  248.08    7.90
  -1   0   6  240.48    8.30
   0   0  -6  473.55   13.80
   0   0  -6  468.05   12.40
   0   0  -6  440.46   13.50
   0   0  -6  468.05   12.40
   0   0  -6  456.45   12.00
   0   0   6  478.75   12.60
   0   0   6  432.46   13.50
   0   0   6  476.05   13.70
   0   0   6  469.15   13.30
   0   0   6  461.35   12.20
   0   0   6  461.35   12.20
   0   0   6  464.75   12.90
  -1   0  -6  118.09    4.80
  -1   0  -6  123.29    5.20
  -1   0  -6  113.79    6.00
  -1   0  -6  118.09    4.80
  -1   0  -6  117.49    6.00
   1   0   6  120.49    5.10
   1   0   6  120.49    5.10
   1   0   6  123.99    6.50
   1   0   6  124.39    5.80
   1   0   6  122.69    5.50
  -2   0  -6  680.73   17.50
  -2   0  -6  681.33   17.50
  -2   0  -6  691.33   17.90
  -2   0  -6  682.93   19.80
   2   0   6  627.64   17.20
   2   0   6  627.54   17.20
   2   0   6  670.83   17.90
   2   0   6  635.64   16.90
   2   0   6  661.13   20.00
   2   0   6  694.23   19.20
  -3   0  -6  671.43   18.70
  -3   0  -6  685.03   18.20
  -3   0  -6  690.93   20.80
  -3   0  -6  685.03   18.20
   3   0   6  671.73   19.20
   3   0   6  684.73   20.30
   3   0   6  684.93   21.20
  -4   0  -6    1.40    3.20
  -4   0  -6    2.70    3.80
  -4   0  -6    5.20    2.90
  -4   0  -6    5.20    2.90
   4   0   6   -3.10    3.20
   4   0   6    6.30    4.00
  -5   0  -6    6.80    4.30
  -5   0  -6    0.40    4.50
   5   0   6    5.80    4.10
   5   0   6    5.40    5.00
   5   0   6    5.00    3.20
   5   0   6    5.00    3.20
  -6   0  -6   15.40    6.70
  -6   0  -6   19.00    6.40
   6   0   6   18.90    4.50
   6   0   6   20.80    6.70
   6   0   6   18.90    4.50
   6   0   6   18.90    5.40
   9   0  -7   15.70    6.50
   9   0  -7    6.90    4.20
   9   0  -7    6.90    4.20
  -9   0   7   12.70    5.90
  -9   0   7    4.10    4.60
   8   0  -7   51.09    6.30
   8   0  -7   57.69    6.00
   8   0  -7   54.69    5.10
   8   0  -7   54.69    5.10
  -8   0   7   56.79    6.80
  -8   0   7   45.80    5.20
   7   0  -7  235.08   10.40
   7   0  -7  246.88   10.10
   7   0  -7  252.37    9.20
   7   0  -7  252.37    9.20
  -7   0   7  250.47   11.50
  -7   0   7  248.38    8.10
  -7   0   7  243.98    9.80
   6   0  -7  262.57    9.10
   6   0  -7  256.47    9.80
   6   0  -7  261.37    9.80
   6   0  -7  262.57    9.10
  -6   0   7  246.38    9.20
  -6   0   7  263.47   10.80
  -6   0   7  259.47    8.30
  -6   0   7  253.87   10.40
  -6   0   7  270.67    9.80
   5   0  -7  186.68    6.90
   5   0  -7  190.58    7.60
   5   0  -7  176.78    7.30
   5   0  -7  186.68    6.90
  -5   0   7  180.68    7.40
  -5   0   7  192.58    7.70
  -5   0   7  182.28    6.60
  -5   0   7  175.68    7.70
  -5   0   7  186.38    8.50
  -5   0   7  183.58    8.60
   4   0  -7    7.60    2.10
   4   0  -7   11.70    3.10
   4   0  -7   11.50    2.10
   4   0  -7    7.90    2.20
   4   0  -7   11.50    2.10
  -4   0   7   12.00    2.70
  -4   0   7   11.60    2.70
  -4   0   7    8.30    2.40
  -4   0   7    8.00    2.00
  -4   0   7   10.80    2.80
  -4   0   7    6.30    3.10
   3   0  -7  420.26   12.40
   3   0  -7  407.66   11.50
   3   0  -7  401.86   12.40
   3   0  -7  412.36   11.70
   3   0  -7  407.66   11.50
   3   0  -7  409.16   11.90
  -3   0   7  406.46   11.70
  -3   0   7  388.96   12.80
  -3   0   7  410.76   12.40
  -3   0   7  412.16   12.00
  -3   0   7  388.66   11.80
   2   0  -7  547.85   14.90
   2   0  -7  530.25   14.70
   2   0  -7  552.54   16.00
   2   0  -7  531.55   15.80
   2   0  -7  547.85   14.90
  -2   0   7  569.04   15.60
  -2   0   7  617.14   16.20
  -2   0   7  558.94   15.10
  -2   0   7  529.15   16.20
  -2   0   7  571.94   15.60
  -2   0   7  617.14   16.20
  -2   0   7  592.04   15.50
  -2   0   7  555.94   15.40
   1   0  -7  102.49    5.70
   1   0  -7   94.29    5.10
   1   0  -7  106.79    4.60
   1   0  -7  106.79    4.60
   1   0  -7  100.29    5.60
   1   0  -7  103.29    4.40
  -1   0   7  104.59    5.60
  -1   0   7  101.19    4.80
  -1   0   7   91.09    4.80
  -1   0   7  104.39    5.60
  -1   0   7   99.99    5.00
  -1   0   7   91.09    4.80
   0   0  -7  198.78    6.50
   0   0  -7  189.18    6.50
   0   0  -7  199.98    6.90
   0   0  -7  199.98    6.90
   0   0  -7  195.58    8.20
   0   0   7  202.38    7.40
   0   0   7  202.18    7.40
   0   0   7  180.98    6.90
   0   0   7  197.58    8.10
   0   0   7  208.58    8.50
   0   0   7  180.98    6.90
  -1   0  -7   35.40    3.60
  -1   0  -7   31.00    3.20
  -1   0  -7   28.80    2.90
  -1   0  -7   31.00    4.00
  -1   0  -7   28.80    2.90
  -1   0  -7   30.00    4.70
   1   0   7   32.40    3.60
   1   0   7   28.80    4.30
   1   0   7   27.60    3.40
  -2   0  -7   90.89    5.20
  -2   0  -7   81.39    6.30
  -2   0  -7   84.69    5.60
  -2   0  -7   90.89    5.20
  -2   0  -7   86.59    6.60
   2   0   7   79.59    5.80
   2   0   7   75.09    6.40
   2   0   7   77.19    7.10
  -3   0  -7    2.80    3.00
  -3   0  -7    7.20    3.70
  -3   0  -7   -0.50    2.60
  -3   0  -7   -0.50    2.60
   3   0   7    3.60    3.80
   3   0   7   -0.10    3.20
  -4   0  -7    1.40    3.30
  -4   0  -7    1.40    3.30
  -4   0  -7    0.20    3.80
  -4   0  -7    3.30    4.40
   4   0   7    9.80    4.50
   4   0   7   -0.10    4.20
  -5   0  -7   62.99    7.90
   5   0   7   42.40    6.50
   5   0   7   58.69    7.10
   5   0   7   42.80    4.90
   5   0   7   42.80    4.90
   9   0  -8   23.60    5.10
   9   0  -8   23.60    5.10
   9   0  -8    6.20    6.90
  -9   0   8    8.80    6.90
  -9   0   8   14.70    5.10
   8   0  -8    6.30    3.50
   8   0  -8    6.30    3.50
   8   0  -8   -1.40    4.10
   8   0  -8    5.30    4.50
  -8   0   8   -0.30    5.00
  -8   0   8    3.50    3.80
   7   0  -8  379.96   13.20
   7   0  -8  380.56   12.60
   7   0  -8  380.56   12.60
   7   0  -8  402.16   14.00
  -7   0   8  384.26   14.90
  -7   0   8  372.76   13.40
   6   0  -8   76.79    6.20
   6   0  -8   88.39    6.10
   6   0  -8   87.29    5.30
   6   0  -8   87.29    5.30
  -6   0   8   71.59    7.60
  -6   0   8   88.59    5.00
  -6   0   8   79.09    7.10
  -6   0   8   76.89    5.70
   5   0  -8  323.37   10.80
   5   0  -8  310.27   10.40
   5   0  -8  313.67   11.00
   5   0  -8  310.27   10.40
  -5   0   8  328.97   10.00
  -5   0   8  334.77   11.40
  -5   0   8  314.07   11.10
  -5   0   8  332.97   12.00
  -5   0   8  315.77   11.10
   4   0  -8  562.84   17.30
   4   0  -8  621.54   16.90
   4   0  -8  624.64   17.70
   4   0  -8  621.44   16.70
   4   0  -8  621.44   16.70
  -4   0   8  608.94   17.10
  -4   0   8  616.44   17.40
  -4   0   8  629.24   16.70
  -4   0   8  639.74   18.00
  -4   0   8  582.34   17.40
   3   0  -8   91.39    5.50
   3   0  -8   83.09    6.40
   3   0  -8  100.29    5.00
   3   0  -8  100.29    5.00
   3   0  -8   97.29    5.60
  -3   0   8   96.29    5.10
  -3   0   8  100.19    5.70
  -3   0   8   96.49    5.30
  -3   0   8   95.29    5.70
  -3   0   8   99.69    5.80
   2   0  -8  138.79    5.70
   2   0  -8  127.89    5.60
   2   0  -8  137.19    6.90
   2   0  -8  142.19    6.00
   2   0  -8  138.79    5.70
  -2   0   8  132.49    6.60
  -2   0   8  126.39    6.50
  -2   0   8  139.39    5.90
  -2   0   8  136.69    6.20
  -2   0   8  134.19    6.90
   1   0  -8  118.89    6.80
   1   0  -8  123.49    5.60
   1   0  -8  123.49    5.60
   1   0  -8  120.39    5.00
   1   0  -8  124.19    5.30
  -1   0   8  110.49    6.80
  -1   0   8  120.69    6.20
  -1   0   8  113.59    6.60
  -1   0   8  121.19    5.70
   0   0  -8  144.19    6.00
   0   0  -8  154.18    6.30
   0   0  -8  154.18    6.30
   0   0  -8  149.79    7.90
   0   0   8  143.59    8.00
   0   0   8  166.58    7.00
   0   0   8  154.48    8.10
   0   0   8  158.58    7.30
  -1   0  -8   58.79    5.00
  -1   0  -8   72.19    4.80
  -1   0  -8   71.59    5.00
  -1   0  -8   71.59    5.00
   1   0   8   74.69    6.00
   1   0   8   71.19    6.30
   1   0   8   68.79    8.70
  -2   0  -8  214.28    8.60
  -2   0  -8  214.28    8.60
  -2   0  -8  203.58    8.20
  -2   0  -8  215.98   10.50
   2   0   8  192.48   10.80
  -3   0  -8   73.89    8.10
  -3   0  -8   62.39    5.30
  -3   0  -8   62.39    5.30
   3   0   8   60.99    6.80
   3   0   8   57.49    7.00
  -4   0  -8   27.40    5.00
  -4   0  -8   27.40    5.00
  -4   0  -8   15.90    6.00
   4   0   8    8.50    4.90
   4   0   8   28.10    5.90
   5   0   8  173.88   13.80
   5   0   8  193.18   10.50
   5   0   8  193.28   10.50
  -9   0   9    5.10    4.80
   8   0  -9   51.89    5.40
   8   0  -9   42.90    6.70
   8   0  -9   51.89    5.40
   8   0  -9   47.00    6.40
  -8   0   9   35.20    5.60
  -8   0   9   34.90    6.80
   7   0  -9    7.60    3.90
   7   0  -9   10.20    4.30
   7   0  -9    6.10    2.90
   7   0  -9    6.10    2.90
  -7   0   9    0.70    3.80
   6   0  -9   13.90    3.80
   6   0  -9    7.30    3.00
   6   0  -9    7.30    3.00
   6   0  -9   11.70    3.60
  -6   0   9   12.40    4.20
  -6   0   9    8.50    3.70
  -6   0   9   14.40    3.00
   5   0  -9    9.80    2.60
   5   0  -9    8.60    3.00
   5   0  -9    8.80    3.20
   5   0  -9    9.80    2.60
  -5   0   9    9.80    3.00
  -5   0   9   12.80    2.90
  -5   0   9   17.00    5.20
  -5   0   9    5.80    3.90
  -5   0   9   18.30    4.10
   4   0  -9   21.70    3.10
   4   0  -9   21.70    3.10
   4   0  -9   21.10    4.50
   4   0  -9   25.50    3.70
  -4   0   9   26.10    3.40
  -4   0   9   26.80    4.00
  -4   0   9   27.20    3.50
  -4   0   9   25.90    4.10
  -4   0   9   21.50    3.90
   3   0  -9   -0.90    3.00
   3   0  -9    3.10    2.10
   3   0  -9    2.00    2.70
   3   0  -9    3.10    2.10
  -3   0   9    0.30    2.10
  -3   0   9    3.60    2.90
  -3   0   9    3.70    3.40
  -3   0   9    0.10    3.00
  -3   0   9   -2.50    2.60
   2   0  -9   47.10    4.70
   2   0  -9   47.70    4.40
   2   0  -9   47.70    4.40
   2   0  -9   51.29    5.70
   2   0  -9   35.60    4.40
  -2   0   9   47.90    5.40
  -2   0   9   46.00    4.50
  -2   0   9   51.29    6.40
  -2   0   9   46.50    4.60
   1   0  -9   57.99    4.40
   1   0  -9   59.99    5.00
   1   0  -9   63.59    6.10
   1   0  -9   60.09    4.00
   1   0  -9   59.99    5.00
  -1   0   9   60.59    7.30
  -1   0   9   64.29    5.00
  -1   0   9   66.49    5.90
  -1   0   9   64.39    6.80
   0   0  -9  181.88    9.40
   0   0  -9  182.98   11.20
   0   0  -9  185.58    8.20
   0   0  -9  182.88   11.20
   0   0   9  186.78    8.40
   0   0   9  190.38    9.80
  -1   0  -9   58.79    5.70
  -1   0  -9   58.79    5.70
  -1   0  -9   45.00    5.50
   1   0   9   36.70    5.70
   1   0   9   53.79    6.40
   1   0   9   52.69    5.50
  -2   0  -9    0.30    4.10
  -2   0  -9   -4.60    3.60
  -2   0  -9   -4.60    3.60
   2   0   9   -5.10    4.40
   2   0   9    3.30    4.20
  -3   0  -9    8.80    4.60
  -3   0  -9   11.10    5.40
  -3   0  -9    8.80    4.60
   3   0   9    5.60    5.60
   3   0   9    6.80    5.10
  -4   0  -9   61.19   11.40
  -4   0  -9   56.99    6.70
  -4   0  -9   56.99    6.80
   4   0   9   41.50    7.40
   8   0 -10    6.30    5.30
   8   0 -10    6.30    5.30
  -8   0  10    5.70    4.50
  -8   0  10   12.70    7.00
   7   0 -10   21.90    4.20
   7   0 -10   15.60    4.50
   7   0 -10   21.90    4.20
  -7   0  10   14.80    6.30
  -7   0  10   15.10    4.50
   6   0 -10   29.80    4.80
   6   0 -10   26.20    4.40
   6   0 -10   36.10    4.60
   6   0 -10   36.10    4.60
  -6   0  10   45.00    7.00
  -6   0  10   30.90    4.90
   5   0 -10    3.90    3.20
   5   0 -10    3.90    3.20
   5   0 -10    3.50    3.40
  -5   0  10    2.00    4.40
  -5   0  10    4.50    3.20
  -5   0  10   -0.20    3.80
  -5   0  10   -3.30    3.20
   4   0 -10   20.30    3.20
   4   0 -10   20.30    3.20
   4   0 -10   29.40    4.40
  -4   0  10   22.30    4.20
  -4   0  10   24.20    3.60
  -4   0  10   30.00    4.80
  -4   0  10   25.90    4.00
   3   0 -10   14.10    3.30
   3   0 -10   14.10    3.30
   3   0 -10   15.70    3.50
  -3   0  10   15.70    3.80
  -3   0  10   15.80    3.00
  -3   0  10   14.10    4.10
   2   0 -10   16.00    3.10
   2   0 -10   23.90    3.70
   2   0 -10   15.40    4.00
   2   0 -10   23.90    3.70
  -2   0  10   22.80    3.40
  -2   0  10   20.60    4.50
  -2   0  10   20.00    4.70
   1   0 -10   40.00    5.60
   1   0 -10   45.40    4.60
   1   0 -10   45.30    4.60
  -1   0  10   52.39    5.80
  -1   0  10   47.20    5.30
  -1   0  10   35.80    5.60
   0   0 -10    1.10    3.30
   0   0 -10   -0.40    4.10
   0   0 -10    1.10    3.30
   0   0  10    6.20    4.60
   0   0  10   -1.80    3.50
   0   0  10   -2.00    4.50
  -1   0 -10    6.80    3.90
  -1   0 -10   -1.30    4.40
  -1   0 -10    6.80    3.90
   1   0  10    1.30    5.90
   1   0  10   -7.00    4.40
  -2   0 -10   60.29    7.90
  -2   0 -10   71.19    6.50
  -2   0 -10   71.19    6.50
   2   0  10   60.39    7.50
   2   0  10   49.90    7.50
  -3   0 -10  154.48   11.30
  -3   0 -10  154.48   11.30
   3   0  10  140.29   12.70
   7   0 -11   54.69    6.50
   7   0 -11   48.30    6.80
   7   0 -11   54.69    6.50
  -7   0  11   51.09    6.60
  -7   0  11   66.89    8.80
   6   0 -11   -1.30    3.90
   6   0 -11    6.80    4.70
   6   0 -11   -1.30    3.90
  -6   0  11    1.90    6.10
  -6   0  11    0.20    4.10
   5   0 -11   -0.80    3.30
   5   0 -11    0.40    4.20
   5   0 -11   -0.80    3.30
  -5   0  11    9.20    5.20
  -5   0  11    4.70    4.60
  -5   0  11    1.80    4.00
   4   0 -11    5.20    3.20
   4   0 -11    5.50    4.30
   4   0 -11    5.20    3.20
  -4   0  11    4.90    4.20
  -4   0  11    2.90    3.30
  -4   0  11   -0.10    7.20
  -4   0  11    1.00    4.20
   3   0 -11  207.78    9.50
   3   0 -11  192.38   11.00
   3   0 -11  207.78    9.50
  -3   0  11  213.58   10.20
  -3   0  11  208.28    9.20
  -3   0  11  196.48   11.20
   2   0 -11   -2.40    4.30
   2   0 -11   -5.10    3.50
   2   0 -11   -5.10    3.50
  -2   0  11   -0.20    4.30
  -2   0  11   -4.60    4.80
  -2   0  11   -2.20    3.30
   1   0 -11  121.19   10.00
   1   0 -11  108.29    7.70
   1   0 -11  108.29    7.70
  -1   0  11  119.39    8.60
  -1   0  11  105.19   10.60
  -1   0  11  102.69    9.00
   0   0 -11    4.80    4.20
   0   0 -11   -0.80    5.00
   0   0 -11    4.80    4.20
   0   0  11   -1.00    6.10
   0   0  11   -2.60    4.70
  -1   0 -11   15.10    5.30
  -1   0 -11   22.60    6.80
  -1   0 -11   15.10    5.30
   1   0  11   11.50    6.20
   1   0  11    1.00    6.70
   6   0 -12   24.40    6.60
  -6   0  12    5.80    4.90
   5   0 -12    3.30    3.90
   5   0 -12    2.60    5.80
   5   0 -12    3.30    3.90
  -5   0  12    5.80    5.30
   4   0 -12  131.59    9.20
   4   0 -12  103.49   10.70
   4   0 -12  131.29    9.20
  -4   0  12  121.29   11.10
  -4   0  12  125.09    9.80
   3   0 -12   -2.70    4.50
   3   0 -12   -8.00    5.10
   3   0 -12   -2.70    4.50
  -3   0  12    2.60    5.00
  -3   0  12   -7.50    5.60
   2   0 -12    5.30    4.20
   2   0 -12   13.40    6.10
   2   0 -12    5.30    4.20
  -2   0  12   13.10    7.00
  -2   0  12   13.50    5.60
   1   0 -12  227.48   11.10
   1   0 -12  227.48   11.10
   1   0 -12  198.38   13.70
  -1   0  12  209.78   14.90
  -1   0  12  202.38   12.50
   0   0 -12   23.50    6.40
   0   0 -12   -0.10    9.10
   0   0 -12   23.50    6.40
   0   0  12   -6.50    7.60
   0   1  12   33.00    7.20
   0   1  12   20.70    8.70
   0  -1 -12   36.60    6.50
   0  -1 -12   39.40    8.40
   0  -1 -12   36.60    6.50
  -1   1  12    3.40    6.60
  -1   1  12   15.70    6.00
  -1   1  12   20.10    6.70
   1  -1 -12   14.10    5.20
   1  -1 -12    6.50    6.70
   1  -1 -12   14.10    5.20
  -2   1  12   12.00    6.00
  -2   1  12    8.40    5.50
  -2   1  12   17.90    6.80
   2  -1 -12   10.10    4.60
   2  -1 -12   10.10    4.60
   2  -1 -12   11.90    5.80
  -3   1  12   31.10    6.80
  -3   1  12   32.80    6.20
   3  -1 -12   24.20    4.90
   3  -1 -12   27.70    6.50
   3  -1 -12   24.20    4.90
  -4   1  12   24.50    6.30
  -4   1  12   26.40    5.80
   4  -1 -12   28.90    6.10
   4  -1 -12   38.80    5.50
   4  -1 -12   38.80    5.50
  -5   1  12   97.69    9.80
  -5   1  12   86.89    9.10
   5  -1 -12   87.99   10.30
   5  -1 -12   70.09    6.50
   5  -1 -12   70.09    6.50
  -6   1  12  213.28   11.60
   6  -1 -12  232.48   14.80
   1   1  11   29.60    8.00
   1   1  11   26.20    6.80
  -1  -1 -11   31.60    7.80
  -1  -1 -11   40.70    6.20
  -1  -1 -11   40.70    6.20
   0   1  11    8.40    5.10
   0  -1 -11   23.30    6.20
   0  -1 -11   25.70    5.00
   0  -1 -11   25.70    5.00
  -1   1  11   42.40    5.40
  -1   1  11   45.90    6.90
  -1   1  11   42.10    5.90
   1  -1 -11   31.10    4.50
   1  -1 -11   31.10    4.50
   1  -1 -11   31.40    6.40
  -2   1  11   60.39    6.90
  -2   1  11   51.19    6.10
  -2   1  11   57.29    6.90
   2  -1 -11   65.29    5.70
   2  -1 -11   65.29    5.70
   2  -1 -11   66.89    8.40
  -3   1  11   91.59    7.20
  -3   1  11   77.69    7.80
  -3   1  11   70.59    6.50
   3  -1 -11   66.59    6.70
   3  -1 -11   66.49    6.70
   3  -1 -11   63.29    8.10
  -4   1  11  131.99    8.70
  -4   1  11  129.89    7.90
  -4   1  11  120.59    8.80
   4  -1 -11  125.59    7.70
   4  -1 -11  108.59    9.00
   4  -1 -11  125.59    7.70
  -5   1  11  118.59    8.70
  -5   1  11  111.09    8.30
  -5   1  11  107.59    8.60
   5  -1 -11  121.89    9.20
   5  -1 -11  123.79    7.80
   5  -1 -11  123.79    7.80
  -6   1  11  111.49   11.10
  -6   1  11  108.49    8.40
   6  -1 -11  110.49    7.90
   6  -1 -11  112.79    9.10
   6  -1 -11  110.49    7.90
  -7   1  11   46.80    7.90
  -7   1  11   34.10    5.30
   7  -1 -11   30.80    6.00
   7  -1 -11   30.80    6.00
   3   1  10    4.00    6.90
  -3  -1 -10   -6.40    5.80
  -3  -1 -10   -6.40    5.80
   2   1  10   23.00    6.60
   2   1  10   20.20    6.50
  -2  -1 -10   36.50    5.50
  -2  -1 -10   37.30    6.80
  -2  -1 -10   36.50    5.50
   1   1  10   10.10    4.70
   1   1  10   10.60    5.50
  -1  -1 -10   20.90    5.50
  -1  -1 -10   18.50    4.10
  -1  -1 -10   18.50    4.10
   0   1  10    1.00    4.30
   0   1  10    4.80    3.70
   0   1  10    9.90    5.00
   0  -1 -10    6.60    3.20
   0  -1 -10    6.60    3.20
   0  -1 -10    0.60    4.30
  -1   1  10   23.40    4.60
  -1   1  10   25.50    4.00
  -1   1  10   23.60    5.00
   1  -1 -10   20.40    3.60
   1  -1 -10   32.90    5.00
   1  -1 -10   20.40    3.60
  -2   1  10   10.60    4.00
  -2   1  10    6.50    3.10
  -2   1  10    8.80    4.00
   2  -1 -10    8.10    3.10
   2  -1 -10    7.90    3.60
   2  -1 -10    3.10    3.80
   2  -1 -10    8.10    3.10
  -3   1  10  237.88   10.00
  -3   1  10  255.97   10.50
  -3   1  10  236.08    9.50
   3  -1 -10  244.78    8.90
   3  -1 -10  234.68    9.20
   3  -1 -10  234.68    9.20
   3  -1 -10  235.08   10.60
  -4   1  10    3.70    3.50
  -4   1  10   -0.20    3.20
  -4   1  10   -1.50    3.10
  -4   1  10    1.50    3.20
   4  -1 -10   -2.40    3.20
   4  -1 -10   -0.80    2.80
   4  -1 -10   -0.80    2.80
  -5   1  10   94.39    8.30
  -5   1  10   76.99    6.50
  -5   1  10   85.69    7.10
  -5   1  10   77.69    6.50
   5  -1 -10   92.49    6.10
   5  -1 -10   92.49    6.10
   5  -1 -10   88.39    7.00
  -6   1  10  165.88   10.70
  -6   1  10  173.28    9.20
  -6   1  10  174.88    8.40
   6  -1 -10  183.68    9.50
   6  -1 -10  184.98    9.00
   6  -1 -10  168.88    8.50
   6  -1 -10  168.88    8.50
  -7   1  10    6.30    4.30
  -7   1  10    1.50    5.60
   7  -1 -10    5.50    4.20
   7  -1 -10   11.20    4.00
   7  -1 -10    0.70    8.20
   7  -1 -10   11.20    4.00
  -8   1  10   30.00    7.80
  -8   1  10   14.30    4.60
   8  -1 -10   15.90    4.90
   8  -1 -10   15.90    4.90
   4   1   9   14.00    6.90
  -4  -1  -9   31.90    6.40
  -4  -1  -9   31.90    6.40
   3   1   9   36.50    6.60
   3   1   9   31.50    6.30
  -3  -1  -9   30.50    6.60
  -3  -1  -9   30.70    5.10
  -3  -1  -9   30.70    5.10
   2   1   9   15.30    4.90
   2   1   9    9.80    4.70
  -2  -1  -9   25.30    4.80
  -2  -1  -9   17.90    5.20
  -2  -1  -9   25.40    4.80
   1   1   9    3.90    4.10
   1   1   9    6.20    3.60
  -1  -1  -9   13.10    4.20
  -1  -1  -9   20.70    3.50
  -1  -1  -9   20.70    3.50
   0   1   9   46.60    5.30
   0   1   9   41.90    5.20
   0   1   9   55.99    5.00
   0  -1  -9   43.30    3.90
   0  -1  -9   43.30    3.90
   0  -1  -9   41.20    5.10
  -1   1   9  314.27   10.90
  -1   1   9  307.97   11.70
  -1   1   9  312.87   10.80
   1  -1  -9  297.67    8.30
   1  -1  -9  302.97   10.40
   1  -1  -9  302.97   10.40
   1  -1  -9  296.57    8.20
   1  -1  -9  313.77   12.00
  -2   1   9  533.65   15.70
  -2   1   9  566.84   16.50
  -2   1   9  554.14   15.70
  -2   1   9  508.15   16.70
   2  -1  -9  500.25   16.20
   2  -1  -9  517.45   14.10
   2  -1  -9  571.74   16.90
   2  -1  -9  500.25   16.10
  -3   1   9   49.20    5.00
  -3   1   9   49.99    4.90
  -3   1   9   40.20    4.90
  -3   1   9   51.69    5.10
  -3   1   9   35.80    4.10
   3  -1  -9   51.89    5.40
   3  -1  -9   50.39    4.30
   3  -1  -9   50.39    4.30
   3  -1  -9   48.50    5.40
  -4   1   9  133.29    7.20
  -4   1   9  127.49    8.20
  -4   1   9  127.49    6.90
  -4   1   9  131.19    6.70
  -4   1   9  133.99    7.00
   4  -1  -9  135.39    6.30
   4  -1  -9  135.39    6.30
   4  -1  -9  117.19    8.00
   4  -1  -9  125.79    7.00
  -5   1   9  159.38    7.30
  -5   1   9  149.79    7.70
  -5   1   9  149.49    8.60
   5  -1  -9  154.48    7.80
   5  -1  -9  146.89    7.00
   5  -1  -9  153.58    7.60
   5  -1  -9  146.89    7.00
  -6   1   9   14.10    3.30
  -6   1   9    7.30    3.60
  -6   1   9   24.20    4.70
   6  -1  -9    8.20    3.30
   6  -1  -9   10.40    3.70
   6  -1  -9    8.00    2.90
   6  -1  -9    8.00    2.90
  -7   1   9  310.87   13.70
  -7   1   9  300.37   11.70
   7  -1  -9  311.47   11.70
   7  -1  -9  298.67   11.50
   7  -1  -9  337.87   13.10
   7  -1  -9  298.67   11.50
  -8   1   9  154.98    9.20
  -8   1   9  172.78   12.40
   8  -1  -9  181.18    9.40
   8  -1  -9  181.18    9.40
   8  -1  -9  189.88   11.60
   5   1   8   44.10    5.90
   5   1   8   44.10    5.90
   4   1   8    3.20    5.20
   4   1   8    1.70    4.70
  -4  -1  -8    2.00    4.60
  -4  -1  -8    2.00    4.60
  -4  -1  -8    5.70    5.60
   3   1   8  106.89    9.10
   3   1   8  102.59    9.60
  -3  -1  -8  118.39    9.40
  -3  -1  -8  116.09    7.20
  -3  -1  -8  116.09    7.20
   2   1   8    7.90    4.30
   2   1   8   13.70    3.80
  -2  -1  -8   14.10    3.40
  -2  -1  -8   19.00    2.60
  -2  -1  -8   13.70    3.90
  -2  -1  -8   14.10    3.40
   1   1   8   27.40    3.90
   1   1   8   23.70    3.60
  -1  -1  -8   23.80    2.50
  -1  -1  -8   30.20    3.30
  -1  -1  -8   26.60    3.10
  -1  -1  -8   30.20    3.30
   0   1   8   90.69    6.30
   0   1   8   94.89    5.70
   0   1   8   88.29    5.70
   0  -1  -8   85.19    5.00
   0  -1  -8   82.79    3.80
   0  -1  -8   85.19    5.00
   0  -1  -8   82.49    6.20
   0  -1  -8   85.19    3.60
  -1   1   8  127.19    6.10
  -1   1   8  121.99    6.70
  -1   1   8  125.79    6.00
  -1   1   8  108.29    7.30
   1  -1  -8  116.59    4.40
   1  -1  -8  123.99    5.70
   1  -1  -8  117.69    6.70
   1  -1  -8  117.79    4.30
   1  -1  -8  123.99    5.70
  -2   1   8  296.27   10.20
  -2   1   8  286.07    9.70
  -2   1   8  287.97   10.50
  -2   1   8  288.47    9.70
   2  -1  -8  297.47   10.40
   2  -1  -8  284.07    9.20
   2  -1  -8  279.37    8.60
   2  -1  -8  284.07    9.20
  -3   1   8   51.79    6.10
  -3   1   8   56.19    4.70
  -3   1   8   50.19    4.40
  -3   1   8   59.29    4.60
  -3   1   8   46.70    5.60
  -3   1   8   44.20    4.20
   3  -1  -8   46.70    5.90
   3  -1  -8   54.29    4.60
   3  -1  -8   43.00    3.80
   3  -1  -8   49.90    4.70
   3  -1  -8   43.00    3.80
  -4   1   8   26.40    3.60
  -4   1   8   24.10    3.70
  -4   1   8   26.40    3.20
  -4   1   8   31.60    3.80
  -4   1   8   19.30    4.30
  -4   1   8   25.60    4.30
   4  -1  -8   24.70    2.90
   4  -1  -8   29.50    4.10
   4  -1  -8   23.80    3.30
   4  -1  -8   24.70    2.90
   4  -1  -8   26.90    3.30
  -5   1   8  129.19    7.20
  -5   1   8  113.79    7.60
  -5   1   8  121.69    6.10
  -5   1   8  131.89    9.90
  -5   1   8  122.09    6.50
  -5   1   8  136.19    8.10
   5  -1  -8  124.39    6.20
   5  -1  -8  127.29    6.10
   5  -1  -8  135.29    6.80
   5  -1  -8  127.29    6.10
  -6   1   8    8.60    3.10
  -6   1   8    6.50    3.80
  -6   1   8    7.60    2.70
  -6   1   8    6.30    6.50
   6  -1  -8    3.10    3.20
   6  -1  -8    6.60    2.50
   6  -1  -8    6.60    2.50
   6  -1  -8    5.90    2.70
  -7   1   8    7.40    4.20
  -7   1   8   20.70    4.00
  -7   1   8   13.80    3.40
   7  -1  -8   26.10    3.80
   7  -1  -8   17.40    3.60
   7  -1  -8   17.40    3.60
   7  -1  -8    9.90    4.00
  -8   1   8   50.59    5.70
  -8   1   8   38.10    6.40
   8  -1  -8   69.79    8.70
   8  -1  -8   48.00    6.50
   8  -1  -8   50.69    4.90
   8  -1  -8   50.69    4.90
  -9   1   8   18.30    6.90
  -9   1   8   15.80    4.80
   9  -1  -8   13.50    4.90
   9  -1  -8   13.50    4.90
   9  -1  -8    6.80    7.00
   5   1   7   34.00    6.90
   5   1   7   25.70    4.60
   5   1   7   32.30    6.00
   5   1   7   25.70    4.60
  -5  -1  -7   41.30    7.00
   4   1   7   19.30    5.20
   4   1   7   24.40    5.20
  -4  -1  -7   39.50    4.80
  -4  -1  -7   32.90    4.50
  -4  -1  -7   31.40    5.60
  -4  -1  -7   39.50    4.80
   3   1   7   39.80    5.70
   3   1   7   38.60    5.20
  -3  -1  -7   48.20    4.30
  -3  -1  -7   48.20    4.30
  -3  -1  -7   53.79    6.80
  -3  -1  -7   50.39    5.00
   2   1   7   61.09    5.90
   2   1   7   57.79    6.30
  -2  -1  -7   52.19    3.90
  -2  -1  -7   47.10    6.00
  -2  -1  -7   59.39    5.10
  -2  -1  -7   67.59    5.00
  -2  -1  -7   67.59    5.00
   1   1   7  169.68    6.70
   1   1   7  176.08    7.50
   1   1   7  173.48    8.30
  -1  -1  -7  172.78    6.70
  -1  -1  -7  172.78    6.70
  -1  -1  -7  171.08    8.10
  -1  -1  -7  162.88    5.70
  -1  -1  -7  158.18    5.70
   0   1   7  347.77   11.70
   0   1   7  349.47   11.60
   0   1   7  370.26   11.10
   0   1   7  342.77   10.20
   0  -1  -7  348.87    9.10
   0  -1  -7  339.57   10.30
   0  -1  -7  339.57   10.30
   0  -1  -7  336.07   11.70
   0  -1  -7  343.17    9.00
  -1   1   7  211.58    8.40
  -1   1   7  225.38    8.90
  -1   1   7  224.58    7.90
  -1   1   7  229.28    7.60
  -1   1   7  228.68    8.30
   1  -1  -7  218.68    7.30
   1  -1  -7  218.18    6.30
   1  -1  -7  228.38    8.50
   1  -1  -7  212.78    6.50
   1  -1  -7  220.08   11.90
   1  -1  -7  218.68    7.30
  -2   1   7   47.50    4.60
  -2   1   7   47.80    3.50
  -2   1   7   49.99    3.90
  -2   1   7   50.09    3.90
  -2   1   7   55.89    4.10
  -2   1   7   46.30    4.60
   2  -1  -7   43.70    3.20
   2  -1  -7   55.09    3.50
   2  -1  -7   55.09    3.50
   2  -1  -7   49.60    4.90
   2  -1  -7   48.40    4.10
  -3   1   7   35.70    3.60
  -3   1   7   34.50    3.50
  -3   1   7   28.40    3.10
  -3   1   7   30.30    3.60
  -3   1   7   34.00    4.20
  -3   1   7   26.30    3.50
   3  -1  -7   32.70    3.30
   3  -1  -7   38.30    4.60
   3  -1  -7   30.80    3.50
   3  -1  -7   31.40    3.80
   3  -1  -7   34.70    3.50
   3  -1  -7   32.70    3.30
  -4   1   7  570.44   15.50
  -4   1   7  551.54   15.90
  -4   1   7  583.14   16.20
  -4   1   7  556.44   16.10
  -4   1   7  566.54   15.80
  -4   1   7  547.45   16.20
   4  -1  -7  564.04   15.20
   4  -1  -7  539.95   16.00
   4  -1  -7  561.34   15.90
   4  -1  -7  564.04   15.20
   4  -1  -7  557.44   15.60
  -5   1   7  553.94   16.00
  -5   1   7  561.04   16.30
  -5   1   7  538.25   16.30
  -5   1   7  538.15   16.30
  -5   1   7  560.34   16.70
  -5   1   7  574.74   15.50
   5  -1  -7  554.24   16.30
   5  -1  -7  571.84   15.40
   5  -1  -7  571.84   15.40
   5  -1  -7  572.94   15.80
  -6   1   7  371.26   12.50
  -6   1   7  394.46   13.50
  -6   1   7  389.06   11.60
  -6   1   7  391.76   12.70
   6  -1  -7  396.36   13.10
   6  -1  -7  380.66   12.10
   6  -1  -7  358.06   13.00
  -7   1   7  229.38   11.00
  -7   1   7  238.28    9.90
  -7   1   7  229.68    8.60
   7  -1  -7  249.18    9.00
   7  -1  -7  238.78   10.80
   7  -1  -7  232.88    9.40
   7  -1  -7  249.18    9.00
  -8   1   7   64.19    6.40
  -8   1   7   68.39    7.60
   8  -1  -7   67.49    8.30
   8  -1  -7   58.99    6.90
   8  -1  -7   76.29    6.20
   8  -1  -7   76.19    6.20
  -9   1   7   24.30    7.30
  -9   1   7   25.00    5.00
   9  -1  -7   36.50    7.10
   9  -1  -7   19.50    4.30
   9  -1  -7   19.50    4.30
   6   1   6   20.30    6.60
   6   1   6   10.70    4.70
   6   1   6   10.30    4.90
   6   1   6   10.70    4.70
  -6  -1  -6   27.20    7.30
   5   1   6   83.89    6.50
   5   1   6   57.79    6.60
   5   1   6   72.09    8.80
   5   1   6   83.89    6.50
  -5  -1  -6   68.19    8.60
  -5  -1  -6   57.99    7.50
   4   1   6   58.09    7.50
   4   1   6   63.29    7.00
  -4  -1  -6   71.69    5.70
  -4  -1  -6   71.69    5.70
  -4  -1  -6   62.89    7.20
  -4  -1  -6   66.39    5.90
   3   1   6  315.87   12.70
   3   1   6  304.57   10.80
   3   1   6  323.97   12.10
  -3  -1  -6  318.07   12.30
  -3  -1  -6  310.87   10.10
  -3  -1  -6  306.87   10.00
  -3  -1  -6  310.87   10.10
   2   1   6  284.87   11.00
   2   1   6  300.67   10.50
   2   1   6  275.97    9.00
  -2  -1  -6  297.77    9.20
  -2  -1  -6  286.07   11.00
  -2  -1  -6  297.77    9.20
  -2  -1  -6  278.87    8.70
   1   1   6  447.66   12.80
   1   1   6  486.65   12.60
   1   1   6  487.45   14.00
   1   1   6  480.95   14.50
   1   1   6  447.66   12.80
  -1  -1  -6  495.15   13.10
  -1  -1  -6  483.85   12.50
  -1  -1  -6  504.55   14.90
  -1  -1  -6  495.15   13.10
  -1  -1  -6  478.35   12.40
  -1  -1  -6  450.65   14.20
   0   1   6    0.70    1.40
   0   1   6    0.10    1.90
   0   1   6    2.00    2.00
   0   1   6    2.60    1.50
   0   1   6    2.60    1.50
   0   1   6    2.10    2.00
   0   1   6    0.40    1.90
   0  -1  -6   -0.10    1.00
   0  -1  -6    0.50    1.20
   0  -1  -6    0.50    1.20
   0  -1  -6    2.80    1.80
   0  -1  -6    0.70    1.00
   0  -1  -6    1.30    2.10
  -1   1   6   78.79    3.80
  -1   1   6   75.09    3.60
  -1   1   6   72.59    4.10
  -1   1   6   75.09    3.60
  -1   1   6   76.19    4.00
  -1   1   6   70.09    4.20
  -1   1   6   80.19    4.50
   1  -1  -6   78.89    3.60
   1  -1  -6   78.89    3.60
   1  -1  -6   71.99    2.90
   1  -1  -6   71.59    4.50
   1  -1  -6   77.19    4.30
   1  -1  -6   76.59    3.20
  -2   1   6  150.18    5.40
  -2   1   6  144.49    5.30
  -2   1   6  146.79    6.00
  -2   1   6  150.18    5.40
  -2   1   6  157.18    5.60
  -2   1   6  147.39    5.70
  -2   1   6  142.59    5.70
  -2   1   6  143.79    6.00
   2  -1  -6  142.59    6.20
   2  -1  -6  151.78    5.30
   2  -1  -6  146.89    5.70
   2  -1  -6  140.89    5.00
   2  -1  -6  155.58    5.70
   2  -1  -6  151.78    5.30
  -3   1   6   94.29    4.50
  -3   1   6   89.79    4.10
  -3   1   6   89.79    4.10
  -3   1   6   83.59    4.80
  -3   1   6   93.39    4.50
  -3   1   6   95.59    4.90
  -3   1   6   95.69    4.60
  -3   1   6   99.49    5.00
   3  -1  -6   89.69    4.40
   3  -1  -6   92.69    4.70
   3  -1  -6   97.99    4.10
   3  -1  -6   97.99    4.10
   3  -1  -6   94.99    4.70
  -4   1   6  222.38    8.00
  -4   1   6  224.68    8.10
  -4   1   6  228.88    8.20
  -4   1   6  212.38    8.00
  -4   1   6  216.88    8.00
  -4   1   6  228.88    8.20
  -4   1   6  223.38    7.40
  -4   1   6  227.48    7.80
   4  -1  -6  213.68    7.40
   4  -1  -6  217.58    7.10
   4  -1  -6  217.58    7.10
   4  -1  -6  219.98    7.90
   4  -1  -6  218.88    8.40
  -5   1   6   11.10    2.80
  -5   1   6   11.90    2.70
  -5   1   6   15.40    3.10
  -5   1   6   12.90    3.00
  -5   1   6    9.60    2.00
   5  -1  -6    5.90    2.40
   5  -1  -6    6.00    1.70
   5  -1  -6    6.00    1.70
   5  -1  -6   10.70    2.80
   5  -1  -6   10.30    2.30
  -6   1   6  108.79    6.60
  -6   1   6  121.29    7.10
  -6   1   6  116.09    5.60
  -6   1   6  109.99    5.80
   6  -1  -6  102.79    6.60
   6  -1  -6  109.89    6.70
   6  -1  -6  112.49    5.80
   6  -1  -6  111.49    5.30
   6  -1  -6  111.49    5.30
  -7   1   6   29.10    4.80
  -7   1   6   20.40    3.10
  -7   1   6   23.70    3.70
   7  -1  -6   19.30    4.00
   7  -1  -6   22.50    3.20
   7  -1  -6   19.30    3.40
   7  -1  -6   22.50    3.20
   7  -1  -6   22.00    4.40
  -8   1   6   73.69    8.40
  -8   1   6   65.59    6.30
   8  -1  -6   69.39    5.80
   8  -1  -6   69.39    5.80
   8  -1  -6   72.09    7.00
   8  -1  -6   72.69    8.60
  -9   1   6  200.48   10.10
  -9   1   6  213.78   13.50
   9  -1  -6  201.18    9.70
   9  -1  -6  214.38   13.20
   9  -1  -6  201.18    9.70
   7   1   5   75.89    6.50
   7   1   5   75.79    6.50
   7   1   5   44.40    8.70
  -7  -1  -5   59.69    8.80
  -7  -1  -5   66.29    8.80
   6   1   5  107.79    7.50
   6   1   5  128.69    9.00
   6   1   5  133.49   10.50
   6   1   5  107.79    7.50
  -6  -1  -5  116.59   10.50
   5   1   5    4.20    2.80
   5   1   5    0.40    3.00
   5   1   5   -0.80    4.10
   5   1   5    4.20    2.80
  -5  -1  -5    3.10    3.50
  -5  -1  -5    1.90    4.10
   4   1   5   63.99    6.90
   4   1   5   56.89    5.60
  -4  -1  -5   64.89    6.40
  -4  -1  -5   57.89    4.90
  -4  -1  -5   57.89    4.90
  -4  -1  -5   58.09    5.40
   3   1   5   32.80    4.10
   3   1   5   33.00    3.70
   3   1   5   24.40    2.90
   3   1   5   24.40    2.90
   3   1   5   31.20    4.30
  -3  -1  -5   28.70    2.90
  -3  -1  -5   33.20    4.10
  -3  -1  -5   28.70    2.90
  -3  -1  -5   34.70    3.80
   2   1   5  176.28    6.30
   2   1   5  191.08    7.60
   2   1   5  195.18    8.10
   2   1   5  190.48    6.50
   2   1   5  176.28    6.30
  -2  -1  -5  185.38    7.50
  -2  -1  -5  187.48    7.90
  -2  -1  -5  186.08    6.50
  -2  -1  -5  186.08    6.50
  -2  -1  -5  169.58    8.20
   1   1   5    3.20    1.40
   1   1   5    4.90    1.40
   1   1   5    4.90    1.40
   1   1   5    2.80    1.60
   1   1   5    4.00    1.60
   1   1   5    6.60    1.80
  -1  -1  -5    4.20    1.60
  -1  -1  -5    5.60    1.50
  -1  -1  -5    5.60    1.50
  -1  -1  -5    3.10    1.70
  -1  -1  -5    3.30    1.80
  -1  -1  -5    4.20    1.50
   0   1   5 1250.67   30.70
   0   1   5 1275.97   31.00
   0   1   5 1197.18   30.90
   0   1   5 1243.88   29.70
   0   1   5 1288.77   30.00
   0   1   5 1260.07   31.00
   0   1   5 1288.77   30.00
   0  -1  -5 1182.78   31.00
   0  -1  -5 1279.47   29.20
   0  -1  -5 1275.77   30.10
   0  -1  -5 1275.77   30.10
   0  -1  -5 1263.87   31.30
   0  -1  -5 1255.27   29.30
  -1   1   5  897.11   23.40
  -1   1   5  948.31   22.70
  -1   1   5  963.20   23.60
  -1   1   5  972.00   23.60
  -1   1   5  947.11   22.50
  -1   1   5  948.31   22.70
  -1   1   5  955.50   23.50
  -1   1   5  953.60   22.80
   1  -1  -5  900.01   23.40
   1  -1  -5  927.21   23.70
   1  -1  -5  936.31   22.80
   1  -1  -5  928.61   22.10
   1  -1  -5  934.61   22.80
  -2   1   5  166.28    5.30
  -2   1   5  166.68    5.90
  -2   1   5  167.78    5.80
  -2   1   5  166.28    5.30
  -2   1   5  157.48    5.30
  -2   1   5  171.38    5.60
  -2   1   5  156.98    5.70
   2  -1  -5  155.98    5.30
   2  -1  -5  158.28    5.90
   2  -1  -5  161.28    5.60
   2  -1  -5  159.68    5.70
   2  -1  -5  166.08    5.30
   2  -1  -5  166.18    5.30
  -3   1   5  782.82   19.80
  -3   1   5  788.82   19.80
  -3   1   5  790.32   19.50
  -3   1   5  805.02   20.00
  -3   1   5  790.52   20.00
  -3   1   5  783.72   20.00
  -3   1   5  790.32   19.50
  -3   1   5  804.32   20.20
   3  -1  -5  759.72   19.40
   3  -1  -5  790.92   19.90
   3  -1  -5  777.92   19.70
   3  -1  -5  759.72   19.40
   3  -1  -5  771.02   20.10
  -4   1   5  365.16   10.70
  -4   1   5  371.86   10.90
  -4   1   5  359.16   11.20
  -4   1   5  375.86   10.50
  -4   1   5  354.56   10.30
  -4   1   5  354.56   10.30
  -4   1   5  372.16   11.00
  -4   1   5  366.86   10.80
   4  -1  -5  373.26   10.60
   4  -1  -5  372.86   10.30
   4  -1  -5  372.86   10.30
   4  -1  -5  376.86   11.20
   4  -1  -5  367.16   11.40
  -5   1   5  127.59    5.90
  -5   1   5  135.69    6.20
  -5   1   5  131.79    5.80
  -5   1   5  118.19    6.40
  -5   1   5  132.69    5.40
  -5   1   5  127.29    6.50
  -5   1   5  135.69    6.20
   5  -1  -5  126.79    6.20
   5  -1  -5  124.49    5.90
   5  -1  -5  126.29    5.40
   5  -1  -5  122.99    5.10
   5  -1  -5  122.99    5.10
   5  -1  -5  119.49    7.60
  -6   1   5  342.27   11.30
  -6   1   5  363.06   12.70
  -6   1   5  359.36   11.40
   6  -1  -5  354.06   11.20
   6  -1  -5  353.16   10.60
   6  -1  -5  364.66   12.40
   6  -1  -5  353.16   10.60
   6  -1  -5  350.36   11.50
   6  -1  -5  363.26   11.00
  -7   1   5   17.10    4.10
  -7   1   5   22.40    4.60
  -7   1   5   22.30    3.50
   7  -1  -5   26.60    3.50
   7  -1  -5   15.90    3.20
   7  -1  -5   23.60    3.10
   7  -1  -5   24.20    4.20
   7  -1  -5   23.60    3.10
   7  -1  -5   20.80    4.20
  -8   1   5  345.97   14.30
  -8   1   5  342.07   12.20
   8  -1  -5  359.56   12.70
   8  -1  -5  336.17   11.40
   8  -1  -5  355.86   12.20
   8  -1  -5  336.17   11.40
   8  -1  -5  332.27   14.10
  -9   1   5   47.40    5.80
  -9   1   5   61.09    8.20
   9  -1  -5   56.89    5.30
   9  -1  -5   56.89    5.30
   9  -1  -5   53.89    7.40
   7   1   4   -3.40    3.80
   7   1   4    0.40    5.90
   7   1   4   -3.40    3.80
   7   1   4   11.20    4.70
  -7  -1  -4    1.70    6.10
  -7  -1  -4    2.80    5.70
   6   1   4   13.60    4.30
   6   1   4   13.70    3.30
   6   1   4   10.40    4.70
   6   1   4   13.70    3.30
  -6  -1  -4   14.30    4.90
  -6  -1  -4    7.00    4.50
   5   1   4   47.30    4.60
   5   1   4   58.19    6.00
   5   1   4   47.30    4.60
   5   1   4   56.29    6.70
  -5  -1  -4   47.30    7.00
  -5  -1  -4   61.59    6.20
   4   1   4  218.78    7.50
   4   1   4  209.18    9.70
   4   1   4  207.78    9.30
   4   1   4  216.38    9.10
   4   1   4  218.78    7.50
  -4  -1  -4  210.68    7.70
  -4  -1  -4  210.68    7.70
  -4  -1  -4  210.38    9.40
  -4  -1  -4  207.28    8.30
   3   1   4  109.59    5.70
   3   1   4  108.39    6.20
   3   1   4  117.69    5.00
   3   1   4  117.69    5.00
   3   1   4  114.69    6.80
  -3  -1  -4  106.69    6.60
  -3  -1  -4  120.19    5.00
  -3  -1  -4  120.19    5.00
  -3  -1  -4  117.89    6.30
  -3  -1  -4  114.39    5.20
   2   1   4   76.19    4.70
   2   1   4   73.89    4.20
   2   1   4   66.19    3.30
   2   1   4   67.59    3.60
   2   1   4   66.19    3.30
   2   1   4   72.39    4.40
  -2  -1  -4   75.59    3.50
  -2  -1  -4   66.09    4.20
  -2  -1  -4   72.69    4.50
  -2  -1  -4   70.49    3.70
  -2  -1  -4   75.59    3.50
  -2  -1  -4   65.49    4.10
   1   1   4  554.84   14.00
   1   1   4  556.44   15.00
   1   1   4  554.84   14.00
   1   1   4  535.25   14.80
   1   1   4  554.54   13.70
  -1  -1  -4  550.14   15.30
  -1  -1  -4  558.44   14.10
  -1  -1  -4  558.44   14.10
  -1  -1  -4  560.44   15.00
  -1  -1  -4  560.74   13.80
  -1  -1  -4  563.24   15.00
   0   1   4  142.39    5.00
   0   1   4  144.09    4.40
   0   1   4  140.39    4.50
   0   1   4  147.69    5.20
   0   1   4  144.09    5.20
   0   1   4  140.39    4.50
   0   1   4  135.49    5.00
   0  -1  -4  136.09    3.90
   0  -1  -4  143.89    5.30
   0  -1  -4  135.59    5.30
   0  -1  -4  140.89    3.90
   0  -1  -4  147.69    4.60
   0  -1  -4  147.69    4.60
  -1   1   4  870.51   20.80
  -1   1   4  895.71   21.60
  -1   1   4  873.41   21.70
  -1   1   4  865.21   21.00
  -1   1   4  838.52   21.60
  -1   1   4  904.51   21.10
  -1   1   4  841.62   21.60
  -1   1   4  904.51   21.00
   1  -1  -4  895.31   21.10
   1  -1  -4  876.01   20.60
   1  -1  -4  893.21   21.80
   1  -1  -4  845.12   21.60
   1  -1  -4  895.31   21.10
   1  -1  -4  867.21   21.50
  -2   1   4 1903.81   43.80
  -2   1   4 1854.41   44.30
  -2   1   4 1903.81   43.80
  -2   1   4 1900.71   44.20
  -2   1   4 1870.01   44.00
  -2   1   4 1927.61   44.00
  -2   1   4 1857.91   44.40
   2  -1  -4 1883.81   44.40
   2  -1  -4 1875.41   44.10
   2  -1  -4 1818.92   44.30
  -3   1   4  831.22   20.30
  -3   1   4  798.02   20.60
  -3   1   4  821.42   20.30
  -3   1   4  829.62   19.90
  -3   1   4  814.02   20.40
  -3   1   4  827.32   20.60
  -3   1   4  829.62   19.90
   3  -1  -4  823.92   20.60
   3  -1  -4  801.22   20.70
   3  -1  -4  830.22   20.20
   3  -1  -4  794.82   19.90
   3  -1  -4  794.82   19.90
  -4   1   4  566.04   15.10
  -4   1   4  566.14   15.10
  -4   1   4  604.74   16.00
  -4   1   4  586.24   16.10
  -4   1   4  608.54   15.60
  -4   1   4  593.64   15.50
   4  -1  -4  596.94   15.60
   4  -1  -4  584.34   15.00
   4  -1  -4  585.04   16.10
   4  -1  -4  606.84   15.40
   4  -1  -4  614.04   15.50
   4  -1  -4  585.94   16.30
   4  -1  -4  584.24   15.00
  -5   1   4  403.56   12.60
  -5   1   4  387.76   11.50
  -5   1   4  404.66   11.60
  -5   1   4  385.66   11.10
  -5   1   4  392.86   12.30
  -5   1   4  385.66   11.10
   5  -1  -4  416.76   11.10
   5  -1  -4  416.76   11.10
   5  -1  -4  396.96   11.40
   5  -1  -4  390.16   12.30
   5  -1  -4  401.16   11.50
   5  -1  -4  405.76   11.70
   5  -1  -4  377.76   13.00
  -6   1   4   19.30    3.30
  -6   1   4   13.00    3.10
  -6   1   4   14.10    2.90
   6  -1  -4   20.40    2.90
   6  -1  -4   16.80    3.00
   6  -1  -4   16.70    2.30
   6  -1  -4   16.40    2.80
   6  -1  -4   16.80    2.30
   6  -1  -4   21.10    3.60
  -7   1   4  434.46   14.20
  -7   1   4  389.26   15.90
  -7   1   4  431.96   13.40
   7  -1  -4  405.46   13.80
   7  -1  -4  456.45   12.80
   7  -1  -4  431.66   13.60
   7  -1  -4  450.35   15.20
   7  -1  -4  447.36   13.70
   7  -1  -4  456.45   12.80
  -8   1   4  258.37   12.10
  -8   1   4  237.28    9.80
   8  -1  -4  233.68    9.00
   8  -1  -4  251.67   12.30
   8  -1  -4  250.77   10.60
   8  -1  -4  233.68    9.00
   8  -1  -4  253.97   10.60
  -9   1   4   35.60    6.90
  -9   1   4   42.00    5.40
   9  -1  -4   41.00    6.70
   9  -1  -4   47.60    7.30
   9  -1  -4   36.60    4.50
   9  -1  -4   36.60    4.50
   8   1   3  118.59    9.20
   8   1   3  118.59    9.20
   8   1   3  123.49   13.70
  -8  -1  -3  112.89   13.20
  -8  -1  -3  101.79   10.50
   7   1   3   47.30    6.70
   7   1   3   34.20    4.20
   7   1   3   38.10    5.30
   7   1   3   34.20    4.20
  -7  -1  -3   42.70    6.50
  -7  -1  -3   42.30    6.40
   6   1   3   20.50    3.30
   6   1   3   13.50    6.60
   6   1   3   20.50    3.30
   6   1   3    8.30    3.50
  -6  -1  -3    8.50    4.00
  -6  -1  -3   19.70    4.70
   5   1   3   87.39    6.30
   5   1   3   82.69    4.80
   5   1   3   82.69    4.80
   5   1   3   93.99    6.80
  -5  -1  -3   99.59    6.90
  -5  -1  -3   90.29    6.40
   4   1   3  133.89    7.30
   4   1   3  138.39    6.90
   4   1   3  143.69    7.20
   4   1   3  146.99    5.50
   4   1   3  146.99    5.50
   4   1   3  133.89    5.70
   4   1   3  133.89    5.70
  -4  -1  -3  139.69    6.50
  -4  -1  -3  148.29    7.30
   3   1   3  186.98    7.20
   3   1   3  203.28    7.00
   3   1   3  200.38    6.30
   3   1   3  198.18    8.10
   3   1   3  199.18    7.70
   3   1   3  200.38    6.30
  -3  -1  -3  186.28    7.20
  -3  -1  -3  199.98    6.50
  -3  -1  -3  187.38    7.10
  -3  -1  -3  202.68    6.80
  -3  -1  -3  199.98    6.50
  -3  -1  -3  206.68    7.80
   2   1   3  604.24   15.00
   2   1   3  594.94   14.80
   2   1   3  594.74   15.90
   2   1   3  608.84   16.00
   2   1   3  612.44   16.00
   2   1   3  594.94   14.80
  -2  -1  -3  567.84   14.80
  -2  -1  -3  586.74   15.70
  -2  -1  -3  544.45   15.50
  -2  -1  -3  607.64   16.20
  -2  -1  -3  567.94   14.80
  -2  -1  -3  592.94   15.00
   1   1   3  274.17    7.40
   1   1   3  274.17    7.40
   1   1   3  275.97    7.20
   1   1   3  281.87    8.10
   1   1   3  277.87    8.20
   1   1   3  276.07    8.10
  -1  -1  -3  269.67    7.30
  -1  -1  -3  275.47    7.50
  -1  -1  -3  278.87    8.20
  -1  -1  -3  260.67    8.00
  -1  -1  -3  275.47    7.50
   0   1   3  131.99    4.60
   0   1   3  143.29    4.20
   0   1   3  144.19    4.60
   0   1   3  132.39    5.10
   0   1   3  143.29    4.20
   0  -1  -3  124.89    5.00
   0  -1  -3  137.59    3.60
   0  -1  -3  142.19    4.20
   0  -1  -3  142.19    4.20
   0  -1  -3  144.09    4.70
   0  -1  -3  151.08    4.80
   0  -1  -3  145.19    3.60
  -1   1   3  235.58    6.40
  -1   1   3  233.18    6.60
  -1   1   3  236.68    6.10
  -1   1   3  237.98    6.00
  -1   1   3  236.68    6.10
  -1   1   3  229.78    6.50
  -1   1   3  234.78    6.20
   1  -1  -3  235.98    6.60
   1  -1  -3  237.98    6.40
   1  -1  -3  189.58    6.30
   1  -1  -3  189.78    6.30
   1  -1  -3  234.58    5.90
  -2   1   3   66.69    3.10
  -2   1   3   58.59    2.80
  -2   1   3   62.49    2.90
  -2   1   3   66.19    2.90
  -2   1   3   66.49    2.60
  -2   1   3   67.79    2.70
  -2   1   3   66.49    2.60
  -2   1   3   67.89    3.00
   2  -1  -3   68.19    2.60
   2  -1  -3   68.19    2.60
   2  -1  -3   64.59    2.60
   2  -1  -3   62.29    3.00
   2  -1  -3   70.79    3.10
  -3   1   3   58.99    2.70
  -3   1   3   60.99    3.10
  -3   1   3   58.99    2.70
  -3   1   3   56.69    3.40
  -3   1   3   57.79    3.10
  -3   1   3   61.79    3.30
   3  -1  -3   57.99    3.70
   3  -1  -3   59.49    3.40
   3  -1  -3   61.39    2.80
   3  -1  -3   56.29    2.90
   3  -1  -3   59.99    3.00
   3  -1  -3   62.69    2.70
   3  -1  -3   62.69    2.70
  -4   1   3  353.66   10.30
  -4   1   3  342.67    9.70
  -4   1   3  337.07   10.40
  -4   1   3  331.87    9.20
  -4   1   3  353.06    9.80
  -4   1   3  331.87    9.20
   4  -1  -3  346.07    9.20
   4  -1  -3  323.27    9.80
   4  -1  -3  354.36   10.40
   4  -1  -3  346.07    9.20
   4  -1  -3  341.77    9.60
   4  -1  -3  342.67   10.70
   4  -1  -3  307.87   10.20
  -5   1   3  136.99    5.50
  -5   1   3  126.49    5.90
  -5   1   3  123.99    4.90
  -5   1   3  123.99    4.90
  -5   1   3  129.29    5.70
  -5   1   3  124.29    6.20
   5  -1  -3  130.39    4.80
   5  -1  -3  130.39    4.80
   5  -1  -3  129.19    6.00
   5  -1  -3  106.19    6.20
   5  -1  -3  132.59    5.50
   5  -1  -3  130.49    5.50
   5  -1  -3  129.39    5.40
  -6   1   3  101.49    6.20
  -6   1   3   98.69    6.30
  -6   1   3  112.09    5.50
  -6   1   3  101.49    6.20
  -6   1   3  100.49    6.40
   6  -1  -3   97.19    5.70
   6  -1  -3  100.49    4.70
   6  -1  -3  107.69    5.80
   6  -1  -3   99.79    5.60
   6  -1  -3   97.89    6.10
   6  -1  -3  100.49    4.70
  -7   1   3  159.08    8.80
  -7   1   3  162.08    7.10
  -7   1   3  162.48   10.10
   7  -1  -3  159.98    6.50
   7  -1  -3  172.88    8.80
   7  -1  -3  147.69    8.30
   7  -1  -3  158.78    7.90
   7  -1  -3  173.58    8.00
   7  -1  -3  159.98    6.50
  -8   1   3   14.90    4.60
  -8   1   3   10.10    3.50
   8  -1  -3   11.60    2.90
   8  -1  -3   11.60    2.90
   8  -1  -3   13.60    4.50
   8  -1  -3   17.90    4.40
   8  -1  -3   12.50    4.00
  -9   1   3   13.90    5.90
  -9   1   3   19.70    4.90
   9  -1  -3    5.30    3.90
   9  -1  -3    5.30    3.90
   9  -1  -3   19.30    6.10
   8   1   2    6.20    5.20
   8   1   2    0.70    4.10
   8   1   2    0.70    4.10
   8   1   2   -5.20    6.30
  -8  -1  -2   -5.00    6.00
  -8  -1  -2    5.00    6.30
   7   1   2    8.10    3.00
   7   1   2    8.10    3.00
   7   1   2   11.30    4.90
   7   1   2    5.00    3.60
  -7  -1  -2   18.70    5.10
  -7  -1  -2    6.50    4.80
   6   1   2   43.20    4.30
   6   1   2   55.29    6.30
   6   1   2   43.50    4.90
   6   1   2   43.20    4.30
  -6  -1  -2   44.30    5.20
  -6  -1  -2   52.59    6.60
   5   1   2  785.42   22.40
   5   1   2  920.91   22.50
   5   1   2  919.41   24.20
   5   1   2  785.42   22.40
   5   1   2  925.51   24.80
   5   1   2  920.91   22.50
  -5  -1  -2  958.40   25.20
  -5  -1  -2  935.71   24.20
  -5  -1  -2  815.52   21.00
   4   1   2  280.47    8.40
   4   1   2  280.47    8.40
   4   1   2  290.97    8.40
   4   1   2  269.47    9.80
   4   1   2  263.07    9.60
   4   1   2  290.87    8.40
   4   1   2  262.67    9.50
   4   1   2  284.17    9.90
  -4  -1  -2  265.47    9.10
  -4  -1  -2  267.27    9.60
  -4  -1  -2  287.57   10.00
  -4  -1  -2  293.87    9.40
   3   1   2    8.70    1.50
   3   1   2    8.70    1.50
   3   1   2   11.20    1.80
   3   1   2   13.80    1.70
   3   1   2   10.10    2.00
   3   1   2   13.80    1.70
   3   1   2   12.60    2.30
   3   1   2    9.40    2.30
  -3  -1  -2   12.60    2.00
  -3  -1  -2    5.70    1.40
  -3  -1  -2    8.50    1.90
  -3  -1  -2    8.70    1.70
  -3  -1  -2   10.30    1.90
  -3  -1  -2    5.70    1.40
   2   1   2  106.09    4.50
   2   1   2  113.79    4.80
   2   1   2  103.59    3.70
   2   1   2  105.69    4.60
   2   1   2  100.89    4.50
   2   1   2  103.59    3.70
  -2  -1  -2  103.79    3.80
  -2  -1  -2  105.79    4.00
  -2  -1  -2  108.89    4.40
  -2  -1  -2  103.79    3.80
  -2  -1  -2   99.09    4.60
   1   1   2 1000.30   24.60
   1   1   2 1008.90   24.50
   1   1   2 1026.80   23.90
   1   1   2 1040.70   24.00
   1   1   2  913.91   25.00
   1   1   2 1040.70   24.00
  -1  -1  -2 1024.20   24.50
  -1  -1  -2 1031.80   23.90
  -1  -1  -2 1047.20   24.10
  -1  -1  -2 1047.20   24.10
  -1  -1  -2 1048.10   24.80
   0   1   2 2581.34   58.79
   0   1   2 2604.64   59.09
   0   1   2 2578.24   59.19
   0   1   2 2581.24   58.79
   0   1   2 2632.24   59.29
   0   1   2 2538.35   59.19
   0  -1  -2 2552.14   59.19
   0  -1  -2 2581.24   58.79
   0  -1  -2 2581.14   58.79
   0  -1  -2 2625.24   59.29
   0  -1  -2 2418.36   59.09
  -1   1   2 1732.63   40.80
  -1   1   2 1794.72   40.90
  -1   1   2 1732.53   40.80
  -1   1   2 1795.82   40.90
  -1   1   2 1794.22   41.30
  -1   1   2 1830.22   41.30
  -1   1   2 1765.92   41.30
   1  -1  -2 1831.02   40.90
   1  -1  -2 1765.52   40.90
   1  -1  -2 1792.52   41.30
   1  -1  -2 1785.82   40.90
   1  -1  -2 1709.13   41.30
   1  -1  -2 1785.92   40.90
  -2   1   2  729.63   17.10
  -2   1   2  707.53   17.60
  -2   1   2  729.63   17.10
  -2   1   2  724.83   17.70
  -2   1   2  708.53   17.40
  -2   1   2  736.03   17.60
  -2   1   2  738.13   17.10
   2  -1  -2  704.73   17.00
   2  -1  -2  689.13   17.70
   2  -1  -2  725.13   17.20
   2  -1  -2  704.73   17.00
   2  -1  -2  722.63   17.70
   2  -1  -2  724.53   17.10
   2  -1  -2  714.13   17.50
  -3   1   2  292.17    7.80
  -3   1   2  292.17    7.80
  -3   1   2  304.47    8.30
  -3   1   2  292.07    8.70
  -3   1   2  290.27    8.80
   3  -1  -2  293.37    8.40
   3  -1  -2  290.57    8.10
   3  -1  -2  302.07    7.80
   3  -1  -2  302.07    8.10
   3  -1  -2  290.57    8.70
   3  -1  -2  294.47    9.10
   3  -1  -2  302.07    7.80
  -4   1   2 1278.27   29.80
  -4   1   2 1240.48   31.00
  -4   1   2 1265.87   30.20
  -4   1   2 1255.07   31.20
  -4   1   2 1270.97   30.40
  -4   1   2 1278.27   29.80
   4  -1  -2 1235.78   30.60
   4  -1  -2 1253.97   30.30
   4  -1  -2 1263.97   29.80
   4  -1  -2 1221.88   31.10
   4  -1  -2 1221.68   31.50
   4  -1  -2 1263.97   29.80
  -5   1   2  162.98    6.50
  -5   1   2  162.28    7.10
  -5   1   2  150.48    6.80
  -5   1   2  161.08    6.00
  -5   1   2  158.98    6.50
  -5   1   2  162.38    5.70
  -5   1   2  162.38    5.70
   5  -1  -2  150.98    5.40
   5  -1  -2  150.98    5.40
   5  -1  -2  169.38    6.30
   5  -1  -2  167.48    8.40
   5  -1  -2  162.48    6.90
   5  -1  -2  163.68    6.50
  -6   1   2  156.58    6.30
  -6   1   2  168.18    7.50
  -6   1   2  156.58    6.30
  -6   1   2  152.48    6.50
  -6   1   2  153.88    8.30
  -6   1   2  163.68    7.90
   6  -1  -2  161.98    7.30
   6  -1  -2  156.98    7.70
   6  -1  -2  157.68    7.30
   6  -1  -2  169.68    6.00
   6  -1  -2  169.68    6.00
  -7   1   2  151.88    8.40
  -7   1   2  137.09    8.40
  -7   1   2  153.98    6.80
   7  -1  -2  151.78    6.30
   7  -1  -2  148.49    8.00
   7  -1  -2  151.78    6.30
   7  -1  -2  151.28    8.70
  -8   1   2   28.20    4.30
  -8   1   2   19.90    4.90
  -8   1   2   28.00    5.40
   8  -1  -2   26.00    5.00
   8  -1  -2   25.70    5.00
   8  -1  -2   23.20    3.50
   8  -1  -2   23.20    3.50
  -9   1   2   29.40    6.60
  -9   1   2   18.30    6.90
  -9   1   2   21.30    5.00
   9  -1  -2   16.00    4.40
   9  -1  -2   25.70    7.00
   9  -1  -2   23.30    6.10
   9  -1  -2   16.10    4.40
   8   1   1   53.29    5.00
   8   1   1   65.39    8.40
   8   1   1   53.29    5.00
   8   1   1   46.20    6.90
  -8  -1  -1   52.59    7.20
  -8  -1  -1   48.80    7.20
   7   1   1   11.10    3.70
   7   1   1   14.80    4.50
  -7  -1  -1   20.20    5.00
  -7  -1  -1   12.90    4.60
   6   1   1  561.74   19.30
   6   1   1  570.84   15.60
   6   1   1  570.94   15.60
   6   1   1  570.34   17.10
  -6  -1  -1  552.24   14.70
  -6  -1  -1  587.24   17.80
  -6  -1  -1  572.84   18.20
   5   1   1   87.89    5.00
   5   1   1   87.89    5.00
   5   1   1   95.69    4.50
   5   1   1   95.69    4.50
   5   1   1   90.79    5.60
  -5  -1  -1   89.19    4.00
  -5  -1  -1   98.19    6.20
  -5  -1  -1   96.49    5.90
  -5  -1  -1   87.39    5.70
   4   1   1  247.58    7.40
   4   1   1  243.58    7.20
   4   1   1  235.08    8.30
   4   1   1  247.58    7.40
   4   1   1  237.88    8.20
   4   1   1  228.98    8.50
   4   1   1  243.58    7.30
   4   1   1  219.28    8.40
  -4  -1  -1  234.38    8.30
  -4  -1  -1  251.57    8.30
  -4  -1  -1  249.78    8.80
  -4  -1  -1  235.38    6.60
  -4  -1  -1  226.68    7.80
   3   1   1 2099.69   49.60
   3   1   1 2129.59   48.70
   3   1   1 2148.78   49.70
   3   1   1 2087.69   49.50
   3   1   1 2129.59   48.70
   3   1   1 2094.49   48.60
   3   1   1 2094.79   48.60
   3   1   1 1968.20   49.80
  -3  -1  -1 2077.39   49.90
  -3  -1  -1 2012.30   49.50
  -3  -1  -1 2106.89   49.40
  -3  -1  -1 2090.69   49.10
   2   1   1 1758.92   41.90
   2   1   1 1761.32   41.50
   2   1   1 1807.92   42.20
   2   1   1 1839.92   42.20
   2   1   1 1761.32   41.50
  -2  -1  -1 1851.31   42.10
  -2  -1  -1 1804.12   41.80
  -2  -1  -1 1698.03   41.70
   1   1   1 2291.07   54.39
   1   1   1 2449.85   54.19
   1   1   1 2336.27   54.19
   1   1   1 2449.85   54.19
   1   1   1 2287.77   54.59
   1   1   1 2428.76   54.59
  -1  -1  -1 2390.86   54.19
  -1  -1  -1 2428.96   54.39
  -1  -1  -1 2223.48   54.69
  -1  -1  -1 2423.06   54.59
  -1  -1  -1 2295.77   54.19
  -1  -1  -1 2390.86   54.19
   0   1   1 3572.34   84.19
   0   1   1 3591.44   85.59
   0   1   1 3848.52   86.39
   0   1   1 3900.81   86.09
   0   1   1 3572.54   84.19
   0   1   1 3644.14   85.39
   0  -1  -1 3689.93   85.59
   0  -1  -1 3836.42   85.39
   0  -1  -1 3836.62   85.39
   0  -1  -1 3381.76   85.59
   0  -1  -1 3797.52   86.49
  -1   1   1 2084.69   46.70
  -1   1   1 2081.69   47.10
  -1   1   1 2086.99   46.70
  -1   1   1 2086.99   46.70
  -1   1   1 2093.19   47.20
  -1   1   1 1964.20   47.10
   1  -1  -1 1955.40   46.70
   1  -1  -1 2076.69   47.10
   1  -1  -1 2038.10   47.20
   1  -1  -1 1955.40   46.70
   1  -1  -1 2097.19   47.10
  -2   1   1  611.34   16.00
  -2   1   1  662.23   16.30
  -2   1   1  668.23   16.20
  -2   1   1  665.43   15.70
  -2   1   1  675.03   15.40
  -2   1   1  675.03   15.40
  -2   1   1  668.03   16.00
   2  -1  -1  643.34   15.40
   2  -1  -1  645.64   15.50
   2  -1  -1  643.24   15.40
   2  -1  -1  622.34   16.00
  -3   1   1  789.32   19.10
  -3   1   1  789.82   19.40
  -3   1   1  789.32   19.10
  -3   1   1  810.72   19.80
  -3   1   1  802.12   20.30
  -3   1   1  813.12   19.70
   3  -1  -1  810.62   19.90
   3  -1  -1  787.02   19.40
   3  -1  -1  806.22   20.20
   3  -1  -1  780.52   20.50
  -4   1   1  108.39    4.60
  -4   1   1  106.09    3.70
  -4   1   1  106.69    4.30
  -4   1   1  106.09    3.70
  -4   1   1  103.29    4.70
  -4   1   1   96.79    4.80
  -4   1   1  103.09    4.80
   4  -1  -1  100.09    3.70
   4  -1  -1  103.09    4.40
   4  -1  -1   93.69    4.70
   4  -1  -1   99.89    5.30
   4  -1  -1  103.39    4.60
   4  -1  -1  100.09    3.70
  -5   1   1  316.87   10.90
  -5   1   1  327.47    9.20
  -5   1   1  305.57   11.00
  -5   1   1  327.47    9.20
  -5   1   1  320.67   10.40
  -5   1   1  330.57   11.00
  -5   1   1  325.17    9.60
   5  -1  -1  327.17    9.10
   5  -1  -1  328.27   10.80
   5  -1  -1  314.27   10.10
   5  -1  -1  324.27   10.50
   5  -1  -1  327.17    9.10
  -6   1   1  101.79    5.40
  -6   1   1   98.89    5.10
  -6   1   1  106.79    6.70
  -6   1   1   98.89    5.10
  -6   1   1   98.89    7.70
  -6   1   1  102.59    6.20
   6  -1  -1  107.29    4.70
   6  -1  -1  107.29    4.70
   6  -1  -1   94.59    6.30
   6  -1  -1  105.49    6.40
   6  -1  -1  105.09    6.40
  -7   1   1  661.03   18.00
  -7   1   1  681.43   20.70
  -7   1   1  642.04   19.90
   7  -1  -1  653.83   17.70
   7  -1  -1  679.13   20.00
   7  -1  -1  653.83   17.70
   7  -1  -1  659.33   20.50
  -8   1   1   67.69    6.10
  -8   1   1   80.69    8.60
  -8   1   1   74.09    9.10
   8  -1  -1   64.79    5.50
   8  -1  -1   71.89    8.20
   8  -1  -1   64.79    5.50
   8  -1  -1   70.79    8.50
  -9   1   1   65.19    8.50
  -9   1   1   60.19    6.20
  -9   1   1   62.39    8.60
   9  -1  -1   62.09    5.50
   9  -1  -1   50.39    7.50
   9  -1  -1   62.09    5.50
   9  -1  -1   64.09    8.30
   9   1   0  165.18    9.80
   9   1   0  165.18    9.80
   9   1   0  184.48   16.40
  -9  -1   0  178.18   14.90
  -9  -1   0  172.68   13.60
   8   1   0   49.99    4.70
   8   1   0   55.39    6.50
   8   1   0   52.69    6.60
   8   1   0   49.99    4.70
  -8  -1   0   45.90    6.80
  -8  -1   0   58.09    7.20
   7   1   0   78.79    7.00
   7   1   0   67.09    5.20
   7   1   0   67.09    5.20
   7   1   0   86.19    7.20
  -7  -1   0   65.59    7.50
  -7  -1   0   64.09    5.20
  -7  -1   0   62.49    7.10
   6   1   0  220.08    7.70
   6   1   0  220.08    7.70
   6   1   0  217.48    9.30
   6   1   0  236.88    9.00
  -6  -1   0  230.98    9.90
  -6  -1   0  221.08    7.40
  -6  -1   0  208.98    8.70
  -6  -1   0  228.78    9.80
   5   1   0   47.50    4.40
   5   1   0   38.00    3.80
   5   1   0   47.80    3.20
   5   1   0   38.00    3.80
   5   1   0   46.30    4.00
   5   1   0   47.80    3.20
   5   1   0   44.10    4.70
  -5  -1   0   49.00    4.80
  -5  -1   0   47.90    4.20
  -5  -1   0   49.10    3.30
  -5  -1   0   42.10    4.50
  -5  -1   0   39.80    4.40
   4   1   0   17.70    2.20
   4   1   0   22.60    2.00
   4   1   0   22.60    2.00
   4   1   0   20.00    3.00
   4   1   0   17.60    2.00
   4   1   0   19.30    2.40
   4   1   0   15.30    2.30
   4   1   0   17.60    2.00
  -4  -1   0   16.90    2.50
  -4  -1   0   15.90    2.30
  -4  -1   0   17.50    2.20
  -4  -1   0   15.00    2.40
  -4  -1   0   20.60    2.00
   3   1   0  470.45   13.00
   3   1   0  476.45   12.90
   3   1   0  474.05   12.20
   3   1   0  491.25   12.10
   3   1   0  491.25   12.10
   3   1   0  472.95   13.10
   3   1   0  482.25   12.50
   3   1   0  474.05   12.20
  -3  -1   0  473.05   12.90
  -3  -1   0  468.35   12.00
  -3  -1   0  468.25   12.00
  -3  -1   0  491.65   13.00
  -3  -1   0  448.76   13.00
  -3  -1   0  475.15   12.20
   2   1   0  245.58    6.60
   2   1   0  247.98    6.30
   2   1   0  237.68    6.90
   2   1   0  247.98    6.30
  -2  -1   0  244.18    6.80
  -2  -1   0  225.08    6.30
  -2  -1   0  236.08    6.90
  -2  -1   0  225.18    6.30
  -2  -1   0  234.28    6.70
  -2  -1   0  243.38    6.30
   1   1   0 1077.09   24.90
   1   1   0 1053.69   24.50
   1   1   0 1063.69   24.40
   1   1   0 1047.10   24.60
   1   1   0 1053.79   24.50
   1   1   0 1041.60   24.60
  -1  -1   0 1015.20   24.90
  -1  -1   0 1053.69   24.60
  -1  -1   0 1066.49   24.40
  -1  -1   0 1077.69   24.50
  -1  -1   0 1077.69   24.50
  -1  -1   0 1067.79   24.70
  -1   1   0 1047.50   24.50
  -1   1   0 1057.39   24.40
  -1   1   0 1006.40   24.40
  -1   1   0 1033.70   23.80
  -1   1   0 1033.70   23.80
  -1   1   0 1061.09   24.10
   1  -1   0 1035.80   23.80
   1  -1   0 1034.90   24.50
   1  -1   0 1070.09   24.50
   1  -1   0 1074.89   24.10
   1  -1   0 1039.40   24.50
   1  -1   0 1035.80   23.80
  -2   1   0  234.48    7.00
  -2   1   0  239.08    5.90
  -2   1   0  239.08    5.90
  -2   1   0  245.08    6.70
  -2   1   0  246.68    6.50
  -2   1   0  215.78    7.30
   2  -1   0  234.88    5.90
   2  -1   0  224.78    6.70
   2  -1   0  235.88    6.40
   2  -1   0  233.18    6.70
   2  -1   0  234.88    5.90
  -3   1   0  465.45   13.00
  -3   1   0  478.05   12.80
  -3   1   0  462.95   11.90
  -3   1   0  473.55   13.00
  -3   1   0  469.65   12.40
   3  -1   0  451.25   11.60
   3  -1   0  467.15   12.30
   3  -1   0  480.95   13.10
   3  -1   0  451.25   11.60
   3  -1   0  475.55   12.70
   3  -1   0  474.25   12.90
  -4   1   0   19.90    1.90
  -4   1   0   13.50    2.30
  -4   1   0   22.30    2.80
  -4   1   0   20.40    2.70
  -4   1   0   19.90    1.90
  -4   1   0   19.90    2.20
  -4   1   0   14.20    2.50
   4  -1   0   14.70    2.20
   4  -1   0   17.70    1.80
   4  -1   0   17.70    2.60
   4  -1   0   18.20    1.60
   4  -1   0   18.20    1.60
   4  -1   0   14.20    2.20
   4  -1   0   17.70    1.80
   4  -1   0   17.50    2.10
  -5   1   0   47.00    5.70
  -5   1   0   51.99    3.80
  -5   1   0   45.50    4.20
  -5   1   0   47.20    4.60
   5  -1   0   51.29    4.50
   5  -1   0   50.09    4.30
   5  -1   0   48.90    3.00
   5  -1   0   44.70    3.60
   5  -1   0   53.99    4.70
   5  -1   0   48.90    3.00
   5  -1   0   44.70    3.60
  -6   1   0  220.38    7.80
  -6   1   0  226.58    9.70
  -6   1   0  235.28    9.50
   6  -1   0  222.38    9.30
   6  -1   0  224.58    7.40
   6  -1   0  208.88    8.00
   6  -1   0  226.58    9.50
   6  -1   0  208.88    8.00
   6  -1   0  224.58    7.40
  -7   1   0   65.09    5.30
  -7   1   0   65.89    6.80
  -7   1   0   66.49    7.10
   7  -1   0   72.99    6.80
   7  -1   0   68.89    7.10
   7  -1   0   68.39    4.90
   7  -1   0   68.39    4.90
  -8   1   0   41.80    6.60
  -8   1   0   39.60    6.30
  -8   1   0   48.30    4.90
   8  -1   0   44.80    4.40
   8  -1   0   52.69    6.90
   8  -1   0   57.49    6.90
   8  -1   0   44.80    4.40
  -9   1   0  179.08   14.20
  -9   1   0  180.68   14.00
   9  -1   0  154.98    9.80
   9  -1   0  154.98    9.70
   9  -1   0  175.98   13.90
   9   1  -1   57.79    5.80
   9   1  -1   64.19    8.20
   9   1  -1   57.79    5.80
  -9  -1   1   57.69    9.10
  -9  -1   1   64.99    8.20
   8   1  -1   68.19    8.20
   8   1  -1   63.99    5.90
   8   1  -1   67.89    8.20
   8   1  -1   63.99    5.90
  -8  -1   1   69.49    6.40
  -8  -1   1   79.09    9.50
  -8  -1   1   63.89    7.30
   7   1  -1  667.43   19.10
   7   1  -1  666.43   18.00
   7   1  -1  666.43   18.00
   7   1  -1  681.33   20.30
  -7  -1   1  682.73   20.90
  -7  -1   1  641.54   17.80
  -7  -1   1  655.63   20.50
  -7  -1   1  613.74   18.60
   6   1  -1  106.79    5.80
   6   1  -1  100.69    5.00
   6   1  -1  100.69    5.00
   6   1  -1  105.09    6.40
  -6  -1   1   95.09    5.90
  -6  -1   1  106.89    6.60
  -6  -1   1  102.29    5.00
  -6  -1   1  110.79    6.90
   5   1  -1  319.37    9.30
   5   1  -1  319.37    9.30
   5   1  -1  319.87    9.70
   5   1  -1  338.27   10.70
   5   1  -1  307.97   10.40
   5   1  -1  323.57   12.40
  -5  -1   1  300.67    9.20
  -5  -1   1  327.87    9.70
  -5  -1   1  314.57   10.60
  -5  -1   1  326.07   10.90
  -5  -1   1  300.67    9.30
  -5  -1   1  329.77    9.10
  -5  -1   1  313.87   10.70
   4   1  -1  106.09    4.00
   4   1  -1  106.09    4.00
   4   1  -1   99.49    4.60
   4   1  -1  104.19    5.00
   4   1  -1   99.29    4.20
   4   1  -1  104.39    4.80
  -4  -1   1  102.39    4.20
  -4  -1   1  103.09    3.90
  -4  -1   1   98.79    3.90
  -4  -1   1   99.79    4.90
  -4  -1   1  101.99    4.80
  -4  -1   1   98.79    3.90
  -4  -1   1  104.79    5.00
   3   1  -1  808.42   19.30
   3   1  -1  757.02   19.80
   3   1  -1  808.42   19.30
   3   1  -1  792.62   19.10
   3   1  -1  789.22   20.00
   3   1  -1  826.92   20.20
  -3  -1   1  787.92   20.00
  -3  -1   1  834.42   19.20
  -3  -1   1  783.82   20.20
  -3  -1   1  788.22   20.10
  -3  -1   1  769.52   19.20
  -3  -1   1  769.52   19.20
  -3  -1   1  803.42   19.00
   2   1  -1  662.73   15.80
   2   1  -1  621.74   16.30
   2   1  -1  666.23   15.40
   2   1  -1  662.73   15.80
   2   1  -1  681.43   16.00
  -2  -1   1  624.34   16.30
  -2  -1   1  663.03   15.50
  -2  -1   1  670.03   16.10
  -2  -1   1  665.83   15.80
  -2  -1   1  665.83   15.80
  -2  -1   1  653.03   16.40
   1   1  -1 2045.20   47.40
   1   1  -1 1935.01   47.30
   1   1  -1 2015.20   46.90
   1   1  -1 2015.20   46.90
   1   1  -1 2084.59   47.40
  -1  -1   1 2079.69   47.40
  -1  -1   1 2124.89   47.00
  -1  -1   1 2025.30   47.40
  -1  -1   1 2088.19   47.40
  -1  -1   1 2124.89   47.00
   0   1  -1 3808.92   86.09
   0   1  -1 3755.12   87.79
   0   1  -1 3818.72   87.79
   0   1  -1 3433.76   87.59
   0   1  -1 3778.52   87.59
   0   1  -1 3809.02   86.09
   0   1  -1 3821.42   86.69
   0  -1   1 3708.43   86.69
   0  -1   1 3728.43   87.89
   0  -1   1 3862.01   86.29
   0  -1   1 3825.92   87.69
   0  -1   1 3862.01   86.29
  -1   1  -1 2319.77   55.29
  -1   1  -1 2396.76   54.39
  -1   1  -1 2396.76   54.39
  -1   1  -1 2410.76   55.19
  -1   1  -1 2274.37   55.09
  -1   1  -1 2458.65   55.09
   1  -1   1 2412.96   54.49
   1  -1   1 2430.36   54.99
   1  -1   1 2401.76   55.09
   1  -1   1 2397.56   55.09
   1  -1   1 2378.76   55.29
   1  -1   1 2412.96   54.49
  -2   1  -1 1743.73   42.60
  -2   1  -1 1783.02   42.40
  -2   1  -1 1706.03   42.60
  -2   1  -1 1780.92   42.70
   2  -1   1 1854.51   41.50
   2  -1   1 1828.82   41.50
   2  -1   1 1854.51   41.50
   2  -1   1 1828.82   41.50
   2  -1   1 1792.52   42.50
   2  -1   1 1852.11   42.70
   2  -1   1 1818.72   42.30
  -3   1  -1 2140.09   50.39
  -3   1  -1 2079.29   48.90
  -3   1  -1 2183.68   50.49
  -3   1  -1 2128.89   49.99
  -3   1  -1 2077.59   50.39
   3  -1   1 2134.79   48.80
   3  -1   1 2134.69   48.80
   3  -1   1 2056.89   48.90
   3  -1   1 2103.79   49.80
   3  -1   1 2082.59   50.19
   3  -1   1 2056.69   48.90
   3  -1   1 2137.89   50.19
   3  -1   1 2133.49   50.39
  -4   1  -1  228.08    8.50
  -4   1  -1  230.48    8.60
  -4   1  -1  246.18    8.40
  -4   1  -1  239.58    8.50
  -4   1  -1  250.77    7.20
   4  -1   1  227.88    8.30
   4  -1   1  245.58    7.00
   4  -1   1  239.38    6.90
   4  -1   1  236.98    8.50
   4  -1   1  239.38    6.90
   4  -1   1  243.28    8.60
   4  -1   1  233.18    7.90
   4  -1   1  245.58    7.00
  -5   1  -1   94.09    4.60
  -5   1  -1  100.99    5.80
  -5   1  -1   83.29    6.30
  -5   1  -1   92.79    5.80
   5  -1   1   91.59    4.70
   5  -1   1   77.79    5.50
   5  -1   1   89.79    4.00
   5  -1   1   91.49    4.70
   5  -1   1   96.29    6.00
   5  -1   1   89.79    4.00
   5  -1   1   96.99    5.80
  -6   1  -1  572.74   17.90
  -6   1  -1  582.74   15.30
  -6   1  -1  579.64   17.70
   6  -1   1  585.14   17.80
   6  -1   1  570.44   15.20
   6  -1   1  570.44   15.20
   6  -1   1  536.65   15.60
   6  -1   1  536.65   15.60
  -7   1  -1   14.40    4.50
  -7   1  -1    8.70    4.00
  -7   1  -1    4.30    4.00
   7  -1   1   15.20    2.90
   7  -1   1    9.70    4.50
   7  -1   1   11.30    3.70
   7  -1   1   15.20    2.90
  -8   1  -1   53.69    7.60
  -8   1  -1   50.59    7.00
   8  -1   1   61.79    7.00
   8  -1   1   45.60    4.70
   8  -1   1   49.00    7.30
   8  -1   1   45.60    4.70
   9   1  -2   15.60    4.50
   9   1  -2   28.30    6.30
   9   1  -2   20.40    6.40
   9   1  -2   15.60    4.50
  -9  -1   2   18.40    5.20
  -9  -1   2   17.60    7.10
  -9  -1   2   21.90    6.80
   8   1  -2   32.90    5.60
   8   1  -2   18.20    3.60
   8   1  -2   25.20    4.80
   8   1  -2   18.20    3.60
  -8  -1   2   29.40    5.80
  -8  -1   2   29.60    4.40
   7   1  -2  154.98    6.60
   7   1  -2  153.48    7.30
   7   1  -2  154.98    6.60
   7   1  -2  152.18    8.20
  -7  -1   2  151.28    6.90
  -7  -1   2  151.88    8.90
  -7  -1   2  147.69    8.70
  -7  -1   2  145.39    7.50
   6   1  -2  158.88    6.20
   6   1  -2  165.38    6.60
   6   1  -2  160.38    7.50
   6   1  -2  154.38    7.80
   6   1  -2  158.88    6.20
  -6  -1   2  168.18    7.80
  -6  -1   2  158.98    6.60
  -6  -1   2  166.88    8.10
  -6  -1   2  162.58    6.40
   5   1  -2  169.98    5.80
   5   1  -2  158.68    6.80
   5   1  -2  169.98    5.80
   5   1  -2  167.18    6.70
   5   1  -2  143.79    6.40
  -5  -1   2  155.28    5.60
  -5  -1   2  161.28    6.00
  -5  -1   2  149.29    6.70
  -5  -1   2  163.58    7.20
  -5  -1   2  161.78    7.00
  -5  -1   2  156.08    5.60
  -5  -1   2  168.08    5.80
   4   1  -2 1255.57   31.60
   4   1  -2 1260.27   30.30
   4   1  -2 1260.37   30.30
   4   1  -2 1235.28   31.00
   4   1  -2 1276.17   31.30
   4   1  -2 1256.67   30.10
  -4  -1   2 1257.67   30.40
  -4  -1   2 1266.67   31.50
  -4  -1   2 1269.57   31.60
  -4  -1   2 1284.57   30.20
  -4  -1   2 1257.67   30.40
  -4  -1   2 1329.57   30.40
  -4  -1   2 1271.57   31.20
   3   1  -2  301.87    8.10
   3   1  -2  290.97    8.90
   3   1  -2  295.27    8.80
   3   1  -2  284.97    8.80
   3   1  -2  301.87    8.10
   3   1  -2  306.47    7.60
  -3  -1   2  310.17    8.10
  -3  -1   2  310.17    8.10
  -3  -1   2  288.07    7.50
  -3  -1   2  280.17    8.80
  -3  -1   2  297.97    8.10
  -3  -1   2  283.47    8.50
   2   1  -2  689.93   16.70
   2   1  -2  661.93   17.10
   2   1  -2  675.43   17.30
   2   1  -2  706.53   17.50
   2   1  -2  709.63   17.30
   2   1  -2  661.93   17.10
  -2  -1   2  717.83   16.20
  -2  -1   2  697.03   17.40
  -2  -1   2  732.03   16.20
  -2  -1   2  688.23   17.40
  -2  -1   2  713.83   16.80
  -2  -1   2  720.53   16.70
   1   1  -2 1804.42   41.20
   1   1  -2 1745.53   41.30
   1   1  -2 1810.32   41.50
   1   1  -2 1810.32   41.50
   1   1  -2 1819.52   42.00
   1   1  -2 1727.03   42.00
  -1  -1   2 1806.62   42.10
  -1  -1   2 1819.02   41.20
  -1  -1   2 1784.62   41.30
  -1  -1   2 1865.11   41.50
  -1  -1   2 1865.11   41.50
  -1  -1   2 1816.82   42.10
   0   1  -2 2570.34   57.49
   0   1  -2 2570.44   57.49
   0   1  -2 2575.84   58.19
   0   1  -2 2444.36   58.19
   0   1  -2 2449.16   57.99
   0   1  -2 2584.74   57.69
   0   1  -2 2550.04   57.99
   0  -1   2 2559.54   57.49
   0  -1   2 2584.54   57.69
   0  -1   2 2447.76   58.19
   0  -1   2 2373.56   58.09
   0  -1   2 2559.54   57.49
  -1   1  -2 1019.30   23.50
  -1   1  -2 1019.30   23.50
  -1   1  -2  979.50   24.10
  -1   1  -2 1024.50   24.50
  -1   1  -2  991.40   24.30
  -1   1  -2 1011.30   24.10
   1  -1   2 1011.10   24.20
   1  -1   2  977.00   24.60
   1  -1   2 1033.60   23.40
   1  -1   2 1033.60   23.40
   1  -1   2 1028.90   24.30
   1  -1   2  997.70   24.30
  -2   1  -2  104.59    4.70
  -2   1  -2  101.39    3.40
  -2   1  -2  115.99    4.50
  -2   1  -2  103.99    4.70
  -2   1  -2  101.39    3.40
  -2   1  -2  101.89    4.40
   2  -1   2  105.59    4.40
   2  -1   2  107.39    3.30
   2  -1   2  100.49    4.10
   2  -1   2  100.19    4.60
   2  -1   2  104.39    4.90
   2  -1   2  107.39    3.30
  -3   1  -2   11.70    2.40
  -3   1  -2    9.40    2.30
  -3   1  -2   13.70    2.20
  -3   1  -2   11.50    2.00
   3  -1   2    7.40    1.70
   3  -1   2   14.40    2.30
   3  -1   2   10.30    1.30
   3  -1   2    8.10    1.90
   3  -1   2   13.70    1.40
   3  -1   2   11.30    2.20
   3  -1   2    9.70    1.80
   3  -1   2   13.70    1.40
   3  -1   2   10.30    1.30
  -4   1  -2  257.57    9.50
  -4   1  -2  261.87    9.50
  -4   1  -2  279.87    9.80
  -4   1  -2  280.27    8.00
  -4   1  -2  277.87    9.60
   4  -1   2  306.57   10.00
   4  -1   2  270.97    9.60
   4  -1   2  276.47    7.90
   4  -1   2  275.77    7.90
   4  -1   2  276.47    7.90
   4  -1   2  275.77    7.90
   4  -1   2  287.87    9.80
   4  -1   2  274.57    9.20
  -5   1  -2  950.10   25.00
  -5   1  -2  914.91   25.00
  -5   1  -2  932.61   22.40
   5  -1   2  926.21   25.10
   5  -1   2  864.61   22.60
   5  -1   2  920.71   22.60
   5  -1   2  920.71   22.60
   5  -1   2  882.71   24.90
   5  -1   2  864.61   22.60
  -6   1  -2   49.60    4.80
  -6   1  -2   54.79    6.40
  -6   1  -2   58.09    6.50
   6  -1   2   45.90    5.60
   6  -1   2   44.70    4.00
   6  -1   2   44.70    4.00
   6  -1   2   46.20    5.70
  -7   1  -2   14.30    5.00
  -7   1  -2    5.10    4.70
   7  -1   2    9.10    3.00
   7  -1   2   15.20    5.10
   7  -1   2    9.10    3.00
   7  -1   2   14.90    4.40
  -8   1  -2   -5.40    6.20
  -8   1  -2    0.20    6.10
   8  -1   2    2.20    4.00
   8  -1   2   10.40    6.40
   8  -1   2   12.10    5.60
   8  -1   2    2.20    4.00
   9   1  -3   22.60    4.30
   9   1  -3   18.80    6.30
   9   1  -3   18.30    5.90
   9   1  -3   22.60    4.30
  -9  -1   3   27.90    6.10
  -9  -1   3   12.90    5.00
   8   1  -3    8.90    4.30
   8   1  -3   11.40    4.40
   8   1  -3   15.30    3.80
   8   1  -3   11.70    3.20
   8   1  -3   11.70    3.20
  -8  -1   3    9.00    4.30
  -8  -1   3    8.30    3.70
   7   1  -3  149.88    6.60
   7   1  -3  162.28    8.20
   7   1  -3  148.89    8.20
   7   1  -3  156.78    7.00
   7   1  -3  149.88    6.60
  -7  -1   3  162.68    7.00
  -7  -1   3  158.48    8.70
  -7  -1   3  155.68    7.10
   6   1  -3  106.69    4.90
   6   1  -3   86.19    6.40
   6   1  -3   97.69    6.10
   6   1  -3  106.69    4.90
   6   1  -3  100.59    4.80
   6   1  -3  104.39    6.10
  -6  -1   3  104.39    6.60
  -6  -1   3   90.79    6.80
  -6  -1   3  106.39    5.40
  -6  -1   3  106.69    5.30
   5   1  -3  127.49    6.00
   5   1  -3  125.99    4.80
   5   1  -3  122.09    6.10
   5   1  -3  131.19    5.00
   5   1  -3  132.69    5.80
   5   1  -3  131.19    5.00
   5   1  -3  130.39    7.10
  -5  -1   3  127.29    5.30
  -5  -1   3  123.89    6.20
  -5  -1   3  122.69    6.30
  -5  -1   3  135.89    5.20
  -5  -1   3  135.89    5.20
   4   1  -3  342.07    9.40
   4   1  -3  345.17   10.40
   4   1  -3  340.37    8.90
   4   1  -3  333.97   10.40
   4   1  -3  341.97   10.40
   4   1  -3  341.97    9.40
   4   1  -3  347.87   10.00
  -4  -1   3  345.47    8.80
  -4  -1   3  353.66    9.70
  -4  -1   3  336.07   10.60
  -4  -1   3  326.87    9.40
  -4  -1   3  354.76   10.10
  -4  -1   3  326.87    9.40
   3   1  -3   58.39    3.30
   3   1  -3   61.59    2.90
   3   1  -3   63.39    3.40
   3   1  -3   61.89    2.90
   3   1  -3   61.89    2.90
   3   1  -3   58.49    3.60
  -3  -1   3   61.29    2.90
  -3  -1   3   61.39    3.00
  -3  -1   3   61.29    2.90
  -3  -1   3   57.79    2.90
  -3  -1   3   59.69    2.20
  -3  -1   3   59.19    2.30
   2   1  -3   69.19    2.70
   2   1  -3   69.19    2.70
   2   1  -3   66.99    3.10
   2   1  -3   63.29    2.30
   2   1  -3   64.79    3.20
   2   1  -3   62.59    2.40
  -2  -1   3   63.79    3.20
  -2  -1   3   63.09    2.40
  -2  -1   3   65.19    2.20
  -2  -1   3   66.49    2.70
  -2  -1   3   66.49    3.00
  -2  -1   3   66.19    3.20
  -2  -1   3   66.49    2.70
   1   1  -3  237.58    6.80
   1   1  -3  228.48    6.20
   1   1  -3  230.68    6.10
   1   1  -3  230.68    6.10
   1   1  -3  228.38    6.50
  -1  -1   3  238.28    6.80
  -1  -1   3  216.58    6.40
  -1  -1   3  231.38    6.70
  -1  -1   3  233.68    6.00
  -1  -1   3  228.28    5.90
  -1  -1   3  216.58    6.40
  -1  -1   3  228.18    6.40
  -1  -1   3  238.38    6.20
   0   1  -3  146.39    4.60
   0   1  -3  136.59    4.50
   0   1  -3  143.99    4.30
   0   1  -3  141.69    4.60
   0   1  -3  139.49    4.10
   0   1  -3  139.49    4.10
   0  -1   3  145.39    5.00
   0  -1   3  148.09    4.10
   0  -1   3  148.09    4.10
   0  -1   3  144.49    4.30
   0  -1   3  144.69    4.90
   0  -1   3  149.99    4.90
  -1   1  -3  269.77    8.10
  -1   1  -3  272.27    7.10
  -1   1  -3  263.57    7.60
  -1   1  -3  276.37    7.80
  -1   1  -3  272.27    7.10
  -1   1  -3  263.37    8.10
   1  -1   3  268.07    8.70
   1  -1   3  272.37    7.00
   1  -1   3  253.87    8.20
   1  -1   3  281.47    8.10
   1  -1   3  272.37    7.00
   1  -1   3  270.77    8.00
  -2   1  -3  603.04   14.50
  -2   1  -3  577.14   15.90
  -2   1  -3  603.04   14.50
  -2   1  -3  571.84   15.50
  -2   1  -3  581.44   15.80
  -2   1  -3  587.74   15.60
   2  -1   3  582.54   16.30
   2  -1   3  605.64   16.00
   2  -1   3  584.44   15.40
   2  -1   3  567.24   15.50
   2  -1   3  594.84   14.40
   2  -1   3  594.84   14.40
  -3   1  -3  193.58    7.60
  -3   1  -3  210.68    6.20
  -3   1  -3  187.58    7.40
  -3   1  -3  210.68    6.20
  -3   1  -3  202.98    7.40
  -3   1  -3  202.38    7.70
   3  -1   3  185.48    7.50
   3  -1   3  193.88    7.10
   3  -1   3  201.78    7.90
   3  -1   3  207.68    6.10
   3  -1   3  206.08    7.60
   3  -1   3  207.68    6.10
   3  -1   3  203.28    6.20
  -4   1  -3  141.59    7.10
  -4   1  -3  140.69    6.90
  -4   1  -3  138.89    5.20
   4  -1   3  133.99    6.80
   4  -1   3  146.79    5.30
   4  -1   3  146.79    5.30
   4  -1   3  147.79    5.20
   4  -1   3  147.79    5.20
   4  -1   3  136.99    7.50
   4  -1   3  146.29    7.30
  -5   1  -3   87.29    6.60
  -5   1  -3   89.79    6.50
  -5   1  -3   82.89    4.80
   5  -1   3   90.09    6.70
   5  -1   3   80.29    5.00
   5  -1   3   85.69    6.20
   5  -1   3   80.29    5.00
   5  -1   3   87.79    4.50
   5  -1   3   87.79    4.50
  -6   1  -3   17.10    4.40
  -6   1  -3   17.20    7.20
   6  -1   3   15.00    4.60
   6  -1   3   12.80    3.40
   6  -1   3   10.50    2.50
   6  -1   3   10.50    2.50
  -7   1  -3   40.80    6.30
  -7   1  -3   31.60    6.30
   7  -1   3   28.50    5.10
   7  -1   3   33.80    3.90
   7  -1   3   33.80    3.90
   7  -1   3   33.20    6.50
  -8   1  -3  114.29   13.80
  -8   1  -3  117.59   13.30
   8  -1   3  146.39   14.40
   9   1  -4   46.30    4.80
   9   1  -4   46.30    6.80
   9   1  -4   31.30    6.20
   9   1  -4   46.30    4.80
  -9  -1   4   31.00    6.70
  -9  -1   4   29.20    5.30
   8   1  -4  254.07   11.70
   8   1  -4  243.88    9.30
   8   1  -4  243.78    9.30
   8   1  -4  240.78   11.40
  -8  -1   4  246.78   12.10
  -8  -1   4  243.38    9.70
   7   1  -4  420.96   14.30
   7   1  -4  418.86   13.10
   7   1  -4  435.86   14.40
   7   1  -4  431.46   12.20
   7   1  -4  418.86   13.10
  -7  -1   4  435.06   15.10
  -7  -1   4  414.66   13.10
  -7  -1   4  427.16   12.30
   6   1  -4   14.60    3.40
   6   1  -4   16.40    2.50
   6   1  -4   14.60    2.90
   6   1  -4   18.30    2.30
   6   1  -4   16.40    2.50
   6   1  -4   21.30    3.30
  -6  -1   4   14.00    3.70
  -6  -1   4   22.40    3.10
  -6  -1   4   15.70    3.20
  -6  -1   4   14.80    2.90
   5   1  -4  392.16   12.10
   5   1  -4  394.26   12.40
   5   1  -4  395.26   11.00
   5   1  -4  394.96   11.80
   5   1  -4  395.36   10.20
   5   1  -4  395.26   11.00
  -5  -1   4  354.06   11.10
  -5  -1   4  402.36   10.30
  -5  -1   4  407.86   12.70
  -5  -1   4  354.06   11.10
  -5  -1   4  409.86   12.00
   4   1  -4  597.34   16.40
   4   1  -4  599.34   16.70
   4   1  -4  617.74   15.60
   4   1  -4  618.24   16.70
   4   1  -4  610.54   16.00
   4   1  -4  617.74   15.60
  -4  -1   4  598.04   14.70
  -4  -1   4  602.44   15.60
  -4  -1   4  602.44   15.60
  -4  -1   4  620.14   15.90
  -4  -1   4  592.54   14.80
  -4  -1   4  607.04   16.80
  -4  -1   4  609.14   15.80
   3   1  -4  816.72   21.10
   3   1  -4  829.82   20.30
   3   1  -4  813.52   20.30
   3   1  -4  829.82   20.30
  -3  -1   4  822.72   19.90
  -3  -1   4  804.42   19.60
  -3  -1   4  824.12   21.20
  -3  -1   4  841.22   20.60
  -3  -1   4  845.72   20.40
  -3  -1   4  845.72   20.40
  -3  -1   4  830.52   21.30
  -3  -1   4  834.22   20.20
   2   1  -4 1889.31   43.80
   2   1  -4 1900.21   43.70
   2   1  -4 1862.71   44.40
   2   1  -4 1895.21   43.80
   2   1  -4 1889.51   44.70
   2   1  -4 1895.21   43.80
  -2  -1   4 1910.31   43.70
  -2  -1   4 1891.61   44.20
  -2  -1   4 1854.21   43.80
  -2  -1   4 1793.92   44.80
  -2  -1   4 1946.01   44.90
  -2  -1   4 1854.21   43.80
   1   1  -4  817.62   21.70
   1   1  -4  896.91   21.00
   1   1  -4  843.12   21.30
   1   1  -4  896.91   21.00
  -1  -1   4  906.91   21.00
  -1  -1   4  906.91   21.00
  -1  -1   4  857.11   21.50
  -1  -1   4  874.31   20.90
  -1  -1   4  873.71   21.00
  -1  -1   4  883.01   21.30
  -1  -1   4  895.61   22.00
  -1  -1   4  862.81   21.70
   0   1  -4  136.09    5.00
   0   1  -4  128.19    5.20
   0   1  -4  140.39    4.80
   0   1  -4  125.59    5.00
   0   1  -4  142.29    4.40
   0   1  -4  146.79    5.40
   0   1  -4  142.29    4.40
   0  -1   4  148.39    4.40
   0  -1   4  148.39    4.40
   0  -1   4  147.19    4.90
   0  -1   4  141.29    4.70
   0  -1   4  143.59    5.60
   0  -1   4  147.49    5.40
  -1   1  -4  537.45   14.90
  -1   1  -4  538.65   14.70
  -1   1  -4  555.14   13.60
  -1   1  -4  539.55   14.30
  -1   1  -4  555.14   13.60
  -1   1  -4  535.05   14.30
   1  -1   4  550.14   14.30
   1  -1   4  563.24   13.50
   1  -1   4  564.74   15.50
   1  -1   4  563.24   13.50
   1  -1   4  524.45   14.70
   1  -1   4  546.95   14.50
   1  -1   4  528.55   13.90
  -2   1  -4   70.29    3.30
  -2   1  -4   70.29    3.30
  -2   1  -4   72.09    3.90
  -2   1  -4   70.39    4.00
  -2   1  -4   62.39    4.10
  -2   1  -4   65.89    4.50
   2  -1   4   67.29    4.30
   2  -1   4   75.19    3.20
   2  -1   4   70.09    4.00
   2  -1   4   73.29    4.00
   2  -1   4   68.29    4.30
   2  -1   4   73.99    5.10
   2  -1   4   75.29    3.20
  -3   1  -4  117.09    4.60
  -3   1  -4  117.09    4.60
  -3   1  -4  109.89    6.00
  -3   1  -4  109.59    6.00
   3  -1   4  103.19    4.60
   3  -1   4  108.29    6.30
   3  -1   4  104.29    6.00
   3  -1   4  112.49    4.50
   3  -1   4  107.69    5.90
   3  -1   4  112.49    4.40
  -4   1  -4  212.18    8.90
  -4   1  -4  220.18    9.40
  -4   1  -4  201.68    6.70
   4  -1   4  211.68   10.30
   4  -1   4  209.38    7.20
   4  -1   4  222.18    9.50
   4  -1   4  217.58    7.00
   4  -1   4  222.38    9.20
   4  -1   4  209.38    7.20
   4  -1   4  217.58    7.00
  -5   1  -4   57.89    6.60
  -5   1  -4   58.29    6.20
   5  -1   4   54.79    4.90
   5  -1   4   60.19    5.80
   5  -1   4   50.49    4.30
   5  -1   4   54.79    4.90
   5  -1   4   50.49    4.30
  -6   1  -4    7.60    4.70
  -6   1  -4   12.30    4.70
   6  -1   4   13.20    4.80
   6  -1   4   10.50    3.10
   6  -1   4   10.50    3.10
   6  -1   4    6.40    3.70
  -7   1  -4   -0.60    5.60
  -7   1  -4   11.60    6.30
   7  -1   4    5.80    4.60
   7  -1   4   -1.10    3.70
   7  -1   4   -2.90    6.40
   7  -1   4   -1.10    3.70
   9   1  -5   60.49    5.90
   9   1  -5   60.49    5.90
   9   1  -5   70.19    7.70
   9   1  -5   65.69    7.10
  -9  -1   5   53.99    6.00
  -9  -1   5   53.99    7.50
   8   1  -5  364.86   11.90
   8   1  -5  364.76   11.90
   8   1  -5  354.16   13.60
   8   1  -5  355.16   14.00
  -8  -1   5  328.67   12.30
  -8  -1   5  343.87   14.80
   7   1  -5   15.40    2.80
   7   1  -5   15.40    2.80
   7   1  -5   20.30    3.80
   7   1  -5   17.70    3.90
  -7  -1   5   26.50    4.60
  -7  -1   5   21.40    3.60
  -7  -1   5   15.80    2.90
  -7  -1   5   22.80    3.80
   6   1  -5  347.97   10.60
   6   1  -5  316.57   12.10
   6   1  -5  347.97   10.60
   6   1  -5  357.16   11.80
   6   1  -5  361.06   11.70
  -6  -1   5  346.97   12.50
  -6  -1   5  326.17   10.90
  -6  -1   5  359.06    9.50
  -6  -1   5  357.06   11.10
  -6  -1   5  331.17   11.80
   5   1  -5  122.99    5.10
   5   1  -5  123.39    6.60
   5   1  -5  126.79    5.80
   5   1  -5  132.69    6.30
   5   1  -5  122.99    5.10
  -5  -1   5  124.69    5.70
  -5  -1   5  126.09    4.30
  -5  -1   5  129.69    6.60
  -5  -1   5  135.19    6.10
  -5  -1   5  125.89    4.60
   4   1  -5  369.66   11.20
   4   1  -5  376.06   10.30
   4   1  -5  376.06   10.30
   4   1  -5  370.36   10.50
  -4  -1   5  359.46   10.60
  -4  -1   5  354.26   10.40
  -4  -1   5  365.36   11.60
  -4  -1   5  373.56    9.90
  -4  -1   5  363.56   11.40
  -4  -1   5  374.56    9.60
  -4  -1   5  354.26   10.40
  -4  -1   5  377.56   10.50
   3   1  -5  744.43   19.20
   3   1  -5  779.52   20.20
   3   1  -5  744.33   19.20
   3   1  -5  787.32   19.20
   3   1  -5  726.33   19.80
  -3  -1   5  812.82   19.40
  -3  -1   5  778.92   19.30
  -3  -1   5  805.82   19.70
  -3  -1   5  774.32   20.30
  -3  -1   5  726.23   19.70
  -3  -1   5  794.72   18.90
  -3  -1   5  774.62   20.30
  -3  -1   5  812.82   19.40
   2   1  -5  170.48    6.10
   2   1  -5  169.38    5.30
   2   1  -5  164.28    5.60
   2   1  -5  169.38    5.30
   2   1  -5  164.28    5.80
  -2  -1   5  163.78    5.20
  -2  -1   5  165.38    5.40
  -2  -1   5  164.08    6.10
  -2  -1   5  161.18    6.30
  -2  -1   5  175.98    5.90
  -2  -1   5  165.08    5.20
   1   1  -5  921.91   23.00
   1   1  -5  930.11   23.20
   1   1  -5  904.91   23.60
   1   1  -5  936.01   22.60
   1   1  -5  936.01   22.60
  -1  -1   5  954.40   22.60
  -1  -1   5  941.71   23.60
  -1  -1   5  937.61   22.90
  -1  -1   5  944.91   22.60
  -1  -1   5  954.50   22.60
  -1  -1   5  929.41   23.20
  -1  -1   5  929.21   23.80
  -1  -1   5  957.40   23.10
   0   1  -5 1214.18   31.00
   0   1  -5 1238.78   30.10
   0   1  -5 1279.47   29.70
   0   1  -5 1279.37   29.80
   0   1  -5 1244.88   30.80
   0   1  -5 1229.18   30.30
   0   1  -5 1218.98   30.20
   0  -1   5 1281.97   31.10
   0  -1   5 1261.37   31.10
   0  -1   5 1262.67   30.10
   0  -1   5 1237.58   29.60
   0  -1   5 1237.58   29.60
   0  -1   5 1266.87   30.10
  -1   1  -5    0.80    1.40
  -1   1  -5    5.60    1.30
  -1   1  -5    6.80    2.00
  -1   1  -5    4.90    1.60
  -1   1  -5    5.60    1.30
  -1   1  -5    3.40    1.70
  -1   1  -5    5.90    1.50
   1  -1   5    3.80    1.60
   1  -1   5    6.90    1.80
   1  -1   5    4.20    1.90
   1  -1   5    7.30    2.20
   1  -1   5    6.40    1.50
   1  -1   5    3.90    2.20
   1  -1   5    6.40    1.50
  -2   1  -5  191.08    6.10
  -2   1  -5  191.08    6.10
  -2   1  -5  174.48    7.60
  -2   1  -5  189.98    7.10
  -2   1  -5  168.88    7.00
   2  -1   5  182.68    6.00
   2  -1   5  182.68    6.00
   2  -1   5  178.58    6.50
   2  -1   5  187.48    8.50
   2  -1   5  192.98    7.50
   2  -1   5  192.58    7.60
  -3   1  -5   40.30    4.80
  -3   1  -5   30.70    2.70
  -3   1  -5   30.70    2.70
  -3   1  -5   28.20    3.80
   3  -1   5   25.60    3.80
   3  -1   5   40.20    3.30
   3  -1   5   34.30    2.90
   3  -1   5   36.40    4.10
   3  -1   5   34.30    2.90
   3  -1   5   30.30    4.30
  -4   1  -5   58.19    4.60
  -4   1  -5   58.19    4.60
  -4   1  -5   56.09    6.00
  -4   1  -5   61.79    6.20
   4  -1   5   53.59    4.80
   4  -1   5   67.29    6.50
   4  -1   5   53.59    4.80
   4  -1   5   58.79    5.90
  -5   1  -5    0.70    3.60
  -5   1  -5    5.00    3.80
   5  -1   5    2.40    2.50
   5  -1   5    2.40    2.50
   5  -1   5    2.90    3.30
   5  -1   5    4.20    4.00
  -6   1  -5  128.09   11.00
  -6   1  -5  131.59   10.10
   6  -1   5  122.59    8.40
   6  -1   5  125.19   10.70
   6  -1   5  122.59    8.40
   6  -1   5  128.59    9.60
  -7   1  -5   62.59    8.90
  -7   1  -5   58.89    8.70
   7  -1   5   69.49    9.90
   9   1  -6  223.98   10.00
   9   1  -6  201.18   13.00
   9   1  -6  223.98   10.00
   9   1  -6  196.48   12.20
  -9  -1   6  203.08   10.60
  -9  -1   6  223.18   13.10
   8   1  -6   69.49    6.00
   8   1  -6   69.49    6.00
   8   1  -6   73.49    7.70
  -8  -1   6   74.39    8.20
  -8  -1   6   57.79    6.10
   7   1  -6   22.60    4.20
   7   1  -6   24.40    4.10
   7   1  -6   26.30    3.30
   7   1  -6   26.30    3.30
  -7  -1   6   25.20    4.50
  -7  -1   6   18.00    2.20
  -7  -1   6   23.60    3.90
   6   1  -6  103.09    5.40
   6   1  -6  122.69    6.70
   6   1  -6  103.09    5.40
   6   1  -6  120.99    6.40
  -6  -1   6  114.59    7.20
  -6  -1   6  103.79    6.10
  -6  -1   6  114.79    4.30
  -6  -1   6  110.69    7.10
   5   1  -6    9.50    2.00
   5   1  -6   10.80    2.60
   5   1  -6    7.90    3.50
   5   1  -6    9.50    2.00
   5   1  -6   11.40    2.30
  -5  -1   6   12.30    2.50
  -5  -1   6   10.70    3.00
  -5  -1   6   11.30    1.70
  -5  -1   6    8.60    2.50
  -5  -1   6   12.00    2.70
   4   1  -6  214.88    7.10
   4   1  -6  218.78    7.10
   4   1  -6  218.78    7.10
   4   1  -6  212.38    8.20
   4   1  -6  217.38    8.00
  -4  -1   6  224.48    7.20
  -4  -1   6  216.78    7.20
  -4  -1   6  211.48    8.50
  -4  -1   6  212.18    7.60
  -4  -1   6  222.48    8.40
   3   1  -6   92.99    3.90
   3   1  -6   94.39    4.00
   3   1  -6   94.39    4.00
   3   1  -6   90.89    4.40
   3   1  -6   92.99    4.70
   3   1  -6   95.19    4.80
  -3  -1   6   95.69    4.20
  -3  -1   6   95.89    4.70
  -3  -1   6   94.29    4.00
  -3  -1   6   95.69    4.20
  -3  -1   6   96.09    4.10
  -3  -1   6   92.19    5.30
  -3  -1   6   93.09    5.00
   2   1  -6  141.59    5.60
   2   1  -6  147.59    5.70
   2   1  -6  145.79    6.00
   2   1  -6  147.99    5.10
   2   1  -6  147.99    5.10
  -2  -1   6  136.79    6.10
  -2  -1   6  158.08    5.80
  -2  -1   6  149.09    5.40
  -2  -1   6  149.19    6.10
  -2  -1   6  142.79    5.20
  -2  -1   6  142.79    5.20
  -2  -1   6  144.89    5.50
  -2  -1   6  149.39    5.00
   1   1  -6   72.99    3.90
   1   1  -6   73.09    4.30
   1   1  -6   80.69    3.60
   1   1  -6   80.69    3.60
   1   1  -6   72.09    4.10
   1   1  -6   74.99    3.90
  -1  -1   6   75.89    3.90
  -1  -1   6   80.49    4.60
  -1  -1   6   75.99    4.40
  -1  -1   6   75.69    3.70
  -1  -1   6   79.49    3.50
  -1  -1   6   77.89    4.20
  -1  -1   6   75.69    3.70
   0   1  -6    0.00    1.30
   0   1  -6   -2.60    1.20
   0   1  -6    0.10    1.60
   0   1  -6    0.00    1.50
   0   1  -6   -2.60    1.20
   0   1  -6   -0.60    1.80
   0   1  -6    0.70    1.60
   0  -1   6    0.90    1.40
   0  -1   6    2.80    2.10
   0  -1   6    0.90    1.40
   0  -1   6   -3.20    1.90
   0  -1   6   -1.00    1.90
   0  -1   6    1.70    1.40
  -1   1  -6  492.95   13.00
  -1   1  -6  500.05   15.00
  -1   1  -6  492.95   13.00
  -1   1  -6  474.25   14.10
  -1   1  -6  490.35   14.00
  -1   1  -6  488.85   13.30
   1  -1   6  490.15   13.50
   1  -1   6  474.45   15.30
   1  -1   6  482.75   12.90
   1  -1   6  494.45   14.10
   1  -1   6  482.75   12.90
  -2   1  -6  289.47    8.90
  -2   1  -6  289.47    8.90
  -2   1  -6  292.77    9.80
  -2   1  -6  305.57   11.00
   2  -1   6  279.17    8.80
   2  -1   6  301.77   10.70
   2  -1   6  279.57   10.10
   2  -1   6  289.47    9.30
   2  -1   6  279.17    8.80
   2  -1   6  298.47   11.60
  -3   1  -6  316.67    9.80
  -3   1  -6  325.67   11.40
  -3   1  -6  323.17   12.30
  -3   1  -6  316.67    9.80
   3  -1   6  312.47   12.00
   3  -1   6  328.67   12.00
   3  -1   6  289.77    9.80
   3  -1   6  326.07   12.60
   3  -1   6  289.77    9.80
   3  -1   6  323.07    9.70
  -4   1  -6   69.89    7.10
  -4   1  -6   68.39    5.50
  -4   1  -6   68.39    5.50
  -4   1  -6   64.89    7.20
   4  -1   6   69.09    6.70
   4  -1   6   77.19    7.40
  -5   1  -6   68.99    7.90
  -5   1  -6   66.49    7.40
   5  -1   6   84.59    6.10
   5  -1   6   84.59    6.10
   5  -1   6   85.79    8.60
   5  -1   6   56.09    6.40
  -6   1  -6   17.80    6.60
  -6   1  -6   13.90    6.70
   6  -1   6   10.50    5.00
   6  -1   6   15.20    6.10
   6  -1   6   15.20    6.10
   6  -1   6    6.10    6.70
   9   1  -7   26.80    6.40
   9   1  -7   24.20    5.00
   9   1  -7   24.40    6.70
   9   1  -7   24.20    5.00
  -9  -1   7   30.80    7.50
  -9  -1   7   29.10    5.60
   8   1  -7   68.49    5.60
   8   1  -7   82.99    8.30
   8   1  -7   83.09    8.00
   8   1  -7   68.39    5.60
  -8  -1   7   71.59    7.90
  -8  -1   7   80.29    7.10
   7   1  -7  238.28    9.00
   7   1  -7  238.28    9.00
   7   1  -7  221.88   10.00
   7   1  -7  237.08   10.30
  -7  -1   7  244.08    9.90
  -7  -1   7  232.68   11.30
   6   1  -7  393.36   12.50
   6   1  -7  385.46   11.90
   6   1  -7  385.46   11.90
   6   1  -7  391.96   13.10
  -6  -1   7  384.86   11.00
  -6  -1   7  381.16   12.50
  -6  -1   7  378.76   12.70
  -6  -1   7  406.16   14.20
   5   1  -7  563.74   15.70
   5   1  -7  551.14   15.50
   5   1  -7  551.14   15.50
   5   1  -7  572.14   16.70
  -5  -1   7  588.14   17.60
  -5  -1   7  597.94   14.70
  -5  -1   7  547.95   16.30
  -5  -1   7  565.04   15.30
  -5  -1   7  558.84   15.70
   4   1  -7  559.54   14.90
   4   1  -7  537.25   14.90
   4   1  -7  580.04   16.10
   4   1  -7  537.25   14.90
   4   1  -7  528.05   15.90
  -4  -1   7  513.95   16.60
  -4  -1   7  555.74   14.90
  -4  -1   7  571.44   14.60
  -4  -1   7  543.95   15.60
  -4  -1   7  563.44   15.10
  -4  -1   7  584.84   16.80
   3   1  -7   28.60    3.20
   3   1  -7   37.40    3.80
   3   1  -7   32.60    3.40
   3   1  -7   37.70    3.20
   3   1  -7   37.70    3.20
  -3  -1   7   34.20    3.70
  -3  -1   7   29.40    4.00
  -3  -1   7   34.20    3.50
  -3  -1   7   29.00    2.90
  -3  -1   7   34.30    3.40
  -3  -1   7   34.10    3.60
   2   1  -7   43.30    4.30
   2   1  -7   48.90    3.30
   2   1  -7   48.90    3.30
   2   1  -7   45.50    4.00
   2   1  -7   52.29    4.20
  -2  -1   7   47.60    5.40
  -2  -1   7   50.99    3.90
  -2  -1   7   36.30    3.40
  -2  -1   7   51.19    3.20
  -2  -1   7   48.00    3.80
  -2  -1   7   38.90    4.20
  -2  -1   7   36.30    3.40
  -2  -1   7   47.60    4.20
   1   1  -7  213.48    8.30
   1   1  -7  220.48    7.10
   1   1  -7  220.48    7.10
   1   1  -7  214.78    7.50
   1   1  -7  216.98    7.40
   1   1  -7  209.78    8.20
  -1  -1   7  214.18    7.10
  -1  -1   7  203.18    7.20
  -1  -1   7  203.18    7.20
  -1  -1   7  219.98    7.70
  -1  -1   7  226.38    7.80
  -1  -1   7  222.68    8.40
   0   1  -7  348.77    9.90
   0   1  -7  327.87   10.30
   0   1  -7  347.47   10.00
   0   1  -7  336.47   11.50
   0   1  -7  348.77    9.90
   0  -1   7  319.07    9.80
   0  -1   7  319.07    9.80
   0  -1   7  341.37   10.90
   0  -1   7  335.47   11.90
   0  -1   7  351.36   10.50
   0  -1   7  337.77   10.70
  -1   1  -7  167.68    6.30
  -1   1  -7  156.28    7.60
  -1   1  -7  175.38    6.60
  -1   1  -7  172.38    7.30
  -1   1  -7  167.68    6.30
  -1   1  -7  180.28    8.20
   1  -1   7  150.38    6.40
   1  -1   7  170.08    7.40
   1  -1   7  150.38    6.40
   1  -1   7  164.48    7.30
   1  -1   7  165.98    8.60
  -2   1  -7   55.69    5.40
  -2   1  -7   53.09    5.80
  -2   1  -7   50.99    6.40
  -2   1  -7   53.99    4.40
  -2   1  -7   53.99    4.40
   2  -1   7   62.49    6.60
   2  -1   7   64.49    4.90
   2  -1   7   59.29    5.90
  -3   1  -7   53.89    4.30
  -3   1  -7   42.20    5.20
  -3   1  -7   54.49    6.50
  -3   1  -7   53.89    4.30
   3  -1   7   45.40    6.30
   3  -1   7   36.50    6.20
   3  -1   7   53.99    6.70
  -4   1  -7   27.80    5.00
  -4   1  -7   39.80    6.00
  -4   1  -7   25.80    4.10
  -4   1  -7   25.80    4.10
   4  -1   7   25.70    4.90
   4  -1   7   23.40    4.90
  -5   1  -7   33.10    7.00
  -5   1  -7   16.50    7.00
   5  -1   7   30.40    6.00
   5  -1   7   43.00    4.80
   5  -1   7   42.20    6.80
   5  -1   7   43.00    4.80
   9   1  -8    9.00    4.90
   9   1  -8    9.00    4.90
  -9  -1   8    1.10    7.10
  -9  -1   8    8.50    4.50
   8   1  -8   50.09    5.30
   8   1  -8   55.39    6.10
   8   1  -8   50.09    5.30
  -8  -1   8   50.19    7.10
  -8  -1   8   35.30    5.10
   7   1  -8   10.60    3.00
   7   1  -8   10.60    3.00
   7   1  -8   13.20    3.90
   7   1  -8    6.60    3.90
  -7  -1   8   12.40    4.70
  -7  -1   8   12.90    3.50
   6   1  -8    7.60    2.70
   6   1  -8    6.00    3.00
   6   1  -8    3.00    2.60
   6   1  -8    7.60    2.70
  -6  -1   8    4.80    3.10
  -6  -1   8    7.60    2.10
  -6  -1   8   14.70    4.20
  -6  -1   8   12.40    4.00
   5   1  -8  129.39    6.90
   5   1  -8  127.69    6.00
   5   1  -8  129.99    6.10
   5   1  -8  127.69    6.00
  -5  -1   8  119.69    6.50
  -5  -1   8  121.09    6.60
  -5  -1   8  128.49    5.40
  -5  -1   8  125.09    7.90
  -5  -1   8  133.89    7.00
   4   1  -8   27.40    3.00
   4   1  -8   27.00    3.60
   4   1  -8   27.40    3.00
   4   1  -8   22.20    4.00
   4   1  -8   30.00    3.40
  -4  -1   8   26.30    3.70
  -4  -1   8   28.80    3.30
  -4  -1   8   24.90    3.00
  -4  -1   8   29.80    3.90
  -4  -1   8   27.00    4.00
   3   1  -8   56.89    4.00
   3   1  -8   52.19    5.40
   3   1  -8   57.29    4.70
   3   1  -8   47.80    5.00
   3   1  -8   56.89    4.00
  -3  -1   8   48.60    3.60
  -3  -1   8   44.30    4.40
  -3  -1   8   53.89    4.80
  -3  -1   8   52.59    4.40
  -3  -1   8   61.99    5.30
   2   1  -8  274.77    9.40
   2   1  -8  284.17    9.10
   2   1  -8  284.17    9.10
   2   1  -8  291.47   11.60
   2   1  -8  281.77   10.40
   2   1  -8  280.67    9.50
  -2  -1   8  297.07   10.20
  -2  -1   8  285.67   10.00
  -2  -1   8  283.57    9.50
  -2  -1   8  289.07    9.90
  -2  -1   8  289.97    8.90
   1   1  -8  118.19    5.40
   1   1  -8  118.19    5.40
   1   1  -8  120.99    5.60
   1   1  -8  130.39    6.80
   1   1  -8  128.19    6.00
  -1  -1   8  117.69    6.40
  -1  -1   8  112.39    6.40
  -1  -1   8  125.99    7.10
  -1  -1   8  113.49    5.40
   0   1  -8   78.29    4.70
   0   1  -8   84.59    4.80
   0   1  -8   78.29    4.70
   0   1  -8   80.49    6.10
   0   1  -8   84.59    5.50
   0  -1   8   91.49    6.10
   0  -1   8   82.99    6.40
   0  -1   8   80.09    5.40
   0  -1   8   82.89    7.00
  -1   1  -8   25.50    3.40
  -1   1  -8   22.90    3.70
  -1   1  -8   14.10    4.40
  -1   1  -8   29.30    3.20
  -1   1  -8   29.30    3.20
   1  -1   8   21.30    3.90
   1  -1   8   30.90    4.30
   1  -1   8   19.50    4.90
  -2   1  -8   12.70    3.70
  -2   1  -8   13.20    4.00
  -2   1  -8   17.20    3.20
  -2   1  -8   17.20    3.20
   2  -1   8   12.70    3.90
   2  -1   8   13.60    4.10
  -3   1  -8  106.19    8.20
  -3   1  -8   99.49    9.00
   3  -1   8  112.59    9.00
   3  -1   8  108.29    8.60
  -4   1  -8   12.30    4.50
  -4   1  -8   12.30    4.50
  -4   1  -8    7.00    5.70
   4  -1   8   15.00    5.30
   4  -1   8   -0.90    4.80
   5  -1   8   41.10    7.10
   8   1  -9  163.18    9.40
   8   1  -9  175.98   10.70
   8   1  -9  163.18    9.40
  -8  -1   9  165.38   10.00
  -8  -1   9  207.08   13.00
   7   1  -9  323.07   11.40
   7   1  -9  306.67   12.00
   7   1  -9  323.07   11.40
  -7  -1   9  307.77   12.50
  -7  -1   9  320.37   14.30
   6   1  -9   10.40    2.90
   6   1  -9   14.90    3.60
   6   1  -9   11.00    3.50
   6   1  -9   10.40    2.90
  -6  -1   9   10.70    3.50
  -6  -1   9    4.40    2.60
  -6  -1   9    6.50    5.10
   5   1  -9  149.29    8.00
   5   1  -9  156.08    7.20
   5   1  -9  156.08    7.20
   5   1  -9  161.38    6.90
  -5  -1   9  169.18    9.40
  -5  -1   9  151.78    6.90
  -5  -1   9  164.58    8.20
   4   1  -9  125.29    6.10
   4   1  -9  118.39    7.00
   4   1  -9  125.29    6.10
  -4  -1   9  127.59    6.30
  -4  -1   9  128.59    5.80
  -4  -1   9  117.19    6.50
  -4  -1   9  114.29    7.70
  -4  -1   9  123.49    7.10
  -4  -1   9  115.49    7.60
   3   1  -9   42.00    5.20
   3   1  -9   39.50    4.50
  -3  -1   9   40.90    4.60
  -3  -1   9   44.10    5.30
  -3  -1   9   50.99    4.00
  -3  -1   9   51.39    5.50
  -3  -1   9   42.70    4.60
   2   1  -9  546.95   15.70
   2   1  -9  526.35   15.30
   2   1  -9  526.35   15.30
   2   1  -9  530.35   15.40
   2   1  -9  550.44   17.10
  -2  -1   9  540.55   16.00
  -2  -1   9  556.44   15.10
  -2  -1   9  541.85   16.30
  -2  -1   9  552.04   16.80
   1   1  -9  321.17   10.20
   1   1  -9  306.97   10.30
   1   1  -9  305.97   10.00
   1   1  -9  321.17   10.20
   1   1  -9  295.77   15.50
  -1  -1   9  312.47   11.00
  -1  -1   9  276.87   11.30
  -1  -1   9  312.67   12.20
  -1  -1   9  313.87   10.30
   0   1  -9   56.99    4.70
   0   1  -9   57.19    4.90
   0   1  -9   57.19    4.90
   0   1  -9   45.90    6.00
   0  -1   9   57.49    5.40
   0  -1   9   49.80    5.60
   0  -1   9   47.90    6.20
  -1   1  -9   13.10    3.60
  -1   1  -9   10.00    4.10
   1  -1   9   13.40    5.60
   1  -1   9    7.20    5.10
   1  -1   9    9.10    3.70
  -2   1  -9   24.60    4.30
  -2   1  -9   24.60    4.30
  -2   1  -9   18.10    5.00
   2  -1   9   20.70    5.00
   2  -1   9    9.00    4.80
  -3   1  -9   32.30    5.00
  -3   1  -9   32.30    5.00
  -3   1  -9   25.60    6.20
   3  -1   9   33.80    5.90
   3  -1   9   33.80    6.40
  -4   1  -9   31.90   11.50
   4  -1   9   17.80    6.60
   8   1 -10   16.90    5.90
  -8  -1  10    7.60    7.70
  -8  -1  10    7.10    4.70
   7   1 -10    3.10    4.40
   7   1 -10    4.90    4.10
   7   1 -10    4.90    4.10
  -7  -1  10    9.30    6.00
  -7  -1  10    6.20    4.10
   6   1 -10  172.58    8.30
   6   1 -10  172.58    8.30
   6   1 -10  169.18    9.50
  -6  -1  10  181.58   11.50
  -6  -1  10  162.58    9.40
   5   1 -10   80.89    6.10
   5   1 -10   80.89    6.10
   5   1 -10   86.89    7.20
  -5  -1  10   84.29    8.60
  -5  -1  10   66.09    5.70
  -5  -1  10   84.39    7.10
  -5  -1  10   84.79    6.60
   4   1 -10    1.80    3.10
   4   1 -10    0.40    2.70
   4   1 -10    0.40    2.70
  -4  -1  10    3.50    3.70
  -4  -1  10   -3.70    3.90
  -4  -1  10   -1.60    3.40
  -4  -1  10    3.50    2.60
   3   1 -10  241.58   10.00
   3   1 -10  239.38    9.10
   3   1 -10  239.38    9.10
   3   1 -10  254.07   11.00
  -3  -1  10  233.78   10.30
  -3  -1  10  251.57   10.80
  -3  -1  10  256.47    8.90
   2   1 -10    9.80    3.20
   2   1 -10    6.40    3.80
   2   1 -10    9.20    3.00
   2   1 -10    9.20    3.00
  -2  -1  10    4.30    4.00
  -2  -1  10    8.20    2.90
  -2  -1  10    2.30    3.90
   1   1 -10   25.20    4.80
   1   1 -10   34.00    4.00
   1   1 -10   34.00    4.00
   1   1 -10   27.10    3.50
  -1  -1  10   26.00    5.60
  -1  -1  10   28.80    5.10
  -1  -1  10   25.20    4.00
   0   1 -10    4.80    3.10
   0   1 -10    4.80    3.10
   0   1 -10    4.60    3.90
   0  -1  10    7.00    3.90
   0  -1  10   -2.10    4.80
   0  -1  10    9.90    5.60
  -1   1 -10   25.30    4.20
  -1   1 -10   25.30    4.20
  -1   1 -10    9.30    4.70
   1  -1  10   17.70    5.00
   1  -1  10   19.30    5.90
  -2   1 -10   29.80    5.60
  -2   1 -10   29.80    5.50
  -2   1 -10   32.10    6.50
   2  -1  10   30.70    6.50
   2  -1  10   27.90    6.40
  -3   1 -10   -2.60    5.70
  -3   1 -10   -2.60    5.70
   3  -1  10    8.70    6.60
   7   1 -11   35.90    6.50
   7   1 -11   41.10    7.90
   7   1 -11   41.10    7.90
  -7  -1  11   21.90    5.40
  -7  -1  11   34.90    8.80
   6   1 -11  103.49    7.70
   6   1 -11  103.49    7.70
   6   1 -11  104.49    9.20
  -6  -1  11  103.89    8.00
  -6  -1  11  119.09   12.00
   5   1 -11  118.89    7.70
   5   1 -11  131.29    9.00
   5   1 -11  118.89    7.70
  -5  -1  11  127.69   10.40
  -5  -1  11  117.99    8.80
  -5  -1  11  115.79    8.80
   4   1 -11  117.79    7.40
   4   1 -11  117.79    7.40
   4   1 -11  123.29    9.10
  -4  -1  11  150.38   10.10
  -4  -1  11  108.59    8.50
  -4  -1  11  118.89    9.20
   3   1 -11   76.79    6.60
   3   1 -11   76.79    6.60
   3   1 -11   98.89    8.80
  -3  -1  11   78.79    7.70
  -3  -1  11   68.19    8.80
   2   1 -11   64.59    5.70
   2   1 -11   63.49    7.00
   2   1 -11   64.59    5.70
  -2  -1  11   55.79    7.10
  -2  -1  11   62.59    6.50
  -2  -1  11   59.09    6.50
   1   1 -11   29.90    4.30
   1   1 -11   29.90    4.30
   1   1 -11   37.60    6.20
  -1  -1  11   34.80    7.00
  -1  -1  11   38.50    6.20
  -1  -1  11   51.49    5.70
   0   1 -11   13.10    4.20
   0   1 -11   13.10    4.20
   0   1 -11   22.20    5.90
   0  -1  11   16.50    5.30
   0  -1  11   18.80    6.70
   0  -1  11    5.80    6.50
  -1   1 -11   26.20    5.50
  -1   1 -11   28.40    6.60
  -1   1 -11   26.20    5.50
   1  -1  11   26.60    7.60
   1  -1  11   34.30    7.20
   6   1 -12  205.38   13.00
  -6  -1  12  211.28   11.40
   5   1 -12   71.99    6.50
   5   1 -12   71.99    6.50
  -5  -1  12   86.89    8.90
   4   1 -12   32.00    5.10
   4   1 -12   45.60    7.00
   4   1 -12   32.00    5.10
  -4  -1  12   32.60    7.30
  -4  -1  12   25.00    6.00
   3   1 -12   37.80    5.60
   3   1 -12   37.80    5.60
   3   1 -12   24.80    6.60
  -3  -1  12   30.00    6.00
  -3  -1  12   32.50    7.50
   2   1 -12   16.80    4.90
   2   1 -12   12.80    5.60
   2   1 -12   16.80    4.90
  -2  -1  12    7.20    7.20
  -2  -1  12   13.80    6.20
   1   1 -12   26.20    6.90
   1   1 -12   17.70    5.20
   1   1 -12   17.70    5.20
  -1  -1  12   11.00    7.80
  -1  -1  12   13.60    6.70
   0   1 -12   33.50    6.60
   0   1 -12   33.40    6.60
   0  -1  12   25.20    8.40
   0   2  12   45.50    7.80
   0  -2 -12   51.69    8.90
  -1   2  12   38.00    6.60
  -1   2  12   13.00    6.90
   1  -2 -12   27.30    7.40
   1  -2 -12   18.30    5.30
   1  -2 -12   18.30    5.30
  -2   2  12   12.90    6.50
  -2   2  12   16.40    6.10
  -2   2  12   12.10    5.30
   2  -2 -12    9.10    6.20
   2  -2 -12   18.50    5.10
   2  -2 -12   18.50    5.10
  -3   2  12   18.20    5.60
  -3   2  12   24.90    5.40
  -3   2  12   23.20    6.10
   3  -2 -12   21.50    6.20
   3  -2 -12   33.60    5.40
   3  -2 -12   33.60    5.40
  -4   2  12   42.30    6.20
  -4   2  12   37.70    6.40
   4  -2 -12   49.00    6.00
   4  -2 -12   49.00    6.00
   4  -2 -12   43.40    6.90
  -5   2  12   74.69    7.70
  -5   2  12   67.09    7.30
   5  -2 -12   71.89    7.80
   5  -2 -12   72.39    7.20
   5  -2 -12   72.39    7.20
  -6   2  12   10.00    4.70
   1   2  11   18.50    7.00
   1   2  11   29.40    6.60
  -1  -2 -11   45.90    8.00
  -1  -2 -11   30.90    5.80
  -1  -2 -11   30.90    5.80
   0   2  11   83.79   10.30
   0   2  11   92.49    9.30
   0  -2 -11   98.09    8.60
   0  -2 -11  101.49   11.00
   0  -2 -11   98.09    8.60
  -1   2  11   11.40    5.20
  -1   2  11    4.10    5.20
  -1   2  11   11.60    4.60
   1  -2 -11   15.00    4.00
   1  -2 -11   15.00    4.00
   1  -2 -11   -5.80    5.00
  -2   2  11   64.19    8.10
  -2   2  11   42.50    5.80
  -2   2  11   53.69    5.90
   2  -2 -11   45.20    4.90
   2  -2 -11   49.20    6.20
   2  -2 -11   45.20    4.90
  -3   2  11   67.69    7.20
  -3   2  11   80.29    8.20
   3  -2 -11   70.79    8.00
   3  -2 -11   73.59    6.20
   3  -2 -11   73.69    6.10
  -4   2  11   52.49    5.90
  -4   2  11   48.80    5.60
  -4   2  11   46.10    5.50
   4  -2 -11   50.59    5.10
   4  -2 -11   50.59    5.10
   4  -2 -11   45.70    6.00
  -5   2  11    9.50    4.20
  -5   2  11    1.60    4.20
   5  -2 -11   12.20    4.00
   5  -2 -11   12.20    4.00
  -6   2  11   37.60    5.70
   6  -2 -11   39.00    5.20
   6  -2 -11   39.00    5.20
   6  -2 -11   27.50    5.50
   6  -2 -11   36.70    6.70
  -7   2  11   32.20    5.90
   7  -2 -11   32.40    6.30
   7  -2 -11   32.40    6.30
   3   2  10    3.50    7.20
  -3  -2 -10   20.30    6.40
  -3  -2 -10   20.30    6.40
   2   2  10  112.29   11.70
   2   2  10  141.69   11.50
  -2  -2 -10  160.18   12.10
  -2  -2 -10  152.38   10.00
  -2  -2 -10  152.38   10.10
   1   2  10   40.60    6.20
   1   2  10   30.60    5.90
  -1  -2 -10   41.20    5.20
  -1  -2 -10   41.20    5.20
  -1  -2 -10   55.39    7.20
   0   2  10   10.30    4.80
   0   2  10    7.20    4.00
   0  -2 -10   16.90    5.00
   0  -2 -10   21.00    3.70
   0  -2 -10   21.00    3.70
  -1   2  10   47.60    6.20
  -1   2  10   49.70    5.40
  -1   2  10   45.60    5.50
   1  -2 -10   43.00    4.40
   1  -2 -10   43.00    4.40
   1  -2 -10   43.70    5.80
  -2   2  10   29.30    4.70
  -2   2  10   35.20    4.70
  -2   2  10   39.10    4.50
   2  -2 -10   41.90    4.40
   2  -2 -10   41.90    4.40
  -3   2  10   37.40    6.10
  -3   2  10   30.70    4.20
  -3   2  10   37.20    4.70
   3  -2 -10   34.70    4.70
   3  -2 -10   37.40    4.10
   3  -2 -10   37.40    4.10
  -4   2  10   91.49    6.90
  -4   2  10   88.09    6.90
  -4   2  10   84.79    6.40
  -4   2  10   95.99    7.20
   4  -2 -10   93.39    6.20
   4  -2 -10   93.39    6.20
   4  -2 -10   81.29    7.00
  -5   2  10   29.30    4.60
  -5   2  10   29.50    4.40
  -5   2  10   25.00    4.90
   5  -2 -10   22.80    4.20
   5  -2 -10   28.40    4.00
   5  -2 -10   29.20    4.40
   5  -2 -10   28.40    4.00
  -6   2  10   64.59    7.10
  -6   2  10   89.89    9.00
  -6   2  10   57.29    5.90
   6  -2 -10   69.49    7.80
   6  -2 -10   57.19    5.10
   6  -2 -10   57.19    5.10
   6  -2 -10   72.89    6.90
  -7   2  10   48.20    7.00
  -7   2  10   30.70    5.00
   7  -2 -10   32.50    6.20
   7  -2 -10   26.90    4.60
   7  -2 -10   26.90    4.60
  -8   2  10    9.10    7.10
  -8   2  10   11.30    4.60
   8  -2 -10   14.20    5.00
   8  -2 -10   14.20    5.00
   8  -2 -10   21.10    8.30
   4   2   9  260.27   17.60
  -4  -2  -9  254.07   13.10
  -4  -2  -9  254.07   13.10
   3   2   9   29.80    6.60
   3   2   9   31.30    7.10
  -3  -2  -9   43.60    7.30
  -3  -2  -9   38.20    5.60
  -3  -2  -9   38.20    5.60
   2   2   9   70.39    8.30
   2   2   9   55.09    6.50
  -2  -2  -9   82.29    7.10
  -2  -2  -9   82.29    7.10
  -2  -2  -9  105.99    9.50
   1   2   9  155.58    9.70
   1   2   9  152.68    8.90
  -1  -2  -9  157.38    7.80
  -1  -2  -9  147.99    9.70
  -1  -2  -9  157.38    7.80
   0   2   9   33.00    4.20
   0   2   9   28.90    4.60
   0   2   9   38.90    4.60
   0  -2  -9   28.70    3.60
   0  -2  -9   28.70    3.60
   0  -2  -9   34.70    5.10
  -1   2   9  358.56   11.80
  -1   2   9  370.46   12.50
  -1   2   9  372.06   13.40
   1  -2  -9  369.56   11.70
   1  -2  -9  364.76   13.40
   1  -2  -9  369.56   11.70
  -2   2   9  104.99    6.30
  -2   2   9  101.69    6.60
  -2   2   9  105.39    6.40
   2  -2  -9  102.39    5.90
   2  -2  -9  109.19    4.70
   2  -2  -9   96.29    6.70
   2  -2  -9  102.39    5.90
   2  -2  -9  106.99    4.20
  -3   2   9   83.89    5.30
  -3   2   9   94.39    6.00
  -3   2   9   85.69    6.40
  -3   2   9   86.49    6.00
   3  -2  -9   94.69    5.40
   3  -2  -9   93.29    6.20
   3  -2  -9   87.39    6.10
   3  -2  -9   94.69    5.40
  -4   2   9  100.29    6.20
  -4   2   9  103.09    6.40
  -4   2   9  100.39    6.40
   4  -2  -9   98.39    5.80
   4  -2  -9   98.39    6.50
   4  -2  -9   93.49    8.00
   4  -2  -9  106.29    6.30
   4  -2  -9   98.39    5.80
  -5   2   9   12.30    3.30
  -5   2   9    9.90    3.50
  -5   2   9   15.40    3.60
   5  -2  -9   11.00    3.00
   5  -2  -9   12.10    3.10
   5  -2  -9    7.20    3.50
   5  -2  -9   11.00    3.00
  -6   2   9   -1.80    3.80
  -6   2   9    1.00    3.20
  -6   2   9   -0.50    3.10
   6  -2  -9    2.30    2.90
   6  -2  -9   -4.00    2.90
   6  -2  -9    2.10    3.50
   6  -2  -9   -4.00    2.90
  -7   2   9   65.19    5.80
  -7   2   9   67.89    8.50
  -7   2   9   68.69    6.80
   7  -2  -9   83.89    6.60
   7  -2  -9   47.80    6.10
   7  -2  -9   78.09    8.60
   7  -2  -9   83.89    6.60
  -8   2   9   31.90    6.80
   8  -2  -9   53.69    5.60
   8  -2  -9   53.69    5.60
   8  -2  -9   50.69    6.70
   5   2   8   52.89    6.20
   5   2   8   52.89    6.20
   4   2   8   -8.90    5.10
   4   2   8    7.40    5.60
  -4  -2  -8    5.50    4.70
  -4  -2  -8    5.90    5.70
  -4  -2  -8    5.50    4.70
   3   2   8   -4.80    4.40
   3   2   8   -2.30    4.40
  -3  -2  -8    3.50    3.60
  -3  -2  -8    3.50    3.60
  -3  -2  -8    3.20    4.70
   2   2   8    0.60    3.50
   2   2   8   -0.40    3.20
  -2  -2  -8    1.90    3.20
  -2  -2  -8    1.90    3.20
  -2  -2  -8   13.70    4.20
   1   2   8  115.89    7.00
   1   2   8  120.09    7.70
  -1  -2  -8  123.29    7.80
  -1  -2  -8  123.29    7.80
   0   2   8  135.59    6.50
   0   2   8  150.18    7.20
   0   2   8  139.49    7.60
   0  -2  -8  144.09    6.40
   0  -2  -8  137.39    7.80
   0  -2  -8  144.09    6.40
  -1   2   8  332.97   11.20
  -1   2   8  341.37   11.60
  -1   2   8  331.17   10.40
   1  -2  -8  330.07   11.80
   1  -2  -8  338.47   10.50
   1  -2  -8  338.47   10.50
  -2   2   8   71.49    6.60
  -2   2   8   70.39    5.10
  -2   2   8   68.99    4.90
  -2   2   8   74.39    5.20
   2  -2  -8   58.99    3.60
   2  -2  -8   64.59    3.90
   2  -2  -8   68.79    5.30
   2  -2  -8   68.99    4.40
   2  -2  -8   68.99    4.40
  -3   2   8  279.87    9.50
  -3   2   8  290.47    9.20
  -3   2   8  312.17   10.30
  -3   2   8  260.17   10.70
  -3   2   8  291.67   10.10
  -3   2   8  255.97   10.20
   3  -2  -8  291.47    9.30
   3  -2  -8  276.47    9.30
   3  -2  -8  282.17    9.90
   3  -2  -8  291.47    9.30
  -4   2   8  270.77   10.60
  -4   2   8  299.07   10.10
  -4   2   8  263.47   10.90
  -4   2   8  289.17   10.10
  -4   2   8  290.27   10.00
   4  -2  -8  300.77    9.50
   4  -2  -8  296.67   10.50
   4  -2  -8  300.77    9.50
   4  -2  -8  286.67   10.80
   4  -2  -8  290.07    9.80
  -5   2   8   32.30    3.70
  -5   2   8   30.00    4.70
  -5   2   8   33.50    4.00
  -5   2   8   24.50    5.10
  -5   2   8   34.00    4.10
   5  -2  -8   29.90    3.40
   5  -2  -8   31.10    3.90
   5  -2  -8   34.30    3.50
   5  -2  -8   34.30    3.50
  -6   2   8  175.68   12.20
  -6   2   8  162.88    7.90
  -6   2   8  172.28    7.60
  -6   2   8  160.38    8.60
   6  -2  -8  152.78    8.60
   6  -2  -8  163.48    7.20
   6  -2  -8  167.78    7.10
   6  -2  -8  163.48    7.20
  -7   2   8  126.79    7.10
  -7   2   8  125.89    9.00
  -7   2   8  105.69    6.70
   7  -2  -8  117.89    6.90
   7  -2  -8  108.99   12.50
   7  -2  -8  114.49    6.80
   7  -2  -8  117.89    6.90
  -8   2   8   33.00    6.70
  -8   2   8   36.70    5.40
   8  -2  -8   39.40    5.90
   8  -2  -8   33.90    4.50
   8  -2  -8   33.90    4.50
  -9   2   8   34.50    5.30
  -9   2   8   34.20    7.40
   9  -2  -8   34.60    7.30
   9  -2  -8   26.90    5.00
   9  -2  -8   26.90    5.00
   5   2   7  194.88   10.00
   5   2   7  207.38   12.50
   5   2   7  194.88   10.00
   5   2   7  206.98   13.40
  -5  -2  -7  199.58   13.20
   4   2   7  143.99    9.90
   4   2   7  135.79   10.80
  -4  -2  -7  133.99   10.20
  -4  -2  -7  151.18    8.30
  -4  -2  -7  151.18    8.30
   3   2   7   29.50    5.00
   3   2   7   41.80    5.30
  -3  -2  -7   37.90    4.10
  -3  -2  -7   37.90    4.10
  -3  -2  -7   38.90    5.20
  -3  -2  -7   47.10    4.30
   2   2   7  463.45   17.50
   2   2   7  475.85   15.50
  -2  -2  -7  475.65   13.10
  -2  -2  -7  489.25   14.20
  -2  -2  -7  470.35   12.30
  -2  -2  -7  499.75   16.50
  -2  -2  -7  489.25   14.20
   1   2   7  116.19    6.20
   1   2   7  101.89    5.50
   1   2   7  111.99    6.60
  -1  -2  -7  119.29    5.50
  -1  -2  -7  105.19    6.80
  -1  -2  -7  119.29    5.50
   0   2   7  399.96   11.00
   0   2   7  389.56   12.20
   0   2   7  405.26   12.70
   0   2   7  371.06   12.80
   0  -2  -7  373.06   11.20
   0  -2  -7  373.06   11.20
   0  -2  -7  395.36   12.90
  -1   2   7  229.08    8.30
  -1   2   7  238.28    8.50
  -1   2   7  216.18    9.00
  -1   2   7  230.78    7.60
  -1   2   7  217.08    8.50
   1  -2  -7  230.88    7.60
   1  -2  -7  226.78    8.60
   1  -2  -7  230.88    7.60
  -2   2   7   50.89    4.20
  -2   2   7   51.49    5.10
  -2   2   7   53.59    4.60
  -2   2   7   53.29    4.20
  -2   2   7   50.19    3.10
  -2   2   7   51.79    3.80
   2  -2  -7   51.69    3.30
   2  -2  -7   51.99    4.10
   2  -2  -7   56.39    3.60
   2  -2  -7   46.00    5.20
   2  -2  -7   56.39    3.60
  -3   2   7  239.18    7.80
  -3   2   7  236.58    8.40
  -3   2   7  229.78    8.50
  -3   2   7  229.58    9.00
  -3   2   7  226.88    9.10
  -3   2   7  247.18    8.20
   3  -2  -7  229.78    8.00
   3  -2  -7  240.28    8.50
   3  -2  -7  227.98    7.70
   3  -2  -7  227.98    7.70
   3  -2  -7  236.18    8.20
  -4   2   7  446.36   14.20
  -4   2   7  473.45   13.50
  -4   2   7  448.96   14.30
  -4   2   7  467.15   13.60
  -4   2   7  458.95   13.30
  -4   2   7  440.56   13.50
   4  -2  -7  456.35   14.00
   4  -2  -7  462.55   13.00
   4  -2  -7  463.95   13.10
   4  -2  -7  458.05   14.00
   4  -2  -7  462.55   13.00
  -5   2   7  275.87    9.30
  -5   2   7  263.97    9.60
  -5   2   7  262.87    9.90
  -5   2   7  268.27    9.40
  -5   2   7  256.77   10.50
  -5   2   7  245.18   10.40
   5  -2  -7  280.07   10.10
   5  -2  -7  264.07    8.80
   5  -2  -7  273.57    8.80
   5  -2  -7  264.07    8.80
  -6   2   7  291.37   11.60
  -6   2   7  298.07   10.70
  -6   2   7  306.37   10.30
  -6   2   7  288.67   11.50
   6  -2  -7  295.27   10.80
   6  -2  -7  317.57    9.90
   6  -2  -7  299.07   11.50
  -7   2   7   84.39    7.80
  -7   2   7   74.59    6.20
  -7   2   7   76.99    6.20
   7  -2  -7   87.59    5.80
   7  -2  -7   85.79    5.50
   7  -2  -7   85.79    5.50
   7  -2  -7   73.99    8.20
  -8   2   7   28.10    4.60
  -8   2   7   35.00    5.90
   8  -2  -7   20.40    5.40
   8  -2  -7   29.30    4.10
   8  -2  -7   29.30    4.10
  -9   2   7    4.90    6.70
   9  -2  -7    5.50    4.10
   9  -2  -7    3.90    6.40
   9  -2  -7    5.50    4.10
   6   2   6   65.09    6.20
   6   2   6   54.19    7.20
   6   2   6   65.09    6.20
   6   2   6   69.49    9.00
  -6  -2  -6   71.99    9.20
   5   2   6  157.88   10.40
   5   2   6  177.18   11.20
   5   2   6  181.48    8.40
   5   2   6  181.48    8.40
  -5  -2  -6  182.18    9.40
  -5  -2  -6  164.88   11.40
   4   2   6   59.39    6.20
   4   2   6   62.39    8.00
  -4  -2  -6   59.39    5.80
  -4  -2  -6   58.89    7.10
  -4  -2  -6   54.49    4.90
  -4  -2  -6   54.49    4.90
   3   2   6   18.50    3.80
   3   2   6   17.30    3.50
   3   2   6   15.90    4.30
  -3  -2  -6   16.10    3.00
  -3  -2  -6   14.10    2.50
  -3  -2  -6    8.60    3.40
  -3  -2  -6   16.10    3.00
   2   2   6  192.68    8.20
   2   2   6  174.48    8.30
  -2  -2  -6  186.98    5.90
  -2  -2  -6  177.98    6.90
  -2  -2  -6  177.98    6.90
  -2  -2  -6  182.88    8.50
   1   2   6  138.29    6.40
   1   2   6  140.29    6.70
   1   2   6  145.09    5.70
   1   2   6  145.09    5.70
   1   2   6  139.09    5.20
  -1  -2  -6  140.79    4.00
  -1  -2  -6  137.29    4.10
  -1  -2  -6  146.99    5.70
  -1  -2  -6  128.19    6.70
  -1  -2  -6  135.59    6.90
  -1  -2  -6  146.99    5.70
   0   2   6    5.80    2.30
   0   2   6    3.50    1.60
   0   2   6    3.20    1.90
   0   2   6    0.90    1.70
   0   2   6    6.80    2.00
   0   2   6   -0.10    1.60
   0   2   6   -0.10    1.60
   0  -2  -6   -0.50    2.00
   0  -2  -6    3.30    1.40
   0  -2  -6    0.70    1.80
   0  -2  -6    3.30    1.40
  -1   2   6   25.00    3.00
  -1   2   6   19.30    2.00
  -1   2   6   24.20    3.10
  -1   2   6   26.80    3.10
  -1   2   6   29.80    2.60
  -1   2   6   19.30    2.00
  -1   2   6   21.90    2.50
   1  -2  -6   23.80    2.30
   1  -2  -6   25.10    3.10
   1  -2  -6   25.20    1.70
   1  -2  -6   26.00    3.10
   1  -2  -6   23.90    1.60
   1  -2  -6   23.80    2.30
  -2   2   6  179.08    6.30
  -2   2   6  186.98    7.30
  -2   2   6  177.48    5.80
  -2   2   6  191.28    6.80
  -2   2   6  185.08    6.90
  -2   2   6  179.08    6.30
  -2   2   6  189.78    6.40
   2  -2  -6  185.38    7.30
   2  -2  -6  181.98    6.80
   2  -2  -6  184.28    6.10
   2  -2  -6  184.28    6.10
   2  -2  -6  190.28    6.60
   2  -2  -6  195.08    5.90
  -3   2   6   47.90    4.20
  -3   2   6   37.90    4.40
  -3   2   6   43.80    3.10
  -3   2   6   43.10    3.50
  -3   2   6   45.00    3.70
  -3   2   6   47.20    3.60
  -3   2   6   43.80    3.10
  -3   2   6   42.80    3.20
   3  -2  -6   47.10    3.80
   3  -2  -6   41.20    3.10
   3  -2  -6   46.70    3.10
   3  -2  -6   43.20    3.80
   3  -2  -6   41.20    3.10
  -4   2   6   55.69    5.10
  -4   2   6   53.19    4.10
  -4   2   6   49.80    4.00
  -4   2   6   49.00    4.10
  -4   2   6   52.99    4.80
  -4   2   6   56.99    4.00
   4  -2  -6   60.89    4.50
   4  -2  -6   54.69    5.50
   4  -2  -6   62.09    3.60
   4  -2  -6   62.09    3.60
   4  -2  -6   55.59    3.40
  -5   2   6  289.17   10.10
  -5   2   6  294.57    9.70
  -5   2   6  284.47    9.50
  -5   2   6  292.57   10.40
  -5   2   6  261.87   10.30
   5  -2  -6  285.77    8.80
   5  -2  -6  286.77   10.30
   5  -2  -6  298.97   12.80
   5  -2  -6  277.67    9.50
   5  -2  -6  288.07    8.90
   5  -2  -6  288.07    8.90
  -6   2   6  789.02   21.40
  -6   2   6  822.82   22.90
  -6   2   6  763.22   21.80
  -6   2   6  779.42   21.60
   6  -2  -6  797.42   22.70
   6  -2  -6  834.82   21.00
   6  -2  -6  803.12   20.90
   6  -2  -6  782.92   21.30
   6  -2  -6  834.82   21.00
  -7   2   6  216.68    9.10
  -7   2   6  224.78   13.40
  -7   2   6  242.08    9.30
  -7   2   6  224.78   10.60
   7  -2  -6  226.68    8.60
   7  -2  -6  244.38   10.80
   7  -2  -6  229.58    8.40
   7  -2  -6  229.58    8.40
  -8   2   6  162.78   10.40
  -8   2   6  177.68    8.90
  -8   2   6  158.48    8.30
   8  -2  -6  159.68    7.60
   8  -2  -6  168.98    9.10
   8  -2  -6  159.68    7.60
   8  -2  -6  158.28   10.60
  -9   2   6   24.90    5.00
  -9   2   6   18.90    6.70
   9  -2  -6   17.60    4.20
   9  -2  -6   17.60    4.20
   9  -2  -6   26.50    6.90
   7   2   5   50.89    6.30
   7   2   5   33.80    8.20
   7   2   5   50.89    6.30
  -7  -2  -5   36.60    8.20
   6   2   5    1.90    4.30
   6   2   5    9.80    5.40
   6   2   5    2.50    3.60
   6   2   5    2.50    3.60
  -6  -2  -5    7.40    5.60
  -6  -2  -5    4.10    5.20
   5   2   5  111.39    6.60
   5   2   5  111.39    6.60
   5   2   5  102.79    8.90
   5   2   5  102.89    7.90
  -5  -2  -5   97.09    8.50
  -5  -2  -5  102.69    7.30
   4   2   5   94.19    7.30
   4   2   5   89.79    8.00
   4   2   5   96.99    6.90
  -4  -2  -5  104.49    6.00
  -4  -2  -5  107.49    6.10
  -4  -2  -5  107.49    6.10
   3   2   5  533.85   14.70
   3   2   5  531.05   16.80
   3   2   5  527.65   16.30
  -3  -2  -5  532.95   14.80
  -3  -2  -5  532.95   14.80
  -3  -2  -5  542.25   16.80
  -3  -2  -5  510.35   14.30
   2   2   5   44.80    4.30
   2   2   5   42.20    3.30
   2   2   5   42.30    3.90
   2   2   5   42.20    3.30
   2   2   5   37.80    3.60
  -2  -2  -5   41.00    3.40
  -2  -2  -5   41.00    3.40
  -2  -2  -5   40.00    2.90
  -2  -2  -5   39.20    4.30
  -2  -2  -5   43.20    4.50
   1   2   5  403.46   11.10
   1   2   5  403.46   11.10
   1   2   5  419.66   12.30
   1   2   5  409.56   12.10
  -1  -2  -5  394.36   12.40
  -1  -2  -5  418.66   11.30
  -1  -2  -5  406.06   10.20
  -1  -2  -5  408.86   10.00
  -1  -2  -5  416.16   12.50
  -1  -2  -5  418.66   11.30
  -1  -2  -5  409.16   12.60
   0   2   5  344.77    9.50
   0   2   5  354.26   10.30
   0   2   5  355.86   10.50
   0   2   5  337.77    9.10
   0   2   5  344.77    9.50
   0   2   5  352.46   10.60
   0   2   5  335.47   10.30
   0  -2  -5  334.07   10.50
   0  -2  -5  350.56    9.70
   0  -2  -5  351.56   10.60
   0  -2  -5  350.56    9.70
  -1   2   5  825.52   20.00
  -1   2   5  847.02   21.20
  -1   2   5  802.62   21.00
  -1   2   5  829.92   21.00
  -1   2   5  798.62   20.60
  -1   2   5  824.22   19.20
  -1   2   5  801.22   20.00
  -1   2   5  801.22   20.00
   1  -2  -5  805.92   20.10
   1  -2  -5  840.02   19.10
   1  -2  -5  794.02   21.10
   1  -2  -5  834.22   20.80
   1  -2  -5  805.82   20.10
  -2   2   5 2126.99   50.39
  -2   2   5 2132.09   51.19
  -2   2   5 2227.68   50.69
  -2   2   5 2193.08   50.89
  -2   2   5 2173.18   50.29
  -2   2   5 2120.49   51.39
  -2   2   5 2126.99   50.39
  -2   2   5 2161.18   51.49
   2  -2  -5 2095.49   51.29
   2  -2  -5 2173.38   51.49
   2  -2  -5 2161.98   50.79
   2  -2  -5 2164.48   50.29
   2  -2  -5 2194.88   50.59
   2  -2  -5 2194.88   50.59
  -3   2   5   66.69    4.20
  -3   2   5   68.79    3.20
  -3   2   5   60.39    4.10
  -3   2   5   68.79    3.30
  -3   2   5   60.69    3.50
  -3   2   5   54.59    3.60
  -3   2   5   64.79    3.50
  -3   2   5   67.19    3.70
   3  -2  -5   62.19    3.90
   3  -2  -5   61.29    3.50
   3  -2  -5   58.59    4.00
  -4   2   5   89.49    4.10
  -4   2   5   99.19    4.90
  -4   2   5   93.29    4.60
  -4   2   5   92.19    4.30
  -4   2   5   89.49    4.10
  -4   2   5   97.79    5.20
  -4   2   5   91.89    5.30
   4  -2  -5   94.09    5.70
   4  -2  -5   93.79    4.10
   4  -2  -5   91.79    5.10
   4  -2  -5   94.89    4.00
   4  -2  -5   93.79    4.10
  -5   2   5  186.48    8.10
  -5   2   5  191.38    7.80
  -5   2   5  188.18    7.20
  -5   2   5  199.58    7.40
  -5   2   5  199.28    7.90
   5  -2  -5  189.58    8.00
   5  -2  -5  199.18    6.60
   5  -2  -5  199.18    6.60
   5  -2  -5  194.18    6.90
   5  -2  -5  194.48    7.30
   5  -2  -5  172.58    8.80
   5  -2  -5  192.58    6.60
  -6   2   5  266.77   10.10
  -6   2   5  256.27    9.40
  -6   2   5  277.57   10.60
   6  -2  -5  278.37    9.70
   6  -2  -5  278.17    8.80
   6  -2  -5  271.67    8.60
   6  -2  -5  259.97    9.10
   6  -2  -5  271.67    8.60
   6  -2  -5  273.97   10.60
  -7   2   5   27.10    3.90
  -7   2   5   28.40    4.60
  -7   2   5   32.30    5.20
   7  -2  -5   25.10    3.20
   7  -2  -5   26.10    4.00
   7  -2  -5   25.10    3.20
   7  -2  -5   28.50    3.40
   7  -2  -5   30.10    4.60
   7  -2  -5   30.80    4.00
  -8   2   5   32.60    4.40
  -8   2   5   37.10    5.60
   8  -2  -5   33.30    3.90
   8  -2  -5   34.00    5.10
   8  -2  -5   33.30    3.90
   8  -2  -5   41.60    4.60
   8  -2  -5   36.60    5.80
  -9   2   5    7.40    6.30
  -9   2   5   16.50    4.70
   9  -2  -5   15.70    4.30
   9  -2  -5   13.70    6.30
   9  -2  -5   15.70    4.30
   7   2   4  118.39    8.40
   7   2   4   84.49    8.80
   7   2   4  118.39    8.40
   7   2   4  115.59    9.50
  -7  -2  -4  100.79   11.10
  -7  -2  -4   96.59   11.50
   6   2   4   16.40    4.30
   6   2   4   23.30    3.80
   6   2   4   33.30    5.70
   6   2   4   23.30    3.80
  -6  -2  -4   36.40    6.20
  -6  -2  -4   27.50    5.10
   5   2   4   38.80    4.90
   5   2   4   34.50    5.00
   5   2   4   37.30    3.70
   5   2   4   37.30    3.70
  -5  -2  -4   39.30    4.50
  -5  -2  -4   40.80    5.30
   4   2   4  221.28   10.00
   4   2   4  218.48    9.40
   4   2   4  204.58    8.70
  -4  -2  -4  221.88    8.00
  -4  -2  -4  209.18    8.10
  -4  -2  -4  223.88    9.70
  -4  -2  -4  221.88    8.00
   3   2   4    8.30    2.70
   3   2   4   13.80    2.20
   3   2   4   13.80    2.20
   3   2   4    9.70    2.50
   3   2   4   13.00    2.50
  -3  -2  -4   15.90    3.20
  -3  -2  -4   17.20    2.30
  -3  -2  -4   17.20    2.30
  -3  -2  -4   15.60    2.20
   2   2   4   14.90    1.90
   2   2   4   12.80    2.30
   2   2   4   12.90    2.10
   2   2   4   13.20    2.70
   2   2   4   14.90    1.90
   2   2   4   15.80    2.30
  -2  -2  -4    9.20    1.70
  -2  -2  -4    9.30    2.00
  -2  -2  -4   12.20    2.10
  -2  -2  -4    9.50    2.10
  -2  -2  -4    9.20    1.70
  -2  -2  -4   11.10    1.60
   1   2   4  747.53   19.60
   1   2   4  761.42   17.90
   1   2   4  774.12   19.70
   1   2   4  775.82   18.80
   1   2   4  775.82   18.80
   1   2   4  750.92   19.60
  -1  -2  -4  790.02   17.90
  -1  -2  -4  738.63   18.80
  -1  -2  -4  758.02   19.80
  -1  -2  -4  744.83   19.80
  -1  -2  -4  738.63   18.80
  -1  -2  -4  758.92   20.00
   0   2   4   61.09    2.80
   0   2   4   60.19    3.30
   0   2   4   66.09    3.50
   0   2   4   61.09    2.80
   0   2   4   65.99    3.60
   0   2   4   64.09    3.20
   0  -2  -4   64.49    3.00
   0  -2  -4   64.49    3.00
   0  -2  -4   62.79    3.50
   0  -2  -4   62.39    3.50
  -1   2   4  728.43   17.00
  -1   2   4  730.33   17.70
  -1   2   4  719.53   18.50
  -1   2   4  713.53   18.00
  -1   2   4  708.73   18.50
  -1   2   4  730.43   17.70
  -1   2   4  741.03   17.70
   1  -2  -4  717.93   17.70
   1  -2  -4  717.93   17.70
   1  -2  -4  725.23   17.10
   1  -2  -4  720.43   18.60
   1  -2  -4  725.83   18.50
  -2   2   4  117.29    4.60
  -2   2   4  115.69    4.00
  -2   2   4  108.89    3.90
  -2   2   4  115.69    4.00
  -2   2   4  113.39    4.70
  -2   2   4  113.99    4.70
  -2   2   4  110.19    4.30
   2  -2  -4  111.89    4.00
   2  -2  -4  111.89    4.00
   2  -2  -4  108.89    4.60
   2  -2  -4  122.09    4.30
   2  -2  -4  113.79    3.90
  -3   2   4  226.68    7.60
  -3   2   4  232.58    7.70
  -3   2   4  231.58    6.70
  -3   2   4  237.48    7.30
  -3   2   4  237.08    6.70
  -3   2   4  237.08    6.70
  -3   2   4  225.28    7.40
  -3   2   4  237.48    7.40
   3  -2  -4  229.48    6.70
   3  -2  -4  238.08    6.60
   3  -2  -4  229.48    6.70
   3  -2  -4  231.68    7.60
   3  -2  -4  230.18    7.70
  -4   2   4   77.89    3.50
  -4   2   4   73.09    4.50
  -4   2   4   75.39    4.00
  -4   2   4   77.89    3.50
  -4   2   4   71.39    4.30
  -4   2   4   71.89    4.30
   4  -2  -4   74.09    3.30
   4  -2  -4   74.09    3.30
   4  -2  -4   73.99    4.00
   4  -2  -4   74.09    3.30
   4  -2  -4   75.49    4.40
   4  -2  -4   60.49    4.50
  -5   2   4   83.09    5.30
  -5   2   4   94.89    4.40
  -5   2   4   77.79    5.20
  -5   2   4   85.49    4.90
  -5   2   4   94.89    4.40
  -5   2   4   86.09    5.40
   5  -2  -4   91.99    4.10
   5  -2  -4   84.99    5.50
   5  -2  -4   88.09    4.10
   5  -2  -4   91.99    4.10
   5  -2  -4   89.99    4.40
   5  -2  -4   86.59    5.90
   5  -2  -4   89.49    4.90
  -6   2   4  147.59    7.80
  -6   2   4  146.89    7.60
  -6   2   4  150.98    6.60
   6  -2  -4  155.78    5.90
   6  -2  -4  151.18    7.70
   6  -2  -4  140.89    6.30
   6  -2  -4  155.88    7.10
   6  -2  -4  151.28    6.20
   6  -2  -4  155.78    5.90
  -7   2   4  113.89    6.40
  -7   2   4  119.89    7.80
  -7   2   4  102.89    8.50
   7  -2  -4  121.49    7.40
   7  -2  -4  121.69    6.40
   7  -2  -4  117.29    5.60
   7  -2  -4  112.99    6.90
   7  -2  -4  120.39    9.00
   7  -2  -4  117.29    5.60
  -8   2   4  180.08   10.30
  -8   2   4  140.09    7.90
   8  -2  -4  165.38    8.40
   8  -2  -4  171.88   10.10
   8  -2  -4  157.48    9.40
   8  -2  -4  161.18    7.20
   8  -2  -4  161.18    7.20
  -9   2   4   24.70    5.90
  -9   2   4   21.20    4.80
   9  -2  -4   28.90    7.00
   9  -2  -4   18.70    4.00
   9  -2  -4   18.80    4.00
   8   2   3   20.70    5.20
   8   2   3   25.70    8.30
   8   2   3   20.70    5.20
  -8  -2  -3   31.00    8.60
  -8  -2  -3   19.70    7.90
   7   2   3   23.00    4.10
   7   2   3   26.90    6.10
   7   2   3   23.00    4.10
   7   2   3   29.40    5.30
  -7  -2  -3   34.80    6.60
  -7  -2  -3   33.20    6.20
   6   2   3   29.60    3.70
   6   2   3   29.60    3.70
   6   2   3   23.40    4.20
   6   2   3   34.50    5.10
  -6  -2  -3   27.00    5.20
  -6  -2  -3   34.60    5.10
   5   2   3    6.60    2.30
   5   2   3    6.60    2.30
   5   2   3    5.90    4.30
   5   2   3    6.30    3.50
  -5  -2  -3    4.60    3.00
  -5  -2  -3    4.20    3.00
   4   2   3  222.38    8.10
   4   2   3  260.77    9.90
   4   2   3  222.28    8.10
   4   2   3  263.17    8.20
   4   2   3  263.17    8.20
   4   2   3  251.27   10.00
   4   2   3  256.77    9.30
  -4  -2  -3  251.67   10.00
  -4  -2  -3  259.07    8.80
   3   2   3  618.44   16.10
   3   2   3  595.04   17.00
   3   2   3  596.84   15.60
   3   2   3  596.84   15.60
   3   2   3  611.84   17.00
   3   2   3  596.74   17.00
  -3  -2  -3  606.84   15.80
  -3  -2  -3  606.84   15.80
  -3  -2  -3  579.34   16.80
  -3  -2  -3  593.64   16.50
  -3  -2  -3  609.34   17.40
  -3  -2  -3  638.14   16.00
   2   2   3  378.66   10.20
   2   2   3  387.06   11.00
   2   2   3  381.96   11.20
   2   2   3  378.66   10.20
   2   2   3  369.46   11.00
  -2  -2  -3  359.06   11.00
  -2  -2  -3  398.76   10.10
  -2  -2  -3  369.66   10.30
  -2  -2  -3  369.66   10.30
  -2  -2  -3  387.66   11.50
  -2  -2  -3  376.06   10.90
   1   2   3  817.32   18.90
   1   2   3  831.02   19.60
   1   2   3  816.62   20.30
   1   2   3  810.92   20.20
   1   2   3  831.02   19.60
  -1  -2  -3  788.82   18.90
  -1  -2  -3  796.32   19.60
  -1  -2  -3  796.32   19.60
  -1  -2  -3  807.42   20.50
  -1  -2  -3  782.62   20.30
  -1  -2  -3  780.62   20.50
   0   2   3  564.24   13.60
   0   2   3  541.55   14.30
   0   2   3  550.34   14.10
   0   2   3  573.74   14.40
   0   2   3  544.45   14.40
   0   2   3  564.24   13.60
   0  -2  -3  559.54   13.70
   0  -2  -3  559.54   13.70
   0  -2  -3  540.65   14.40
   0  -2  -3  540.15   14.20
  -1   2   3 2280.97   51.79
  -1   2   3 2309.17   51.79
  -1   2   3 2280.07   51.89
  -1   2   3 1930.31   52.99
  -1   2   3 2267.07   52.59
  -1   2   3 2309.17   51.79
  -1   2   3 2287.37   51.39
   1  -2  -3 2162.98   52.89
   1  -2  -3 2241.68   52.59
   1  -2  -3 2249.87   51.79
   1  -2  -3 2249.97   51.79
   1  -2  -3 2304.07   51.49
   1  -2  -3 2311.77   51.89
  -2   2   3 1399.46   32.40
  -2   2   3 1230.48   33.40
  -2   2   3 1396.56   31.90
  -2   2   3 1404.06   32.90
  -2   2   3 1365.66   32.30
  -2   2   3 1352.46   32.80
  -2   2   3 1382.56   31.80
  -2   2   3 1396.46   31.90
   2  -2  -3 1352.96   32.60
   2  -2  -3 1348.37   31.90
   2  -2  -3 1348.27   31.90
   2  -2  -3 1385.96   31.70
   2  -2  -3 1390.46   32.90
   2  -2  -3 1362.66   33.20
  -3   2   3  191.08    6.60
  -3   2   3  198.88    6.30
  -3   2   3  188.28    5.60
  -3   2   3  188.28    5.60
  -3   2   3  195.38    6.50
  -3   2   3  190.38    6.50
   3  -2  -3  196.38    5.70
   3  -2  -3  193.98    6.70
   3  -2  -3  209.58    6.90
   3  -2  -3  193.88    5.60
   3  -2  -3  195.08    5.50
   3  -2  -3  195.48    6.50
   3  -2  -3  196.38    5.70
  -4   2   3   81.39    3.40
  -4   2   3   81.39    3.40
  -4   2   3   85.99    4.20
  -4   2   3   85.19    4.60
  -4   2   3   84.89    4.70
  -4   2   3   83.59    4.50
   4  -2  -3   87.39    3.40
   4  -2  -3   83.39    3.50
   4  -2  -3   86.59    4.70
   4  -2  -3   87.39    3.40
   4  -2  -3   84.59    5.00
   4  -2  -3   81.89    3.40
   4  -2  -3   85.79    4.30
  -5   2   3  130.29    6.30
  -5   2   3  120.09    7.70
  -5   2   3  150.28    6.80
  -5   2   3  134.99    5.20
  -5   2   3  133.39    6.30
  -5   2   3  134.99    5.20
   5  -2  -3  141.59    5.30
   5  -2  -3  144.29    5.00
   5  -2  -3  144.29    5.00
   5  -2  -3  133.79    5.30
   5  -2  -3  147.49    6.70
   5  -2  -3  131.79    6.10
  -6   2   3   40.30    3.50
  -6   2   3   40.30    3.50
  -6   2   3   52.99    5.70
  -6   2   3   50.69    5.40
  -6   2   3   45.40    4.20
   6  -2  -3   46.50    5.30
   6  -2  -3   50.39    4.20
   6  -2  -3   50.89    4.40
   6  -2  -3   44.10    3.40
   6  -2  -3   44.10    3.40
   6  -2  -3   55.29    5.00
  -7   2   3   10.70    3.40
  -7   2   3    9.50    3.20
   7  -2  -3   15.90    4.30
   7  -2  -3    9.20    2.40
   7  -2  -3   10.30    3.10
   7  -2  -3    9.20    2.40
   7  -2  -3   18.20    3.60
   7  -2  -3   16.10    3.70
  -8   2   3   20.80    4.80
  -8   2   3   15.90    3.70
   8  -2  -3   20.70    4.40
   8  -2  -3   14.90    5.00
   8  -2  -3   24.80    5.00
  -9   2   3   -2.90    4.00
  -9   2   3   11.60    6.00
   9  -2  -3   -1.70    3.40
   9  -2  -3   -1.70    3.40
   9  -2  -3    3.10    5.80
   8   2   2   24.30    5.50
   8   2   2   22.60    6.90
   8   2   2    7.80    4.40
   8   2   2    7.80    4.40
  -8  -2  -2   10.80    6.80
  -8  -2  -2   15.60    6.80
   7   2   2   20.30    3.50
   7   2   2   13.50    4.00
   7   2   2   20.30    3.50
  -7  -2  -2   15.60    5.40
  -7  -2  -2   24.50    5.50
   6   2   2   36.80    4.70
   6   2   2   50.69    4.70
   6   2   2   36.20    4.60
   6   2   2   50.69    4.70
  -6  -2  -2   40.30    5.00
   5   2   2  191.18    8.50
   5   2   2  191.88    7.00
   5   2   2  190.08    8.60
   5   2   2  191.88    7.00
  -5  -2  -2  179.88    9.00
  -5  -2  -2  188.98    8.20
   4   2   2   10.40    3.00
   4   2   2   12.00    3.10
   4   2   2   17.00    2.30
   4   2   2   10.70    2.40
   4   2   2   10.20    2.00
   4   2   2   10.20    2.00
   4   2   2   17.00    2.30
  -4  -2  -2   17.80    2.90
  -4  -2  -2   15.90    2.90
  -4  -2  -2   16.10    2.70
  -4  -2  -2   18.90    2.70
   3   2   2  284.57    9.20
   3   2   2  290.67    8.20
   3   2   2  278.77    8.20
   3   2   2  285.57    9.10
   3   2   2  273.37    9.20
   3   2   2  290.67    8.20
   3   2   2  278.77    8.20
   3   2   2  291.37    8.90
  -3  -2  -2  267.27    8.60
  -3  -2  -2  269.67    8.20
  -3  -2  -2  282.67    9.00
  -3  -2  -2  269.67    8.20
  -3  -2  -2  280.27    9.50
  -3  -2  -2  289.47    8.60
   2   2   2 1750.82   41.50
   2   2   2 1640.94   41.20
   2   2   2 1776.22   40.50
   2   2   2 1735.73   41.00
   2   2   2 1776.22   40.50
  -2  -2  -2 1748.03   40.50
  -2  -2  -2 1661.83   41.20
  -2  -2  -2 1735.83   40.60
  -2  -2  -2 1678.93   40.90
  -2  -2  -2 1735.93   40.60
  -2  -2  -2 1772.32   41.70
   1   2   2  499.35   12.50
   1   2   2  452.55   12.30
   1   2   2  481.05   12.30
   1   2   2  481.65   11.50
  -1  -2  -2  471.75   12.30
  -1  -2  -2  480.05   11.90
  -1  -2  -2  480.15   11.90
  -1  -2  -2  472.65   11.40
  -1  -2  -2  469.55   12.40
  -1  -2  -2  439.06   13.10
   0   2   2  551.14   12.90
   0   2   2  551.14   12.90
   0   2   2  531.45   13.40
   0   2   2  510.65   13.50
   0   2   2  545.05   12.30
   0   2   2  537.65   12.30
   0   2   2  541.85   13.20
   0   2   2  537.35   13.50
   0  -2  -2  495.15   13.90
   0  -2  -2  540.45   12.90
   0  -2  -2  525.55   13.20
   0  -2  -2  540.45   12.90
  -1   2   2 4187.88   94.19
  -1   2   2 4058.49   94.19
  -1   2   2 4208.78   94.49
  -1   2   2 4098.09   94.39
  -1   2   2 3967.10   93.39
  -1   2   2 3975.90   94.09
  -1   2   2 3967.00   93.39
   1  -2  -2 4199.88   94.59
   1  -2  -2 4097.79   94.79
   1  -2  -2 4173.18   94.89
   1  -2  -2 4199.88   94.59
   1  -2  -2 4040.50   94.19
   1  -2  -2 4147.29   94.09
  -2   2   2  108.39    4.10
  -2   2   2  113.29    3.30
  -2   2   2  105.19    3.80
  -2   2   2  112.69    4.00
  -2   2   2  113.29    3.30
  -2   2   2  103.49    4.60
   2  -2  -2  114.19    3.00
   2  -2  -2  106.39    3.30
   2  -2  -2  106.39    4.10
   2  -2  -2  106.39    3.30
   2  -2  -2  109.59    3.00
   2  -2  -2  107.69    4.30
  -3   2   2   22.90    2.50
  -3   2   2   20.30    2.20
  -3   2   2   21.00    1.70
  -3   2   2   16.50    1.90
  -3   2   2   17.70    1.90
  -3   2   2   21.00    1.70
   3  -2  -2   19.30    2.20
   3  -2  -2   18.10    1.50
   3  -2  -2   23.00    2.50
   3  -2  -2   22.00    1.70
   3  -2  -2   17.30    2.20
   3  -2  -2   19.10    1.60
   3  -2  -2   22.00    1.70
  -4   2   2  102.79    5.10
  -4   2   2  106.49    3.80
  -4   2   2  111.89    4.60
  -4   2   2  104.89    5.00
  -4   2   2  108.09    4.90
  -4   2   2  106.49    3.80
  -4   2   2  103.09    4.20
   4  -2  -2  108.99    5.10
   4  -2  -2  110.39    3.80
   4  -2  -2  108.79    4.90
   4  -2  -2   90.29    5.10
   4  -2  -2  110.39    3.80
  -5   2   2  239.28    7.40
  -5   2   2  252.87    9.20
  -5   2   2  241.88    8.10
  -5   2   2  239.28    7.40
  -5   2   2  244.88    8.10
  -5   2   2  252.77    8.80
  -5   2   2  229.48    8.90
   5  -2  -2  237.08    9.00
   5  -2  -2  241.18    7.20
   5  -2  -2  241.18    7.20
   5  -2  -2  249.08    7.80
   5  -2  -2  249.88    8.80
  -6   2   2   25.80    4.30
  -6   2   2   25.00    3.40
  -6   2   2   23.30    3.30
  -6   2   2   20.80    3.90
  -6   2   2   29.00    2.70
  -6   2   2   29.00    2.70
   6  -2  -2   20.30    3.50
   6  -2  -2   19.90    2.30
   6  -2  -2   28.60    4.00
   6  -2  -2   26.90    3.30
   6  -2  -2   20.00    2.30
  -7   2   2   33.20    4.40
  -7   2   2   32.40    3.80
  -7   2   2   32.90    4.90
   7  -2  -2   28.70    4.60
   7  -2  -2   21.30    3.90
   7  -2  -2   27.20    2.90
   7  -2  -2   29.10    4.30
   7  -2  -2   27.20    2.90
  -8   2   2   48.80    5.10
  -8   2   2   60.69    6.40
  -8   2   2   54.39    6.80
   8  -2  -2   64.39    7.10
   8  -2  -2   68.29    5.20
   8  -2  -2   65.09    8.20
   8  -2  -2   68.29    5.20
  -9   2   2   90.49   11.00
  -9   2   2   75.89    7.50
   9  -2  -2   77.09    6.00
   9  -2  -2   92.39   11.30
   9  -2  -2   70.99    8.60
   9  -2  -2   77.09    6.00
   8   2   1   39.30    6.40
   8   2   1   49.80    5.20
   8   2   1   40.80    6.70
   8   2   1   49.80    5.20
  -8  -2  -1   40.10    6.80
  -8  -2  -1   39.90    7.80
   7   2   1   59.49    5.40
   7   2   1   52.79    6.60
   7   2   1   59.49    5.40
   7   2   1   59.79    7.40
  -7  -2  -1   58.99    6.50
  -7  -2  -1   56.99    6.80
   6   2   1  155.28    6.40
   6   2   1  155.28    6.40
   6   2   1  129.79   10.80
   6   2   1  153.88    7.70
  -6  -2  -1  137.09    8.70
  -6  -2  -1  157.78    6.70
  -6  -2  -1  167.18    8.20
   5   2   1   27.30    2.70
   5   2   1   35.30    4.40
   5   2   1   27.30    2.70
   5   2   1   28.30    3.70
   5   2   1   33.70    3.70
   5   2   1   28.30    3.70
  -5  -2  -1   37.80    4.50
  -5  -2  -1   38.90    4.20
  -5  -2  -1   29.00    3.10
  -5  -2  -1   36.40    4.40
   4   2   1 1440.86   34.20
   4   2   1 1399.76   35.30
   4   2   1 1440.76   34.20
   4   2   1 1440.26   34.20
   4   2   1 1331.17   35.30
   4   2   1 1482.95   35.80
   4   2   1 1459.15   35.10
   4   2   1 1440.06   34.20
  -4  -2  -1 1418.66   35.00
  -4  -2  -1 1356.26   35.20
  -4  -2  -1 1434.16   36.00
  -4  -2  -1 1400.26   34.40
   3   2   1 1860.91   43.00
   3   2   1 1864.41   43.00
   3   2   1 1826.92   44.10
   3   2   1 1787.62   43.60
   3   2   1 1860.91   43.00
   3   2   1 1846.42   43.60
   3   2   1 1882.71   44.20
   3   2   1 1864.41   43.00
  -3  -2  -1 1700.83   43.60
  -3  -2  -1 1865.21   43.20
  -3  -2  -1 1769.52   44.30
  -3  -2  -1 1823.22   43.50
   2   2   1 2709.43   61.99
   2   2   1 2576.54   61.79
   2   2   1 2576.54   61.79
   2   2   1 2761.92   62.49
   2   2   1 2754.82   62.79
  -2  -2  -1 2746.03   62.49
  -2  -2  -1 2706.03   61.89
  -2  -2  -1 2500.25   62.69
  -2  -2  -1 2705.93   61.89
  -2  -2  -1 2742.63   62.09
  -2  -2  -1 2719.33   62.09
   1   2   1 3022.10   67.69
   1   2   1 3015.90   67.99
   1   2   1 2915.41   67.49
   1   2   1 3023.10   67.99
   1   2   1 2915.41   67.49
   1   2   1 2901.41   67.79
  -1  -2  -1 3030.90   67.89
  -1  -2  -1 2874.61   67.79
  -1  -2  -1 2807.42   67.59
  -1  -2  -1 2933.31   67.49
  -1  -2  -1 2933.31   67.49
  -1  -2  -1 2973.60   68.09
   0   2   1 3090.49   70.89
   0   2   1 3140.69   71.49
   0   2   1 3036.80   70.89
   0   2   1 3085.79   70.89
   0   2   1 3177.78   71.69
   0   2   1 3177.48   70.49
   0   2   1 3177.48   70.49
   0   2   1 3201.38   70.89
   0  -2  -1 2963.70   70.39
   0  -2  -1 2963.70   70.39
   0  -2  -1 3071.89   70.89
   0  -2  -1 3082.69   70.99
   0  -2  -1 3024.10   70.89
  -1   2   1 9579.94  216.88
  -1   2   1 9579.94  216.88
  -1   2   1 9567.74  220.38
  -1   2   1 9253.17  219.08
  -1   2   1 9597.14  221.18
   1  -2  -1 9413.46  217.08
   1  -2  -1 9413.26  217.08
   1  -2  -1 9667.73  221.08
   1  -2  -1 9665.63  220.98
   1  -2  -1 9303.57  218.88
  -2   2   1  765.82   19.10
  -2   2   1  793.12   18.00
  -2   2   1  793.12   18.00
  -2   2   1  747.53   18.60
  -2   2   1  795.12   18.00
  -2   2   1  791.82   19.30
   2  -2  -1  774.82   18.00
   2  -2  -1  768.72   19.10
   2  -2  -1  764.72   17.90
   2  -2  -1  710.63   19.00
   2  -2  -1  774.82   18.00
  -3   2   1  125.59    5.00
  -3   2   1  130.09    5.60
  -3   2   1  131.59    3.90
  -3   2   1  134.59    4.70
  -3   2   1  126.59    4.20
  -3   2   1  131.59    3.90
  -3   2   1  131.89    5.20
   3  -2  -1  133.29    4.10
   3  -2  -1  129.09    3.90
   3  -2  -1  122.19    5.30
   3  -2  -1  121.79    5.10
   3  -2  -1  129.09    3.90
   3  -2  -1  119.59    5.00
  -4   2   1  264.17    7.90
  -4   2   1  253.87    9.00
  -4   2   1  260.37    7.20
  -4   2   1  260.27    7.20
  -4   2   1  253.97    8.40
   4  -2  -1  267.67    8.80
   4  -2  -1  257.77    7.70
   4  -2  -1  268.37    7.20
   4  -2  -1  268.47    7.20
   4  -2  -1  253.37    9.00
   4  -2  -1  259.37    8.60
  -5   2   1  288.27    8.40
  -5   2   1  303.17    9.20
  -5   2   1  285.27    9.40
  -5   2   1  300.67   10.30
  -5   2   1  288.27    8.40
  -5   2   1  290.37   10.40
   5  -2  -1  297.87   10.40
   5  -2  -1  302.47    9.20
   5  -2  -1  298.47    8.30
   5  -2  -1  291.17   10.10
   5  -2  -1  298.47    8.30
  -6   2   1  180.18    7.20
  -6   2   1  177.48    7.70
  -6   2   1  181.58    8.50
  -6   2   1  166.28    6.40
  -6   2   1  166.28    6.40
   6  -2  -1  185.18    8.50
   6  -2  -1  174.38    7.40
   6  -2  -1  174.58    6.10
   6  -2  -1  175.88    8.20
   6  -2  -1  174.58    6.10
  -7   2   1   53.29    6.00
  -7   2   1   52.49    5.20
  -7   2   1   63.59    6.70
   7  -2  -1   56.69    6.90
   7  -2  -1   50.39    4.20
   7  -2  -1   57.79    6.30
   7  -2  -1   50.39    4.20
  -8   2   1   57.39    5.30
  -8   2   1   62.19    6.80
  -8   2   1   49.20    6.50
   8  -2  -1   58.49    5.30
   8  -2  -1   58.49    5.30
   8  -2  -1   52.19    6.40
  -9   2   1  105.59    8.50
  -9   2   1  114.09   11.70
   9  -2  -1  106.69    7.90
   9  -2  -1  115.59   12.90
   9  -2  -1  111.59   11.70
   9  -2  -1  106.69    7.90
   9   2   0   -0.10    4.90
   9   2   0   -0.10    4.90
   9   2   0    8.00    8.30
  -9  -2   0    4.60    7.90
  -9  -2   0    6.90    7.10
   8   2   0    4.10    3.60
   8   2   0    9.60    4.50
   8   2   0    4.10    3.60
   8   2   0   12.00    4.70
  -8  -2   0    5.90    5.30
  -8  -2   0    3.10    5.10
   7   2   0  169.18    8.80
   7   2   0  170.98    7.50
   7   2   0  188.68    9.30
   7   2   0  170.98    7.50
  -7  -2   0  155.18    7.20
  -7  -2   0  174.28    9.60
   6   2   0  266.07    8.80
   6   2   0  266.07    8.80
   6   2   0  262.97   10.30
   6   2   0  265.37    9.70
  -6  -2   0  256.97   10.40
  -6  -2   0  239.58    9.20
  -6  -2   0  262.37   11.10
  -6  -2   0  252.77    8.20
   5   2   0  189.58    7.40
   5   2   0  199.88    6.80
   5   2   0  199.88    6.80
   5   2   0  196.48   10.10
   5   2   0  189.58    7.40
   5   2   0  202.38    7.40
   5   2   0  210.78    8.30
  -5  -2   0  198.58    6.40
  -5  -2   0  200.08    8.10
  -5  -2   0  209.88    8.70
  -5  -2   0  199.88    7.00
  -5  -2   0  181.18    7.70
   4   2   0  222.08    6.70
   4   2   0  220.68    7.80
   4   2   0  209.98    7.80
   4   2   0  213.48    6.90
   4   2   0  213.88    6.90
   4   2   0  222.08    6.70
   4   2   0  191.28    7.50
   4   2   0  207.48    7.00
  -4  -2   0  213.58    6.60
  -4  -2   0  205.08    7.40
  -4  -2   0  221.38    8.20
  -4  -2   0  211.58    6.20
  -4  -2   0  213.98    7.60
   3   2   0  141.69    5.00
   3   2   0  139.09    5.50
   3   2   0  141.19    4.60
   3   2   0  141.19    4.60
   3   2   0  132.19    5.20
   3   2   0  132.89    5.30
  -3  -2   0  129.39    5.60
  -3  -2   0  135.39    5.20
  -3  -2   0  136.29    5.10
   2   2   0 3992.60   92.89
   2   2   0 4079.49   94.09
   2   2   0 4106.19   93.29
   2   2   0 4070.79   92.79
   2   2   0 4232.18   92.49
   2   2   0 3987.20   92.39
   2   2   0 3987.30   92.39
   2   2   0 4232.18   92.49
  -2  -2   0 3990.80   92.69
  -2  -2   0 4062.89   92.29
  -2  -2   0 3756.62   93.39
  -2  -2   0 3991.60   92.89
   1   2   0 6145.38  144.99
   1   2   0 6538.15  145.69
   1   2   0 6406.86  147.99
   1   2   0 6156.88  146.79
   1   2   0 6617.84  148.19
   1   2   0 6145.38  144.99
   1   2   0 6538.15  145.69
   1   2   0 6405.96  146.69
  -1  -2   0 6252.37  148.19
  -1  -2   0 6459.05  146.29
  -1  -2   0 6226.48  147.79
  -1  -2   0 6495.75  148.19
   0   2   0 1705.43   40.00
   0   2   0 1706.53   40.10
   0   2   0 1792.72   39.60
   0   2   0 1750.52   40.00
   0   2   0 1792.82   39.60
   0   2   0 1797.92   40.10
   0   2   0 1620.44   40.10
   0   2   0 1702.53   40.30
   0  -2   0 1687.43   40.10
   0  -2   0 1797.52   39.70
   0  -2   0 1699.93   40.00
   0  -2   0 1797.52   39.70
  -1   2   0 6648.03  150.18
  -1   2   0 6680.13  146.89
  -1   2   0 6680.23  146.89
  -1   2   0 6413.96  151.08
  -1   2   0 6541.35  148.59
   1  -2   0 6329.47  146.79
   1  -2   0 6402.46  148.39
   1  -2   0 6116.29  148.29
   1  -2   0 6329.57  146.79
   1  -2   0 6472.75  151.18
  -2   2   0 4014.20   92.29
  -2   2   0 3665.83   93.09
  -2   2   0 4079.49   91.09
  -2   2   0 3970.80   92.29
  -2   2   0 4094.09   92.59
  -2   2   0 4079.39   91.09
   2  -2   0 4012.40   92.39
   2  -2   0 3950.10   91.79
   2  -2   0 4096.69   92.39
   2  -2   0 4079.49   91.79
   2  -2   0 4171.38   92.69
   2  -2   0 3810.52   92.39
   2  -2   0 4079.69   91.79
  -3   2   0  137.89    5.80
  -3   2   0  130.49    5.30
  -3   2   0  133.99    3.90
  -3   2   0  133.99    3.90
  -3   2   0  137.29    4.70
  -3   2   0  134.99    5.30
  -3   2   0  135.49    4.60
   3  -2   0  130.99    4.40
   3  -2   0  135.39    3.90
   3  -2   0  128.69    5.20
   3  -2   0  123.19    5.30
   3  -2   0  126.79    5.30
   3  -2   0  135.39    3.90
  -4   2   0  216.78    6.10
  -4   2   0  216.78    6.10
  -4   2   0  217.98    8.10
  -4   2   0  216.98    7.70
  -4   2   0  202.38    7.00
  -4   2   0  205.58    7.90
  -4   2   0  205.78    6.80
   4  -2   0  218.88    7.80
   4  -2   0  206.88    7.70
   4  -2   0  219.48    6.00
   4  -2   0  192.58    7.60
   4  -2   0  219.48    6.00
   4  -2   0  209.38    6.80
  -5   2   0  198.38    9.20
  -5   2   0  207.88    8.60
  -5   2   0  207.38    7.10
  -5   2   0  193.38    7.70
   5  -2   0  204.28    6.60
   5  -2   0  206.58    8.40
   5  -2   0  202.08    6.20
   5  -2   0  204.18    6.60
   5  -2   0  202.08    6.20
   5  -2   0  198.48    8.20
   5  -2   0  200.38    7.40
  -6   2   0  268.17   10.70
  -6   2   0  264.67    9.90
  -6   2   0  244.38    8.80
   6  -2   0  252.47    8.60
   6  -2   0  260.47   10.50
   6  -2   0  252.47    8.60
   6  -2   0  255.87    7.90
   6  -2   0  255.87    7.90
   6  -2   0  239.18    9.40
   6  -2   0  257.87   10.50
  -7   2   0  155.18    7.50
  -7   2   0  157.08    8.90
  -7   2   0  166.48    9.80
   7  -2   0  166.28    6.60
   7  -2   0  166.28    6.60
   7  -2   0  178.98    9.50
   7  -2   0  174.28    9.90
  -8   2   0    6.90    4.10
  -8   2   0   12.40    5.50
   8  -2   0   10.20    4.70
   8  -2   0    4.70    3.20
   8  -2   0    4.70    3.20
   8  -2   0    7.40    5.40
  -9   2   0   -4.70    7.00
  -9   2   0    9.10   11.20
   9  -2   0   17.40    7.60
   9   2  -1  132.89   11.80
   9   2  -1  111.79    8.50
   9   2  -1  111.79    8.50
  -9  -2   1  113.09   13.30
  -9  -2   1  119.79   12.20
   8   2  -1   64.39    7.80
   8   2  -1   59.59    5.00
   8   2  -1   59.59    5.00
   8   2  -1   57.39    6.50
  -8  -2   1   62.59    5.50
  -8  -2   1   51.59    6.80
  -8  -2   1   60.89    7.60
   7   2  -1   63.59    5.70
   7   2  -1   67.89    6.40
  -7  -2   1   53.49    5.10
  -7  -2   1   56.19    6.60
  -7  -2   1   62.19    7.30
  -7  -2   1   52.39    6.00
   6   2  -1  179.08    7.10
   6   2  -1  161.38    6.50
   6   2  -1  161.38    6.50
   6   2  -1  170.38    8.00
  -6  -2   1  184.88    8.50
  -6  -2   1  175.28    6.60
  -6  -2   1  168.38    6.70
  -6  -2   1  179.68    8.90
   5   2  -1  283.17    9.90
   5   2  -1  291.17    8.80
   5   2  -1  283.27    9.70
   5   2  -1  283.97    8.70
   5   2  -1  291.17    8.80
  -5  -2   1  271.37    8.60
  -5  -2   1  292.27    8.40
  -5  -2   1  298.17   10.30
  -5  -2   1  288.07    8.40
  -5  -2   1  294.27   10.50
  -5  -2   1  267.07    9.60
  -5  -2   1  271.37    8.60
   4   2  -1  249.08    7.50
   4   2  -1  247.08    8.50
   4   2  -1  238.58    8.20
   4   2  -1  249.08    7.50
   4   2  -1  253.07    8.40
   4   2  -1  254.77    7.40
  -4  -2   1  249.08    8.50
  -4  -2   1  251.87    7.50
  -4  -2   1  260.07    8.90
  -4  -2   1  260.57    7.30
  -4  -2   1  260.37    8.20
  -4  -2   1  251.87    7.50
   3   2  -1  124.89    4.90
   3   2  -1  120.59    5.00
   3   2  -1  124.99    4.30
   3   2  -1  124.99    4.30
   3   2  -1  126.29    4.90
   3   2  -1  123.89    3.90
  -3  -2   1  122.29    4.20
  -3  -2   1  124.59    4.70
  -3  -2   1  124.79    5.30
  -3  -2   1  123.19    4.20
  -3  -2   1  123.19    4.20
  -3  -2   1  131.99    3.70
   2   2  -1  766.62   18.50
   2   2  -1  786.82   18.90
   2   2  -1  779.52   17.80
   2   2  -1  772.32   19.20
  -2  -2   1  762.02   18.30
  -2  -2   1  762.62   17.70
  -2  -2   1  752.22   18.40
  -2  -2   1  752.22   18.40
  -2  -2   1  762.72   19.00
  -2  -2   1  754.92   19.20
   1   2  -1 9831.82  223.38
   1   2  -1 9831.42  223.38
   1   2  -1 9999.00  226.68
   1   2  -1 9647.23  225.68
   1   2  -1 9823.72  221.98
   1   2  -1 9716.83  222.28
   1   2  -1 9793.32  225.58
  -1  -2   1 9617.14  222.08
  -1  -2   1 9617.24  222.08
  -1  -2   1 9180.88  225.38
  -1  -2   1 9888.81  225.88
  -1  -2   1 9653.83  222.48
  -1  -2   1 9801.72  221.88
   0   2  -1 3218.18   73.59
   0   2  -1 3151.58   73.19
   0   2  -1 3239.88   72.59
   0   2  -1 3078.29   72.99
   0   2  -1 3047.30   72.69
   0   2  -1 3177.08   72.79
   0   2  -1 3239.88   72.59
   0  -2   1 3192.48   72.49
   0  -2   1 3167.48   72.79
   0  -2   1 3179.58   73.79
   0  -2   1 3248.27   73.39
   0  -2   1 3192.48   72.49
  -1   2  -1 3036.20   67.59
  -1   2  -1 3050.49   68.39
  -1   2  -1 2855.31   68.19
  -1   2  -1 2986.30   68.69
  -1   2  -1 3036.20   67.59
  -1   2  -1 2752.62   68.59
   1  -2   1 3018.00   68.29
   1  -2   1 2924.01   68.39
   1  -2   1 2921.01   68.69
   1  -2   1 3082.89   67.69
   1  -2   1 2957.30   68.69
   1  -2   1 3082.89   67.69
  -2   2  -1 2833.62   63.49
  -2   2  -1 2727.83   62.99
  -2   2  -1 2782.52   63.59
  -2   2  -1 2677.73   63.49
   2  -2   1 2701.53   62.69
   2  -2   1 2773.62   63.59
   2  -2   1 2743.63   61.99
   2  -2   1 2714.63   61.99
   2  -2   1 2743.63   61.99
   2  -2   1 2710.73   63.39
   2  -2   1 2734.93   63.39
   2  -2   1 2481.45   63.19
   2  -2   1 2714.63   61.99
  -3   2  -1 1768.52   43.70
  -3   2  -1 1673.83   43.40
  -3   2  -1 1809.22   42.90
  -3   2  -1 1801.22   43.60
   3  -2   1 1752.12   43.50
   3  -2   1 1833.92   43.40
   3  -2   1 1831.62   41.70
   3  -2   1 1896.41   42.80
   3  -2   1 1860.81   41.70
   3  -2   1 1831.62   41.70
   3  -2   1 1860.81   41.70
   3  -2   1 1689.23   43.30
   3  -2   1 1833.32   42.30
  -4   2  -1 1373.26   35.70
  -4   2  -1 1404.26   34.10
  -4   2  -1 1404.66   35.90
  -4   2  -1 1430.06   35.10
  -4   2  -1 1396.76   35.80
   4  -2   1 1460.85   35.70
   4  -2   1 1447.46   35.70
   4  -2   1 1442.96   33.50
   4  -2   1 1449.55   33.60
   4  -2   1 1408.36   34.70
   4  -2   1 1449.55   33.60
   4  -2   1 1419.56   35.60
   4  -2   1 1442.96   33.50
  -5   2  -1   40.30    3.70
  -5   2  -1   35.80    4.30
  -5   2  -1   31.30    3.60
   5  -2   1   34.80    3.20
   5  -2   1   36.40    4.20
   5  -2   1   34.80    3.20
   5  -2   1   29.70    2.70
   5  -2   1   41.20    4.50
   5  -2   1   29.70    2.70
   5  -2   1   33.60    4.10
  -6   2  -1  156.38    8.40
  -6   2  -1  156.58    8.10
  -6   2  -1  155.58    6.70
   6  -2   1  151.68    5.80
   6  -2   1  151.68    5.80
   6  -2   1  142.29    6.60
   6  -2   1  142.29    6.60
   6  -2   1  150.18    8.50
   6  -2   1  144.79    8.30
  -7   2  -1   78.99    8.00
  -7   2  -1   51.59    4.80
  -7   2  -1   59.89    7.30
   7  -2   1   57.39    4.80
   7  -2   1   65.59    8.00
   7  -2   1   54.69    6.80
   7  -2   1   57.39    4.80
  -8   2  -1   29.70    6.40
  -8   2  -1   38.80    6.90
   8  -2   1   34.80    4.30
   8  -2   1   42.90    6.40
   8  -2   1   45.60    7.40
   8  -2   1   34.80    4.30
   9   2  -2   90.09   10.80
   9   2  -2   81.79    9.20
   9   2  -2   71.99    6.30
   9   2  -2   71.99    6.30
  -9  -2   2   62.49    8.60
  -9  -2   2   74.69    9.00
  -9  -2   2   75.29    7.00
   8   2  -2   49.60    5.80
   8   2  -2   61.79    6.90
   8   2  -2   63.99    5.60
   8   2  -2   63.99    5.60
  -8  -2   2   53.99    6.30
  -8  -2   2   52.49    7.20
  -8  -2   2   57.69    6.30
   7   2  -2   31.60    3.60
   7   2  -2   32.50    4.50
  -7  -2   2   32.50    3.60
  -7  -2   2   28.40    4.40
  -7  -2   2   31.80    4.90
  -7  -2   2   33.40    3.90
   6   2  -2   19.60    3.20
   6   2  -2   17.60    2.30
   6   2  -2   25.80    2.80
   6   2  -2   17.60    2.30
  -6  -2   2   25.40    4.00
  -6  -2   2   27.20    3.20
  -6  -2   2   22.40    4.00
  -6  -2   2   23.30    2.60
   5   2  -2  236.98    7.60
   5   2  -2  247.78    7.30
   5   2  -2  229.38    8.80
   5   2  -2  238.68    8.40
   5   2  -2  236.98    7.60
  -5  -2   2  238.48    8.60
  -5  -2   2  238.18    7.70
  -5  -2   2  246.58    9.10
  -5  -2   2  238.18    7.80
  -5  -2   2  247.98    9.40
  -5  -2   2  235.48    7.60
  -5  -2   2  247.78    7.60
   4   2  -2  105.09    5.10
   4   2  -2  105.39    4.10
   4   2  -2   98.99    4.50
   4   2  -2  100.59    3.50
   4   2  -2  105.39    4.10
   4   2  -2  101.89    5.00
  -4  -2   2  104.29    5.40
  -4  -2   2  107.39    4.10
  -4  -2   2  102.29    5.00
  -4  -2   2  107.39    4.10
  -4  -2   2  106.79    3.40
  -4  -2   2  111.49    4.30
  -4  -2   2  108.89    4.60
   3   2  -2   20.10    2.30
   3   2  -2   12.60    1.40
   3   2  -2   18.00    2.10
   3   2  -2   12.60    1.40
   3   2  -2   21.00    2.50
   3   2  -2   19.50    2.30
   3   2  -2   19.00    1.10
  -3  -2   2   20.00    2.40
  -3  -2   2   17.10    2.10
  -3  -2   2   21.80    2.00
  -3  -2   2   22.10    0.90
  -3  -2   2   21.70    2.00
  -3  -2   2   21.00    2.30
   2   2  -2  107.99    3.60
   2   2  -2  107.99    3.60
   2   2  -2  111.29    4.30
   2   2  -2  113.89    4.50
   2   2  -2  110.39    3.30
  -2  -2   2  111.49    3.40
  -2  -2   2  111.09    3.80
  -2  -2   2  112.69    3.60
  -2  -2   2  115.09    4.30
  -2  -2   2  112.59    3.60
   1   2  -2 3836.72   90.49
   1   2  -2 3906.31   90.59
   1   2  -2 4056.99   90.59
   1   2  -2 3953.90   89.69
   1   2  -2 3953.90   89.69
  -1  -2   2 4167.88   90.69
  -1  -2   2 3509.85   90.99
  -1  -2   2 4061.99   89.79
  -1  -2   2 4062.09   89.79
  -1  -2   2 3818.12   90.09
  -1  -2   2 3986.00   90.69
   0   2  -2  539.45   13.60
   0   2  -2  549.65   12.70
   0   2  -2  524.75   13.80
   0   2  -2  513.55   13.60
   0   2  -2  550.84   12.90
   0   2  -2  551.34   13.60
   0   2  -2  549.65   12.70
   0  -2   2  551.74   12.90
   0  -2   2  529.65   13.70
   0  -2   2  549.74   12.70
   0  -2   2  531.55   13.40
   0  -2   2  549.74   12.70
  -1   2  -2  485.95   12.40
  -1   2  -2  497.75   12.40
  -1   2  -2  498.95   11.40
  -1   2  -2  498.95   11.40
  -1   2  -2  441.96   12.40
  -1   2  -2  479.85   13.00
   1  -2   2  489.95   12.50
   1  -2   2  496.75   11.40
   1  -2   2  496.75   11.40
   1  -2   2  464.55   12.30
   1  -2   2  465.05   12.30
   1  -2   2  479.75   12.60
  -2   2  -2 1630.24   41.20
  -2   2  -2 1745.13   41.10
  -2   2  -2 1767.92   39.90
  -2   2  -2 1790.62   41.90
  -2   2  -2 1767.92   39.90
  -2   2  -2 1804.72   41.40
   2  -2   2 1571.44   41.40
   2  -2   2 1781.12   39.80
   2  -2   2 1781.12   39.80
   2  -2   2 1643.04   41.20
   2  -2   2 1749.32   40.50
   2  -2   2 1767.52   41.00
   2  -2   2 1681.43   41.20
  -3   2  -2  274.37    9.30
  -3   2  -2  279.07    8.80
  -3   2  -2  282.87    9.00
  -3   2  -2  276.07    9.20
   3  -2   2  224.88    8.10
   3  -2   2  275.47    8.30
   3  -2   2  284.47    9.00
   3  -2   2  224.88    8.10
   3  -2   2  282.07    9.20
   3  -2   2  282.37    9.10
   3  -2   2  277.47    7.90
  -4   2  -2    7.70    2.40
  -4   2  -2   17.90    2.80
  -4   2  -2   13.20    2.10
  -4   2  -2   11.00    2.90
  -4   2  -2   17.00    3.30
   4  -2   2   14.20    1.60
   4  -2   2   18.10    3.10
   4  -2   2   14.60    1.70
   4  -2   2   14.60    1.70
   4  -2   2   11.40    2.30
   4  -2   2   11.20    3.20
   4  -2   2   15.50    2.60
   4  -2   2   14.20    1.60
   4  -2   2    9.90    2.10
  -5   2  -2  186.58    6.70
  -5   2  -2  179.58    8.60
  -5   2  -2  185.78    8.20
   5  -2   2  165.78    6.00
   5  -2   2  165.78    6.00
   5  -2   2  182.28    8.80
   5  -2   2  175.08    6.00
   5  -2   2  175.08    6.00
   5  -2   2  178.08    8.20
  -6   2  -2   37.20    3.90
  -6   2  -2   33.90    4.90
  -6   2  -2   52.79    6.00
   6  -2   2   34.30    5.10
   6  -2   2   36.50    3.20
   6  -2   2   37.00    3.60
   6  -2   2   37.00    3.60
   6  -2   2   36.50    3.20
   6  -2   2   49.70    5.70
  -7   2  -2   15.30    5.00
  -7   2  -2   30.70    7.00
  -7   2  -2   22.80    5.50
   7  -2   2   17.20    5.80
   7  -2   2   23.80    3.20
   7  -2   2   23.80    3.30
   7  -2   2   22.30    4.80
  -8   2  -2   21.90    6.70
  -8   2  -2   16.20    6.70
   8  -2   2   25.40    5.70
   8  -2   2    5.60    6.50
   9   2  -3   -1.50    4.00
   9   2  -3    1.00    5.50
   9   2  -3   -1.50    4.00
   9   2  -3    3.00    6.10
  -9  -2   3  -12.10    5.80
  -9  -2   3   -7.40    4.50
   8   2  -3   22.60    3.60
   8   2  -3   19.90    5.00
   8   2  -3   21.90    4.60
   8   2  -3   22.60    3.60
  -8  -2   3   17.80    4.20
  -8  -2   3   14.30    4.90
   7   2  -3   11.30    2.70
   7   2  -3   15.80    3.50
   7   2  -3   13.00    3.70
  -7  -2   3   13.60    3.30
  -7  -2   3   11.40    3.60
  -7  -2   3   14.00    2.60
   6   2  -3   43.00    3.40
   6   2  -3   48.00    5.20
   6   2  -3   44.40    3.70
   6   2  -3   44.40    3.70
   6   2  -3   48.60    4.80
  -6  -2   3   46.70    4.60
  -6  -2   3   41.20    4.20
  -6  -2   3   39.60    4.10
  -6  -2   3   42.90    4.70
   5   2  -3  132.49    4.40
   5   2  -3  130.89    6.40
   5   2  -3  133.39    6.60
   5   2  -3  136.39    5.30
   5   2  -3  129.09    5.70
   5   2  -3  136.39    5.30
  -5  -2   3  137.49    5.60
  -5  -2   3  137.09    6.60
  -5  -2   3  135.19    5.50
  -5  -2   3  135.19    5.50
  -5  -2   3  139.79    6.30
  -5  -2   3  133.99    4.10
   4   2  -3   81.89    4.60
   4   2  -3   88.09    4.70
   4   2  -3   86.49    3.90
   4   2  -3   80.69    3.60
   4   2  -3   80.69    3.60
  -4  -2   3   83.09    4.60
  -4  -2   3   99.39    4.00
  -4  -2   3   83.79    2.60
  -4  -2   3   87.29    4.20
   3   2  -3  190.38    6.60
   3   2  -3  198.78    6.80
   3   2  -3  182.98    5.80
   3   2  -3  188.68    6.90
   3   2  -3  182.98    5.80
   3   2  -3  192.58    5.70
  -3  -2   3  201.88    6.00
  -3  -2   3  196.48    6.10
  -3  -2   3  202.18    7.00
  -3  -2   3  193.28    5.80
  -3  -2   3  201.88    6.00
   2   2  -3 1365.86   31.50
   2   2  -3 1392.26   31.60
   2   2  -3 1377.96   32.10
   2   2  -3 1377.96   32.10
   2   2  -3 1367.56   32.90
   2   2  -3 1272.07   32.90
  -2  -2   3 1310.57   33.10
  -2  -2   3 1395.66   32.50
  -2  -2   3 1394.46   32.10
  -2  -2   3 1410.86   31.60
  -2  -2   3 1323.07   33.10
  -2  -2   3 1397.96   31.60
  -2  -2   3 1394.46   32.10
   1   2  -3 2155.78   51.49
   1   2  -3 2188.68   50.59
   1   2  -3 2188.68   50.59
   1   2  -3 2318.87   50.69
   1   2  -3 1917.71   51.59
  -1  -2   3 2201.88   51.09
  -1  -2   3 2273.27   49.99
  -1  -2   3 2238.28   50.09
  -1  -2   3 2219.38   51.79
  -1  -2   3 2226.88   51.69
  -1  -2   3 2247.48   50.99
   0   2  -3  561.24   14.40
   0   2  -3  541.75   14.30
   0   2  -3  556.64   13.30
   0   2  -3  554.24   14.20
   0   2  -3  556.64   13.30
   0   2  -3  538.55   14.50
   0   2  -3  560.44   13.50
   0  -2   3  561.24   13.30
   0  -2   3  561.14   13.30
   0  -2   3  566.94   13.70
   0  -2   3  559.94   14.50
   0  -2   3  561.44   14.50
   0  -2   3  543.05   14.00
  -1   2  -3  843.72   19.10
  -1   2  -3  809.02   20.30
  -1   2  -3  843.72   19.10
  -1   2  -3  817.22   19.90
  -1   2  -3  790.52   20.30
  -1   2  -3  829.72   20.60
   1  -2   3  764.82   20.30
   1  -2   3  797.52   20.10
   1  -2   3  809.22   20.80
   1  -2   3  772.22   19.80
   1  -2   3  794.72   20.30
   1  -2   3  825.42   19.10
   1  -2   3  825.32   19.10
  -2   2  -3  377.56   10.80
  -2   2  -3  372.86   10.80
  -2   2  -3  358.26   10.90
  -2   2  -3  368.56   11.20
  -2   2  -3  388.76    9.50
  -2   2  -3  388.76    9.50
   2  -2   3  354.56   10.50
   2  -2   3  375.26   10.90
   2  -2   3  386.56   10.30
   2  -2   3  363.76   10.70
   2  -2   3  388.76   11.50
   2  -2   3  377.56   11.00
   2  -2   3  354.56   10.50
  -3   2  -3  603.34   15.00
  -3   2  -3  578.64   16.60
  -3   2  -3  603.34   15.00
  -3   2  -3  580.94   16.90
  -3   2  -3  601.24   16.80
  -3   2  -3  593.04   17.00
   3  -2   3  619.64   14.90
   3  -2   3  628.64   15.60
   3  -2   3  622.54   16.90
   3  -2   3  581.54   16.30
   3  -2   3  582.04   16.70
   3  -2   3  619.64   14.90
   3  -2   3  617.14   17.20
  -4   2  -3  268.47    9.90
  -4   2  -3  267.47   10.40
   4  -2   3  254.97    7.70
   4  -2   3  251.57   10.10
   4  -2   3  304.67   12.60
   4  -2   3  266.27    7.70
   4  -2   3  278.47    8.40
   4  -2   3  266.27    7.70
   4  -2   3  272.47    9.90
   4  -2   3  254.97    7.70
  -5   2  -3   -0.50    3.20
  -5   2  -3    0.40    2.60
  -5   2  -3    2.30    2.90
   5  -2   3    1.10    2.20
   5  -2   3    3.40    2.50
   5  -2   3    1.40    1.80
   5  -2   3    1.90    3.20
   5  -2   3    1.10    2.20
   5  -2   3    1.40    1.80
  -6   2  -3   34.00    5.30
  -6   2  -3   26.60    5.40
  -6   2  -3   32.50    4.30
   6  -2   3   33.70    5.50
   6  -2   3   26.00    3.00
   6  -2   3   26.00    3.00
   6  -2   3   27.90    4.30
  -7   2  -3   24.70    5.80
  -7   2  -3   28.00    6.10
   7  -2   3   25.50    3.70
   7  -2   3   25.50    3.70
   7  -2   3   34.00    5.50
   7  -2   3   28.50    6.60
  -8   2  -3   30.70    7.40
  -8   2  -3   11.00    7.30
   8  -2   3   17.10    7.70
   9   2  -4   19.90    6.30
   9   2  -4   21.40    6.00
  -9  -2   4   25.20    6.30
  -9  -2   4   20.90    5.20
   8   2  -4  148.09    9.50
   8   2  -4  167.68    7.70
   8   2  -4  167.68    7.70
  -8  -2   4  161.88   10.20
  -8  -2   4  152.98    8.30
   7   2  -4  117.69    5.90
   7   2  -4  110.09    4.90
   7   2  -4  122.19    7.30
   7   2  -4  117.59    5.90
   7   2  -4  118.69    7.70
  -7  -2   4  117.69    4.70
  -7  -2   4  115.19    6.60
  -7  -2   4  105.89    7.60
   6   2  -4  149.19    4.70
   6   2  -4  150.48    7.00
   6   2  -4  150.28    7.50
   6   2  -4  166.38    6.20
   6   2  -4  166.38    6.20
  -6  -2   4  149.39    7.60
  -6  -2   4  150.08    6.70
  -6  -2   4  148.89    4.60
  -6  -2   4  157.18    7.90
   5   2  -4   87.79    4.60
   5   2  -4   84.39    4.10
   5   2  -4   86.49    5.30
   5   2  -4   84.39    4.10
   5   2  -4   87.89    5.60
  -5  -2   4   87.89    5.50
  -5  -2   4   85.09    5.10
   4   2  -4   74.49    3.60
   4   2  -4   74.59    3.60
   4   2  -4   73.39    4.40
   4   2  -4   73.59    4.40
   4   2  -4   74.59    3.70
   4   2  -4   76.09    4.70
  -4  -2   4   68.49    4.50
  -4  -2   4   73.79    3.80
  -4  -2   4   74.99    3.90
  -4  -2   4   75.69    4.10
  -4  -2   4   74.99    3.90
   3   2  -4  224.28    7.80
   3   2  -4  236.18    6.60
   3   2  -4  230.48    7.70
   3   2  -4  229.98    6.80
   3   2  -4  229.98    6.80
  -3  -2   4  233.78    7.30
  -3  -2   4  234.38    6.00
  -3  -2   4  234.98    6.50
  -3  -2   4  232.48    6.10
  -3  -2   4  239.88    7.00
  -3  -2   4  239.88    7.00
  -3  -2   4  245.18    8.10
  -3  -2   4  225.08    7.90
   2   2  -4  113.79    3.70
   2   2  -4  118.09    3.40
   2   2  -4  113.69    4.00
   2   2  -4  113.69    4.00
   2   2  -4  118.59    4.80
   2   2  -4  116.59    4.90
  -2  -2   4  116.59    4.00
  -2  -2   4  118.59    4.60
  -2  -2   4  107.29    4.80
  -2  -2   4  115.79    3.90
  -2  -2   4  116.59    4.00
  -2  -2   4  117.39    3.40
  -2  -2   4  110.39    4.90
   1   2  -4  718.73   17.20
   1   2  -4  711.23   17.50
   1   2  -4  718.73   17.20
   1   2  -4  679.23   18.10
  -1  -2   4  738.13   17.90
  -1  -2   4  717.83   16.90
  -1  -2   4  723.63   18.50
  -1  -2   4  714.83   18.00
  -1  -2   4  719.53   16.80
  -1  -2   4  698.23   17.20
  -1  -2   4  698.23   17.20
  -1  -2   4  684.43   18.50
   0   2  -4   63.49    3.50
   0   2  -4   64.99    2.70
   0   2  -4   61.09    3.50
   0   2  -4   57.09    3.90
   0   2  -4   57.69    3.30
   0   2  -4   62.49    2.60
   0   2  -4   62.49    2.60
   0  -2   4   68.19    4.30
   0  -2   4   65.99    3.00
   0  -2   4   59.89    3.40
   0  -2   4   65.09    2.60
   0  -2   4   66.19    3.50
   0  -2   4   65.09    2.60
  -1   2  -4  761.12   20.00
  -1   2  -4  757.02   19.90
  -1   2  -4  762.82   19.60
  -1   2  -4  771.62   18.60
  -1   2  -4  771.52   18.60
  -1   2  -4  754.82   19.30
   1  -2   4  793.22   20.60
   1  -2   4  775.62   19.70
   1  -2   4  780.92   18.50
   1  -2   4  763.92   19.80
   1  -2   4  783.22   19.40
   1  -2   4  768.92   20.00
   1  -2   4  780.92   18.50
  -2   2  -4   12.60    2.10
  -2   2  -4   15.70    2.20
  -2   2  -4    8.70    2.30
  -2   2  -4   14.00    1.50
  -2   2  -4   14.00    1.50
  -2   2  -4   11.50    2.00
   2  -2   4   16.20    2.60
   2  -2   4   14.50    1.60
   2  -2   4   14.50    1.60
   2  -2   4   14.10    2.70
   2  -2   4   13.80    2.80
   2  -2   4   10.50    2.20
   2  -2   4   12.80    2.20
  -3   2  -4   11.20    2.20
  -3   2  -4   15.80    1.90
  -3   2  -4   15.80    1.90
  -3   2  -4    9.80    2.60
  -3   2  -4   14.40    3.00
   3  -2   4   11.10    1.80
   3  -2   4   14.20    2.60
   3  -2   4   11.00    1.80
   3  -2   4   16.90    3.50
   3  -2   4   16.90    3.10
   3  -2   4   11.50    2.70
  -4   2  -4  216.88    9.60
  -4   2  -4  218.38    9.30
   4  -2   4  230.18    7.60
   4  -2   4  212.48    9.00
   4  -2   4  223.38    7.10
   4  -2   4  206.78    9.60
   4  -2   4  222.68    7.00
   4  -2   4  223.38    7.10
   4  -2   4  222.68    7.00
  -5   2  -4   34.20    4.90
  -5   2  -4   40.80    5.30
  -5   2  -4   35.40    3.80
   5  -2   4   25.10    3.30
   5  -2   4   25.00    3.30
   5  -2   4   42.80    3.70
   5  -2   4   42.80    3.70
   5  -2   4   46.70    5.20
   5  -2   4   32.00    5.20
  -6   2  -4   21.40    5.50
  -6   2  -4   20.60    5.10
   6  -2   4   32.80    6.10
   6  -2   4   24.20    4.80
   6  -2   4   20.10    3.00
   6  -2   4   20.10    3.00
  -7   2  -4  108.59   11.70
  -7   2  -4  111.39   11.30
   7  -2   4  120.69   10.50
   7  -2   4  133.49   13.10
   9   2  -5   14.00    4.30
   9   2  -5   14.00    4.30
   9   2  -5   15.00    5.70
   9   2  -5   19.90    6.20
  -9  -2   5   14.30    5.50
  -9  -2   5    8.80    5.00
   8   2  -5   29.10    3.70
   8   2  -5   29.10    3.70
  -8  -2   5   41.30    5.90
  -8  -2   5   25.90    4.50
   7   2  -5   22.90    4.00
   7   2  -5   27.50    4.30
   7   2  -5   33.60    3.50
   7   2  -5   33.60    3.50
  -7  -2   5   22.90    4.00
  -7  -2   5   28.40    3.90
   6   2  -5  274.97    9.00
   6   2  -5  274.97    9.00
   6   2  -5  272.87   10.40
   6   2  -5  276.37    9.70
  -6  -2   5  267.87    9.60
  -6  -2   5  261.57   10.10
  -6  -2   5  273.77   11.00
   5   2  -5  197.78    7.10
   5   2  -5  185.78    8.40
   5   2  -5  192.88    8.00
   5   2  -5  195.48    6.80
   5   2  -5  195.48    6.80
  -5  -2   5  192.58    7.40
  -5  -2   5  192.28    7.30
  -5  -2   5  195.28    8.40
   4   2  -5   96.69    4.10
   4   2  -5   96.69    5.10
   4   2  -5   95.59    5.30
   4   2  -5   97.39    5.80
   4   2  -5   91.29    4.10
   4   2  -5   91.29    4.10
  -4  -2   5   94.39    4.10
  -4  -2   5   83.49    5.20
  -4  -2   5   90.99    5.30
  -4  -2   5   99.09    4.50
  -4  -2   5   95.99    3.10
  -4  -2   5   99.09    4.50
  -4  -2   5   95.29    3.30
   3   2  -5   65.59    3.20
   3   2  -5   60.49    2.90
   3   2  -5   63.19    2.80
   3   2  -5   63.59    3.90
   3   2  -5   65.59    3.20
   3   2  -5   63.69    4.00
  -3  -2   5   64.09    2.80
  -3  -2   5   64.69    2.80
  -3  -2   5   59.89    3.80
  -3  -2   5   70.99    3.40
  -3  -2   5   70.99    3.40
  -3  -2   5   66.39    4.40
  -3  -2   5   61.29    4.30
   2   2  -5 2064.49   51.39
   2   2  -5 2146.49   50.19
   2   2  -5 2152.58   50.29
   2   2  -5 2195.08   51.19
   2   2  -5 2146.49   50.19
  -2  -2   5 2138.49   51.59
  -2  -2   5 2256.27   50.99
  -2  -2   5 2167.08   50.29
  -2  -2   5 2166.58   49.60
  -2  -2   5 2154.38   51.69
  -2  -2   5 2159.98   49.70
  -2  -2   5 2167.08   50.29
  -2  -2   5 2070.09   50.99
   1   2  -5  832.22   21.10
   1   2  -5  840.02   20.70
   1   2  -5  821.12   21.40
   1   2  -5  819.02   20.10
   1   2  -5  819.02   20.10
  -1  -2   5  819.82   21.10
  -1  -2   5  840.72   20.80
  -1  -2   5  825.02   20.10
  -1  -2   5  832.82   19.80
  -1  -2   5  819.42   21.40
  -1  -2   5  818.92   21.70
  -1  -2   5  847.02   20.00
  -1  -2   5  825.02   20.10
   0   2  -5  340.17   10.60
   0   2  -5  344.87   10.30
   0   2  -5  360.36    9.30
   0   2  -5  340.27   10.10
   0   2  -5  348.17    9.70
   0   2  -5  341.47   10.50
   0   2  -5  360.36    9.30
   0  -2   5  348.67    9.70
   0  -2   5  345.07   11.00
   0  -2   5  352.46   10.10
   0  -2   5  350.16    9.30
   0  -2   5  350.16    9.30
   0  -2   5  354.76   10.80
  -1   2  -5  415.96   12.40
  -1   2  -5  407.26   11.50
  -1   2  -5  378.96   12.00
  -1   2  -5  401.96   11.60
  -1   2  -5  411.56   10.70
  -1   2  -5  411.56   10.70
  -1   2  -5  405.56   12.30
   1  -2   5  418.46   10.60
   1  -2   5  418.26   12.50
   1  -2   5  404.46   12.90
   1  -2   5  408.76   11.80
   1  -2   5  418.36   10.60
   1  -2   5  408.26   12.00
   1  -2   5  402.46   11.50
  -2   2  -5   43.90    3.00
  -2   2  -5   46.00    4.30
  -2   2  -5   43.90    3.00
  -2   2  -5   37.50    3.90
  -2   2  -5   43.30    4.00
   2  -2   5   45.60    4.20
   2  -2   5   48.80    3.10
   2  -2   5   48.80    3.10
   2  -2   5   49.30    4.50
   2  -2   5   44.10    5.00
   2  -2   5   40.90    4.80
  -3   2  -5  534.65   13.90
  -3   2  -5  518.65   15.80
  -3   2  -5  534.15   13.90
  -3   2  -5  506.05   16.10
   3  -2   5  533.15   14.40
   3  -2   5  516.85   15.80
   3  -2   5  513.35   13.60
   3  -2   5  513.25   13.60
   3  -2   5  507.15   16.00
   3  -2   5  531.25   16.60
  -4   2  -5  117.39    7.50
  -4   2  -5  103.89    7.60
   4  -2   5  102.49    4.90
   4  -2   5  106.39    5.90
   4  -2   5   97.89    5.30
   4  -2   5   97.89    5.30
   4  -2   5  102.49    4.90
   4  -2   5   99.39    6.70
  -5   2  -5  102.29    8.60
  -5   2  -5   98.59    8.50
   5  -2   5  101.99    5.50
   5  -2   5   95.29    7.50
   5  -2   5  101.99    5.50
   5  -2   5   98.79    8.70
  -6   2  -5    2.60    5.00
  -6   2  -5    6.10    5.00
   6  -2   5   16.00    5.40
   6  -2   5   11.40    3.30
   6  -2   5   11.40    3.40
   6  -2   5    3.70    5.60
  -7   2  -5   46.20    8.40
  -7   2  -5   50.09    8.60
   7  -2   5   64.79    9.50
   9   2  -6   26.90    6.40
   9   2  -6   24.70    6.40
   9   2  -6   32.00    5.00
   9   2  -6   32.10    5.00
  -9  -2   6   25.60    6.90
  -9  -2   6   15.00    4.90
   8   2  -6  166.18    9.90
   8   2  -6  173.98    8.10
   8   2  -6  173.98    8.10
  -8  -2   6  170.48    8.80
  -8  -2   6  148.29   10.30
   7   2  -6  226.08    8.70
   7   2  -6  226.28    9.70
   7   2  -6  226.08    8.70
   7   2  -6  227.38   10.30
  -7  -2   6  238.58    9.50
  -7  -2   6  232.88   11.10
   6   2  -6  826.22   22.80
   6   2  -6  801.12   21.30
   6   2  -6  801.12   21.30
   6   2  -6  817.32   21.60
  -6  -2   6  797.82   23.60
  -6  -2   6  801.22   21.80
  -6  -2   6  777.42   21.80
   5   2  -6  288.97    9.10
   5   2  -6  288.97    9.10
   5   2  -6  283.47   10.30
   5   2  -6  285.77    9.10
  -5  -2   6  282.37    7.70
  -5  -2   6  302.07   11.10
  -5  -2   6  292.57    9.90
  -5  -2   6  292.17    9.30
  -5  -2   6  288.37    7.40
   4   2  -6   51.79    3.40
   4   2  -6   53.29    4.60
   4   2  -6   51.79    3.40
   4   2  -6   51.59    3.30
   4   2  -6   50.79    4.50
  -4  -2   6   58.79    5.20
  -4  -2   6   57.59    3.50
  -4  -2   6   56.09    2.90
  -4  -2   6   55.49    4.30
  -4  -2   6   51.69    3.20
  -4  -2   6   60.19    5.50
   3   2  -6   44.80    4.10
   3   2  -6   47.10    2.60
   3   2  -6   45.30    3.00
   3   2  -6   49.40    3.30
   3   2  -6   45.90    3.80
   3   2  -6   45.30    3.00
  -3  -2   6   38.70    3.20
  -3  -2   6   43.40    2.70
  -3  -2   6   45.70    4.50
  -3  -2   6   42.90    4.10
  -3  -2   6   42.70    3.00
  -3  -2   6   38.70    3.20
   2   2  -6  190.58    7.00
   2   2  -6  183.58    6.10
   2   2  -6  177.58    7.10
   2   2  -6  181.98    6.40
   2   2  -6  183.58    6.10
  -2  -2   6  187.68    6.10
  -2  -2   6  182.88    7.40
  -2  -2   6  186.48    7.30
  -2  -2   6  194.48    5.80
  -2  -2   6  187.68    6.10
  -2  -2   6  179.28    5.40
  -2  -2   6  185.08    6.60
  -2  -2   6  187.08    6.80
   1   2  -6   25.50    2.70
   1   2  -6   26.30    3.20
   1   2  -6   28.80    3.20
   1   2  -6   30.10    2.40
   1   2  -6   30.10    2.40
   1   2  -6   27.00    2.90
  -1  -2   6   25.60    2.80
  -1  -2   6   22.20    2.90
  -1  -2   6   21.20    2.10
  -1  -2   6   21.20    2.10
  -1  -2   6   27.90    3.20
  -1  -2   6   25.00    2.20
  -1  -2   6   25.50    2.60
   0   2  -6    1.80    2.00
   0   2  -6    3.80    1.40
   0   2  -6    3.80    1.40
   0   2  -6    2.40    1.70
   0   2  -6    1.70    1.60
   0   2  -6    3.80    1.70
   0   2  -6    6.30    2.20
   0  -2   6    2.40    2.30
   0  -2   6   -0.10    2.40
   0  -2   6    4.30    2.60
   0  -2   6    4.30    1.60
   0  -2   6    1.70    1.60
   0  -2   6    1.70    1.60
  -1   2  -6  131.99    6.10
  -1   2  -6  144.19    5.10
  -1   2  -6  141.89    6.90
  -1   2  -6  136.69    5.90
  -1   2  -6  141.09    6.90
  -1   2  -6  144.19    5.10
   1  -2   6  140.79    6.40
   1  -2   6  142.39    5.30
   1  -2   6  142.39    5.20
   1  -2   6  148.09    7.60
   1  -2   6  142.59    6.50
  -2   2  -6  179.58    7.50
  -2   2  -6  186.48    6.40
  -2   2  -6  164.98    7.50
  -2   2  -6  187.28    8.20
  -2   2  -6  186.48    6.40
   2  -2   6  181.38    6.30
   2  -2   6  183.18    7.50
   2  -2   6  172.38    7.80
   2  -2   6  153.88    8.10
   2  -2   6  177.28    8.60
   2  -2   6  181.38    6.30
  -3   2  -6   17.70    2.60
  -3   2  -6   19.50    4.00
  -3   2  -6   17.70    2.60
  -3   2  -6   12.00    3.70
   3  -2   6   18.70    2.90
   3  -2   6   20.90    3.90
   3  -2   6   15.20    3.40
   3  -2   6   18.70    2.90
   3  -2   6   12.30    3.40
  -4   2  -6   69.39    7.10
  -4   2  -6   55.49    4.40
  -4   2  -6   62.49    7.50
  -4   2  -6   55.49    4.40
   4  -2   6   54.49    6.40
   4  -2   6   62.29    6.90
  -5   2  -6  160.98   11.00
   5  -2   6  177.98    7.70
   5  -2   6  180.08   11.10
   5  -2   6  176.58   10.20
   5  -2   6  177.98    7.70
  -6   2  -6   68.09    7.90
  -6   2  -6   67.39    8.40
   6  -2   6   74.29    9.00
   6  -2   6   60.49    7.50
   9   2  -7   -3.90    4.40
   9   2  -7   -3.90    4.40
   9   2  -7   -9.70    5.80
   9   2  -7   15.90    7.80
  -9  -2   7    2.60    6.10
  -9  -2   7    3.30    4.80
   8   2  -7   35.50    4.60
   8   2  -7   28.50    5.50
   8   2  -7   29.00    5.20
   8   2  -7   35.50    4.60
  -8  -2   7   30.70    6.20
  -8  -2   7   32.70    5.10
   7   2  -7   87.69    7.30
   7   2  -7   83.59    5.50
   7   2  -7   75.99    6.60
   7   2  -7   83.59    5.50
  -7  -2   7   83.99    8.20
  -7  -2   7   81.09    6.50
   6   2  -7  306.07   10.10
   6   2  -7  324.87   11.70
   6   2  -7  303.07   10.20
   6   2  -7  306.07   10.10
  -6  -2   7  294.17   10.80
  -6  -2   7  300.47   12.40
  -6  -2   7  302.47   10.80
   5   2  -7  270.37    8.60
   5   2  -7  266.07    8.80
   5   2  -7  266.07    8.80
   5   2  -7  277.77   10.30
  -5  -2   7  272.07    8.80
  -5  -2   7  267.07    7.60
  -5  -2   7  285.97   11.10
  -5  -2   7  232.78    8.80
  -5  -2   7  263.87    9.70
   4   2  -7  477.05   13.20
   4   2  -7  474.35   14.50
   4   2  -7  459.05   15.40
   4   2  -7  477.05   13.20
   4   2  -7  475.65   12.50
  -4  -2   7  455.95   12.90
  -4  -2   7  475.25   12.60
  -4  -2   7  463.35   12.50
  -4  -2   7  472.25   14.10
  -4  -2   7  477.15   15.00
   3   2  -7  225.88    7.60
   3   2  -7  238.68    8.80
   3   2  -7  226.98    8.80
   3   2  -7  225.88    7.60
   3   2  -7  237.28    8.00
  -3  -2   7  248.38    9.30
  -3  -2   7  234.78    7.30
  -3  -2   7  240.58    7.90
  -3  -2   7  240.78    7.10
  -3  -2   7  233.48    8.40
   2   2  -7   54.29    4.70
   2   2  -7   46.20    4.40
   2   2  -7   49.99    3.40
   2   2  -7   49.99    3.40
   2   2  -7   45.00    4.10
  -2  -2   7   49.80    4.50
  -2  -2   7   50.49    3.60
  -2  -2   7   47.90    3.40
  -2  -2   7   45.10    4.50
  -2  -2   7   51.39    4.50
  -2  -2   7   50.49    3.60
  -2  -2   7   48.60    2.90
   1   2  -7  219.28    8.10
   1   2  -7  216.68    8.30
   1   2  -7  224.08    8.60
   1   2  -7  229.68    7.20
   1   2  -7  228.18    8.20
   1   2  -7  229.68    7.20
  -1  -2   7  224.68    7.60
  -1  -2   7  217.98    8.20
  -1  -2   7  237.48    7.20
  -1  -2   7  213.28    7.30
  -1  -2   7  213.28    7.30
  -1  -2   7  239.98    9.10
   0   2  -7  380.36   11.70
   0   2  -7  394.16   10.90
   0   2  -7  394.16   10.90
   0   2  -7  385.66   12.00
   0   2  -7  388.56   12.70
   0   2  -7  378.86   11.60
   0  -2   7  395.66   12.00
   0  -2   7  380.06   13.30
   0  -2   7  373.76   10.80
   0  -2   7  373.66   10.80
   0  -2   7  388.16   11.50
  -1   2  -7  112.89    6.40
  -1   2  -7  112.09    5.60
  -1   2  -7  116.69    6.70
  -1   2  -7  110.59    6.70
  -1   2  -7  116.19    5.10
  -1   2  -7  116.19    5.10
   1  -2   7  115.49    6.30
   1  -2   7  100.79    6.50
   1  -2   7   95.09    5.10
   1  -2   7  121.09    7.70
   1  -2   7   95.09    5.10
  -2   2  -7  486.95   13.20
  -2   2  -7  460.05   15.80
  -2   2  -7  438.26   15.40
  -2   2  -7  486.95   13.20
  -2   2  -7  476.95   14.50
   2  -2   7  425.86   13.00
   2  -2   7  484.85   15.00
   2  -2   7  480.45   14.00
   2  -2   7  426.56   13.00
   2  -2   7  490.35   16.40
  -3   2  -7   44.30    3.80
  -3   2  -7   40.50    5.20
  -3   2  -7   37.80    5.30
  -3   2  -7   44.30    3.80
   3  -2   7   31.40    4.80
  -4   2  -7  153.58   10.30
  -4   2  -7  146.09   10.10
  -4   2  -7  146.59    7.60
  -4   2  -7  146.59    7.60
   4  -2   7  134.19    9.00
   4  -2   7  151.48    9.90
  -5   2  -7  209.08   13.50
  -5   2  -7  191.48   12.40
   5  -2   7  206.28   12.70
   5  -2   7  215.58   12.20
   9   2  -8   39.50    7.10
  -9  -2   8   28.40    5.70
  -9  -2   8   19.30    7.20
   8   2  -8   35.50    5.00
   8   2  -8   36.30    6.00
   8   2  -8   35.50    5.00
  -8  -2   8   38.00    5.30
  -8  -2   8   36.50    6.60
   7   2  -8  112.59    6.60
   7   2  -8  109.59    7.30
   7   2  -8  112.59    6.60
   7   2  -8  107.79    9.30
  -7  -2   8  121.29    9.70
  -7  -2   8  114.59    7.80
   6   2  -8  168.68    7.10
   6   2  -8  147.59    8.50
   6   2  -8  154.08    6.80
   6   2  -8  154.08    6.80
  -6  -2   8  144.59    5.60
  -6  -2   8  161.28    7.80
  -6  -2   8  167.48   11.40
   5   2  -8   28.60    2.90
   5   2  -8   27.10    3.80
   5   2  -8   30.80    3.70
   5   2  -8   28.60    2.90
  -5  -2   8   31.10    4.20
  -5  -2   8   32.80    4.90
  -5  -2   8   26.10    2.80
  -5  -2   8   38.30    4.70
  -5  -2   8   30.40    3.40
   4   2  -8  295.47    9.40
   4   2  -8  295.47    9.40
   4   2  -8  287.37   10.70
  -4  -2   8  285.37   10.50
  -4  -2   8  289.37    9.40
  -4  -2   8  281.77    9.60
  -4  -2   8  299.17   11.50
  -4  -2   8  292.77    8.60
  -4  -2   8  289.87    8.80
   3   2  -8  265.67   10.20
   3   2  -8  293.47   10.50
   3   2  -8  273.87    9.90
   3   2  -8  291.77    9.20
   3   2  -8  291.77    9.20
  -3  -2   8  295.87    8.30
  -3  -2   8  297.87   10.90
  -3  -2   8  286.77   10.20
  -3  -2   8  283.37    9.80
  -3  -2   8  290.17    8.70
   2   2  -8   61.49    5.70
   2   2  -8   71.69    5.20
   2   2  -8   74.19    5.20
   2   2  -8   69.79    4.20
   2   2  -8   67.39    5.50
   2   2  -8   69.79    4.20
  -2  -2   8   71.39    5.50
  -2  -2   8   72.69    3.80
  -2  -2   8   66.19    4.60
  -2  -2   8   74.79    5.70
  -2  -2   8   65.79    5.70
   1   2  -8  342.87   10.00
   1   2  -8  315.07   10.90
   1   2  -8  342.87   10.00
   1   2  -8  329.97   10.70
   1   2  -8  334.47   11.80
  -1  -2   8  318.87   10.50
  -1  -2   8  339.77   11.20
  -1  -2   8  317.47   10.00
  -1  -2   8  325.47   12.20
   0   2  -8  143.29    5.90
   0   2  -8  143.29    5.90
   0   2  -8  115.89    7.10
   0   2  -8  140.69    6.40
   0   2  -8  137.89    7.60
   0  -2   8  138.49    8.40
   0  -2   8  134.59    6.70
   0  -2   8  139.29    7.30
   0  -2   8  130.19    7.10
  -1   2  -8  120.89    7.50
  -1   2  -8  113.59    6.20
  -1   2  -8  122.19    5.70
  -1   2  -8  122.19    5.70
  -1   2  -8  115.59    7.50
   1  -2   8  110.59    7.10
   1  -2   8  112.79    7.50
   1  -2   8  101.59    9.40
  -2   2  -8    4.90    2.90
  -2   2  -8    1.00    3.60
  -2   2  -8    3.30    3.40
  -2   2  -8    4.90    2.90
   2  -2   8    1.00    3.10
   2  -2   8    4.20    4.40
   2  -2   8    8.10    3.90
  -3   2  -8    1.80    4.70
  -3   2  -8    2.50    3.20
  -3   2  -8   -1.50    4.30
  -3   2  -8    2.50    3.20
   3  -2   8    8.10    4.20
   3  -2   8    0.90    4.00
  -4   2  -8    3.00    5.50
  -4   2  -8    1.70    4.00
  -4   2  -8    7.00    5.60
  -4   2  -8    1.70    4.00
   4  -2   8   -4.80    4.60
   5  -2   8   40.40    7.50
   8   2  -9   42.50    5.00
   8   2  -9   50.09    6.70
   8   2  -9   42.50    5.00
  -8  -2   9   42.50    6.40
  -8  -2   9   55.29    8.10
   7   2  -9   73.69    5.90
   7   2  -9   72.49    8.00
   7   2  -9   73.69    5.90
  -7  -2   9   60.79    6.40
  -7  -2   9   80.99   10.20
   6   2  -9   -1.60    2.70
   6   2  -9   -1.60    2.70
   6   2  -9    1.50    2.80
  -6  -2   9   14.10    4.90
  -6  -2   9    0.30    3.60
   5   2  -9   11.50    2.70
   5   2  -9   11.50    2.70
   5   2  -9    7.50    3.40
  -5  -2   9   14.20    3.10
  -5  -2   9   14.30    4.10
  -5  -2   9   10.70    2.60
  -5  -2   9   12.80    4.50
   4   2  -9  104.49    6.60
   4   2  -9  100.49    5.60
   4   2  -9   97.89    7.40
   4   2  -9  100.49    5.60
  -4  -2   9  109.09    7.40
  -4  -2   9  102.99    7.80
  -4  -2   9  101.59    6.40
  -4  -2   9   93.59    5.30
  -4  -2   9   98.19    6.80
  -4  -2   9  101.69    4.70
   3   2  -9   85.59    6.40
   3   2  -9   87.59    7.20
  -3  -2   9   92.19    4.40
  -3  -2   9   91.49    6.70
  -3  -2   9   82.59    7.10
  -3  -2   9   92.49    6.40
  -3  -2   9   86.49    5.40
   2   2  -9  111.29    6.70
   2   2  -9  106.39    7.20
   2   2  -9  105.69    6.80
   2   2  -9  100.39    5.50
   2   2  -9  100.39    5.50
  -2  -2   9   94.69    6.70
  -2  -2   9   99.09    6.20
  -2  -2   9  107.69    5.10
  -2  -2   9  113.39    7.70
   1   2  -9  368.16   11.80
   1   2  -9  371.76   11.30
   1   2  -9  380.36   13.70
   1   2  -9  344.57   12.40
   1   2  -9  371.76   11.30
  -1  -2   9  367.76   11.50
  -1  -2   9  351.66   12.20
  -1  -2   9  349.87   13.80
  -1  -2   9  366.76   12.80
   0   2  -9   26.00    3.30
   0   2  -9   40.10    4.10
   0   2  -9   26.00    3.30
   0   2  -9   30.40    4.80
   0  -2   9   29.40    4.80
   0  -2   9   32.40    4.10
   0  -2   9   24.90    4.80
   0  -2   9   30.10    6.20
  -1   2  -9  171.38    7.60
  -1   2  -9  171.28    7.60
  -1   2  -9  164.28    8.20
  -1   2  -9  172.28    9.60
   1  -2   9  162.38    9.00
   1  -2   9  154.38    9.40
   1  -2   9  153.08   10.10
  -2   2  -9   91.79    7.10
  -2   2  -9   91.79    7.10
  -2   2  -9   62.89    7.10
  -2   2  -9   74.39    8.10
   2  -2   9   91.49    9.10
   2  -2   9   80.69    8.10
  -3   2  -9   44.20    5.40
  -3   2  -9   42.60    7.10
  -3   2  -9   44.20    5.40
   3  -2   9   39.30    6.40
   3  -2   9   39.20    6.50
   4  -2   9  222.58   13.70
   8   2 -10   22.90    6.20
  -8  -2  10   18.80    7.80
  -8  -2  10    2.40    4.50
   7   2 -10   32.70    5.50
   7   2 -10   27.10    4.50
   7   2 -10   27.10    4.50
  -7  -2  10   25.30    5.30
  -7  -2  10   37.10    7.40
   6   2 -10   76.29    6.60
   6   2 -10   65.69    6.70
   6   2 -10   76.29    6.60
  -6  -2  10   57.39    6.10
  -6  -2  10   78.69    8.40
   5   2 -10   24.70    3.70
   5   2 -10   28.10    4.60
   5   2 -10   24.70    3.70
  -5  -2  10   25.40    5.70
  -5  -2  10   24.50    4.90
  -5  -2  10   26.30    4.50
   4   2 -10   96.69    6.60
   4   2 -10   81.59    7.20
   4   2 -10   96.69    6.60
  -4  -2  10   87.99    7.60
  -4  -2  10  103.09    8.50
  -4  -2  10  103.99    7.60
   3   2 -10   42.50    4.00
   3   2 -10   42.50    4.00
   3   2 -10   25.40    4.50
   3   2 -10   39.90    4.90
  -3  -2  10   42.80    5.60
  -3  -2  10   32.90    4.10
  -3  -2  10   33.20    5.00
   2   2 -10   33.60    4.40
   2   2 -10   36.00    4.00
   2   2 -10   42.70    5.30
   2   2 -10   36.00    4.00
  -2  -2  10   31.10    3.60
  -2  -2  10   39.90    5.20
  -2  -2  10   32.50    5.50
   1   2 -10   39.90    4.10
   1   2 -10   54.79    6.30
   1   2 -10   39.90    4.10
   1   2 -10   46.40    5.80
  -1  -2  10   48.30    5.60
  -1  -2  10   34.20    5.90
  -1  -2  10   43.60    4.60
   0   2 -10   14.50    4.40
   0   2 -10   10.80    3.50
   0   2 -10   12.10    3.40
   0   2 -10   12.10    3.40
   0  -2  10   14.60    4.30
   0  -2  10   16.70    5.40
   0  -2  10   12.40    5.20
  -1   2 -10   48.60    5.10
  -1   2 -10   48.60    5.10
  -1   2 -10   44.50    6.20
   1  -2  10   42.30    6.70
   1  -2  10   40.50    6.90
   1  -2  10   43.80    7.00
  -2   2 -10  141.89    9.50
  -2   2 -10  130.99   11.20
  -2   2 -10  141.89    9.50
   2  -2  10  150.28   11.00
   2  -2  10  150.28   11.80
   3  -2  10    0.60    6.50
   7   2 -11   44.20    6.80
  -7  -2  11   21.70    8.50
  -7  -2  11   19.60    5.50
   6   2 -11   24.70    4.60
   6   2 -11   24.70    4.60
   6   2 -11   31.40    6.20
  -6  -2  11   27.50    5.80
  -6  -2  11   38.10    7.80
   5   2 -11    0.60    3.80
   5   2 -11    0.60    3.80
   5   2 -11    1.20    4.50
  -5  -2  11    9.30    4.60
   4   2 -11   51.79    5.10
   4   2 -11   52.59    6.50
   4   2 -11   51.79    5.10
  -4  -2  11   49.30    6.40
  -4  -2  11   55.29    7.00
  -4  -2  11   48.00    6.30
   3   2 -11   73.79    6.90
   3   2 -11   74.09    5.80
   3   2 -11   84.49    9.10
   3   2 -11   74.09    5.80
  -3  -2  11   74.09    7.70
  -3  -2  11   66.49    8.70
   2   2 -11   51.39    6.70
   2   2 -11   43.00    4.70
   2   2 -11   43.00    4.70
  -2  -2  11   44.90    6.20
  -2  -2  11   53.09    7.40
   1   2 -11    5.30    4.80
   1   2 -11    2.70    3.50
   1   2 -11    2.70    3.50
  -1  -2  11    8.10    5.30
  -1  -2  11    7.50    6.10
   0   2 -11   90.89    8.30
   0   2 -11  101.79    9.90
   0   2 -11   90.89    8.30
   0  -2  11   98.99   10.40
   0  -2  11   78.99    8.40
  -1   2 -11   36.10    5.60
  -1   2 -11   36.10    5.60
  -1   2 -11   30.20    6.40
   1  -2  11   42.70    7.40
   6   2 -12   17.40    6.30
  -6  -2  12   10.10    5.40
   5   2 -12   56.29    7.40
   5   2 -12   62.59    5.90
   5   2 -12   62.59    5.90
   4   2 -12   51.89    7.50
   4   2 -12   41.70    5.30
   4   2 -12   41.70    5.30
  -4  -2  12   35.70    6.30
  -4  -2  12   40.20   10.20
   3   2 -12   36.20    5.30
   3   2 -12   36.20    5.30
   3   2 -12   28.10    6.50
  -3  -2  12   19.80    7.30
  -3  -2  12   22.10    5.70
   2   2 -12   24.80    5.10
   2   2 -12   24.80    5.10
   2   2 -12   11.50    6.30
  -2  -2  12   15.80    6.10
  -2  -2  12   25.20    7.70
   1   2 -12   20.10    5.30
   1   2 -12   20.10    5.30
   1   2 -12   12.50    6.30
  -1  -2  12   17.40    7.30
  -1  -2  12   19.00    7.00
   0   2 -12   67.59    7.00
   0   2 -12   67.59    7.00
   0  -2  12   60.99    9.40
  -1   3  12    2.10    5.90
  -1   3  12   -4.80    6.40
   1  -3 -12   -8.40    6.70
  -2   3  12   48.30    7.10
  -2   3  12   49.99    7.00
  -2   3  12   52.99    7.50
   2  -3 -12   41.40    5.40
   2  -3 -12   44.20    7.80
   2  -3 -12   41.40    5.40
  -3   3  12   28.50    6.20
  -3   3  12   35.50    5.90
  -3   3  12   22.20    6.20
   3  -3 -12   20.30    5.00
   3  -3 -12   20.30    5.00
   3  -3 -12   22.60    6.90
  -4   3  12  150.68   11.20
  -4   3  12  150.18    9.70
  -4   3  12  174.18   11.10
   4  -3 -12  134.79    9.90
   4  -3 -12  134.89    9.90
   4  -3 -12  156.18   11.50
  -5   3  12   98.89   10.50
  -5   3  12  107.19    8.80
  -5   3  12  110.39   12.60
  -6   3  12    2.10    4.20
   1   3  11   52.99    8.20
   1   3  11   56.59    8.00
  -1  -3 -11   61.49    6.80
  -1  -3 -11   61.49    6.80
  -1  -3 -11   73.49    9.50
   0   3  11   62.79    7.90
   0   3  11   84.09    9.40
   0  -3 -11   99.29    8.90
   0  -3 -11   99.29    8.90
   0  -3 -11   92.09   11.00
  -1   3  11   31.60    5.90
  -1   3  11   32.90    6.00
  -1   3  11   31.40    5.50
   1  -3 -11   35.80    6.40
   1  -3 -11   30.30    4.70
   1  -3 -11   30.30    4.70
  -2   3  11   96.59    8.90
  -2   3  11   95.89    8.60
  -2   3  11  121.59    8.90
   2  -3 -11   92.79    7.60
   2  -3 -11   93.39    9.70
   2  -3 -11   92.79    7.60
  -3   3  11   40.50    5.40
  -3   3  11   54.99    6.30
  -3   3  11   38.80    5.50
   3  -3 -11   44.80    5.40
   3  -3 -11   44.80    5.40
   3  -3 -11   39.20    6.10
  -4   3  11   15.20    4.80
  -4   3  11    6.50    4.30
  -4   3  11   10.40    4.20
   4  -3 -11   18.60    4.20
   4  -3 -11   18.60    4.20
  -5   3  11   -0.30    4.00
  -5   3  11   -7.10    5.10
  -5   3  11   -1.40    4.10
   5  -3 -11   -1.20    4.50
   5  -3 -11    2.30    3.90
   5  -3 -11    2.30    3.90
  -6   3  11   15.90    5.40
  -6   3  11   21.80    5.30
   6  -3 -11   33.40    5.10
   6  -3 -11   33.40    5.10
   6  -3 -11   20.70    5.90
  -7   3  11   28.00    5.50
   7  -3 -11   22.10    7.10
   2   3  10    0.80    5.50
   2   3  10   -4.60    5.70
  -2  -3 -10    4.50    5.40
  -2  -3 -10   -2.00    6.40
  -2  -3 -10    4.50    5.40
   1   3  10   11.60    5.40
   1   3  10   15.80    5.00
  -1  -3 -10   12.80    4.30
  -1  -3 -10   12.80    4.30
  -1  -3 -10   32.20    6.60
   0   3  10   16.40    4.70
   0   3  10   30.30    5.00
   0  -3 -10   16.60    5.30
   0  -3 -10   24.60    4.40
   0  -3 -10   24.60    4.40
  -1   3  10    7.10    4.00
  -1   3  10   12.70    4.00
  -1   3  10    4.50    4.10
   1  -3 -10    9.70    3.10
   1  -3 -10    9.20    4.40
   1  -3 -10    9.70    3.10
  -2   3  10   74.89    6.80
  -2   3  10   75.59    7.00
   2  -3 -10   84.19    6.30
   2  -3 -10   84.19    6.20
  -3   3  10  164.38    8.20
  -3   3  10  170.08    9.10
  -3   3  10  163.48    8.80
   3  -3 -10  155.38    8.00
   3  -3 -10  173.08    9.00
   3  -3 -10  155.38    8.00
  -4   3  10  158.38    9.30
  -4   3  10  152.88    8.10
  -4   3  10  150.08    8.30
   4  -3 -10  166.18    8.60
   4  -3 -10  160.18    7.90
   4  -3 -10  160.18    7.90
  -5   3  10  136.69    8.10
  -5   3  10  104.99    7.90
  -5   3  10  115.29    7.40
   5  -3 -10  119.09    7.60
   5  -3 -10  111.39    6.90
   5  -3 -10  111.39    6.90
  -6   3  10   -6.30    3.90
  -6   3  10    3.00    3.60
  -6   3  10    1.50    4.60
   6  -3 -10    4.10    3.80
   6  -3 -10    1.50    3.60
   6  -3 -10    4.00    4.80
   6  -3 -10    1.50    3.60
  -7   3  10   94.79   10.30
  -7   3  10   87.39    7.40
   7  -3 -10   99.69   10.60
   7  -3 -10   87.59    6.80
   7  -3 -10   87.59    6.80
  -8   3  10   44.30    5.90
  -8   3  10   37.10    7.80
   8  -3 -10   26.50    6.00
   8  -3 -10   48.20    8.10
   8  -3 -10   26.50    6.00
  -4  -3  -9   22.10    6.50
  -4  -3  -9   22.10    6.50
   3   3   9   49.70    7.30
   3   3   9   56.99    7.50
  -3  -3  -9   90.49   11.00
  -3  -3  -9   61.39    6.30
  -3  -3  -9   61.39    6.30
   2   3   9    6.90    4.70
   2   3   9    8.70    4.80
  -2  -3  -9   16.70    4.30
  -2  -3  -9    8.70    5.20
  -2  -3  -9   16.60    4.30
   1   3   9    4.60    3.60
   1   3   9   -2.70    3.70
  -1  -3  -9    1.90    3.30
  -1  -3  -9    3.00    4.30
  -1  -3  -9    1.90    3.30
   0   3   9   52.89    5.90
   0   3   9   58.99    6.20
   0   3   9   59.79    5.00
   0  -3  -9   53.79    7.00
   0  -3  -9   63.89    5.40
   0  -3  -9   63.89    5.40
  -1   3   9  102.49    6.20
  -1   3   9   98.49    6.70
  -1   3   9   95.29    6.80
   1  -3  -9   92.49    5.70
   1  -3  -9   81.79    7.20
   1  -3  -9   92.49    5.70
  -2   3   9   38.20    4.60
  -2   3   9   26.50    3.80
  -2   3   9   29.40    3.90
   2  -3  -9   35.60    3.90
   2  -3  -9   34.20    4.30
   2  -3  -9   35.60    3.90
  -3   3   9    8.80    3.10
  -3   3   9   10.50    2.50
  -3   3   9    3.50    3.00
  -3   3   9   11.30    3.20
   3  -3  -9    7.20    3.20
   3  -3  -9    8.80    2.60
   3  -3  -9    8.80    2.60
   3  -3  -9   10.70    2.90
  -4   3   9    4.40    2.90
  -4   3   9    1.50    2.90
  -4   3   9   12.30    3.00
   4  -3  -9    1.30    2.30
   4  -3  -9   -1.00    2.60
   4  -3  -9    2.80    3.00
   4  -3  -9    1.30    5.70
   4  -3  -9    1.30    2.30
  -5   3   9   27.90    4.10
  -5   3   9   22.00    4.10
  -5   3   9   31.60    4.40
   5  -3  -9   26.00    3.70
   5  -3  -9   29.40    3.50
   5  -3  -9   29.40    3.50
   5  -3  -9   21.90    4.40
  -6   3   9    3.90    3.80
  -6   3   9    6.00    3.60
  -6   3   9    0.20    3.30
   6  -3  -9    4.90    3.30
   6  -3  -9    5.10    3.10
   6  -3  -9    6.30    5.50
   6  -3  -9    4.90    3.30
  -7   3   9   68.49    7.30
  -7   3   9   51.59    5.70
  -7   3   9   63.29    6.80
   7  -3  -9   79.89    9.10
   7  -3  -9   62.19    5.60
   7  -3  -9   62.19    5.60
  -8   3   9    9.00    4.30
  -8   3   9   12.80    6.10
   8  -3  -9   12.80    5.80
   8  -3  -9    6.60    4.20
   8  -3  -9    6.60    4.20
   4   3   8    2.10    5.90
   4   3   8   11.00    5.70
  -4  -3  -8   25.70    6.80
  -4  -3  -8   17.70    5.10
  -4  -3  -8   17.70    5.10
   3   3   8    4.70    4.50
   3   3   8    7.50    5.00
  -3  -3  -8   12.30    5.00
  -3  -3  -8   -0.30    3.80
  -3  -3  -8   -0.40    3.80
   2   3   8  150.88    8.90
   2   3   8  157.08    9.40
  -2  -3  -8  171.88    7.90
  -2  -3  -8  171.88    7.90
  -2  -3  -8  152.78    9.70
   1   3   8  107.39    7.40
  -1  -3  -8  115.29    6.20
  -1  -3  -8  115.29    6.20
   0   3   8   65.29    5.60
   0   3   8   70.59    5.80
   0   3   8   67.79    5.10
   0  -3  -8   66.79    4.90
   0  -3  -8   65.49    6.10
   0  -3  -8   66.79    4.90
  -1   3   8  179.48    8.10
  -1   3   8  179.08    7.00
  -1   3   8  183.98    8.00
   1  -3  -8  175.08    7.10
   1  -3  -8  171.28    8.30
   1  -3  -8  175.08    7.10
  -2   3   8   54.09    4.50
  -2   3   8   47.40    4.80
  -2   3   8   50.89    4.90
   2  -3  -8   60.19    5.10
   2  -3  -8   45.80    4.10
   2  -3  -8   45.80    4.10
  -3   3   8  586.24   16.70
  -3   3   8  572.54   15.10
  -3   3   8  531.95   16.30
  -3   3   8  562.44   15.90
   3  -3  -8  571.34   16.70
   3  -3  -8  551.04   15.10
   3  -3  -8  553.94   16.10
   3  -3  -8  554.84   15.60
   3  -3  -8  554.74   15.60
  -4   3   8   28.60    4.00
  -4   3   8   34.20    4.10
  -4   3   8   24.60    3.60
  -4   3   8   22.10    3.20
   4  -3  -8   27.40    3.00
   4  -3  -8   23.30    3.70
   4  -3  -8   27.40    3.00
   4  -3  -8   29.90    4.30
   4  -3  -8   31.20    3.30
  -5   3   8  237.48    9.30
  -5   3   8  228.18    9.30
  -5   3   8  249.08    9.60
  -5   3   8  228.08    9.70
   5  -3  -8  245.38    8.90
   5  -3  -8  241.28    8.50
   5  -3  -8  256.77   10.30
   5  -3  -8  245.38    8.90
  -6   3   8  143.19    8.30
  -6   3   8  147.79    7.60
  -6   3   8  138.49    7.40
   6  -3  -8  136.89    6.80
   6  -3  -8  136.89    6.80
   6  -3  -8  144.49    8.60
   6  -3  -8  138.29    6.20
  -7   3   8   31.40    4.50
  -7   3   8   35.20    4.60
  -7   3   8   33.30    5.40
   7  -3  -8   29.20    4.10
   7  -3  -8   29.20    4.10
   7  -3  -8   22.80    5.20
  -8   3   8  108.19   10.70
  -8   3   8  103.39    7.80
   8  -3  -8  110.79    7.80
   8  -3  -8  110.79    7.80
   8  -3  -8  107.39   10.50
  -9   3   8   27.90    8.30
  -9   3   8   23.30    5.50
   9  -3  -8   38.30    7.70
   9  -3  -8   27.20    5.70
   9  -3  -8   27.20    5.70
   5   3   7   19.80    4.80
   5   3   7    2.60    6.10
   5   3   7    7.70    5.50
   5   3   7   19.80    4.80
  -5  -3  -7   33.20    7.10
   4   3   7  128.79    9.60
   4   3   7  120.59   10.70
  -4  -3  -7  128.99    8.40
  -4  -3  -7  145.99   10.30
  -4  -3  -7  128.99    8.40
   3   3   7   30.60    4.50
   3   3   7   22.60    4.70
  -3  -3  -7   36.90    4.40
  -3  -3  -7   51.19    6.30
  -3  -3  -7   36.90    4.40
   2   3   7  122.49    8.40
  -2  -3  -7  110.89    6.60
  -2  -3  -7  112.99   11.40
  -2  -3  -7  110.99    6.60
   1   3   7  143.39    7.50
   1   3   7  140.29    5.70
   1   3   7  147.39    7.20
  -1  -3  -7  154.08    6.50
  -1  -3  -7  154.08    6.50
  -1  -3  -7  146.59    7.80
   0   3   7  291.97    8.70
   0   3   7  290.97   10.20
   0   3   7  300.17   10.40
   0  -3  -7  276.47   10.40
   0  -3  -7  269.47    9.10
   0  -3  -7  269.07    9.10
  -1   3   7  128.39    7.40
  -1   3   7  127.99    6.50
  -1   3   7  135.39    5.60
  -1   3   7  139.89    6.60
  -1   3   7  145.39    6.60
   1  -3  -7  148.39    6.70
   1  -3  -7  140.09    5.70
   1  -3  -7  139.99    5.70
  -2   3   7   81.19    5.20
  -2   3   7   73.89    5.80
  -2   3   7   77.99    3.30
  -2   3   7   74.19    4.50
  -2   3   7   69.69    5.00
  -2   3   7   76.59    5.00
   2  -3  -7   79.09    3.40
   2  -3  -7   79.79    4.30
   2  -3  -7   70.19    4.70
   2  -3  -7   79.79    4.30
  -3   3   7 1029.20   26.70
  -3   3   7 1088.49   27.50
  -3   3   7 1062.79   29.00
  -3   3   7  988.70   27.60
  -3   3   7 1057.89   26.50
  -3   3   7 1080.19   26.00
   3  -3  -7 1075.19   27.60
   3  -3  -7 1038.80   26.30
   3  -3  -7 1043.70   26.50
   3  -3  -7 1070.99   26.20
   3  -3  -7 1038.80   26.30
  -4   3   7  149.59    6.40
  -4   3   7  140.39    7.90
  -4   3   7  142.79    6.40
  -4   3   7  139.49    6.50
  -4   3   7  144.39    6.80
  -4   3   7  148.69    8.40
   4  -3  -7  139.29    7.30
   4  -3  -7  146.39    6.00
   4  -3  -7  150.18    7.10
   4  -3  -7  146.39    6.00
   4  -3  -7  150.58    5.90
  -5   3   7   30.40    3.60
  -5   3   7   23.90    3.40
  -5   3   7   25.70    3.40
  -5   3   7   20.40    4.70
  -5   3   7   22.00    3.40
   5  -3  -7   23.90    3.60
   5  -3  -7   20.80    2.80
   5  -3  -7   24.00    3.50
   5  -3  -7   27.60    3.10
   5  -3  -7   20.80    2.80
  -6   3   7  236.28    9.40
  -6   3   7  248.68   10.30
  -6   3   7  243.78    9.50
   6  -3  -7  239.68    9.00
   6  -3  -7  241.38   10.60
   6  -3  -7  248.18    8.00
  -7   3   7   66.19    6.50
  -7   3   7   70.49    5.90
  -7   3   7   73.29    7.50
   7  -3  -7   66.69    7.50
   7  -3  -7   48.50    4.60
   7  -3  -7   70.79    5.50
   7  -3  -7   70.79    5.50
  -8   3   7    9.60    4.00
  -8   3   7    5.90    5.20
  -8   3   7   11.70    4.50
   8  -3  -7   17.50    5.30
   8  -3  -7    8.30    3.60
   8  -3  -7    8.30    3.60
  -9   3   7   11.30    5.20
  -9   3   7   16.70    6.80
   9  -3  -7    1.40    4.30
   9  -3  -7    1.40    4.30
   9  -3  -7   -0.80    6.10
   6   3   6   99.49    8.70
   6   3   6   99.49    8.70
  -6  -3  -6  101.39   12.30
   5   3   6   11.40    4.90
   5   3   6   16.60    4.00
   5   3   6   14.70    5.50
   5   3   6   16.60    4.00
  -5  -3  -6   11.90    4.90
  -5  -3  -6   18.10    5.70
   4   3   6   46.10    6.20
   4   3   6   46.00    5.30
  -4  -3  -6   50.09    4.80
  -4  -3  -6   56.39    5.30
  -4  -3  -6   50.09    4.80
  -4  -3  -6   67.99    7.60
   3   3   6   31.00    4.90
   3   3   6   34.60    4.40
   3   3   6   34.50    3.70
  -3  -3  -6   32.60    3.50
  -3  -3  -6   40.80    3.60
  -3  -3  -6   32.60    3.50
   2   3   6  466.75   14.40
   2   3   6  472.45   14.70
   2   3   6  431.36   11.60
  -2  -3  -6  446.16   15.00
  -2  -3  -6  466.35   13.30
  -2  -3  -6  445.16   11.40
  -2  -3  -6  466.35   13.30
   1   3   6   91.29    5.40
   1   3   6   95.39    5.70
  -1  -3  -6  102.79    4.80
  -1  -3  -6   91.59    5.90
  -1  -3  -6  102.79    4.80
   0   3   6  377.16   11.80
   0   3   6  404.26   12.10
   0   3   6  384.66   12.10
   0   3   6  409.16   10.50
   0   3   6  384.06   12.50
   0  -3  -6  399.66   12.40
   0  -3  -6  383.96   11.10
   0  -3  -6  383.96   11.10
  -1   3   6  219.78    7.20
  -1   3   6  225.78    7.80
  -1   3   6  219.78    7.20
  -1   3   6  236.98    8.70
  -1   3   6  237.78    8.40
  -1   3   6  215.58    8.10
  -1   3   6  245.58    7.20
   1  -3  -6  234.58    7.40
   1  -3  -6  225.28    8.80
   1  -3  -6  234.58    7.40
   1  -3  -6  230.48    8.10
  -2   3   6  159.98    6.50
  -2   3   6  155.78    4.90
  -2   3   6  140.09    5.40
  -2   3   6  161.28    5.80
  -2   3   6  145.49    6.80
  -2   3   6  149.49    5.90
  -2   3   6  151.98    6.80
  -2   3   6  140.09    5.40
   2  -3  -6  153.38    7.00
   2  -3  -6  158.28    5.60
   2  -3  -6  153.68    5.00
   2  -3  -6  158.28    5.60
   2  -3  -6  157.68    6.60
   2  -3  -6  154.78    5.90
  -3   3   6   13.10    3.10
  -3   3   6   14.90    2.60
  -3   3   6   19.80    2.40
  -3   3   6   17.50    2.30
  -3   3   6   19.80    2.40
  -3   3   6   19.40    2.70
  -3   3   6   13.50    2.00
  -3   3   6   20.20    3.10
   3  -3  -6   18.00    2.70
   3  -3  -6   17.60    2.10
   3  -3  -6   20.60    2.80
   3  -3  -6   16.10    2.10
   3  -3  -6   16.10    2.10
  -4   3   6  534.55   15.30
  -4   3   6  560.14   15.10
  -4   3   6  533.85   14.90
  -4   3   6  509.65   15.80
  -4   3   6  546.45   14.40
  -4   3   6  538.35   16.00
   4  -3  -6  550.04   15.70
   4  -3  -6  528.35   15.80
   4  -3  -6  520.85   14.40
   4  -3  -6  543.55   14.00
   4  -3  -6  520.85   14.40
  -5   3   6   79.29    5.40
  -5   3   6   67.79    5.10
  -5   3   6   67.09    4.80
  -5   3   6   73.79    6.60
   5  -3  -6   64.89    4.10
   5  -3  -6   74.79    3.70
   5  -3  -6   65.49    8.50
   5  -3  -6   64.89    4.10
   5  -3  -6   64.19    5.50
   5  -3  -6   73.59    4.50
  -6   3   6  140.39    6.90
  -6   3   6  137.49    7.10
  -6   3   6  127.09    8.60
  -6   3   6  146.19    7.80
   6  -3  -6  121.69    6.00
   6  -3  -6  142.29    5.40
   6  -3  -6  144.59    8.10
   6  -3  -6  141.49    6.00
   6  -3  -6  141.39    6.00
  -7   3   6   70.09    6.30
  -7   3   6   87.09    7.30
  -7   3   6   68.89    5.60
   7  -3  -6   71.69    6.00
   7  -3  -6   71.69    6.00
   7  -3  -6   62.99    4.70
   7  -3  -6   75.79    7.50
   7  -3  -6   70.09    6.60
  -8   3   6   18.50    5.00
  -8   3   6   16.50    4.00
   8  -3  -6   22.90    4.80
   8  -3  -6   25.70    3.80
   8  -3  -6   25.70    3.80
   8  -3  -6   25.40    5.80
  -9   3   6   20.80    4.80
  -9   3   6   14.60    6.70
   9  -3  -6   18.10    4.20
   9  -3  -6   18.60    7.00
   9  -3  -6   18.10    4.20
   7   3   5   99.89    8.00
   7   3   5   99.89    8.00
   7   3   5  123.69   13.70
   6   3   5   -1.00    4.50
   6   3   5    4.10    4.00
   6   3   5   -4.90    5.60
   6   3   5    4.10    4.00
  -6  -3  -5    0.30    4.90
  -6  -3  -5    5.70    5.70
   5   3   5   67.79    8.70
   5   3   5   59.69    7.10
   5   3   5   80.49    6.00
   5   3   5   80.49    6.00
  -5  -3  -5   63.59    7.90
  -5  -3  -5   53.19    6.40
   4   3   5   37.20    4.90
   4   3   5   33.80    4.80
   4   3   5   40.00    5.60
  -4  -3  -5   37.10    3.90
  -4  -3  -5   41.00    4.20
  -4  -3  -5   41.00    4.20
  -4  -3  -5   34.00    4.70
   3   3   5    4.50    3.10
   3   3   5    4.80    2.70
   3   3   5    7.40    2.80
  -3  -3  -5    8.10    2.40
  -3  -3  -5    8.10    2.40
  -3  -3  -5    7.90    3.10
  -3  -3  -5    7.40    2.00
   2   3   5  538.45   15.90
   2   3   5  547.05   15.80
   2   3   5  542.95   13.70
  -2  -3  -5  552.64   16.50
  -2  -3  -5  533.75   14.80
  -2  -3  -5  535.85   13.60
  -2  -3  -5  533.75   14.80
   1   3   5  282.77    9.90
   1   3   5  270.57    9.20
   1   3   5  278.87    8.50
   1   3   5  278.87    8.40
   1   3   5  288.77    9.50
   1   3   5  307.27    9.60
  -1  -3  -5  272.17    9.70
  -1  -3  -5  292.37    9.80
  -1  -3  -5  295.87    8.70
  -1  -3  -5  295.87    8.70
  -1  -3  -5  265.77    9.60
   0   3   5  106.69    5.00
   0   3   5  105.99    4.30
   0   3   5  108.79    4.00
   0   3   5  100.09    4.50
   0   3   5  106.89    5.00
   0   3   5  105.99    4.30
   0   3   5  108.59    5.40
   0  -3  -5  101.99    5.30
   0  -3  -5  103.69    4.30
   0  -3  -5  103.69    4.30
   0  -3  -5  104.39    5.10
  -1   3   5  377.46   11.50
  -1   3   5  391.46   10.50
  -1   3   5  391.76   10.90
  -1   3   5  391.46   10.50
  -1   3   5  406.66   10.40
  -1   3   5  382.96   11.70
  -1   3   5  379.06   11.60
   1  -3  -5  391.06   11.10
   1  -3  -5  386.96   11.80
   1  -3  -5  391.16   10.60
   1  -3  -5  391.16   10.60
  -2   3   5  871.11   21.70
  -2   3   5  908.81   23.20
  -2   3   5  871.11   21.70
  -2   3   5  895.41   23.10
  -2   3   5  914.71   22.00
  -2   3   5  884.01   22.90
  -2   3   5  904.81   21.40
  -2   3   5  916.21   22.00
   2  -3  -5  905.81   22.00
   2  -3  -5  868.11   22.90
   2  -3  -5  843.82   21.80
   2  -3  -5  923.71   21.60
   2  -3  -5  843.82   21.80
  -3   3   5   81.59    4.00
  -3   3   5   77.09    4.30
  -3   3   5   78.09    3.80
  -3   3   5   81.39    3.90
  -3   3   5   77.29    5.00
  -3   3   5   82.89    3.60
  -3   3   5   78.09    3.80
  -3   3   5   80.19    4.80
   3  -3  -5   82.49    3.70
   3  -3  -5   80.99    4.50
   3  -3  -5   74.89    4.40
   3  -3  -5   74.79    3.30
   3  -3  -5   82.49    3.70
  -4   3   5   10.50    2.40
  -4   3   5    8.30    1.70
  -4   3   5   11.50    2.40
  -4   3   5   12.00    2.90
  -4   3   5    8.30    1.70
  -4   3   5   11.90    2.40
  -4   3   5   13.90    2.30
   4  -3  -5   13.80    1.60
   4  -3  -5    9.90    1.60
   4  -3  -5   11.20    2.20
   4  -3  -5   11.90    2.80
   4  -3  -5    9.90    1.60
  -5   3   5   19.50    3.70
  -5   3   5   18.20    3.00
  -5   3   5   23.50    4.20
  -5   3   5   24.70    3.30
  -5   3   5   17.00    2.40
  -5   3   5   17.00    2.40
   5  -3  -5   22.50    2.30
   5  -3  -5   21.00    2.40
   5  -3  -5   22.50    2.30
   5  -3  -5   19.40    3.10
   5  -3  -5   23.10    3.10
   5  -3  -5   19.20    6.40
   5  -3  -5   28.40    3.00
  -6   3   5   79.99    7.00
  -6   3   5   77.09    6.20
  -6   3   5   71.99    5.20
   6  -3  -5   78.79    4.50
   6  -3  -5   71.09    6.10
   6  -3  -5   78.79    4.50
   6  -3  -5   81.19    4.60
   6  -3  -5   73.99    4.00
   6  -3  -5   92.59    6.10
  -7   3   5  123.19    6.90
  -7   3   5  128.19    8.20
   7  -3  -5  122.49    8.50
   7  -3  -5  127.49    5.90
   7  -3  -5  126.99    5.80
   7  -3  -5  137.29    7.90
   7  -3  -5  127.39    5.90
  -8   3   5   55.99    6.80
  -8   3   5   43.10    5.20
   8  -3  -5   35.40    3.80
   8  -3  -5   40.30    6.00
   8  -3  -5   39.50    5.60
   8  -3  -5   35.40    3.80
  -9   3   5   88.49    7.70
  -9   3   5  106.59   11.00
   9  -3  -5   85.49    7.20
   9  -3  -5   98.79   11.80
   9  -3  -5   85.49    7.20
   7   3   4   37.50    5.40
   7   3   4   38.50    7.20
   7   3   4   28.70    5.50
   7   3   4   37.50    5.40
  -7  -3  -4   36.60    7.60
  -7  -3  -4   26.30    6.70
   6   3   4    5.50    4.00
   6   3   4    6.90    3.40
   6   3   4    6.90    3.40
   6   3   4    3.60    4.80
  -6  -3  -4    9.20    4.40
  -6  -3  -4    8.40    5.00
   5   3   4  118.39    7.10
   5   3   4  116.69    8.70
   5   3   4  118.39    7.10
   5   3   4  111.09    7.90
  -5  -3  -4  109.59    8.20
  -5  -3  -4   99.69    6.80
   4   3   4   11.20    3.10
   4   3   4   13.50    3.70
   4   3   4   21.20    2.80
   4   3   4   21.20    2.80
   4   3   4   10.90    3.50
  -4  -3  -4   12.00    2.70
  -4  -3  -4   13.10    2.80
  -4  -3  -4   17.40    3.80
  -4  -3  -4   12.00    2.70
   3   3   4  293.37   10.60
   3   3   4  302.87   10.60
   3   3   4  300.07    9.30
  -3  -3  -4  297.97    9.50
  -3  -3  -4  309.17    9.10
  -3  -3  -4  297.97    9.50
  -3  -3  -4  304.57   11.10
   2   3   4  221.78    7.20
   2   3   4  223.48    6.60
   2   3   4  221.78    7.20
   2   3   4  239.78    8.20
   2   3   4  230.48    8.10
  -2  -3  -4  224.88    8.50
  -2  -3  -4  219.38    6.50
  -2  -3  -4  226.28    7.30
  -2  -3  -4  226.28    7.30
  -2  -3  -4  219.08    8.20
  -2  -3  -4  211.08    8.20
   1   3   4  597.14   15.10
   1   3   4  613.74   16.20
   1   3   4  596.94   16.00
   1   3   4  557.94   15.90
   1   3   4  597.14   15.10
   1   3   4  598.34   13.90
  -1  -3  -4  553.84   16.00
  -1  -3  -4  592.54   16.30
  -1  -3  -4  593.64   16.30
  -1  -3  -4  597.24   15.30
  -1  -3  -4  593.44   13.90
  -1  -3  -4  597.14   15.30
   0   3   4  533.15   13.60
   0   3   4  545.25   14.60
   0   3   4  533.15   13.60
   0   3   4  550.34   14.20
   0   3   4  507.45   14.60
   0   3   4  546.65   14.80
   0   3   4  543.85   13.20
   0  -3  -4  535.25   13.70
   0  -3  -4  536.85   14.80
   0  -3  -4  534.05   14.40
   0  -3  -4  535.25   13.70
  -1   3   4   27.60    2.80
  -1   3   4   28.70    2.10
  -1   3   4   23.80    2.00
  -1   3   4   26.60    1.40
  -1   3   4   28.70    2.10
  -1   3   4   24.20    2.50
  -1   3   4   25.20    2.30
   1  -3  -4   30.70    2.20
   1  -3  -4   24.10    2.60
   1  -3  -4   28.00    1.50
   1  -3  -4   25.70    2.50
   1  -3  -4   30.70    2.20
   1  -3  -4   24.40    2.60
  -2   3   4  593.94   15.00
  -2   3   4  607.34   16.20
  -2   3   4  610.44   16.10
  -2   3   4  610.84   15.00
  -2   3   4  615.04   16.30
  -2   3   4  617.64   15.40
  -2   3   4  601.54   14.90
  -2   3   4  610.84   15.00
   2  -3  -4  604.84   15.20
   2  -3  -4  575.04   15.00
   2  -3  -4  589.74   16.10
   2  -3  -4  575.04   15.00
   2  -3  -4  612.54   14.90
  -3   3   4  315.07    9.20
  -3   3   4  304.87    8.50
  -3   3   4  304.87    9.70
  -3   3   4  307.37    8.10
  -3   3   4  296.57    9.40
  -3   3   4  308.47    9.10
  -3   3   4  304.87    8.50
  -3   3   4  308.07    9.70
   3  -3  -4  314.87    8.50
   3  -3  -4  310.67    9.40
   3  -3  -4  314.87    8.50
   3  -3  -4  310.77    9.80
   3  -3  -4  296.87    9.40
   3  -3  -4  310.37    8.00
  -4   3   4   96.79    4.00
  -4   3   4  103.59    5.80
  -4   3   4  105.19    4.90
  -4   3   4   96.79    4.00
  -4   3   4   97.89    5.20
  -4   3   4  101.79    5.40
   4  -3  -4  102.99    4.00
   4  -3  -4   96.29    5.30
   4  -3  -4  101.09    5.40
   4  -3  -4  102.39    3.50
   4  -3  -4  102.99    5.10
   4  -3  -4  103.89    3.70
   4  -3  -4  102.99    4.00
  -5   3   4   81.29    4.30
  -5   3   4   84.39    5.50
  -5   3   4   81.89    5.90
  -5   3   4   74.69    4.50
  -5   3   4   77.79    5.60
  -5   3   4   81.29    4.30
   5  -3  -4   83.99    5.20
   5  -3  -4   88.09    3.90
   5  -3  -4   88.09    3.90
   5  -3  -4   72.89    4.90
   5  -3  -4   85.19    5.60
   5  -3  -4   81.29    3.50
  -6   3   4   69.59    5.90
  -6   3   4   72.99    5.20
  -6   3   4   60.89    6.80
   6  -3  -4   75.29    4.30
   6  -3  -4   71.69    5.60
   6  -3  -4   69.19    4.00
   6  -3  -4   69.09    6.10
   6  -3  -4   67.09    4.00
   6  -3  -4   67.09    4.00
  -7   3   4  205.88    9.90
  -7   3   4  200.18    8.40
   7  -3  -4  195.18    7.50
   7  -3  -4  207.18    9.30
   7  -3  -4  201.58   10.00
   7  -3  -4  192.68    7.20
   7  -3  -4  196.88    9.50
   7  -3  -4  192.98    7.20
  -8   3   4    9.60    3.90
  -8   3   4   15.60    4.70
   8  -3  -4    7.40    3.40
   8  -3  -4   17.30    5.00
   8  -3  -4   16.90    5.10
  -9   3   4   64.89    7.90
  -9   3   4   65.69    6.40
   9  -3  -4   64.69    5.20
   9  -3  -4   67.39    8.60
   9  -3  -4   64.69    5.20
   9  -3  -4   68.79    8.20
   8   3   3   64.69    6.50
   8   3   3   87.69    9.90
   8   3   3   64.69    6.50
  -8  -3  -3   64.19    9.40
  -8  -3  -3   54.19    9.30
   7   3   3   41.20    4.70
   7   3   3   24.80    5.20
   7   3   3   41.20    4.70
   7   3   3   31.70    6.30
  -7  -3  -3   35.50    6.10
  -7  -3  -3   22.70    6.30
   6   3   3   81.69    6.00
   6   3   3   81.19    8.00
   6   3   3   73.29    7.30
   6   3   3   81.69    6.00
  -6  -3  -3   84.69    7.30
  -6  -3  -3   99.49    8.50
   5   3   3   39.90    3.60
   5   3   3   38.60    5.00
   5   3   3   33.40    5.10
   5   3   3   39.90    3.60
  -5  -3  -3   27.70    3.90
  -5  -3  -3   35.60    4.90
   4   3   3  902.21   22.70
   4   3   3  859.41   23.40
   4   3   3  883.01   24.40
   4   3   3  879.21   24.20
   4   3   3  902.21   22.70
  -4  -3  -3  875.91   23.00
  -4  -3  -3  877.01   24.80
   3   3   3   58.99    3.70
   3   3   3   64.29    4.80
   3   3   3   56.89    4.30
   3   3   3   58.99    3.70
   3   3   3   61.39    4.40
   3   3   3   58.39    4.20
  -3  -3  -3   58.49    3.70
  -3  -3  -3   57.19    4.10
  -3  -3  -3   58.49    3.70
  -3  -3  -3   51.09    4.10
  -3  -3  -3   60.39    3.60
  -3  -3  -3   62.79    4.60
   2   3   3  133.99    5.50
   2   3   3  123.99    5.20
   2   3   3  129.39    4.60
   2   3   3  138.49    5.70
   2   3   3  129.39    4.60
  -2  -3  -3  127.69    4.70
  -2  -3  -3  121.89    5.30
  -2  -3  -3  127.09    4.40
  -2  -3  -3  124.19    5.50
  -2  -3  -3  127.69    4.80
  -2  -3  -3  128.19    5.70
   1   3   3  105.89    3.30
   1   3   3  110.59    4.00
   1   3   3  100.59    4.40
   1   3   3  107.89    4.50
   1   3   3  110.59    4.00
   1   3   3  108.19    4.50
  -1  -3  -3  109.39    4.00
  -1  -3  -3  104.19    4.70
  -1  -3  -3  106.89    3.30
  -1  -3  -3  112.79    4.80
  -1  -3  -3   99.19    4.50
  -1  -3  -3  109.39    4.00
   0   3   3  504.05   13.70
   0   3   3  507.85   13.20
   0   3   3  512.55   13.60
   0   3   3  511.85   12.80
   0   3   3  506.35   13.70
   0   3   3  511.85   12.80
   0  -3  -3  524.15   12.90
   0  -3  -3  528.85   13.90
   0  -3  -3  524.15   12.90
   0  -3  -3  467.25   14.00
  -1   3   3  526.75   14.10
  -1   3   3  535.95   13.30
  -1   3   3  531.45   14.20
  -1   3   3  519.75   12.90
  -1   3   3  546.05   13.10
  -1   3   3  520.45   14.20
  -1   3   3  546.15   13.10
  -1   3   3  530.25   13.10
   1  -3  -3  528.75   14.10
   1  -3  -3  533.85   13.20
   1  -3  -3  533.85   13.20
   1  -3  -3  520.65   12.80
   1  -3  -3  528.65   13.20
  -2   3   3 1639.14   37.20
  -2   3   3 1639.14   37.20
  -2   3   3 1602.14   36.80
  -2   3   3 1601.04   38.40
  -2   3   3 1618.94   38.50
  -2   3   3 1574.04   37.70
  -2   3   3 1616.04   37.80
   2  -3  -3 1626.94   36.80
   2  -3  -3 1539.35   37.20
   2  -3  -3 1560.54   37.70
   2  -3  -3 1587.54   38.30
   2  -3  -3 1539.35   37.20
   2  -3  -3 1615.34   38.60
  -3   3   3 1419.76   33.70
  -3   3   3 1396.26   32.90
  -3   3   3 1396.26   32.90
  -3   3   3 1404.56   34.30
  -3   3   3 1401.06   34.00
  -3   3   3 1411.86   34.30
   3  -3  -3 1372.26   32.90
   3  -3  -3 1384.86   34.50
   3  -3  -3 1372.26   32.90
   3  -3  -3 1421.16   32.30
   3  -3  -3 1409.76   34.30
   3  -3  -3 1429.56   34.10
   3  -3  -3 1420.06   32.40
  -4   3   3  143.79    5.70
  -4   3   3  144.59    4.80
  -4   3   3  146.29    6.30
  -4   3   3  144.49    4.80
  -4   3   3  142.09    6.10
  -4   3   3  142.49    6.20
   4  -3  -3  138.99    6.30
   4  -3  -3  147.09    4.40
   4  -3  -3  142.69    4.70
   4  -3  -3  142.19    4.30
   4  -3  -3  142.69    4.70
   4  -3  -3  143.19    6.40
   4  -3  -3  146.59    6.10
  -5   3   3  582.04   15.00
  -5   3   3  575.44   16.90
  -5   3   3  582.04   15.00
  -5   3   3  573.04   16.60
  -5   3   3  548.55   16.70
  -5   3   3  607.44   16.10
   5  -3  -3  585.34   14.90
   5  -3  -3  573.54   17.10
   5  -3  -3  594.44   14.90
   5  -3  -3  594.44   14.90
   5  -3  -3  573.04   16.60
  -6   3   3  478.25   13.40
  -6   3   3  482.85   14.30
  -6   3   3  478.25   13.40
  -6   3   3  458.45   15.10
  -6   3   3  491.85   15.80
   6  -3  -3  507.45   15.40
   6  -3  -3  517.35   16.00
   6  -3  -3  512.35   13.60
   6  -3  -3  482.15   13.10
   6  -3  -3  489.95   13.40
   6  -3  -3  482.15   13.10
  -7   3   3  275.77   10.10
  -7   3   3  288.87   11.90
   7  -3  -3  274.07   11.20
   7  -3  -3  264.57    9.50
   7  -3  -3  282.37    8.80
   7  -3  -3  277.47   11.90
   7  -3  -3  282.37    8.80
   7  -3  -3  272.07    9.60
  -8   3   3   15.70    4.00
  -8   3   3   25.30    5.50
   8  -3  -3   26.60    5.70
   8  -3  -3   23.50    3.20
   8  -3  -3   21.10    4.10
   8  -3  -3   21.40    5.10
   8  -3  -3   23.50    3.20
  -9   3   3   85.49   10.10
  -9   3   3   71.09    7.60
   9  -3  -3   78.99    6.80
   9  -3  -3   75.89    8.50
   9  -3  -3   78.99    6.80
   9  -3  -3   73.59    8.40
   8   3   2   72.39    6.20
   8   3   2   94.49    9.20
   8   3   2   72.39    6.20
   8   3   2   94.09   10.20
  -8  -3  -2   86.19    9.70
  -8  -3  -2   99.59   12.60
   7   3   2   91.69    6.60
   7   3   2   91.69    6.60
   7   3   2   98.69    8.20
   7   3   2  103.29   11.00
  -7  -3  -2   91.09    9.90
  -7  -3  -2  103.09    8.70
   6   3   2  162.28    8.20
   6   3   2  179.98    9.00
   6   3   2  162.28    8.20
   6   3   2  184.58    9.30
  -6  -3  -2  174.68    8.80
  -6  -3  -2  172.78   10.00
   5   3   2   69.29    6.00
   5   3   2   74.49    4.70
   5   3   2   74.49    4.70
   5   3   2   78.19    6.10
  -5  -3  -2   67.99    5.60
  -5  -3  -2   90.19    6.50
   4   3   2  115.99    5.10
   4   3   2  115.99    5.10
   4   3   2  124.39    6.40
   4   3   2  112.79    6.50
   4   3   2  122.49    6.50
  -4  -3  -2  126.49    6.70
  -4  -3  -2  122.69    5.70
  -4  -3  -2  112.29    5.80
   3   3   2  905.91   22.10
   3   3   2  900.81   22.60
   3   3   2  905.81   22.10
   3   3   2  890.61   22.50
   3   3   2  895.91   22.10
   3   3   2  914.91   23.20
   3   3   2  833.12   23.10
   3   3   2  895.91   22.10
  -3  -3  -2  868.91   22.50
  -3  -3  -2  881.81   22.20
  -3  -3  -2  885.81   22.30
  -3  -3  -2  883.11   23.00
  -3  -3  -2  908.41   23.70
  -3  -3  -2  881.91   22.20
   2   3   2  905.41   22.70
   2   3   2  878.01   22.40
   2   3   2  873.91   22.00
   2   3   2  885.21   21.70
   2   3   2  873.41   22.10
   2   3   2  885.21   21.70
  -2  -3  -2  905.01   22.90
  -2  -3  -2  900.71   21.60
  -2  -3  -2  864.41   21.70
  -2  -3  -2  913.81   22.60
  -2  -3  -2  864.41   21.70
  -2  -3  -2  904.31   22.20
   1   3   2  871.81   20.90
   1   3   2  855.31   19.90
   1   3   2  859.11   21.00
   1   3   2  853.31   21.00
   1   3   2  828.12   20.30
   1   3   2  828.12   20.30
  -1  -3  -2  851.21   20.40
  -1  -3  -2  852.11   21.20
  -1  -3  -2  831.52   21.00
  -1  -3  -2  851.21   20.40
  -1  -3  -2  838.72   20.10
  -1  -3  -2  803.02   21.10
   0   3   2   86.09    2.70
   0   3   2   84.89    2.90
   0   3   2   89.29    3.20
   0   3   2   89.79    3.60
   0   3   2   82.59    3.60
   0   3   2   84.89    2.90
   0   3   2   86.69    2.70
   0  -3  -2   81.29    3.20
   0  -3  -2   86.29    3.50
   0  -3  -2   82.49    3.50
  -1   3   2 2282.47   52.09
  -1   3   2 2271.77   52.89
  -1   3   2 2168.28   52.79
  -1   3   2 2331.37   51.79
  -1   3   2 2127.99   52.09
  -1   3   2 2331.37   51.79
  -1   3   2 2346.37   51.69
   1  -3  -2 2265.27   51.79
   1  -3  -2 2233.88   52.79
   1  -3  -2 2194.78   52.79
   1  -3  -2 2251.37   51.69
   1  -3  -2 2265.27   51.79
   1  -3  -2 2260.57   52.09
  -2   3   2 5633.24  127.59
  -2   3   2 5527.95  128.69
  -2   3   2 5367.36  128.79
  -2   3   2 5633.24  127.59
  -2   3   2 5706.83  128.99
  -2   3   2 5814.22  128.39
   2  -3  -2 5523.25  128.99
   2  -3  -2 5683.13  128.59
   2  -3  -2 5507.65  128.89
   2  -3  -2 5613.34  128.49
   2  -3  -2 5682.93  128.59
  -3   3   2  854.31   20.90
  -3   3   2  866.31   20.00
  -3   3   2  866.31   20.00
  -3   3   2  835.02   21.60
  -3   3   2  833.32   21.40
  -3   3   2  851.71   21.50
   3  -3  -2  853.71   19.50
   3  -3  -2  830.82   19.50
   3  -3  -2  843.42   21.50
   3  -3  -2  819.32   21.40
   3  -3  -2  800.72   21.50
   3  -3  -2  825.52   19.90
   3  -3  -2  825.52   19.90
  -4   3   2  272.87    7.50
  -4   3   2  261.57    8.30
  -4   3   2  271.47    7.40
  -4   3   2  271.47    7.40
  -4   3   2  274.37    9.30
  -4   3   2  260.87    8.80
  -4   3   2  265.57    8.90
   4  -3  -2  270.47    7.30
   4  -3  -2  269.27    9.20
   4  -3  -2  268.87    9.10
   4  -3  -2  264.87    9.10
   4  -3  -2  263.07    7.30
   4  -3  -2  263.07    7.30
  -5   3   2  265.37   10.00
  -5   3   2  295.47   11.50
  -5   3   2  280.27    8.10
  -5   3   2  280.27    8.10
  -5   3   2  271.87   10.00
   5  -3  -2  274.87    8.20
   5  -3  -2  274.77    9.90
   5  -3  -2  286.07   10.20
   5  -3  -2  276.57    7.90
   5  -3  -2  276.57    7.90
  -6   3   2  427.56   12.60
  -6   3   2  403.26   11.50
  -6   3   2  413.46   12.60
  -6   3   2  403.16   11.50
  -6   3   2  406.16   14.00
   6  -3  -2  430.16   14.20
   6  -3  -2  424.06   13.80
   6  -3  -2  419.96   12.00
   6  -3  -2  407.96   11.30
   6  -3  -2  407.96   11.30
  -7   3   2   91.99    7.40
  -7   3   2   84.39    5.90
  -7   3   2   86.99    6.40
   7  -3  -2   85.79    4.70
   7  -3  -2  106.79    7.60
   7  -3  -2  102.99    7.80
   7  -3  -2   74.59    6.10
   7  -3  -2   85.89    4.70
  -8   3   2  145.79    8.00
  -8   3   2  167.18   10.60
  -8   3   2  142.09    9.40
   8  -3  -2  141.59    6.70
   8  -3  -2  153.98   10.20
   8  -3  -2  141.59    6.70
   8  -3  -2  157.88   11.60
  -9   3   2   85.89    7.80
  -9   3   2   90.59   11.10
   9  -3  -2  105.59    9.40
   9  -3  -2  112.89   11.60
   9  -3  -2  105.69    9.40
   9  -3  -2   86.39    9.50
   8   3   1   32.70    7.70
   8   3   1    9.00    4.20
   8   3   1   38.80    6.20
   8   3   1    9.00    4.20
  -8  -3  -1   28.80    7.00
  -8  -3  -1   23.50    6.60
   7   3   1   20.50    4.50
   7   3   1   18.30    3.50
   7   3   1   18.30    3.50
   7   3   1   22.50    4.70
  -7  -3  -1   19.40    5.10
  -7  -3  -1   23.90    5.30
   6   3   1   21.30    3.00
   6   3   1   21.30    3.00
   6   3   1   20.00    3.50
  -6  -3  -1   18.10    4.30
  -6  -3  -1   26.30    4.30
   5   3   1  517.75   15.80
   5   3   1  514.55   15.00
   5   3   1  502.35   14.10
   5   3   1  502.35   14.00
  -5  -3  -1  475.85   12.80
  -5  -3  -1  500.75   16.30
  -5  -3  -1  498.55   14.50
  -5  -3  -1  514.15   15.40
   4   3   1  349.96   10.70
   4   3   1  336.27    9.80
   4   3   1  349.87   11.10
   4   3   1  323.57    9.90
   4   3   1  323.57    9.90
   4   3   1  336.37    9.80
   4   3   1  346.97   10.80
   4   3   1  314.77   10.80
  -4  -3  -1  347.97   11.60
  -4  -3  -1  332.17   10.50
  -4  -3  -1  339.27   10.10
   3   3   1  183.78    7.10
   3   3   1  198.58    6.60
   3   3   1  201.98    6.30
   3   3   1  206.28    6.40
   3   3   1  204.58    6.50
   3   3   1  208.28    7.10
   3   3   1  206.28    6.40
   3   3   1  201.98    6.30
  -3  -3  -1  199.48    6.40
  -3  -3  -1  189.68    6.70
  -3  -3  -1  201.68    7.50
  -3  -3  -1  196.28    6.70
   2   3   1   21.50    2.40
   2   3   1    9.60    1.70
   2   3   1   16.70    1.70
   2   3   1   15.10    1.70
   2   3   1   15.60    1.90
   2   3   1   15.20    1.60
   2   3   1   16.70    1.70
   2   3   1   15.20    1.60
  -2  -3  -1   15.00    1.70
  -2  -3  -1    9.80    1.80
  -2  -3  -1   14.40    1.70
  -2  -3  -1   13.40    1.70
  -2  -3  -1   14.40    1.70
  -2  -3  -1   15.10    1.90
   1   3   1  443.86   12.10
   1   3   1  479.75   11.60
   1   3   1  469.85   11.80
   1   3   1  471.15   11.60
   1   3   1  479.75   11.60
  -1  -3  -1  449.95   12.00
  -1  -3  -1  466.25   12.30
  -1  -3  -1  467.35   11.70
   0   3   1  633.54   15.70
   0   3   1  660.23   16.00
   0   3   1  625.04   15.90
   0   3   1  641.44   15.60
   0   3   1  640.94   15.60
   0   3   1  671.73   15.30
   0   3   1  661.13   16.00
   0   3   1  671.73   15.30
   0  -3  -1  623.94   15.30
   0  -3  -1  623.94   15.30
   0  -3  -1  614.24   15.90
   0  -3  -1  654.93   16.00
   0  -3  -1  654.73   15.70
  -1   3   1 4053.99   91.59
  -1   3   1 3661.13   92.59
  -1   3   1 3980.10   91.89
  -1   3   1 4053.89   91.59
  -1   3   1 3979.20   91.59
  -1   3   1 4107.89   91.39
  -1   3   1 4050.49   91.49
   1  -3  -1 4068.69   91.79
   1  -3  -1 3939.11   91.99
   1  -3  -1 3826.82   91.49
   1  -3  -1 4068.59   91.79
   1  -3  -1 4014.30   91.59
   1  -3  -1 4141.89   91.99
  -2   3   1  853.71   19.40
  -2   3   1  833.92   19.10
  -2   3   1  839.22   20.70
  -2   3   1  821.22   20.90
  -2   3   1  853.71   19.40
   2  -3  -1  839.52   19.10
   2  -3  -1  818.62   20.30
   2  -3  -1  785.52   21.10
   2  -3  -1  831.92   20.90
   2  -3  -1  857.41   20.70
   2  -3  -1  824.62   19.40
   2  -3  -1  824.62   19.40
  -3   3   1  785.62   20.70
  -3   3   1  791.32   18.60
  -3   3   1  777.72   20.20
  -3   3   1  760.42   20.20
  -3   3   1  791.22   18.60
  -3   3   1  790.42   18.90
  -3   3   1  792.82   19.70
   3  -3  -1  808.82   18.70
   3  -3  -1  779.72   20.30
   3  -3  -1  807.92   18.60
   3  -3  -1  778.42   20.40
   3  -3  -1  808.02   18.60
   3  -3  -1  777.02   20.40
  -4   3   1    7.10    2.40
  -4   3   1    3.90    1.80
  -4   3   1    4.50    1.20
  -4   3   1    7.40    2.10
  -4   3   1    4.50    1.20
  -4   3   1    5.60    1.80
  -4   3   1    5.10    1.30
   4  -3  -1    4.10    1.00
   4  -3  -1    6.10    1.90
   4  -3  -1    2.70    1.90
   4  -3  -1    4.00    1.20
   4  -3  -1    4.10    1.00
   4  -3  -1    3.10    1.50
  -5   3   1  323.97   10.00
  -5   3   1  318.57    8.90
  -5   3   1  318.57    8.90
  -5   3   1  324.57    9.90
  -5   3   1  320.27   11.00
  -5   3   1  328.67   11.50
   5  -3  -1  324.37    9.50
   5  -3  -1  321.47   11.10
   5  -3  -1  324.77    8.80
   5  -3  -1  324.77    8.80
   5  -3  -1  338.57   11.40
  -6   3   1  331.77    9.90
  -6   3   1  331.77    9.90
  -6   3   1  337.27   12.40
  -6   3   1  352.56   11.00
  -6   3   1  342.07   11.10
   6  -3  -1  336.97   10.70
   6  -3  -1  336.17   12.40
   6  -3  -1  336.77    9.60
   6  -3  -1  346.57   12.30
   6  -3  -1  336.77    9.60
  -7   3   1  164.58    9.30
  -7   3   1  164.78    7.80
  -7   3   1  170.58    8.30
   7  -3  -1  163.98    9.30
   7  -3  -1  138.29    7.60
   7  -3  -1  138.29    7.60
   7  -3  -1  172.08    9.60
   7  -3  -1  163.78    8.40
   7  -3  -1  167.58    6.30
   7  -3  -1  167.58    6.30
  -8   3   1  114.29    9.60
  -8   3   1  100.89    8.80
  -8   3   1   91.59    7.10
   8  -3  -1  104.49    6.00
   8  -3  -1   99.79    9.30
   8  -3  -1  110.19   10.40
   8  -3  -1  104.49    6.00
  -9   3   1   24.90    7.10
  -9   3   1   30.40    5.50
   9  -3  -1   26.20    8.20
   9  -3  -1   17.20    7.50
   9   3   0    6.90    5.30
   9   3   0    6.90    5.30
  -9  -3   0    0.40    7.60
  -9  -3   0   12.20    8.90
   8   3   0    3.60    4.70
   8   3   0    2.10    3.70
   8   3   0    2.10    3.70
   8   3   0    4.70    4.60
  -8  -3   0   -1.80    5.20
  -8  -3   0    5.00    6.30
   7   3   0   91.79    7.10
   7   3   0   75.79    5.70
   7   3   0   92.89    7.20
   7   3   0   75.79    5.70
  -7  -3   0   91.89    8.60
  -7  -3   0   88.19    7.80
   6   3   0   60.29    4.40
   6   3   0   55.89    5.10
   6   3   0   60.29    4.50
   6   3   0   45.10    5.30
  -6  -3   0   51.39    5.00
  -6  -3   0   51.79    6.60
  -6  -3   0   53.29    4.50
  -6  -3   0   61.99    5.80
   5   3   0  337.17   10.40
   5   3   0  339.67   10.10
   5   3   0  339.67   10.10
   5   3   0  330.87   11.50
  -5  -3   0  343.07   12.50
  -5  -3   0  333.87   11.30
  -5  -3   0  336.67    9.50
  -5  -3   0  343.17   10.10
  -5  -3   0  332.17   12.10
   4   3   0  282.57    8.60
   4   3   0  280.57    9.40
   4   3   0  247.28    9.20
   4   3   0  286.67    8.40
   4   3   0  271.67    8.50
   4   3   0  271.67    8.50
   4   3   0  269.87    9.00
   4   3   0  286.77    8.40
  -4  -3   0  285.07    8.20
  -4  -3   0  272.97    9.10
  -4  -3   0  274.37    7.70
  -4  -3   0  279.47    9.80
  -4  -3   0  273.47    8.90
   3   3   0  983.20   23.20
   3   3   0  901.31   23.00
   3   3   0  983.10   23.20
   3   3   0  949.21   24.10
   3   3   0  975.50   22.90
   3   3   0  960.60   23.70
   3   3   0  901.31   23.00
   3   3   0  964.10   23.60
  -3  -3   0 1003.30   23.50
  -3  -3   0  980.30   23.90
  -3  -3   0  930.91   23.50
  -3  -3   0  841.02   23.20
  -3  -3   0  920.51   24.40
   2   3   0 1913.51   46.30
   2   3   0 1977.20   45.90
   2   3   0 1982.00   46.90
   2   3   0 1977.30   45.90
   2   3   0 1994.80   45.70
   2   3   0 2073.89   46.10
   2   3   0 2073.89   46.10
  -2  -3   0 1885.01   46.30
  -2  -3   0 2002.40   47.10
  -2  -3   0 1944.41   45.80
  -2  -3   0 1920.81   46.70
   1   3   0 2753.42   62.39
   1   3   0 2797.52   62.79
   1   3   0 2668.03   62.19
   1   3   0 2770.52   62.29
   1   3   0 2668.03   62.19
   1   3   0 2798.32   62.39
   1   3   0 2735.93   62.49
   1   3   0 2606.04   63.59
   1   3   0 2770.52   62.29
  -1  -3   0 2736.53   62.59
  -1  -3   0 2664.63   62.89
  -1  -3   0 2603.54   62.99
   0   3   0    0.30    0.30
   0   3   0    0.90    0.70
   0   3   0   -0.20    0.50
   0   3   0    0.10    0.60
   0   3   0   -0.10    0.50
   0   3   0    0.30    0.30
   0   3   0    0.70    0.50
   0   3   0    0.10    0.60
   0  -3   0    0.00    0.50
   0  -3   0   -0.10    0.60
   0  -3   0   -0.40    0.30
   0  -3   0   -0.40    0.30
  -1   3   0 2827.52   62.59
  -1   3   0 2820.92   63.49
  -1   3   0 2745.93   63.09
  -1   3   0 2733.33   63.59
  -1   3   0 2827.52   62.59
   1  -3   0 2534.15   63.69
   1  -3   0 2799.82   62.59
   1  -3   0 2630.14   63.39
   1  -3   0 2799.82   62.59
   1  -3   0 2756.22   63.59
   1  -3   0 2760.42   62.89
  -2   3   0 1934.71   46.30
  -2   3   0 1910.11   46.10
  -2   3   0 1991.80   45.20
  -2   3   0 1975.30   44.60
  -2   3   0 1975.30   44.60
  -2   3   0 2002.40   46.40
   2  -3   0 1992.10   44.60
   2  -3   0 1992.00   44.60
   2  -3   0 2033.80   45.90
   2  -3   0 1869.41   46.20
   2  -3   0 1959.10   46.40
   2  -3   0 1985.90   45.20
   2  -3   0 1837.92   46.40
  -3   3   0  956.70   22.90
  -3   3   0  907.41   23.80
  -3   3   0  966.40   22.10
  -3   3   0  942.31   24.40
  -3   3   0  966.50   22.10
  -3   3   0  927.61   23.90
   3  -3   0  965.60   22.00
   3  -3   0  934.91   24.00
   3  -3   0  963.40   24.10
   3  -3   0  938.61   23.20
   3  -3   0  968.80   24.20
   3  -3   0  886.71   23.00
   3  -3   0  965.50   22.00
  -4   3   0  282.37    7.40
  -4   3   0  278.37   10.00
  -4   3   0  284.07    8.60
  -4   3   0  284.27    8.50
  -4   3   0  272.47    9.50
  -4   3   0  282.37    7.40
  -4   3   0  256.97    9.20
   4  -3   0  281.37    8.20
   4  -3   0  274.97    9.60
   4  -3   0  275.87    9.40
   4  -3   0  277.07    7.40
   4  -3   0  277.07    7.40
   4  -3   0  265.77    9.50
  -5   3   0  375.26   14.10
  -5   3   0  340.47   12.20
  -5   3   0  343.57   10.80
  -5   3   0  342.57   10.50
   5  -3   0  335.47   10.30
   5  -3   0  337.47    9.50
   5  -3   0  337.47    9.50
   5  -3   0  343.97   11.90
   5  -3   0  353.26   12.00
   5  -3   0  351.46    9.30
   5  -3   0  351.46    9.30
  -6   3   0   60.59    5.20
  -6   3   0   57.29    5.00
  -6   3   0   55.39    5.80
   6  -3   0   58.69    3.50
   6  -3   0   53.59    5.70
   6  -3   0   58.69    3.50
   6  -3   0   45.60    4.30
   6  -3   0   45.60    4.30
   6  -3   0   62.79    6.60
   6  -3   0   56.99    5.10
  -7   3   0   91.59    7.90
  -7   3   0   82.89    7.20
  -7   3   0   85.09    6.30
   7  -3   0   75.39    8.10
   7  -3   0   79.39    4.70
   7  -3   0   79.39    4.70
  -8   3   0    3.20    4.90
  -8   3   0    1.40    4.00
  -8   3   0    4.40    4.90
   8  -3   0    4.10    5.70
   8  -3   0    3.80    4.60
   8  -3   0    1.50    3.10
   8  -3   0    1.50    3.10
  -9   3   0   27.50    9.80
  -9   3   0    8.20    4.90
   9  -3   0   11.30    8.10
   9   3  -1   27.40    5.20
   9   3  -1   27.60    7.20
   9   3  -1   27.40    5.20
  -9  -3   1   27.40    8.60
  -9  -3   1   14.30    7.20
   8   3  -1  102.19    7.20
   8   3  -1  102.19    7.20
   8   3  -1  107.29    9.10
   8   3  -1  103.89    8.40
  -8  -3   1  101.99   10.00
  -8  -3   1   83.59   10.70
   7   3  -1  167.78    7.40
   7   3  -1  167.78    7.40
   7   3  -1  169.88    7.70
   7   3  -1  170.48    8.90
  -7  -3   1  155.48    9.20
  -7  -3   1  167.88    7.60
   6   3  -1  356.76   12.10
   6   3  -1  343.07   10.80
   6   3  -1  343.07   10.80
   6   3  -1  350.56   10.70
  -6  -3   1  353.46   13.30
  -6  -3   1  358.06   12.60
  -6  -3   1  341.47   10.50
  -6  -3   1  349.37   10.40
   5   3  -1  328.57    9.90
   5   3  -1  343.37   11.30
   5   3  -1  328.47    9.60
   5   3  -1  328.57    9.90
   5   3  -1  346.07   11.10
   5   3  -1  343.37   11.30
  -5  -3   1  331.17    9.60
  -5  -3   1  332.07    9.40
  -5  -3   1  334.57   11.90
  -5  -3   1  319.07   10.80
  -5  -3   1  339.77   11.40
   4   3  -1    3.80    2.00
   4   3  -1    4.90    1.40
   4   3  -1    4.90    1.40
   4   3  -1    3.90    1.40
   4   3  -1    3.40    1.80
   4   3  -1    4.30    1.90
  -4  -3   1    3.50    1.20
  -4  -3   1    3.40    1.10
  -4  -3   1    5.20    2.20
  -4  -3   1    3.50    1.20
  -4  -3   1    2.80    1.80
  -4  -3   1    3.30    1.50
  -4  -3   1    6.50    1.90
   3   3  -1  785.62   18.50
   3   3  -1  771.42   19.50
   3   3  -1  777.02   19.80
   3   3  -1  756.62   20.20
  -3  -3   1  781.22   20.50
  -3  -3   1  768.52   19.20
  -3  -3   1  768.42   18.80
  -3  -3   1  777.62   20.00
  -3  -3   1  762.52   19.00
  -3  -3   1  762.52   19.00
  -3  -3   1  780.42   18.40
   2   3  -1  837.62   19.50
   2   3  -1  841.82   18.90
   2   3  -1  825.92   19.50
   2   3  -1  831.32   19.00
   2   3  -1  825.92   19.50
   2   3  -1  817.62   20.20
  -2  -3   1  756.82   19.40
  -2  -3   1  813.72   19.50
  -2  -3   1  762.42   20.50
  -2  -3   1  813.82   19.50
  -2  -3   1  748.63   20.30
  -2  -3   1  828.42   19.40
   1   3  -1 4121.69   91.49
   1   3  -1 4040.80   91.59
   1   3  -1 3864.81   91.09
   1   3  -1 4081.59   91.99
   1   3  -1 3864.81   91.09
  -1  -3   1 4064.69   91.09
  -1  -3   1 3998.40   92.09
  -1  -3   1 4064.69   91.09
  -1  -3   1 3762.32   91.49
  -1  -3   1 4084.89   92.39
   0   3  -1  620.14   15.60
   0   3  -1  635.74   15.60
   0   3  -1  640.24   15.20
   0   3  -1  626.74   15.90
   0   3  -1  638.44   16.30
   0   3  -1  638.44   14.80
   0   3  -1  638.44   14.80
   0  -3   1  655.13   15.20
   0  -3   1  651.63   14.80
   0  -3   1  624.94   15.60
   0  -3   1  624.74   15.60
   0  -3   1  651.63   14.80
   0  -3   1  611.14   15.60
  -1   3  -1  459.35   11.80
  -1   3  -1  471.15   12.30
  -1   3  -1  459.55   12.20
  -1   3  -1  467.85   11.60
   1  -3   1  464.55   11.90
   1  -3   1  451.05   11.90
   1  -3   1  482.75   11.80
   1  -3   1  461.45   12.30
   1  -3   1  463.65   12.30
  -2   3  -1    9.70    1.70
  -2   3  -1   12.10    1.50
  -2   3  -1   15.40    2.10
  -2   3  -1   14.30    2.30
   2  -3   1   14.40    2.10
   2  -3   1   13.50    1.70
   2  -3   1   15.80    0.80
   2  -3   1   10.30    1.70
   2  -3   1   16.10    2.20
   2  -3   1   15.80    0.80
   2  -3   1   14.70    0.80
   2  -3   1   14.70    0.80
   2  -3   1   15.20    2.30
  -3   3  -1  204.38    7.60
  -3   3  -1  193.78    7.20
  -3   3  -1  202.08    7.10
  -3   3  -1  200.88    6.60
   3  -3   1  201.38    5.30
   3  -3   1  201.18    7.40
   3  -3   1  201.38    5.30
   3  -3   1  206.88    7.50
   3  -3   1  203.68    5.30
   3  -3   1  203.68    5.30
   3  -3   1  205.18    6.40
   3  -3   1  206.38    7.20
  -4   3  -1  355.56   11.80
  -4   3  -1  329.67    9.80
  -4   3  -1  342.87   10.40
  -4   3  -1  322.67   10.90
   4  -3   1  346.97   10.00
   4  -3   1  343.27    8.90
   4  -3   1  330.67    9.90
   4  -3   1  335.07    8.80
   4  -3   1  343.27    8.90
   4  -3   1  334.97    8.80
   4  -3   1  340.17   11.40
   4  -3   1  340.07   11.10
   4  -3   1  356.26   11.50
  -5   3  -1  508.35   14.30
  -5   3  -1  506.15   16.30
  -5   3  -1  519.95   15.20
   5  -3   1  522.15   16.20
   5  -3   1  522.45   13.10
   5  -3   1  510.35   13.30
   5  -3   1  477.25   14.40
   5  -3   1  510.35   13.30
   5  -3   1  522.45   13.10
   5  -3   1  541.05   16.10
  -6   3  -1   28.40    4.80
  -6   3  -1   24.60    4.00
  -6   3  -1   21.60    3.40
   6  -3   1   20.20    2.90
   6  -3   1   20.20    2.90
   6  -3   1   27.00    2.50
   6  -3   1   27.00    2.50
   6  -3   1   19.70    3.50
   6  -3   1   26.00    4.30
  -7   3  -1   21.10    5.10
  -7   3  -1   23.10    4.70
  -7   3  -1   24.80    4.10
   7  -3   1   21.90    3.00
   7  -3   1   31.20    5.70
   7  -3   1   16.90    4.30
   7  -3   1   21.90    3.00
  -8   3  -1   32.80    6.60
  -8   3  -1   28.80    5.00
  -8   3  -1   33.20    7.40
   8  -3   1   30.70    7.40
   8  -3   1   22.90    5.30
   9   3  -2   93.19   11.00
   9   3  -2  106.49   12.20
   9   3  -2   81.69    6.70
   9   3  -2   81.69    6.70
  -9  -3   2   92.99   10.30
  -9  -3   2  100.49   11.40
   8   3  -2  139.89    7.80
   8   3  -2  139.89    7.80
   8   3  -2  162.08   10.20
   8   3  -2  150.98   10.60
  -8  -3   2  140.19    8.30
  -8  -3   2  146.19   10.20
  -8  -3   2  156.18   11.50
   7   3  -2   97.59    7.00
   7   3  -2   96.29    5.60
   7   3  -2   86.59    5.40
   7   3  -2   96.29    5.60
  -7  -3   2   88.69    7.60
  -7  -3   2   88.39    8.10
  -7  -3   2   72.09    6.10
   6   3  -2  429.76   12.40
   6   3  -2  423.56   13.50
   6   3  -2  429.76   12.40
  -6  -3   2  422.96   14.80
  -6  -3   2  423.06   11.40
  -6  -3   2  422.96   12.30
  -6  -3   2  413.46   14.20
   5   3  -2  228.58    9.50
   5   3  -2  273.17    9.20
   5   3  -2  268.07    7.60
   5   3  -2  286.87    8.60
   5   3  -2  286.87    8.60
  -5  -3   2  265.47    9.40
  -5  -3   2  279.47    8.50
  -5  -3   2  276.47   10.40
  -5  -3   2  265.47    9.40
  -5  -3   2  264.57    9.80
  -5  -3   2  259.27    9.10
  -5  -3   2  274.97    7.30
   4   3  -2  266.27    8.30
   4   3  -2  263.27    6.80
   4   3  -2  266.57    8.00
   4   3  -2  252.77    9.10
   4   3  -2  259.27    8.80
   4   3  -2  266.57    8.00
  -4  -3   2  264.87    9.50
  -4  -3   2  261.17    7.90
  -4  -3   2  278.47    8.00
  -4  -3   2  258.87    9.10
  -4  -3   2  267.47    6.70
  -4  -3   2  279.27    8.20
  -4  -3   2  278.47    8.00
   3   3  -2  817.82   21.70
   3   3  -2  829.02   20.40
   3   3  -2  829.02   20.40
   3   3  -2  843.02   20.40
   3   3  -2  838.72   21.70
  -3  -3   2  835.62   20.50
  -3  -3   2  874.31   20.60
  -3  -3   2  838.32   20.30
  -3  -3   2  804.92   21.60
  -3  -3   2  835.82   20.50
   2   3  -2 5763.52  130.19
   2   3  -2 5662.23  128.99
   2   3  -2 5662.23  128.99
   2   3  -2 5783.32  130.39
   2   3  -2 5578.94  129.89
   2   3  -2 5604.74  129.39
  -2  -3   2 5313.87  130.09
  -2  -3   2 5791.32  129.09
  -2  -3   2 5591.04  129.89
  -2  -3   2 5663.93  129.29
  -2  -3   2 5791.42  129.09
   1   3  -2 2202.38   51.29
   1   3  -2 2202.38   51.29
   1   3  -2 2227.38   52.39
   1   3  -2 2263.97   51.29
   1   3  -2 2203.68   52.39
  -1  -3   2 2247.08   51.89
  -1  -3   2 2115.69   52.59
  -1  -3   2 2260.27   52.39
  -1  -3   2 2293.67   51.29
  -1  -3   2 2293.57   51.29
  -1  -3   2 2240.58   51.39
   0   3  -2   88.49    3.40
   0   3  -2   87.09    2.50
   0   3  -2   85.49    3.70
   0   3  -2   86.59    3.80
   0   3  -2   87.09    2.50
   0   3  -2   75.09    3.70
   0   3  -2   87.99    2.80
   0  -3   2   84.49    3.60
   0  -3   2   86.19    2.80
   0  -3   2   90.69    2.50
   0  -3   2   85.49    3.40
   0  -3   2   90.69    2.50
   0  -3   2   84.69    3.50
  -1   3  -2  864.81   19.30
  -1   3  -2  864.71   19.30
  -1   3  -2  825.02   21.00
  -1   3  -2  827.92   20.90
  -1   3  -2  772.62   20.90
  -1   3  -2  863.71   20.50
   1  -3   2  834.02   19.20
   1  -3   2  808.82   20.40
   1  -3   2  860.01   21.10
   1  -3   2  848.52   20.70
   1  -3   2  818.72   20.60
   1  -3   2  834.02   19.20
   1  -3   2  846.62   21.10
  -2   3  -2  919.11   22.60
  -2   3  -2  907.81   23.00
  -2   3  -2  907.21   21.10
  -2   3  -2  907.21   21.10
  -2   3  -2  865.91   23.20
  -2   3  -2  913.21   22.90
   2  -3   2  909.61   23.30
   2  -3   2  915.91   21.00
   2  -3   2  903.61   22.50
   2  -3   2  915.81   21.00
   2  -3   2  935.71   23.20
   2  -3   2  885.31   22.70
   2  -3   2  913.01   22.40
  -3   3  -2  869.51   23.20
  -3   3  -2  894.21   23.80
  -3   3  -2  883.41   23.40
  -3   3  -2  885.21   22.80
   3  -3   2  907.41   22.20
   3  -3   2  886.91   20.90
   3  -3   2  884.51   22.50
   3  -3   2  908.41   21.00
   3  -3   2  900.51   23.20
   3  -3   2  876.71   23.30
   3  -3   2  908.51   21.00
   3  -3   2  897.81   23.60
   3  -3   2  886.91   20.90
  -4   3  -2  118.59    7.40
  -4   3  -2  122.99    7.00
  -4   3  -2  131.69    5.90
   4  -3   2  118.09    4.10
   4  -3   2  110.89    6.00
   4  -3   2  124.69    4.10
   4  -3   2  124.69    4.10
   4  -3   2  120.79    5.40
   4  -3   2  114.89    5.60
   4  -3   2  131.09    6.70
   4  -3   2  118.09    4.10
  -5   3  -2   76.79    5.00
  -5   3  -2   73.39    6.50
  -5   3  -2   75.09    5.50
   5  -3   2   79.39    5.80
   5  -3   2   66.69    6.60
   5  -3   2   67.49    3.50
   5  -3   2   67.49    3.50
   5  -3   2   68.59    3.80
   5  -3   2   68.59    3.80
  -6   3  -2  173.78    8.90
  -6   3  -2  173.68   10.00
  -6   3  -2  173.08    7.60
   6  -3   2  177.48    6.20
   6  -3   2  165.48    6.80
   6  -3   2  165.48    6.80
   6  -3   2  177.48    6.20
   6  -3   2  176.38    9.10
  -7   3  -2   98.39    9.20
  -7   3  -2   94.99    7.10
  -7   3  -2   96.69   10.20
   7  -3   2  109.79    8.80
   7  -3   2  112.79   10.10
   7  -3   2   97.29    5.60
   7  -3   2   97.29    5.60
  -8   3  -2   76.19    8.90
  -8   3  -2   87.79    9.20
   8  -3   2  107.19   10.70
   8  -3   2  105.09   12.80
   9   3  -3   77.19    8.80
   9   3  -3   77.19    8.20
   9   3  -3   76.49    6.30
   9   3  -3   76.49    6.30
  -9  -3   3   76.99    7.10
  -9  -3   3   83.79   10.50
   8   3  -3   19.10    5.30
   8   3  -3   20.10    4.90
   8   3  -3   16.00    3.80
   8   3  -3   16.00    3.80
  -8  -3   3   27.40    5.70
  -8  -3   3   18.30    4.50
   7   3  -3  274.57   11.70
   7   3  -3  278.87   10.90
   7   3  -3  282.17    9.70
   7   3  -3  282.07    9.70
   7   3  -3  267.47    8.40
  -7  -3   3  298.77   12.10
  -7  -3   3  274.67    9.90
   6   3  -3  514.65   16.10
   6   3  -3  508.25   14.20
   6   3  -3  503.75   15.00
   6   3  -3  490.65   12.50
   6   3  -3  508.25   14.20
  -6  -3   3  501.55   14.20
  -6  -3   3  502.95   16.10
  -6  -3   3  463.35   14.80
  -6  -3   3  492.55   12.30
   5   3  -3  577.14   17.10
   5   3  -3  564.94   15.80
   5   3  -3  579.54   15.50
   5   3  -3  579.54   15.50
  -5  -3   3  590.24   15.60
  -5  -3   3  601.44   17.30
  -5  -3   3  560.14   15.80
   4   3  -3  143.09    5.10
   4   3  -3  140.79    6.30
   4   3  -3  138.49    6.10
   4   3  -3  143.09    5.10
   4   3  -3  145.09    5.10
   4   3  -3  135.59    6.40
  -4  -3   3  134.99    5.20
  -4  -3   3  150.48    5.30
  -4  -3   3  144.69    5.40
  -4  -3   3  134.99    5.20
  -4  -3   3  140.79    6.40
   3   3  -3 1360.26   34.00
   3   3  -3 1426.56   32.80
   3   3  -3 1394.26   33.80
   3   3  -3 1426.66   32.80
   3   3  -3 1371.56   32.30
   3   3  -3 1345.77   34.20
  -3  -3   3 1426.36   32.30
  -3  -3   3 1309.97   34.00
  -3  -3   3 1369.86   32.80
  -3  -3   3 1352.36   33.00
  -3  -3   3 1369.86   32.80
   2   3  -3 1630.94   38.40
   2   3  -3 1480.65   37.10
   2   3  -3 1480.65   37.10
   2   3  -3 1601.94   36.30
   2   3  -3 1596.54   38.50
  -2  -3   3 1588.54   36.30
  -2  -3   3 1623.44   38.70
  -2  -3   3 1616.14   37.80
  -2  -3   3 1586.04   38.50
  -2  -3   3 1656.73   37.30
  -2  -3   3 1656.73   37.30
  -2  -3   3 1570.74   36.60
   1   3  -3  496.35   13.70
   1   3  -3  500.15   13.80
   1   3  -3  524.95   12.90
  -1  -3   3  499.25   14.00
  -1  -3   3  535.55   13.40
  -1  -3   3  498.85   12.90
  -1  -3   3  517.25   12.90
  -1  -3   3  498.85   12.90
  -1  -3   3  533.65   13.90
   0   3  -3  510.15   13.70
   0   3  -3  508.95   14.00
   0   3  -3  510.25   12.50
   0   3  -3  514.45   13.80
   0   3  -3  516.55   12.30
   0   3  -3  523.45   13.60
   0   3  -3  516.55   12.30
   0  -3   3  526.55   13.80
   0  -3   3  499.55   12.50
   0  -3   3  475.55   14.00
   0  -3   3  513.65   12.30
   0  -3   3  513.65   12.30
   0  -3   3  503.95   13.40
  -1   3  -3  108.09    3.10
  -1   3  -3   99.59    4.40
  -1   3  -3  102.79    4.60
  -1   3  -3  108.09    3.10
  -1   3  -3  109.69    4.10
  -1   3  -3  108.89    5.00
   1  -3   3   97.69    4.70
   1  -3   3  105.09    4.40
   1  -3   3  106.99    4.50
   1  -3   3  108.39    3.10
   1  -3   3  107.79    4.20
   1  -3   3  101.49    4.80
   1  -3   3  108.39    3.10
  -2   3  -3  124.49    5.10
  -2   3  -3  128.29    3.80
  -2   3  -3  126.29    5.40
  -2   3  -3  124.89    5.40
  -2   3  -3  123.49    6.10
  -2   3  -3  128.29    3.80
   2  -3   3  131.59    5.30
   2  -3   3  117.99    5.00
   2  -3   3  133.89    3.70
   2  -3   3  133.89    3.70
   2  -3   3  133.09    5.40
   2  -3   3  127.09    5.70
   2  -3   3  127.89    5.80
  -3   3  -3   54.49    4.20
  -3   3  -3   59.79    4.70
  -3   3  -3   52.49    4.10
  -3   3  -3   51.79    5.10
   3  -3   3   58.29    3.10
   3  -3   3   57.99    4.60
   3  -3   3   58.49    4.20
   3  -3   3   56.19    2.90
   3  -3   3   56.19    2.90
   3  -3   3   55.69    5.00
   3  -3   3   58.29    3.10
   3  -3   3   60.99    4.20
   3  -3   3   68.39    4.00
  -4   3  -3  857.41   24.40
  -4   3  -3  882.01   23.70
   4  -3   3  891.71   21.20
   4  -3   3  867.71   24.50
   4  -3   3  860.31   21.10
   4  -3   3  874.91   24.00
   4  -3   3  909.81   22.20
   4  -3   3  891.71   21.20
   4  -3   3  860.31   21.10
  -5   3  -3   36.50    4.40
  -5   3  -3   29.90    4.90
  -5   3  -3   42.90    3.80
   5  -3   3   35.60    3.00
   5  -3   3   34.00    5.10
   5  -3   3   34.60    3.10
   5  -3   3   28.10    4.60
   5  -3   3   34.60    3.10
   5  -3   3   35.60    3.00
  -6   3  -3   87.99    7.80
  -6   3  -3   73.49    8.10
   6  -3   3   96.59    7.60
   6  -3   3   73.69    4.70
   6  -3   3   74.99    8.40
   6  -3   3   73.69    4.70
  -7   3  -3   40.20    6.70
  -7   3  -3   40.00    6.20
   7  -3   3   35.30    7.10
   7  -3   3   31.50    5.60
  -8   3  -3   68.79    9.50
  -8   3  -3   76.29    9.40
   8  -3   3   75.59   10.40
   9   3  -4   67.39    5.70
   9   3  -4   65.59    7.80
   9   3  -4   67.39    5.70
   9   3  -4   64.49    8.20
  -9  -3   4   74.39    8.60
  -9  -3   4   67.79    6.90
   8   3  -4   18.10    5.10
   8   3  -4   18.60    3.70
   8   3  -4   25.30    5.00
   8   3  -4   18.60    3.70
  -8  -3   4   21.50    4.40
  -8  -3   4   17.10    5.00
   7   3  -4  213.68    9.20
   7   3  -4  196.58    7.80
   7   3  -4  196.58    7.80
   7   3  -4  196.38    9.90
  -7  -3   4  198.78    8.40
  -7  -3   4  190.48    9.90
   6   3  -4   67.69    5.90
   6   3  -4   63.69    4.10
   6   3  -4   63.69    4.10
   6   3  -4   70.99    5.10
  -6  -3   4   62.49    5.80
  -6  -3   4   73.19    5.80
  -6  -3   4   70.09    5.10
   5   3  -4   75.39    5.90
   5   3  -4   83.49    4.10
   5   3  -4   79.69    4.40
   5   3  -4   85.99    5.60
   5   3  -4   83.49    4.10
  -5  -3   4   81.19    4.70
  -5  -3   4   77.09    5.50
  -5  -3   4   81.99    4.70
   4   3  -4   91.69    5.60
   4   3  -4  100.59    4.20
   4   3  -4  106.49    5.40
   4   3  -4   88.59    4.50
   4   3  -4  100.59    4.20
  -4  -3   4   96.79    4.40
  -4  -3   4  101.89    4.10
  -4  -3   4   98.69    4.80
  -4  -3   4  103.89    5.60
  -4  -3   4   96.79    4.40
   3   3  -4  302.47    7.80
   3   3  -4  296.97    9.80
   3   3  -4  303.97    8.50
   3   3  -4  303.97    8.50
   3   3  -4  301.17    9.50
  -3  -3   4  304.87    8.60
  -3  -3   4  310.77    9.20
  -3  -3   4  291.77    9.80
  -3  -3   4  306.67    7.80
  -3  -3   4  304.87    8.60
  -3  -3   4  300.97   10.00
   2   3  -4  600.24   14.90
   2   3  -4  600.24   14.90
   2   3  -4  605.14   16.20
   2   3  -4  608.44   14.60
   2   3  -4  588.44   16.30
  -2  -3   4  594.64   15.60
  -2  -3   4  615.74   15.10
  -2  -3   4  592.24   16.30
  -2  -3   4  602.84   14.80
  -2  -3   4  615.74   15.10
  -2  -3   4  575.94   16.50
   1   3  -4   30.90    1.80
   1   3  -4   23.50    2.70
   1   3  -4   26.30    2.70
   1   3  -4   27.50    2.20
   1   3  -4   30.90    1.80
  -1  -3   4   24.50    3.00
  -1  -3   4   25.20    1.30
  -1  -3   4   31.30    2.80
  -1  -3   4   29.20    1.30
  -1  -3   4   28.10    1.90
  -1  -3   4   26.10    2.80
  -1  -3   4   23.30    2.90
  -1  -3   4   28.10    1.90
   0   3  -4  543.35   15.10
   0   3  -4  543.95   14.90
   0   3  -4  533.25   14.80
   0   3  -4  548.55   13.60
   0   3  -4  546.95   13.40
   0   3  -4  546.95   13.40
   0   3  -4  548.75   14.60
   0  -3   4  551.84   14.90
   0  -3   4  562.64   13.80
   0  -3   4  563.74   14.60
   0  -3   4  551.14   13.40
   0  -3   4  551.14   13.40
   0  -3   4  537.05   15.00
  -1   3  -4  532.15   15.10
  -1   3  -4  586.84   15.90
  -1   3  -4  601.34   15.00
  -1   3  -4  577.24   15.60
  -1   3  -4  583.34   15.80
  -1   3  -4  532.15   15.10
   1  -3   4  567.74   15.80
   1  -3   4  581.74   15.40
   1  -3   4  586.84   15.80
   1  -3   4  558.44   16.00
   1  -3   4  609.24   14.10
   1  -3   4  587.24   15.20
   1  -3   4  609.24   14.10
  -2   3  -4  223.48    6.30
  -2   3  -4  215.08    7.60
  -2   3  -4  208.58    8.30
  -2   3  -4  211.78    7.90
  -2   3  -4  232.68    8.00
  -2   3  -4  223.48    6.30
   2  -3   4  231.68    6.20
   2  -3   4  231.58    7.80
   2  -3   4  216.48    7.80
   2  -3   4  231.68    6.20
   2  -3   4  218.58    8.40
   2  -3   4  211.58    7.60
   2  -3   4  230.18    8.50
  -3   3  -4  280.57   10.20
  -3   3  -4  309.87   10.50
  -3   3  -4  305.77    8.40
  -3   3  -4  305.77    8.40
  -3   3  -4  311.67   10.70
   3  -3   4  316.97    9.80
   3  -3   4  299.27   10.30
   3  -3   4  308.87    8.20
   3  -3   4  282.57   10.90
   3  -3   4  308.87    8.20
   3  -3   4  302.47   11.10
  -4   3  -4   16.60    3.40
  -4   3  -4   17.20    4.20
   4  -3   4   16.90    2.10
   4  -3   4   16.90    2.10
   4  -3   4   17.60    2.00
   4  -3   4   16.70    3.90
   4  -3   4   18.90    3.30
   4  -3   4   13.70    3.30
   4  -3   4   17.60    2.00
  -5   3  -4  116.49    8.30
  -5   3  -4  116.39    7.80
  -5   3  -4  107.19    6.10
   5  -3   4  117.19    7.60
   5  -3   4  103.09    5.30
   5  -3   4  103.09    5.30
   5  -3   4   98.89    4.90
   5  -3   4  123.89    8.90
   5  -3   4   98.89    4.90
  -6   3  -4   11.30    5.00
  -6   3  -4    8.50    4.30
   6  -3   4   21.00    4.60
   6  -3   4   16.40    5.60
   6  -3   4    8.70    2.70
   6  -3   4    8.70    2.70
  -7   3  -4   34.00    6.90
  -7   3  -4   35.20    7.20
   7  -3   4   45.10    7.10
   7  -3   4   48.50    8.20
   9   3  -5  108.89   11.00
   9   3  -5  114.99    8.10
   9   3  -5   98.19   10.70
   9   3  -5  115.09    8.10
  -9  -3   5   88.59    8.60
  -9  -3   5  112.39   10.80
   8   3  -5   44.40    5.80
   8   3  -5   46.70    5.70
   8   3  -5   36.70    4.50
   8   3  -5   36.70    4.50
  -8  -3   5   41.90    6.50
  -8  -3   5   41.80    5.20
   7   3  -5  133.29    8.40
   7   3  -5  133.69    7.50
   7   3  -5  115.69    6.30
   7   3  -5  115.69    6.30
  -7  -3   5  127.69    7.30
  -7  -3   5  117.59    8.30
   6   3  -5   82.89    4.70
   6   3  -5   82.89    4.70
   6   3  -5   83.79    6.30
   6   3  -5   80.79    5.40
  -6  -3   5   84.09    6.70
  -6  -3   5   77.09    5.50
  -6  -3   5   72.59    5.70
   5   3  -5   21.90    2.60
   5   3  -5   20.60    3.30
   5   3  -5   25.20    2.70
   5   3  -5   25.20    2.70
  -5  -3   5   15.30    2.90
  -5  -3   5   25.60    3.40
  -5  -3   5   20.20    2.60
   4   3  -5    9.30    2.40
   4   3  -5   10.40    1.60
   4   3  -5   13.00    2.80
   4   3  -5   11.40    1.90
   4   3  -5   18.40    3.00
   4   3  -5   11.40    1.90
  -4  -3   5    9.30    2.00
  -4  -3   5    9.90    2.70
  -4  -3   5   13.80    2.90
  -4  -3   5   13.10    1.80
  -4  -3   5    9.30    2.00
  -4  -3   5    9.30    2.30
   3   3  -5   78.99    2.60
   3   3  -5   79.09    3.00
   3   3  -5   77.99    3.60
   3   3  -5   75.49    4.70
   3   3  -5   81.89    4.70
   3   3  -5   77.99    3.60
  -3  -3   5   81.79    3.30
  -3  -3   5   78.89    2.70
  -3  -3   5   76.99    4.90
  -3  -3   5   78.59    4.30
  -3  -3   5   70.79    4.80
  -3  -3   5   79.09    3.80
  -3  -3   5   79.09    3.80
   2   3  -5  856.61   22.80
   2   3  -5  877.51   21.50
   2   3  -5  901.51   21.50
   2   3  -5  877.51   21.50
   2   3  -5  887.61   23.10
  -2  -3   5  897.51   21.70
  -2  -3   5  862.21   23.20
  -2  -3   5  877.91   22.50
  -2  -3   5  897.51   21.70
  -2  -3   5  905.31   23.40
  -2  -3   5  881.21   22.00
   1   3  -5  382.26   10.60
   1   3  -5  389.66   10.10
   1   3  -5  386.56   11.40
   1   3  -5  364.46   11.40
   1   3  -5  389.66   10.10
   1   3  -5  370.66   11.40
  -1  -3   5  373.16   10.10
  -1  -3   5  392.06    9.70
  -1  -3   5  373.16   10.10
  -1  -3   5  377.66   11.70
  -1  -3   5  393.56   11.30
  -1  -3   5  390.26   11.10
  -1  -3   5  397.06    9.70
  -1  -3   5  382.86   11.80
   0   3  -5  105.29    5.30
   0   3  -5  106.89    5.00
   0   3  -5  108.09    3.70
   0   3  -5  107.99    5.00
   0   3  -5   94.79    4.70
   0   3  -5  102.39    3.90
   0   3  -5  108.09    3.70
   0  -3   5  102.39    5.40
   0  -3   5  104.79    3.90
   0  -3   5  104.79    3.90
   0  -3   5  106.99    5.30
   0  -3   5  106.89    5.10
   0  -3   5  102.79    4.30
  -1   3  -5  285.17    7.90
  -1   3  -5  287.37    8.80
  -1   3  -5  290.07    9.60
  -1   3  -5  285.17    7.90
  -1   3  -5  276.97    9.30
  -1   3  -5  269.87    9.50
  -1   3  -5  289.17   10.10
   1  -3   5  301.67    7.90
   1  -3   5  299.07    9.40
   1  -3   5  290.67    9.00
   1  -3   5  263.87    9.40
   1  -3   5  296.57   10.10
   1  -3   5  301.67    7.90
  -2   3  -5  521.65   15.70
  -2   3  -5  536.75   15.40
  -2   3  -5  544.35   13.60
  -2   3  -5  544.35   13.60
  -2   3  -5  515.65   15.00
   2  -3   5  537.65   13.40
   2  -3   5  530.95   16.20
   2  -3   5  502.75   15.80
   2  -3   5  548.65   14.90
   2  -3   5  523.75   15.20
   2  -3   5  537.65   13.40
  -3   3  -5   11.60    1.90
  -3   3  -5   13.40    3.30
  -3   3  -5    3.60    2.40
  -3   3  -5   11.60    1.90
   3  -3   5    3.00    2.50
   3  -3   5    8.90    1.90
   3  -3   5    8.80    1.90
   3  -3   5    7.50    2.90
   3  -3   5   10.40    3.40
  -4   3  -5   32.80    5.10
  -4   3  -5   39.90    4.80
   4  -3   5   33.90    2.80
   4  -3   5   41.20    4.90
   4  -3   5   37.40    4.70
   4  -3   5   33.90    2.80
   4  -3   5   36.30    3.20
   4  -3   5   36.30    3.20
   4  -3   5   39.30    4.10
  -5   3  -5   54.09    6.10
   5  -3   5   59.29    4.50
   5  -3   5   59.29    4.50
   5  -3   5   74.09    8.10
   5  -3   5   70.39    7.20
  -6   3  -5   -1.40    5.50
  -6   3  -5   -3.20    5.00
   6  -3   5    4.90    4.90
   6  -3   5   10.50    6.00
  -7   3  -5  103.79   13.30
  -7   3  -5   98.99   12.40
   7  -3   5   98.09   13.10
   9   3  -6   14.50    6.50
   9   3  -6    9.40    4.60
   9   3  -6    9.40    4.60
   9   3  -6   18.40    6.00
  -9  -3   6   19.40    5.60
  -9  -3   6   19.00    6.70
   8   3  -6   17.10    4.50
   8   3  -6   17.30    4.80
   8   3  -6   13.30    3.90
   8   3  -6   13.30    3.90
  -8  -3   6   17.60    5.30
  -8  -3   6   19.30    4.60
   7   3  -6   61.29    5.30
   7   3  -6   67.39    7.20
   7   3  -6   61.29    5.30
   7   3  -6   64.99    6.20
  -7  -3   6   65.99    7.20
  -7  -3   6   65.79    6.20
  -7  -3   6   72.89    8.10
   6   3  -6  148.09    8.00
   6   3  -6  126.69    6.80
   6   3  -6  142.49    6.50
   6   3  -6  126.69    6.80
  -6  -3   6  140.99    8.40
  -6  -3   6  134.79    7.00
  -6  -3   6  140.19    7.20
   5   3  -6   73.69    4.30
   5   3  -6   72.19    5.60
   5   3  -6   70.69    4.00
   5   3  -6   73.69    4.30
  -5  -3   6   71.69    4.50
  -5  -3   6   66.99    5.10
  -5  -3   6   69.49    5.80
   4   3  -6  557.24   14.80
   4   3  -6  548.45   13.80
   4   3  -6  557.84   16.40
   4   3  -6  557.24   14.70
  -4  -3   6  553.34   13.60
  -4  -3   6  539.25   16.70
  -4  -3   6  547.65   13.60
  -4  -3   6  536.95   15.60
  -4  -3   6  546.85   13.80
   3   3  -6   17.50    2.10
   3   3  -6   17.30    2.90
   3   3  -6   14.60    1.90
   3   3  -6   14.60    1.90
   3   3  -6   14.40    2.60
  -3  -3   6   16.30    1.60
  -3  -3   6   18.10    2.40
  -3  -3   6   16.10    3.00
  -3  -3   6    9.00    3.00
  -3  -3   6   14.40    2.30
  -3  -3   6   18.10    2.70
  -3  -3   6   19.50    1.40
  -3  -3   6   14.40    2.30
   2   3  -6  154.58    5.30
   2   3  -6  159.78    6.60
   2   3  -6  154.58    5.40
   2   3  -6  148.29    6.70
   2   3  -6  148.79    5.70
  -2  -3   6  154.38    5.50
  -2  -3   6  154.88    4.50
  -2  -3   6  158.18    6.30
  -2  -3   6  159.08    6.40
  -2  -3   6  159.08    4.40
  -2  -3   6  154.38    5.50
  -2  -3   6  157.48    7.00
  -2  -3   6  148.99    6.90
   1   3  -6  227.08    8.40
   1   3  -6  220.98    7.80
   1   3  -6  221.68    8.30
   1   3  -6  236.38    7.00
   1   3  -6  236.38    7.00
   1   3  -6  233.08    8.40
  -1  -3   6  235.28    8.10
  -1  -3   6  232.18    7.10
  -1  -3   6  205.98    8.50
  -1  -3   6  237.88    8.50
  -1  -3   6  242.38    6.80
  -1  -3   6  232.48    7.10
  -1  -3   6  231.88    6.80
   0   3  -6  397.86   10.50
   0   3  -6  396.16   11.90
   0   3  -6  397.86   10.50
   0   3  -6  387.86   10.90
   0   3  -6  369.86   11.70
   0   3  -6  373.06   12.10
   0   3  -6  396.36   12.30
   0  -3   6  390.46   10.50
   0  -3   6  395.56   11.90
   0  -3   6  389.16   12.60
   0  -3   6  400.16   11.10
   0  -3   6  390.46   10.50
  -1   3  -6   94.29    4.10
  -1   3  -6  108.09    6.60
  -1   3  -6   94.29    4.10
  -1   3  -6   94.69    5.10
  -1   3  -6   93.69    5.60
  -1   3  -6  100.59    5.40
   1  -3   6   97.49    4.30
   1  -3   6   97.49    4.30
   1  -3   6   93.19    6.00
   1  -3   6   91.99    6.20
   1  -3   6   99.59    5.20
  -2   3  -6  452.95   12.10
  -2   3  -6  451.05   13.70
  -2   3  -6  422.56   13.50
  -2   3  -6  463.85   14.60
  -2   3  -6  452.95   12.10
   2  -3   6  448.86   11.90
   2  -3   6  448.86   11.90
   2  -3   6  406.16   14.40
   2  -3   6  463.05   13.40
   2  -3   6  440.26   14.80
   2  -3   6  458.65   13.90
  -3   3  -6   38.90    5.10
  -3   3  -6   45.50    3.90
  -3   3  -6   45.50    3.90
  -3   3  -6   43.20    5.00
   3  -3   6   41.40    3.40
   3  -3   6   40.30    5.00
   3  -3   6   40.50    4.50
   3  -3   6   41.40    3.40
  -4   3  -6   51.09    6.00
  -4   3  -6   59.29    6.90
   4  -3   6   53.69    6.50
   4  -3   6   61.39    6.70
   4  -3   6   64.19    6.40
   4  -3   6   51.69    4.30
   4  -3   6   51.69    4.30
  -5   3  -6    6.60    5.30
  -5   3  -6   11.30    5.70
   5  -3   6   22.00    5.10
   5  -3   6   17.20    3.30
   5  -3   6   17.20    3.30
   5  -3   6   21.10    5.80
  -6   3  -6   79.49    8.80
  -6   3  -6   78.19    9.10
   6  -3   6   76.09    9.70
   6  -3   6   81.89   10.30
   9   3  -7   17.50    6.80
   9   3  -7   20.60    5.00
   9   3  -7   20.60    5.00
  -9  -3   7   10.30    6.60
  -9  -3   7   15.70    5.40
   8   3  -7    8.00    4.90
   8   3  -7    6.00    4.50
   8   3  -7    8.10    3.50
   8   3  -7    8.10    3.50
  -8  -3   7   10.50    4.60
  -8  -3   7   11.40    5.30
   7   3  -7   73.69    5.50
   7   3  -7   73.69    5.50
   7   3  -7   69.19    6.20
  -7  -3   7   62.29    6.40
  -7  -3   7   68.09    8.00
   6   3  -7  250.77    8.60
   6   3  -7  246.98    9.00
   6   3  -7  246.98    9.00
   6   3  -7  271.67   10.90
  -6  -3   7  247.68   13.00
  -6  -3   7  239.58    9.20
  -6  -3   7  252.87    9.80
   5   3  -7   27.00    3.10
   5   3  -7   19.80    2.50
   5   3  -7   19.80    2.50
   5   3  -7   27.50    4.10
  -5  -3   7   26.40    4.50
  -5  -3   7   22.80    2.80
  -5  -3   7   25.20    3.80
   4   3  -7  157.68    6.00
   4   3  -7  157.58    6.00
   4   3  -7  147.79    7.40
  -4  -3   7  150.78    7.30
  -4  -3   7  150.48    5.60
  -4  -3   7  153.28    5.00
  -4  -3   7  147.99    8.10
  -4  -3   7  147.29    6.00
   3   3  -7 1067.99   26.50
   3   3  -7 1067.89   26.50
   3   3  -7 1066.29   28.30
   3   3  -7 1073.99   26.60
   3   3  -7  989.40   27.70
  -3  -3   7 1087.69   27.80
  -3  -3   7 1095.09   25.10
  -3  -3   7 1108.59   28.90
  -3  -3   7 1066.99   25.10
  -3  -3   7 1094.89   27.00
   2   3  -7   78.29    5.80
   2   3  -7   82.79    4.00
   2   3  -7   82.89    4.00
   2   3  -7   71.09    4.80
   2   3  -7   80.79    5.10
  -2  -3   7   79.09    5.80
  -2  -3   7   77.79    5.00
  -2  -3   7   79.99    3.20
  -2  -3   7   76.29    4.30
  -2  -3   7   74.89    5.40
  -2  -3   7   76.29    4.30
  -2  -3   7   80.09    3.50
   1   3  -7  127.89    6.90
   1   3  -7  135.49    6.60
   1   3  -7  135.59    6.70
   1   3  -7  149.59    5.40
   1   3  -7  137.69    6.70
   1   3  -7  149.59    5.40
  -1  -3   7  140.09    5.40
  -1  -3   7  134.99    5.60
  -1  -3   7  145.29    5.30
  -1  -3   7  134.99    5.60
  -1  -3   7  157.78    6.90
  -1  -3   7  147.89    7.40
   0   3  -7  294.07   10.40
   0   3  -7  275.47    8.30
   0   3  -7  278.17    9.00
   0   3  -7  258.57   10.10
   0   3  -7  275.47    8.30
   0   3  -7  274.27    9.60
   0  -3   7  261.07    8.40
   0  -3   7  292.17    9.10
   0  -3   7  262.07   10.70
   0  -3   7  280.37   10.70
   0  -3   7  261.07    8.40
  -1   3  -7  137.49    8.10
  -1   3  -7  144.39    5.60
  -1   3  -7  140.59    6.90
  -1   3  -7  144.49    5.60
  -1   3  -7  139.39    7.50
  -1   3  -7  145.09    6.90
   1  -3   7  149.79    8.00
   1  -3   7  139.19    5.80
   1  -3   7  143.09    6.80
   1  -3   7  139.19    5.80
   1  -3   7  142.09    7.60
  -2   3  -7  137.79    5.80
  -2   3  -7  137.79    5.80
  -2   3  -7  136.59    7.30
   2  -3   7  110.39    5.70
   2  -3   7  110.39    5.70
   2  -3   7  130.99    7.60
   2  -3   7  113.89    6.90
  -3   3  -7   39.40    3.60
  -3   3  -7   33.40    5.00
  -3   3  -7   35.10    5.30
  -3   3  -7   39.40    3.60
   3  -3   7   39.80    5.50
   3  -3   7   34.10    4.90
   3  -3   7   47.10    5.20
  -4   3  -7  134.89    7.20
  -4   3  -7  134.99   10.10
  -4   3  -7  125.89   10.70
  -4   3  -7  134.89    7.20
   4  -3   7  131.49    9.10
   4  -3   7  122.79    9.40
  -5   3  -7   11.90    6.40
  -5   3  -7   14.10    6.60
   5  -3   7   26.30    6.60
   5  -3   7   26.70    6.20
   9   3  -8   37.30    7.40
  -9  -3   8   18.30    5.70
  -9  -3   8   16.80    7.90
   8   3  -8   92.29    7.40
   8   3  -8   92.29    7.40
   8   3  -8   98.19    9.90
  -8  -3   8  116.99   11.10
  -8  -3   8  107.09    8.60
   7   3  -8   36.30    4.90
   7   3  -8   23.00    4.10
   7   3  -8   23.00    4.10
   7   3  -8   32.20    5.30
  -7  -3   8   30.60    5.20
  -7  -3   8   30.40    5.90
   6   3  -8  153.58    8.80
   6   3  -8  125.39    6.60
   6   3  -8  148.09    6.20
   6   3  -8  125.39    6.60
  -6  -3   8  148.49    8.10
  -6  -3   8  144.79    9.40
   5   3  -8  231.08    8.50
   5   3  -8  231.08    8.50
   5   3  -8  236.38   10.10
  -5  -3   8  230.58    9.60
  -5  -3   8  254.27   11.50
  -5  -3   8  239.38    7.70
   4   3  -8   28.80    3.50
   4   3  -8   22.60    2.80
   4   3  -8   36.50    4.30
   4   3  -8   22.60    2.80
  -4  -3   8   24.60    2.30
  -4  -3   8   29.20    4.20
  -4  -3   8   29.10    2.90
  -4  -3   8   27.90    3.50
  -4  -3   8   28.30    4.40
   3   3  -8  569.94   15.40
   3   3  -8  545.65   15.90
   3   3  -8  569.94   15.40
   3   3  -8  563.64   17.20
  -3  -3   8  561.14   16.80
  -3  -3   8  555.54   14.00
  -3  -3   8  559.14   16.30
  -3  -3   8  578.24   17.70
  -3  -3   8  560.04   13.80
   2   3  -8   48.50    5.30
   2   3  -8   58.59    4.20
   2   3  -8   58.59    4.20
   2   3  -8   48.80    5.40
   2   3  -8   54.89    5.00
   2   3  -8   53.89    6.00
  -2  -3   8   51.99    5.10
  -2  -3   8   47.30    5.70
   1   3  -8  170.08    6.50
   1   3  -8  170.08    6.50
   1   3  -8  175.98    8.30
   1   3  -8  174.78    8.20
   1   3  -8  174.28    7.70
  -1  -3   8  194.38    9.10
  -1  -3   8  180.08    6.60
  -1  -3   8  168.08    8.20
  -1  -3   8  177.28    7.00
   0   3  -8   71.69    4.40
   0   3  -8   71.99    6.10
   0   3  -8   60.79    6.50
   0   3  -8   65.99    5.30
   0   3  -8   71.79    4.40
   0  -3   8   68.79    5.60
   0  -3   8   59.69    6.50
   0  -3   8   65.09    5.10
   0  -3   8   73.09    6.40
  -1   3  -8  102.79    8.50
  -1   3  -8  105.09    7.40
  -1   3  -8  111.59    6.50
  -1   3  -8  104.69    5.40
  -1   3  -8  104.69    5.40
   1  -3   8  112.09    7.70
   1  -3   8  105.29    6.50
  -2   3  -8  156.88    8.70
  -2   3  -8  158.68    7.00
  -2   3  -8  136.19    8.70
  -2   3  -8  158.68    7.00
   2  -3   8  146.79    8.30
   2  -3   8  150.98    8.90
   2  -3   8  160.98    9.50
  -3   3  -8    6.90    3.30
  -3   3  -8    2.00    4.20
  -3   3  -8    6.90    3.30
  -3   3  -8    2.10    4.90
   3  -3   8    1.10    3.70
  -4   3  -8   23.90    6.80
  -4   3  -8   26.00    6.10
   4  -3   8   16.30    5.60
   4  -3   8   14.00    5.40
   8   3  -9    7.20    6.10
   8   3  -9    3.30    4.00
   8   3  -9    3.30    4.00
  -8  -3   9    3.80    7.20
   7   3  -9   73.29    6.30
   7   3  -9   73.29    6.30
   7   3  -9   66.39    8.40
  -7  -3   9   56.29    6.60
  -7  -3   9   81.29   10.00
   6   3  -9    0.20    3.10
   6   3  -9    0.20    3.10
   6   3  -9   -2.10    3.50
  -6  -3   9    2.90    5.10
  -6  -3   9    4.10    3.80
   5   3  -9   23.80    3.30
   5   3  -9   23.80    3.30
   5   3  -9   27.30    4.60
  -5  -3   9   24.80    4.30
  -5  -3   9   27.60    5.30
  -5  -3   9   26.60    3.60
   4   3  -9   -2.40    3.70
   4   3  -9    8.20    2.50
   4   3  -9    8.20    2.50
  -4  -3   9    3.30    1.50
  -4  -3   9   -2.50    3.00
  -4  -3   9    3.20    3.30
  -4  -3   9    5.50    3.90
   3   3  -9    7.70    4.80
   3   3  -9    6.50    4.10
  -3  -3   9   11.90    2.00
  -3  -3   9    7.10    3.70
  -3  -3   9   11.40    3.50
  -3  -3   9    8.20    2.10
  -3  -3   9    9.90    4.10
   2   3  -9   37.10    4.50
   2   3  -9   31.00    5.00
   2   3  -9   31.30    3.20
   2   3  -9   31.30    3.20
  -2  -3   9   35.30    4.80
  -2  -3   9   33.80    3.40
  -2  -3   9   33.50    4.80
  -2  -3   9   31.40    3.00
   1   3  -9   62.09    7.70
   1   3  -9   94.19    5.40
   1   3  -9   94.19    5.40
   1   3  -9  101.89    7.30
   1   3  -9  102.39    6.70
  -1  -3   9   88.99    5.50
  -1  -3   9   89.39    7.80
  -1  -3   9   87.29    7.00
  -1  -3   9   84.99    6.40
   0   3  -9   56.79    6.30
   0   3  -9   60.49    4.90
   0   3  -9   59.49    5.90
   0   3  -9   60.49    4.90
   0  -3   9   57.59    7.40
   0  -3   9   60.99    5.70
   0  -3   9   61.99    6.10
  -1   3  -9    5.70    3.90
  -1   3  -9    1.50    3.50
  -1   3  -9    5.60    2.90
  -1   3  -9    5.60    2.90
   1  -3   9    3.30    4.10
   1  -3   9    4.10    4.90
   1  -3   9    2.80    3.50
  -2   3  -9   14.00    5.10
  -2   3  -9   24.90    4.10
  -2   3  -9   24.90    4.10
  -2   3  -9   14.40    4.70
   2  -3   9   17.60    4.50
   2  -3   9   22.00    5.60
   2  -3   9   25.40    6.00
  -3   3  -9   66.59    8.10
   3  -3   9   64.19    6.90
   3  -3   9   82.39    9.50
   4  -3   9   12.90    6.50
   8   3 -10   45.20    7.20
  -8  -3  10   60.49   10.20
  -8  -3  10   39.80    6.70
   7   3 -10  107.19    8.10
   7   3 -10  107.19    8.10
   7   3 -10  100.19    9.70
  -7  -3  10   96.39   10.10
  -7  -3  10   77.19    8.40
   6   3 -10    1.20    3.50
   6   3 -10    3.30    4.20
   6   3 -10    1.20    3.50
  -6  -3  10    6.60    3.90
  -6  -3  10    8.30    6.20
   5   3 -10  129.59    8.70
   5   3 -10  114.39    7.00
   5   3 -10  114.39    7.00
  -5  -3  10  112.79    8.20
  -5  -3  10  105.49   11.50
   4   3 -10  152.58    7.70
   4   3 -10  152.58    7.70
   4   3 -10  142.29    8.90
  -4  -3  10  155.08   10.40
  -4  -3  10  172.48    9.00
  -4  -3  10  162.68    9.00
   3   3 -10  152.48    7.50
   3   3 -10  182.28    9.20
   3   3 -10  152.48    7.50
   3   3 -10  167.98    9.20
  -3  -3  10  170.88    9.60
  -3  -3  10  175.18    9.20
   2   3 -10   70.19    5.90
   2   3 -10   98.69    7.40
   2   3 -10   70.19    5.90
   2   3 -10   80.19    7.10
  -2  -3  10   73.79    8.10
  -2  -3  10   84.09    7.50
   1   3 -10    6.80    3.30
   1   3 -10    9.50    4.10
   1   3 -10   14.60    4.20
   1   3 -10    6.80    3.30
  -1  -3  10    6.40    4.50
  -1  -3  10    4.10    4.60
  -1  -3  10    2.60    3.20
   0   3 -10   23.90    4.70
   0   3 -10   24.10    3.80
   0   3 -10   14.00    4.80
   0   3 -10   24.10    3.80
   0  -3  10   30.00    5.90
   0  -3  10   26.60    4.50
   0  -3  10   27.30    5.60
  -1   3 -10   36.10    4.70
  -1   3 -10   37.00    5.90
  -1   3 -10   36.10    4.70
   1  -3  10   27.10    6.20
   1  -3  10   24.40    6.30
   1  -3  10   19.50    4.90
  -2   3 -10    5.60    4.80
  -2   3 -10   -3.70    5.70
  -2   3 -10    5.60    4.80
   2  -3  10    2.90    5.10
   2  -3  10    8.30    6.10
   7   3 -11   14.70    6.70
  -7  -3  11   28.00    9.10
  -7  -3  11   18.20    5.60
   6   3 -11   32.00    4.80
   6   3 -11   26.70    5.60
   6   3 -11   32.00    4.80
  -6  -3  11   24.40    7.20
   5   3 -11   -8.60    3.50
   5   3 -11    1.60    4.40
   5   3 -11   -8.60    3.50
  -5  -3  11    1.10    4.50
  -5  -3  11   -1.70    6.00
   4   3 -11   14.20    4.60
   4   3 -11   10.30    3.70
   4   3 -11   10.30    3.70
   4   3 -11   13.10    5.60
  -4  -3  11    3.10    4.90
  -4  -3  11    5.40    4.40
  -4  -3  11    4.50    5.50
   3   3 -11   45.80    4.60
   3   3 -11   40.20    6.20
   3   3 -11   46.50    6.30
   3   3 -11   45.80    4.60
  -3  -3  11   33.90    6.30
  -3  -3  11   43.10    6.00
   2   3 -11  115.89    7.70
   2   3 -11  114.79    8.70
   2   3 -11  115.29    9.40
   2   3 -11  115.89    7.70
  -2  -3  11   97.39   10.00
  -2  -3  11  117.29    9.30
   1   3 -11   36.40    4.70
   1   3 -11   19.80    5.60
   1   3 -11   36.40    4.70
  -1  -3  11   30.00    6.30
  -1  -3  11   32.30    6.50
   0   3 -11   70.39    6.20
   0   3 -11   70.39    6.20
   0   3 -11   75.29    8.20
   0  -3  11   77.69    8.20
   0  -3  11   62.99    8.00
  -1   3 -11   62.89    6.60
  -1   3 -11   65.49    8.20
  -1   3 -11   62.89    6.60
   1  -3  11   65.49    8.60
   6   3 -12    2.50    6.30
  -6  -3  12    8.60    5.40
  -6  -3  12    5.70    8.40
   5   3 -12   96.69   10.20
   5   3 -12  106.69    8.50
   5   3 -12  106.69    8.50
  -5  -3  12   87.39    8.70
   4   3 -12  165.58    9.50
   4   3 -12  165.68    9.50
   4   3 -12  166.28   11.80
  -4  -3  12  146.89   10.70
   3   3 -12   28.50    5.10
   3   3 -12   34.50    6.60
   3   3 -12   28.60    5.10
  -3  -3  12   31.40    7.40
  -3  -3  12   26.50    6.50
   2   3 -12   57.29    8.30
   2   3 -12   48.10    5.90
   2   3 -12   48.10    5.90
  -2  -3  12   55.89    8.30
  -2  -3  12   50.29    7.50
   1   3 -12    5.60    6.10
   1   3 -12    2.80    5.00
   1   3 -12    2.80    5.00
  -1  -3  12    0.10    6.80
  -1  -3  12   13.00    6.80
  -1   4  12   49.80    8.10
  -1   4  12   64.19    7.80
   1  -4 -12   78.89    9.40
  -2   4  12   11.60    6.10
  -2   4  12    6.00    6.20
  -2   4  12    5.00    5.80
   2  -4 -12   -1.00    6.70
  -3   4  12   36.70    6.40
  -3   4  12   29.40    6.50
  -3   4  12   22.50    5.80
   3  -4 -12   19.50    6.10
   3  -4 -12   27.90    7.20
   3  -4 -12   19.50    6.10
  -4   4  12   83.09    8.10
  -4   4  12   85.19    8.40
  -4   4  12   95.39   10.60
   4  -4 -12   86.29    9.10
  -5   4  12   31.20    6.60
  -5   4  12   43.70    7.50
  -5   4  12   36.30    7.70
   1   4  11   61.29    8.00
  -1  -4 -11   62.19   10.50
  -1  -4 -11   51.49    8.70
  -1  -4 -11   62.29   10.50
   0   4  11   12.10    5.50
   0   4  11   20.60    6.30
   0  -4 -11   14.40    5.10
   0  -4 -11   25.40    6.90
   0  -4 -11   14.40    5.10
  -1   4  11   49.90    6.90
  -1   4  11   61.49    6.80
   1  -4 -11   66.89    7.80
   1  -4 -11   86.19    7.80
   1  -4 -11   86.19    7.80
  -2   4  11   12.70    5.10
  -2   4  11    5.10    4.80
  -2   4  11   11.70    4.70
   2  -4 -11    3.10    5.00
   2  -4 -11    8.90    3.80
   2  -4 -11    8.90    3.80
  -3   4  11   36.60    5.70
  -3   4  11   38.20    5.30
  -3   4  11   46.30    5.90
   3  -4 -11   37.00    4.80
   3  -4 -11   39.40    6.40
   3  -4 -11   37.00    4.80
  -4   4  11   36.50    5.50
  -4   4  11   32.20    5.70
  -4   4  11   28.70    5.40
   4  -4 -11   47.10    5.60
   4  -4 -11   45.50    5.90
   4  -4 -11   47.10    5.60
  -5   4  11   27.70    6.40
  -5   4  11   19.90    5.60
  -5   4  11   22.80    4.90
   5  -4 -11   25.90    5.00
   5  -4 -11   25.90    5.00
  -6   4  11   10.30    5.10
  -6   4  11   22.30    5.90
   6  -4 -11    9.60    4.90
   6  -4 -11   18.90    6.20
   6  -4 -11    9.60    4.90
  -7   4  11    3.60    4.30
   7  -4 -11    1.20    6.90
   2   4  10   45.50    7.00
  -2  -4 -10   58.69    6.90
  -2  -4 -10   61.59    8.50
  -2  -4 -10   58.69    6.90
   1   4  10   38.70    6.70
   1   4  10   45.00    6.30
  -1  -4 -10   39.50    5.70
  -1  -4 -10   39.50    5.70
  -1  -4 -10   38.70    7.20
   0   4  10   32.00    5.30
   0   4  10   39.60    6.00
   0  -4 -10   32.10    6.00
   0  -4 -10   35.00    4.70
   0  -4 -10   35.00    4.70
  -1   4  10  101.39    7.70
  -1   4  10  106.59    8.40
  -1   4  10   94.29    7.90
   1  -4 -10   87.49    7.10
   1  -4 -10   99.59    8.60
   1  -4 -10   87.39    7.10
  -2   4  10   19.40    4.30
  -2   4  10   26.50    4.60
  -2   4  10   27.30    4.50
   2  -4 -10   24.10    4.80
   2  -4 -10   18.40    4.00
   2  -4 -10   18.40    3.90
  -3   4  10   37.70    5.10
  -3   4  10   35.20    4.50
  -3   4  10   49.20    5.70
   3  -4 -10   34.60    4.90
   3  -4 -10   35.30    4.20
   3  -4 -10   35.30    4.20
  -4   4  10    8.90    4.10
  -4   4  10    0.50    3.40
  -4   4  10    1.70    4.30
   4  -4 -10   15.00    3.50
   4  -4 -10   15.00    3.50
   4  -4 -10    4.80    3.50
  -5   4  10   -0.20    3.40
  -5   4  10   -1.20    4.10
   5  -4 -10    7.40    3.80
   5  -4 -10    7.40    3.80
   5  -4 -10   -1.20    4.10
   5  -4 -10    9.80    3.60
  -6   4  10   30.00    5.60
  -6   4  10   21.00    5.10
  -6   4  10   35.70    5.60
   6  -4 -10   35.50    4.90
   6  -4 -10   32.00    5.80
   6  -4 -10   35.40    4.90
  -7   4  10  107.09   10.60
  -7   4  10  118.49   10.00
   7  -4 -10  111.99   11.60
   7  -4 -10  109.49    8.50
   7  -4 -10  109.49    8.50
  -8   4  10   97.09    9.90
  -8   4  10   89.59    8.70
   8  -4 -10  112.29   11.80
   8  -4 -10  112.29   11.80
   8  -4 -10  105.29   13.20
   3   4   9   83.09   10.30
   3   4   9   92.49   10.10
  -3  -4  -9   98.49    8.90
  -3  -4  -9   98.49    8.90
  -3  -4  -9  105.99   11.30
   2   4   9    8.70    4.80
   2   4   9   16.70    5.00
  -2  -4  -9   15.60    5.80
  -2  -4  -9   14.30    4.50
  -2  -4  -9   14.30    4.50
   1   4   9  111.19    8.30
   1   4   9  120.39    8.60
  -1  -4  -9  120.39    7.50
  -1  -4  -9  120.39    7.50
  -1  -4  -9  116.09    9.70
   0   4   9  199.28   10.00
   0   4   9  195.08    9.90
   0  -4  -9  221.38    9.00
   0  -4  -9  221.38    9.00
   0  -4  -9  214.38   10.90
  -1   4   9   49.20    5.20
  -1   4   9   46.80    5.40
  -1   4   9   48.00    7.80
   1  -4  -9   50.39    4.90
   1  -4  -9   50.39    4.90
   1  -4  -9   42.00    5.30
  -2   4   9  409.86   13.80
  -2   4   9  402.96   12.30
  -2   4   9  350.36   14.60
   2  -4  -9  393.16   12.40
   2  -4  -9  388.96   13.60
   2  -4  -9  393.16   12.40
  -3   4   9    2.60    3.10
  -3   4   9    5.40    2.10
  -3   4   9    3.60    3.40
  -3   4   9    2.60    2.90
   3  -4  -9   -1.20    2.90
   3  -4  -9   -0.70    2.60
   3  -4  -9   -0.70    2.60
  -4   4   9   36.30    3.70
  -4   4   9   35.00    4.40
  -4   4   9   28.40    4.30
  -4   4   9   31.20    5.40
   4  -4  -9   33.60    3.90
   4  -4  -9   36.00    4.80
   4  -4  -9   25.70    3.50
   4  -4  -9   25.70    3.50
  -5   4   9  192.48    8.90
  -5   4   9  182.38    8.50
  -5   4   9  193.98    9.40
   5  -4  -9  196.88    8.10
   5  -4  -9  186.88    8.00
   5  -4  -9  176.38   11.60
   5  -4  -9  196.88    8.10
  -6   4   9    9.00    3.80
  -6   4   9   13.40    4.10
  -6   4   9   11.50    4.40
   6  -4  -9   13.40    4.40
   6  -4  -9    9.90    3.40
   6  -4  -9    9.90    3.40
  -7   4   9  148.39   10.10
  -7   4   9  134.19   11.00
  -7   4   9  142.89    8.30
   7  -4  -9  124.19    8.10
   7  -4  -9  124.19    8.10
   7  -4  -9  143.89   11.00
  -8   4   9   31.30    5.30
  -8   4   9   26.80    6.90
   8  -4  -9   30.60    5.40
   8  -4  -9   30.60    5.40
   8  -4  -9   37.50    7.80
   4   4   8   89.79    9.40
   4   4   8   98.19   11.90
  -4  -4  -8  107.79   11.50
  -4  -4  -8  128.79    9.70
  -4  -4  -8  128.79    9.70
   3   4   8   33.20    6.40
   3   4   8   38.00    5.60
  -3  -4  -8   39.50    5.10
  -3  -4  -8   39.50    5.10
  -3  -4  -8   49.90    6.80
   2   4   8   25.60    4.40
   2   4   8   21.60    4.50
  -2  -4  -8   29.90    4.40
  -2  -4  -8   30.50    5.20
  -2  -4  -8   29.90    4.40
   1   4   8   96.69    7.10
   1   4   8  102.49    7.40
  -1  -4  -8  102.29    6.30
  -1  -4  -8  103.79    8.50
  -1  -4  -8  102.29    6.30
   0   4   8  576.54   15.60
   0   4   8  583.84   17.90
   0  -4  -8  594.24   16.80
   0  -4  -8  585.44   18.40
   0  -4  -8  594.24   16.80
  -1   4   8  292.07   11.00
  -1   4   8  292.37    9.40
  -1   4   8  278.97   10.80
   1  -4  -8  296.37   11.00
   1  -4  -8  284.77   10.70
   1  -4  -8  284.77   10.70
  -2   4   8   67.29    5.10
  -2   4   8   66.99    5.40
  -2   4   8   47.30    5.20
   2  -4  -8   54.39    5.10
   2  -4  -8   60.99    4.60
   2  -4  -8   61.09    4.60
  -3   4   8  174.68    8.10
  -3   4   8  165.58    6.10
  -3   4   8  172.78    7.90
  -3   4   8  175.88    7.40
   3  -4  -8  161.18    6.20
   3  -4  -8  174.68    7.10
   3  -4  -8  165.18    7.20
   3  -4  -8  163.38    8.00
   3  -4  -8  174.68    7.10
  -4   4   8    6.40    3.20
  -4   4   8    7.00    2.90
  -4   4   8    5.80    2.60
  -4   4   8    3.60    2.40
   4  -4  -8    3.10    3.00
   4  -4  -8    9.50    3.50
   4  -4  -8    3.30    2.20
  -5   4   8  154.18    7.70
  -5   4   8  172.18    8.60
  -5   4   8  169.58    8.30
  -5   4   8  156.58    7.50
   5  -4  -8  168.38    8.80
   5  -4  -8  159.58   10.60
   5  -4  -8  154.78    7.00
   5  -4  -8  155.18    6.50
   5  -4  -8  154.78    7.00
  -6   4   8   53.09    6.20
  -6   4   8   58.59    6.80
  -6   4   8   56.69    5.50
   6  -4  -8   75.99    7.50
   6  -4  -8   53.89    5.40
   6  -4  -8   53.89    5.40
   6  -4  -8   48.10    4.20
  -7   4   8  116.79    7.50
  -7   4   8  118.59    8.40
  -7   4   8  136.29    9.50
   7  -4  -8  122.49    7.20
   7  -4  -8  122.49    7.20
   7  -4  -8  120.49    9.60
  -8   4   8   75.09    8.20
  -8   4   8   75.89    8.80
  -8   4   8   61.69    6.20
   8  -4  -8   77.19    8.50
   8  -4  -8   72.19    5.80
   8  -4  -8   72.19    5.80
  -9   4   8   -1.70    4.40
   9  -4  -8    5.50    5.00
   9  -4  -8    5.50    5.00
   9  -4  -8    2.10    7.30
   5   4   7   -1.10    6.60
   5   4   7    7.50    5.10
   5   4   7   -6.90    5.30
   5   4   7    7.50    5.10
  -5  -4  -7   13.70    6.50
   4   4   7   81.49   10.10
   4   4   7   68.19    8.50
  -4  -4  -7   89.59    9.20
  -4  -4  -7  101.39    7.80
  -4  -4  -7  101.39    7.80
   3   4   7   32.70    4.70
   3   4   7   46.30    6.00
  -3  -4  -7   43.90    4.60
  -3  -4  -7   44.50    5.80
  -3  -4  -7   43.90    4.60
   2   4   7    6.70    3.30
   2   4   7    1.90    2.80
  -2  -4  -7   12.20    3.50
  -2  -4  -7   13.10    4.40
  -2  -4  -7   12.20    3.50
   1   4   7  206.78    9.00
   1   4   7  210.28    9.00
  -1  -4  -7  214.08    9.60
  -1  -4  -7  208.68    8.10
  -1  -4  -7  208.78    8.10
   0   4   7  378.86   12.50
   0   4   7  381.06   12.60
   0   4   7  384.16   10.40
   0  -4  -7  357.46   11.30
   0  -4  -7  357.46   11.30
   0  -4  -7  370.56   12.70
  -1   4   7   42.80    4.40
  -1   4   7   49.00    4.70
  -1   4   7   51.19    4.10
  -1   4   7   50.19    4.70
   1  -4  -7   43.90    3.70
   1  -4  -7   43.90    3.70
   1  -4  -7   53.49    4.60
  -2   4   7  251.77    9.10
  -2   4   7  268.47    8.70
  -2   4   7  285.37   10.20
  -2   4   7  280.27    9.90
  -2   4   7  266.97    7.00
   2  -4  -7  264.97    8.70
   2  -4  -7  266.47    9.20
   2  -4  -7  264.97    8.80
   2  -4  -7  263.27    7.00
  -3   4   7  520.35   14.70
  -3   4   7  534.35   14.80
  -3   4   7  544.55   14.00
  -3   4   7  524.95   15.70
   3  -4  -7  519.55   14.50
   3  -4  -7  531.55   14.60
   3  -4  -7  534.05   16.00
   3  -4  -7  513.55   14.10
   3  -4  -7  519.55   14.50
  -4   4   7  150.08    6.30
  -4   4   7  147.99    6.30
  -4   4   7  153.78    6.70
  -4   4   7  147.49    7.30
   4  -4  -7  145.59    7.20
   4  -4  -7  143.59    5.70
   4  -4  -7  135.39    6.00
   4  -4  -7  135.39    6.00
   4  -4  -7  155.48    7.50
  -5   4   7  249.97    9.80
  -5   4   7  247.38    9.50
  -5   4   7  251.67    9.70
   5  -4  -7  254.27    8.70
   5  -4  -7  254.17    7.70
   5  -4  -7  258.57    8.80
   5  -4  -7  258.57    8.80
   5  -4  -7  254.67   10.50
  -6   4   7   18.70    3.90
  -6   4   7   17.00    3.20
  -6   4   7   19.00    3.70
   6  -4  -7   15.80    4.60
  -7   4   7   18.00    3.40
  -7   4   7   19.80    4.80
  -7   4   7   14.80    4.00
   7  -4  -7   19.30    3.40
   7  -4  -7   19.30    3.40
   7  -4  -7   19.40    4.80
  -8   4   7  104.69   10.40
  -8   4   7  109.29    8.90
  -8   4   7   93.19    7.00
   8  -4  -7  105.99   10.70
   8  -4  -7  102.29    7.30
   8  -4  -7  102.29    7.30
  -9   4   7   46.30    5.70
  -9   4   7   31.20    7.60
   9  -4  -7   26.40    5.20
   9  -4  -7   26.40    5.20
   9  -4  -7   18.00    7.40
   6   4   6   65.09    6.50
   6   4   6   52.79    8.60
   6   4   6   65.09    6.50
  -6  -4  -6   45.50    8.40
   5   4   6   30.50    4.60
   5   4   6   10.30    6.30
   5   4   6   30.50    4.60
   5   4   6   15.30    4.90
  -5  -4  -6   21.20    5.50
   4   4   6   91.09    9.00
   4   4   6   89.69    7.80
  -4  -4  -6  112.39    7.10
  -4  -4  -6   79.79    5.70
  -4  -4  -6  112.39    7.10
  -4  -4  -6   92.39    8.60
   3   4   6    8.90    3.00
   3   4   6    5.10    4.50
   3   4   6    8.10    3.10
  -3  -4  -6    9.20    3.50
  -3  -4  -6    5.10    3.00
  -3  -4  -6    5.10    3.00
   2   4   6   19.60    3.00
   2   4   6   23.90    4.00
  -2  -4  -6   28.90    3.40
  -2  -4  -6   28.90    3.40
  -2  -4  -6   28.60    4.00
   1   4   6  623.24   18.30
   1   4   6  644.54   18.30
  -1  -4  -6  647.34   17.30
  -1  -4  -6  635.14   18.80
  -1  -4  -6  647.44   17.30
   0   4   6  304.77   10.40
   0   4   6  325.97   11.00
   0   4   6  334.47    9.20
   0   4   6  336.07   12.70
   0   4   6  338.67   11.10
   0  -4  -6  331.07   11.00
   0  -4  -6  332.27   10.00
   0  -4  -6  332.27   10.00
  -1   4   6   30.70    3.60
  -1   4   6   45.10    3.80
  -1   4   6   42.60    4.00
  -1   4   6   44.70    3.40
  -1   4   6   38.20    3.70
  -1   4   6   36.50    3.90
  -1   4   6   45.00    3.80
   1  -4  -6   43.00    3.20
   1  -4  -6   43.00    3.20
   1  -4  -6   40.30    3.60
  -2   4   6  200.98    6.80
  -2   4   6  203.68    7.10
  -2   4   6  200.98    6.80
  -2   4   6  212.58    7.10
  -2   4   6  200.88    7.90
  -2   4   6  193.68    8.30
  -2   4   6  210.38    6.00
   2  -4  -6  208.68    6.10
   2  -4  -6  209.18    7.10
   2  -4  -6  210.38    8.00
   2  -4  -6  208.98    6.90
   2  -4  -6  208.98    6.90
  -3   4   6   83.79    4.30
  -3   4   6   89.59    4.20
  -3   4   6   88.49    4.80
  -3   4   6   84.19    4.70
  -3   4   6   81.09    6.20
  -3   4   6   84.19    4.70
  -3   4   6   96.09    5.30
  -3   4   6   79.59    5.80
   3  -4  -6   91.49    4.30
   3  -4  -6   91.49    4.30
   3  -4  -6   85.79    5.40
   3  -4  -6   90.19    4.00
   3  -4  -6   85.99    4.60
  -4   4   6  460.35   13.20
  -4   4   6  407.46   14.50
  -4   4   6  458.25   13.10
  -4   4   6  461.35   14.00
  -4   4   6  464.05   12.20
   4  -4  -6  451.05   11.80
   4  -4  -6  452.55   13.60
   4  -4  -6  448.66   12.50
   4  -4  -6  448.76   12.50
   4  -4  -6  451.35   14.30
  -5   4   6  303.27   10.30
  -5   4   6  309.57   10.60
  -5   4   6  311.17   10.80
   5  -4  -6  303.87    8.30
   5  -4  -6  319.77   11.70
   5  -4  -6  308.37    9.50
   5  -4  -6  308.37    9.50
   5  -4  -6  268.07   10.30
  -6   4   6   19.00    3.50
  -6   4   6   18.60    3.60
  -6   4   6   13.60    3.60
   6  -4  -6   15.90    3.80
   6  -4  -6   19.30    2.80
   6  -4  -6   15.60    3.80
   6  -4  -6   19.30    2.80
   6  -4  -6   18.90    2.00
   6  -4  -6   16.30    2.70
  -7   4   6   45.20    5.70
  -7   4   6   29.60    4.40
   7  -4  -6   38.70    5.10
   7  -4  -6   39.30    5.70
  -8   4   6  106.59    7.30
  -8   4   6  139.09   10.20
   8  -4  -6  115.59    6.90
   8  -4  -6  115.59    6.90
   8  -4  -6  115.19   10.00
   8  -4  -6  122.79    9.60
  -9   4   6  109.59   11.60
   9  -4  -6   95.59    8.10
   9  -4  -6  125.19   12.70
   9  -4  -6   95.59    8.10
   6   4   5   26.70    6.60
   6   4   5   21.20    4.80
   6   4   5   21.20    4.80
   6   4   5   18.30    5.70
  -6  -4  -5   38.90    9.30
  -6  -4  -5   23.10    6.60
   5   4   5   60.39    5.30
   5   4   5   40.20    5.60
   5   4   5   60.39    5.30
   5   4   5   60.99    7.40
  -5  -4  -5   69.09    8.90
  -5  -4  -5   55.59    6.10
   4   4   5    2.00    3.20
   4   4   5    1.90    3.90
   4   4   5    4.00    4.40
  -4  -4  -5    4.40    2.50
  -4  -4  -5    0.30    2.90
  -4  -4  -5    2.10    3.60
  -4  -4  -5    0.30    2.90
   3   4   5   19.80    3.70
   3   4   5   17.00    3.20
   3   4   5   23.80    3.10
  -3  -4  -5   26.00    3.50
  -3  -4  -5   19.20    3.90
  -3  -4  -5   21.00    2.50
  -3  -4  -5   26.00    3.50
   2   4   5  291.27   10.30
   2   4   5  288.37   10.20
   2   4   5  300.07    7.90
  -2  -4  -5  276.87    9.30
  -2  -4  -5  283.07    7.80
  -2  -4  -5  276.87    9.30
  -2  -4  -5  299.77   10.90
   1   4   5   53.69    4.00
   1   4   5   46.80    4.00
   1   4   5   54.79    5.00
  -1  -4  -5   53.29    3.70
  -1  -4  -5   53.29    3.70
  -1  -4  -5   56.89    4.50
   0   4   5  306.17    9.20
   0   4   5  344.47    8.80
   0   4   5  321.37    9.80
   0   4   5  317.97   10.30
   0   4   5  342.57   10.60
   0   4   5  306.27    9.20
   0   4   5  304.57   10.60
   0  -4  -5  328.77    9.40
   0  -4  -5  323.47   10.80
   0  -4  -5  328.97   10.30
   0  -4  -5  328.77    9.40
  -1   4   5  458.75   12.10
  -1   4   5  444.86   12.30
  -1   4   5  453.15   13.40
  -1   4   5  443.76   13.20
  -1   4   5  438.26   13.40
  -1   4   5  458.75   12.10
  -1   4   5  463.25   12.00
  -1   4   5  437.16   13.40
   1  -4  -5  449.46   12.60
   1  -4  -5  459.05   12.20
   1  -4  -5  439.66   13.50
   1  -4  -5  459.05   12.20
   1  -4  -5  445.56   13.20
  -2   4   5   94.79    5.50
  -2   4   5   94.19    3.60
  -2   4   5   92.89    4.40
  -2   4   5   86.49    4.80
  -2   4   5   90.39    5.40
  -2   4   5   94.09    3.90
  -2   4   5   94.09    3.90
  -2   4   5   93.89    3.90
   2  -4  -5   93.59    3.80
   2  -4  -5   88.29    4.90
   2  -4  -5   95.99    4.00
   2  -4  -5   95.99    4.00
  -3   4   5  121.59    6.30
  -3   4   5  127.29    5.10
  -3   4   5  128.79    4.40
  -3   4   5  119.09    5.80
  -3   4   5  128.59    5.40
  -3   4   5  129.29    4.80
  -3   4   5  129.29    4.80
  -3   4   5  126.69    6.30
   3  -4  -5  129.99    6.00
   3  -4  -5  128.09    4.80
   3  -4  -5  122.59    4.20
   3  -4  -5  128.09    4.80
   3  -4  -5  118.89    5.30
  -4   4   5  150.28    7.60
  -4   4   5  150.18    6.90
  -4   4   5  159.38    6.50
  -4   4   5  145.09    7.00
  -4   4   5  157.48    6.50
  -4   4   5  150.78    5.60
  -4   4   5  150.78    5.60
   4  -4  -5  150.28    7.00
   4  -4  -5  154.48    4.90
   4  -4  -5  156.08    6.90
   4  -4  -5  151.08    5.50
   4  -4  -5  151.08    5.50
   4  -4  -5  150.78    4.50
   4  -4  -5  159.78    7.00
  -5   4   5  146.39    6.60
  -5   4   5  127.19    6.80
  -5   4   5  136.89    5.80
  -5   4   5  122.69    7.80
  -5   4   5  136.99    5.80
   5  -4  -5  135.19    4.40
   5  -4  -5  141.19    5.50
   5  -4  -5  127.99    7.20
   5  -4  -5  137.69    7.00
   5  -4  -5  141.19    5.50
   5  -4  -5  140.59    4.20
  -6   4   5   53.99    5.80
  -6   4   5   54.19    5.00
   6  -4  -5   55.49    5.70
   6  -4  -5   58.19    6.30
   6  -4  -5   47.60    3.20
   6  -4  -5   43.70    2.70
   6  -4  -5   57.59    4.00
   6  -4  -5   57.59    4.00
  -7   4   5  154.88    9.00
  -7   4   5  135.89    7.50
   7  -4  -5  156.48    9.00
   7  -4  -5  153.68    9.20
   7  -4  -5  153.98    6.40
   7  -4  -5  153.98    6.40
   7  -4  -5  133.39    5.70
  -8   4   5    4.80    3.50
  -8   4   5    7.00    4.70
   8  -4  -5    4.10    4.70
   8  -4  -5   18.40    5.50
   8  -4  -5    8.60    3.00
   8  -4  -5    8.60    3.00
  -9   4   5    9.00    6.10
  -9   4   5    7.70    4.20
   9  -4  -5   -0.70    6.20
   9  -4  -5    4.90    7.40
   9  -4  -5    2.00    3.70
   9  -4  -5    2.00    3.70
   7   4   4   99.99    9.00
   7   4   4  127.99   12.20
   7   4   4   99.99    9.00
   7   4   4   76.09    8.50
  -7  -4  -4   67.49    8.80
  -7  -4  -4  103.09   10.30
   6   4   4   70.99    5.80
   6   4   4   70.99    5.80
   6   4   4   82.59    8.30
   6   4   4   73.69    9.10
  -6  -4  -4   80.89    9.30
  -6  -4  -4   77.09    7.80
   5   4   4  115.39    6.60
   5   4   4  112.69    8.80
   5   4   4  115.39    6.60
   5   4   4  114.49    7.90
  -5  -4  -4  102.49    8.60
  -5  -4  -4   99.99    6.90
   4   4   4   52.99    5.40
   4   4   4   58.69    6.40
   4   4   4   49.20    6.00
   4   4   4   58.39    4.50
   4   4   4   58.39    4.50
  -4  -4  -4   60.69    5.00
  -4  -4  -4   55.49    6.00
  -4  -4  -4   54.99    4.60
  -4  -4  -4   60.69    5.00
   3   4   4  316.87   10.80
   3   4   4  299.77    9.50
   3   4   4  303.47   10.80
  -3  -4  -4  312.47   11.40
  -3  -4  -4  307.97    9.90
  -3  -4  -4  307.97    9.90
  -3  -4  -4  304.47    9.20
   2   4   4  184.18    6.70
   2   4   4  184.18    6.70
   2   4   4  201.88    7.90
   2   4   4  206.68    7.60
   2   4   4  215.78    6.30
   2   4   4  211.18    7.80
  -2  -4  -4  211.08    8.30
  -2  -4  -4  213.78    7.10
  -2  -4  -4  202.28    6.20
  -2  -4  -4  189.28    8.00
  -2  -4  -4  213.78    7.10
  -2  -4  -4  192.58    7.90
   1   4   4  276.17    9.10
   1   4   4  279.87    9.50
   1   4   4  264.17    8.80
   1   4   4  274.07    8.90
   1   4   4  276.77    6.70
  -1  -4  -4  265.17    8.20
  -1  -4  -4  276.37    6.90
  -1  -4  -4  273.27    9.20
  -1  -4  -4  268.07    9.10
  -1  -4  -4  265.17    8.20
   0   4   4  282.47    9.00
   0   4   4  269.57    9.10
   0   4   4  285.67    8.40
   0   4   4  279.37    8.00
   0   4   4  278.87    9.10
   0   4   4  288.47    7.70
   0   4   4  279.37    8.00
   0  -4  -4  274.17    8.10
   0  -4  -4  278.57    9.30
   0  -4  -4  274.17    8.10
   0  -4  -4  267.37    8.60
  -1   4   4   47.40    2.40
  -1   4   4   44.10    3.70
  -1   4   4   43.80    3.30
  -1   4   4   47.40    2.40
  -1   4   4   44.70    2.60
  -1   4   4   42.90    3.00
  -1   4   4   44.30    2.00
  -1   4   4   44.00    3.50
   1  -4  -4   42.70    3.30
   1  -4  -4   43.80    2.60
   1  -4  -4   43.80    2.60
   1  -4  -4   48.00    2.20
  -2   4   4  363.86    9.80
  -2   4   4  342.27   11.10
  -2   4   4  360.86   11.10
  -2   4   4  363.86    9.80
  -2   4   4  376.26   11.20
  -2   4   4  371.46    9.90
  -2   4   4  375.46   10.30
  -2   4   4  375.36    9.50
   2  -4  -4  372.86    9.60
   2  -4  -4  363.66   10.10
   2  -4  -4  369.46    9.80
   2  -4  -4  369.56    9.80
   2  -4  -4  368.26   11.20
  -3   4   4  600.94   16.70
  -3   4   4  591.64   15.80
  -3   4   4  579.54   16.60
  -3   4   4  604.34   15.80
  -3   4   4  596.84   15.00
  -3   4   4  596.84   15.00
  -3   4   4  580.74   16.40
  -3   4   4  600.54   14.30
   3  -4  -4  592.24   15.00
   3  -4  -4  606.44   14.20
   3  -4  -4  610.64   16.90
   3  -4  -4  597.54   16.50
   3  -4  -4  592.14   15.00
   3  -4  -4  605.64   15.90
  -4   4   4  222.28    6.70
  -4   4   4  222.28    6.80
  -4   4   4  205.98    7.80
  -4   4   4  210.38    7.90
  -4   4   4  217.48    8.70
  -4   4   4  205.58    8.30
   4  -4  -4  221.98    6.70
   4  -4  -4  226.38    8.30
   4  -4  -4  221.98    6.70
   4  -4  -4  215.68    8.20
   4  -4  -4  220.58    8.50
  -5   4   4  134.99    5.30
  -5   4   4  138.59    6.90
  -5   4   4  134.99    5.30
  -5   4   4  115.09    7.30
  -5   4   4  132.29    6.20
   5  -4  -4  131.89    5.00
   5  -4  -4  136.79    6.70
   5  -4  -4  127.59    3.90
   5  -4  -4  131.89    5.00
   5  -4  -4  138.09    4.00
   5  -4  -4  132.59    7.00
  -6   4   4   33.70    4.30
  -6   4   4   37.50    3.40
  -6   4   4   37.50    3.40
  -6   4   4   32.80    3.80
   6  -4  -4   41.00    2.90
   6  -4  -4   29.00    2.70
   6  -4  -4   38.60    4.50
   6  -4  -4   29.00    2.70
   6  -4  -4   33.60    2.70
   6  -4  -4   45.10    5.60
  -7   4   4   14.50    3.40
  -7   4   4   15.70    4.40
   7  -4  -4   12.90    2.40
   7  -4  -4   11.30    4.10
   7  -4  -4   12.90    2.40
   7  -4  -4   11.10    2.30
   7  -4  -4   14.50    4.10
  -8   4   4   11.20    3.80
  -8   4   4   18.50    5.10
   8  -4  -4   11.60    3.00
   8  -4  -4   11.60    3.00
   8  -4  -4   20.50    5.40
   8  -4  -4   13.10    5.40
  -9   4   4   28.60    5.40
  -9   4   4   41.30    7.50
   9  -4  -4   38.80    4.50
   9  -4  -4   29.80    7.30
   9  -4  -4   39.80    7.30
   9  -4  -4   38.80    4.50
   7   4   3   -2.00    5.00
   7   4   3    2.40    4.20
   7   4   3    0.50    5.70
   7   4   3    2.40    4.20
  -7  -4  -3    5.80    6.10
  -7  -4  -3   -2.20    4.70
   6   4   3   26.20    5.20
   6   4   3   22.40    3.90
   6   4   3   22.40    3.90
   6   4   3   35.30    5.40
  -6  -4  -3   30.00    5.10
  -6  -4  -3   22.20    5.10
   5   4   3   69.19    6.60
   5   4   3   79.79    7.70
   5   4   3   79.79    7.70
   5   4   3   85.19    7.40
  -5  -4  -3   80.69    6.10
  -5  -4  -3   85.59    8.50
   4   4   3  326.17   11.30
   4   4   3  311.67   11.50
   4   4   3  319.27   10.20
   4   4   3  319.27   10.20
   4   4   3  329.47   11.40
  -4  -4  -3  329.57   10.50
  -4  -4  -3  324.27   12.20
   3   4   3  172.38    6.50
   3   4   3  172.38    6.50
   3   4   3  179.78    7.30
   3   4   3  183.28    7.20
   3   4   3  183.98    7.00
  -3  -4  -3  180.58    7.80
  -3  -4  -3  185.68    6.40
  -3  -4  -3  169.18    7.60
  -3  -4  -3  186.48    6.70
  -3  -4  -3  168.68    7.20
  -3  -4  -3  186.48    6.70
   2   4   3   28.40    3.00
   2   4   3   30.00    3.10
   2   4   3   28.30    2.90
   2   4   3   26.10    2.90
   2   4   3   20.70    2.10
   2   4   3   20.70    2.10
  -2  -4  -3   23.00    2.30
  -2  -4  -3   30.00    3.10
  -2  -4  -3   28.40    2.60
  -2  -4  -3   26.10    3.30
  -2  -4  -3   28.40    2.60
  -2  -4  -3   30.00    3.50
   1   4   3   58.09    2.40
   1   4   3   63.69    3.90
   1   4   3   58.39    3.00
   1   4   3   65.59    3.60
   1   4   3   59.09    3.50
   1   4   3   55.79    3.40
   1   4   3   58.39    3.00
  -1  -4  -3   61.49    3.80
  -1  -4  -3   58.69    3.10
  -1  -4  -3   58.69    3.10
  -1  -4  -3   59.09    2.50
  -1  -4  -3   58.19    3.70
   0   4   3  135.29    4.50
   0   4   3  133.69    3.90
   0   4   3  135.79    5.30
   0   4   3  142.29    4.90
   0   4   3  122.39    4.30
   0   4   3  135.29    4.50
   0   4   3  138.49    3.80
   0   4   3  135.49    5.50
   0  -4  -3  139.09    4.60
   0  -4  -3  137.99    5.00
   0  -4  -3  139.09    4.60
   0  -4  -3  130.29    5.50
  -1   4   3  331.57   10.10
  -1   4   3  326.57    8.80
  -1   4   3  334.47    8.80
  -1   4   3  334.97   10.10
  -1   4   3  351.86    8.80
  -1   4   3  326.57    8.80
  -1   4   3  345.77    9.20
  -1   4   3  336.17   10.10
   1  -4  -3  343.27    8.90
   1  -4  -3  330.07    8.90
   1  -4  -3  343.27    8.90
   1  -4  -3  332.07   10.00
   1  -4  -3  340.17    8.90
  -2   4   3  452.75   12.30
  -2   4   3  452.85   13.10
  -2   4   3  446.66   13.00
  -2   4   3  467.45   12.60
  -2   4   3  470.95   11.10
  -2   4   3  469.05   11.60
  -2   4   3  469.05   11.60
   2  -4  -3  463.25   12.30
   2  -4  -3  472.85   11.70
   2  -4  -3  472.85   11.70
   2  -4  -3  461.75   13.20
   2  -4  -3  470.45   11.10
   2  -4  -3  454.75   13.00
  -3   4   3  448.46   13.20
  -3   4   3  451.05   13.40
  -3   4   3  472.55   12.70
  -3   4   3  457.45   11.60
  -3   4   3  450.25   13.00
  -3   4   3  457.45   11.60
   3  -4  -3  479.55   11.70
   3  -4  -3  479.55   11.70
   3  -4  -3  454.35   12.80
   3  -4  -3  457.85   13.40
   3  -4  -3  437.26   13.20
  -4   4   3  217.18    6.50
  -4   4   3  217.18    6.50
  -4   4   3  221.98    8.40
  -4   4   3  219.98    8.10
  -4   4   3  220.08    8.10
  -4   4   3  216.08    7.50
   4  -4  -3  219.08    6.40
   4  -4  -3  219.08    6.40
   4  -4  -3  210.88    8.00
   4  -4  -3  221.68    8.40
   4  -4  -3  206.78    8.10
  -5   4   3   40.60    4.70
  -5   4   3   37.50    4.40
  -5   4   3   40.40    3.30
  -5   4   3   45.20    3.90
  -5   4   3   40.40    3.30
   5  -4  -3   38.60    4.70
   5  -4  -3   41.50    4.90
   5  -4  -3   42.30    2.80
   5  -4  -3   39.90    2.20
   5  -4  -3   42.30    2.80
   5  -4  -3   37.40    2.40
  -6   4   3   73.59    5.30
  -6   4   3   66.49    4.60
  -6   4   3   66.49    4.60
  -6   4   3   72.09    6.20
   6  -4  -3   72.99    3.80
   6  -4  -3   72.99    3.80
   6  -4  -3   66.09    3.90
   6  -4  -3   68.29    3.70
   6  -4  -3   73.29    6.00
   6  -4  -3   73.09    6.10
  -7   4   3    8.60    4.10
  -7   4   3    9.90    3.40
   7  -4  -3    8.50    2.20
   7  -4  -3    8.60    2.60
   7  -4  -3    3.50    3.50
   7  -4  -3    8.90    4.00
   7  -4  -3    8.50    2.20
  -8   4   3    9.70    4.10
  -8   4   3   18.20    5.00
   8  -4  -3    8.30    9.40
   8  -4  -3    9.90    5.30
   8  -4  -3   11.90    2.90
   8  -4  -3   11.80    2.90
  -9   4   3  102.09   11.40
  -9   4   3  106.89    8.20
   9  -4  -3   95.39   12.20
   9  -4  -3   94.99    9.90
   8   4   2   89.39   10.30
   8   4   2   93.19    8.70
   8   4   2   93.19    8.70
   8   4   2  115.89   12.50
  -8  -4  -2  100.39   11.20
  -8  -4  -2  103.99   11.30
   7   4   2   65.09    8.00
   7   4   2   67.69    6.40
   7   4   2   67.79    7.80
   7   4   2   67.69    6.40
  -7  -4  -2   58.89    7.70
  -7  -4  -2   60.29    6.90
   6   4   2  280.07   11.30
   6   4   2  275.37   11.70
   6   4   2  253.77    9.70
   6   4   2  253.77    9.70
  -6  -4  -2  267.27   11.20
  -6  -4  -2  265.07   12.60
   5   4   2  140.49    7.80
   5   4   2  137.69    6.30
   5   4   2  129.39    7.60
   5   4   2  137.59    6.30
  -5  -4  -2  135.39    7.10
  -5  -4  -2  141.49    8.40
   4   4   2  315.87   10.80
   4   4   2  328.97   11.10
   4   4   2  317.47    9.90
   4   4   2  320.27   10.70
   4   4   2  317.47    9.90
  -4  -4  -2  313.07   10.40
  -4  -4  -2  326.77   11.80
  -4  -4  -2  314.77   10.30
   3   4   2   37.00    3.40
   3   4   2   39.00    3.50
   3   4   2   36.10    3.90
   3   4   2   36.30    2.90
   3   4   2   36.30    3.20
   3   4   2   36.30    3.20
   3   4   2   36.30    2.90
   3   4   2   41.60    3.50
  -3  -4  -2   39.20    3.60
  -3  -4  -2   38.00    3.20
  -3  -4  -2   33.50    3.10
  -3  -4  -2   38.00    3.20
  -3  -4  -2   43.70    3.50
  -3  -4  -2   44.30    4.20
   2   4   2 1114.09   27.20
   2   4   2 1174.08   27.10
   2   4   2 1128.99   28.30
   2   4   2 1114.79   27.60
   2   4   2 1159.28   28.10
   2   4   2 1114.09   27.20
  -2  -4  -2 1121.49   27.40
  -2  -4  -2 1060.29   28.10
  -2  -4  -2 1152.58   27.90
  -2  -4  -2 1119.19   27.30
  -2  -4  -2 1137.69   28.60
  -2  -4  -2 1121.49   27.40
   1   4   2  533.45   14.10
   1   4   2  536.35   14.30
   1   4   2  535.15   13.20
   1   4   2  541.25   14.40
   1   4   2  544.75   13.50
   1   4   2  544.75   13.50
   1   4   2  521.45   14.20
  -1  -4  -2  534.05   14.40
  -1  -4  -2  524.65   13.50
  -1  -4  -2  520.85   14.30
   0   4   2 1251.87   30.00
   0   4   2 1279.07   29.00
   0   4   2 1257.47   29.10
   0   4   2 1230.78   29.00
   0   4   2 1187.78   29.90
   0   4   2 1273.57   30.10
   0   4   2 1279.07   29.00
   0  -4  -2 1234.28   30.00
   0  -4  -2 1221.18   29.00
   0  -4  -2 1214.38   29.50
   0  -4  -2 1221.18   29.00
   0  -4  -2 1128.09   28.90
  -1   4   2  496.05   12.80
  -1   4   2  502.55   13.80
  -1   4   2  521.85   13.00
  -1   4   2  526.45   12.40
  -1   4   2  512.75   13.90
  -1   4   2  496.15   12.80
   1  -4  -2  513.25   13.70
   1  -4  -2  513.45   13.10
   1  -4  -2  523.55   13.10
   1  -4  -2  513.15   13.80
   1  -4  -2  514.15   12.60
  -2   4   2 2432.16   60.29
  -2   4   2 2587.44   60.89
  -2   4   2 2669.73   61.59
  -2   4   2 2639.64   61.19
  -2   4   2 2680.03   61.79
  -2   4   2 2432.16   60.29
   2  -4  -2 2699.63   59.99
   2  -4  -2 2619.64   61.69
   2  -4  -2 2730.83   61.19
   2  -4  -2 2595.94   61.69
   2  -4  -2 2591.34   60.79
   2  -4  -2 2699.73   59.99
  -3   4   2 1468.55   34.10
  -3   4   2 1471.15   35.30
  -3   4   2 1447.96   36.10
  -3   4   2 1466.55   36.10
  -3   4   2 1468.55   34.10
  -3   4   2 1459.05   35.90
   3  -4  -2 1447.06   34.20
   3  -4  -2 1485.45   36.20
   3  -4  -2 1475.55   35.70
   3  -4  -2 1482.75   36.20
   3  -4  -2 1446.96   34.20
  -4   4   2   89.99    5.20
  -4   4   2   89.49    4.60
  -4   4   2   89.79    3.40
  -4   4   2   89.79    3.40
  -4   4   2   88.09    5.40
  -4   4   2   84.59    5.20
   4  -4  -2   82.39    5.00
   4  -4  -2   87.69    3.20
   4  -4  -2   87.69    2.80
   4  -4  -2   72.29    5.00
   4  -4  -2   90.59    5.10
   4  -4  -2   87.69    3.20
  -5   4   2  159.08    5.30
  -5   4   2  146.39    7.40
  -5   4   2  156.68    6.50
  -5   4   2  159.08    5.30
  -5   4   2  156.28    5.40
  -5   4   2  145.09    7.70
   5  -4  -2  150.38    7.40
   5  -4  -2  134.99    5.40
   5  -4  -2  151.08    4.90
   5  -4  -2  151.08    4.90
   5  -4  -2  148.69    7.40
  -6   4   2   20.80    2.60
  -6   4   2   20.70    3.30
  -6   4   2   18.40    3.60
  -6   4   2   21.00    2.90
  -6   4   2   20.80    2.60
   6  -4  -2   22.80    3.80
   6  -4  -2   30.30    4.50
   6  -4  -2   25.70    3.30
   6  -4  -2   27.70    2.40
   6  -4  -2   27.70    2.40
  -7   4   2   13.90    3.40
  -7   4   2   13.90    3.40
  -7   4   2   21.80    3.90
  -7   4   2   23.00    3.60
  -7   4   2   20.00    4.10
   7  -4  -2   22.60    2.70
   7  -4  -2   22.60    2.70
   7  -4  -2   27.80    4.80
   7  -4  -2   22.50    4.90
  -8   4   2  114.89    9.20
  -8   4   2   94.79    7.10
   8  -4  -2  104.09    5.80
   8  -4  -2  104.09    5.80
   8  -4  -2  101.19   10.30
   8  -4  -2  109.29   10.00
  -9   4   2   15.40    6.70
  -9   4   2   -1.80    4.30
   9  -4  -2   -5.50    7.10
   9  -4  -2   11.20    7.00
   8   4   1   91.79    7.00
   8   4   1   79.29    9.40
   8   4   1   91.79    7.00
  -8  -4  -1  111.39   12.80
  -8  -4  -1   99.59   10.40
   7   4   1   67.19    5.80
   7   4   1   67.19    5.80
   7   4   1   58.69    7.20
   7   4   1   48.40    5.60
  -7  -4  -1   49.50    6.20
  -7  -4  -1   63.09    8.00
   6   4   1   33.60    3.50
   6   4   1   44.70    5.70
   6   4   1   33.60    3.50
   6   4   1   45.90    5.80
  -6  -4  -1   42.70    5.00
  -6  -4  -1   48.20    7.80
   5   4   1  806.02   20.70
   5   4   1  807.12   21.50
   5   4   1  761.12   22.40
   5   4   1  805.92   20.70
  -5  -4  -1  769.82   20.90
  -5  -4  -1  805.32   21.90
  -5  -4  -1  801.12   23.20
  -5  -4  -1  741.73   19.20
   4   4   1   62.19    4.40
   4   4   1   64.39    4.90
   4   4   1   62.69    3.80
   4   4   1   62.69    3.80
   4   4   1   62.49    4.70
  -4  -4  -1   63.59    4.20
  -4  -4  -1   59.59    4.10
  -4  -4  -1   64.89    5.30
  -4  -4  -1   50.29    4.10
   3   4   1   79.19    3.80
   3   4   1   79.19    3.80
   3   4   1   80.29    4.30
   3   4   1   82.19    4.00
   3   4   1   85.29    3.90
   3   4   1   82.19    4.00
   3   4   1   75.99    4.40
   3   4   1   74.69    4.00
  -3  -4  -1   76.29    4.90
  -3  -4  -1   72.69    4.00
  -3  -4  -1   78.49    4.20
  -3  -4  -1   73.99    3.80
   2   4   1    7.90    1.50
   2   4   1    8.00    1.40
   2   4   1    9.10    1.60
   2   4   1    9.90    1.60
   2   4   1    9.90    1.60
   2   4   1    8.00    1.40
   2   4   1    6.10    1.50
   2   4   1    6.40    1.20
  -2  -4  -1   10.50    1.70
  -2  -4  -1    8.30    1.50
  -2  -4  -1    7.80    1.40
  -2  -4  -1    7.80    1.40
  -2  -4  -1    8.20    1.90
   1   4   1  240.08    7.20
   1   4   1  242.18    6.90
   1   4   1  237.98    6.60
   1   4   1  235.88    7.30
   1   4   1  237.98    6.60
   1   4   1  236.88    7.10
   1   4   1  248.08    7.30
   1   4   1  237.38    7.10
  -1  -4  -1  228.48    6.70
  -1  -4  -1  237.48    7.00
  -1  -4  -1  237.18    7.50
  -1  -4  -1  228.48    6.70
  -1  -4  -1  234.38    7.10
   0   4   1  509.75   12.90
   0   4   1  515.95   12.80
   0   4   1  503.45   12.30
   0   4   1  507.05   13.00
   0   4   1  519.35   13.20
   0   4   1  503.45   12.30
   0   4   1  517.55   13.30
   0  -4  -1  498.45   12.80
   0  -4  -1  490.15   13.90
   0  -4  -1  515.15   12.40
   0  -4  -1  515.15   12.40
   0  -4  -1  487.15   12.70
   0  -4  -1  472.65   13.10
  -1   4   1  259.67    6.40
  -1   4   1  259.67    6.40
  -1   4   1  255.77    7.30
  -1   4   1  250.67    7.60
  -1   4   1  259.37    6.50
  -1   4   1  259.77    6.50
  -1   4   1  249.97    7.80
   1  -4  -1  253.97    6.40
   1  -4  -1  242.68    7.80
   1  -4  -1  243.38    7.40
   1  -4  -1  248.38    7.40
   1  -4  -1  253.97    6.40
  -2   4   1 1459.35   32.30
  -2   4   1 1446.36   32.50
  -2   4   1 1414.66   34.20
  -2   4   1 1446.36   32.50
  -2   4   1 1410.06   34.50
  -2   4   1 1360.16   34.10
   2  -4  -1 1436.06   32.60
   2  -4  -1 1425.06   32.40
   2  -4  -1 1436.06   32.60
   2  -4  -1 1386.26   33.80
   2  -4  -1 1374.56   34.50
   2  -4  -1 1413.36   34.20
   2  -4  -1 1381.06   34.40
  -3   4   1    1.30    0.70
  -3   4   1    0.50    1.50
  -3   4   1    0.80    1.80
  -3   4   1    1.40    1.60
  -3   4   1    1.30    0.70
  -3   4   1    1.50    1.40
  -3   4   1    0.90    0.70
   3  -4  -1    0.20    1.60
   3  -4  -1    1.30    0.70
   3  -4  -1    1.30    0.70
   3  -4  -1    0.50    1.60
   3  -4  -1    2.30    0.70
   3  -4  -1   -0.70    1.60
   3  -4  -1    1.00    1.50
  -4   4   1  252.27    8.10
  -4   4   1  247.98    8.90
  -4   4   1  237.68    8.80
  -4   4   1  243.48    7.10
  -4   4   1  248.18    9.30
  -4   4   1  261.27    6.70
  -4   4   1  261.27    6.70
   4  -4  -1  242.88    9.00
   4  -4  -1  246.18    9.00
   4  -4  -1  261.87    6.90
   4  -4  -1  235.38    8.90
   4  -4  -1  228.58    6.80
   4  -4  -1  228.58    6.80
  -5   4   1  364.16    9.80
  -5   4   1  367.96   12.80
  -5   4   1  364.16    9.80
  -5   4   1  370.16   11.30
  -5   4   1  364.06   10.60
   5  -4  -1  387.76    9.70
   5  -4  -1  387.76    9.70
   5  -4  -1  363.66   12.50
   5  -4  -1  358.26   12.50
   5  -4  -1  356.66   10.10
  -6   4   1   26.10    3.70
  -6   4   1   22.60    3.10
  -6   4   1   27.30    4.30
  -6   4   1   19.50    2.50
  -6   4   1   19.60    2.50
   6  -4  -1   22.60    2.20
   6  -4  -1   22.10    3.70
   6  -4  -1   22.60    2.20
   6  -4  -1   23.50    4.20
   6  -4  -1   19.00    2.70
  -7   4   1  139.29    7.50
  -7   4   1  121.89    8.40
  -7   4   1  124.79    7.30
   7  -4  -1  127.09    9.20
   7  -4  -1  143.29    8.60
   7  -4  -1  124.79    5.30
   7  -4  -1  124.79    5.30
  -8   4   1   20.60    5.80
  -8   4   1   13.30    5.20
  -8   4   1   13.80    4.30
   8  -4  -1   15.70    6.00
   8  -4  -1   17.60    3.10
   8  -4  -1   21.60    5.30
   8  -4  -1   17.60    3.10
  -9   4   1    0.50    7.10
  -9   4   1    6.30    4.80
   9  -4  -1   11.80    8.10
   8   4   0   71.69    5.80
   8   4   0   71.69    5.80
   8   4   0   66.69    8.60
  -8  -4   0   69.09    7.80
  -8  -4   0   64.09    8.30
   7   4   0   12.60    3.60
   7   4   0   17.90    4.20
   7   4   0    9.70    4.00
   7   4   0   12.60    3.60
  -7  -4   0   11.20    4.10
  -7  -4   0   17.50    5.20
   6   4   0   25.10    3.00
   6   4   0   28.00    3.40
   6   4   0   25.00    3.00
   6   4   0   26.80    4.30
  -6  -4   0   29.70    3.70
  -6  -4   0   28.90    4.70
  -6  -4   0   27.70    3.50
  -6  -4   0   26.50    4.10
   5   4   0   97.19    4.90
   5   4   0   95.09    6.20
   5   4   0   98.69    5.30
   5   4   0   97.19    4.90
  -5  -4   0   98.69    5.90
  -5  -4   0   96.59    5.00
  -5  -4   0  105.59    4.90
  -5  -4   0  104.09    6.70
   4   4   0   57.69    3.90
   4   4   0   60.69    4.20
   4   4   0   60.99    3.50
   4   4   0   60.99    3.50
   4   4   0   57.69    3.90
   4   4   0   65.69    4.00
   4   4   0   65.19    4.40
  -4  -4   0   58.59    3.40
  -4  -4   0   60.39    5.00
  -4  -4   0   54.99    3.80
  -4  -4   0   63.59    3.70
  -4  -4   0   59.99    4.30
   3   4   0  299.97    9.80
   3   4   0  304.87    8.90
   3   4   0  306.97    9.20
   3   4   0  304.87    8.90
   3   4   0  304.37    9.20
   3   4   0  316.37    8.40
  -3  -4   0  289.57    9.40
  -3  -4   0  304.47    8.40
  -3  -4   0  304.07    8.50
  -3  -4   0  306.07    9.00
  -3  -4   0  293.07   10.00
   2   4   0   40.60    2.50
   2   4   0   35.00    2.90
   2   4   0   33.20    2.40
   2   4   0   37.70    2.10
   2   4   0   41.00    2.50
   2   4   0   33.20    2.40
   2   4   0   41.00    2.50
   2   4   0   38.40    2.80
  -2  -4   0   32.80    2.30
  -2  -4   0   34.60    2.90
  -2  -4   0   40.60    2.50
  -2  -4   0   34.00    2.70
  -2  -4   0   37.40    3.30
   1   4   0 1667.63   38.30
   1   4   0 1613.74   38.60
   1   4   0 1667.73   38.30
   1   4   0 1636.94   39.20
   1   4   0 1676.23   38.70
   1   4   0 1644.84   38.70
   1   4   0 1662.53   38.70
   1   4   0 1719.13   39.10
  -1  -4   0 1671.13   39.30
  -1  -4   0 1568.04   38.50
  -1  -4   0 1577.14   39.40
   0   4   0  280.97    6.90
   0   4   0  270.77    7.90
   0   4   0  271.77    7.50
   0   4   0  236.38    8.20
   0   4   0  279.37    8.10
   0   4   0  292.77    7.70
   0   4   0  280.97    6.90
   0   4   0  271.47    7.60
   0  -4   0  264.37    7.80
   0  -4   0  279.67    7.60
   0  -4   0  276.97    6.90
   0  -4   0  276.97    6.90
   0  -4   0  271.07    7.70
  -1   4   0 1670.73   38.40
  -1   4   0 1701.83   37.80
  -1   4   0 1701.93   37.80
  -1   4   0 1624.84   39.20
  -1   4   0 1681.33   39.50
   1  -4   0 1626.14   39.10
   1  -4   0 1575.34   39.70
   1  -4   0 1672.53   37.80
   1  -4   0 1632.64   39.40
   1  -4   0 1672.53   37.80
   1  -4   0 1653.23   38.50
  -2   4   0   37.80    1.20
  -2   4   0   35.10    2.80
  -2   4   0   39.10    1.90
  -2   4   0   37.80    1.20
  -2   4   0   37.50    3.40
  -2   4   0   40.60    3.00
   2  -4   0   36.80    3.20
   2  -4   0   37.20    3.10
   2  -4   0   37.40    3.20
   2  -4   0   36.80    1.20
   2  -4   0   36.80    1.20
   2  -4   0   39.50    2.00
   2  -4   0   35.00    3.10
  -3   4   0  286.57    9.60
  -3   4   0  294.57    9.50
  -3   4   0  309.27    9.40
  -3   4   0  305.27    8.20
  -3   4   0  298.57    7.30
  -3   4   0  298.67    7.30
   3  -4   0  302.77    9.90
   3  -4   0  304.37    7.30
   3  -4   0  304.37    7.30
   3  -4   0  297.37    9.80
   3  -4   0  291.27    8.10
   3  -4   0  304.87    9.00
   3  -4   0  291.07    9.50
  -4   4   0   64.59    3.50
  -4   4   0   56.09    3.90
  -4   4   0   63.49    4.40
  -4   4   0   66.69    4.90
  -4   4   0   60.29    5.00
   4  -4   0   70.99    4.40
   4  -4   0   64.79    2.50
   4  -4   0   68.19    5.00
   4  -4   0   67.39    3.30
   4  -4   0   62.09    4.50
   4  -4   0   64.79    2.50
   4  -4   0   49.00    5.00
  -5   4   0   91.09    6.20
  -5   4   0  102.39    5.10
  -5   4   0  102.79    6.80
   5  -4   0  100.09    4.10
   5  -4   0  103.99    3.70
   5  -4   0   95.79    4.70
   5  -4   0  101.79    6.30
   5  -4   0   99.29    6.60
   5  -4   0  100.09    4.10
   5  -4   0  103.99    3.70
  -6   4   0   30.70    5.00
  -6   4   0   34.90    3.90
  -6   4   0   28.50    3.70
   6  -4   0   27.40    3.50
   6  -4   0   29.10    4.30
   6  -4   0   29.00    2.40
   6  -4   0   30.80    4.70
   6  -4   0   30.70    3.10
   6  -4   0   29.00    2.40
   6  -4   0   30.70    3.10
  -7   4   0   13.20    3.90
  -7   4   0   10.90    3.90
  -7   4   0   19.40    4.70
   7  -4   0   13.90    2.40
   7  -4   0   13.90    2.40
   7  -4   0   18.60    4.40
   7  -4   0   16.50    4.90
  -8   4   0   61.39    7.20
  -8   4   0   74.39    8.80
  -8   4   0   65.59    6.00
   8  -4   0   86.29   10.90
   8  -4   0   53.19    7.20
   9   4  -1   -9.20    4.70
   9   4  -1   -9.20    4.70
   9   4  -1    9.70    6.50
  -9  -4   1    7.70    6.70
  -9  -4   1   -6.90    8.50
   8   4  -1   14.50    3.90
   8   4  -1   14.50    3.90
   8   4  -1   18.70    4.80
  -8  -4   1   14.00    5.00
  -8  -4   1   11.20    6.10
   7   4  -1  114.79    7.80
   7   4  -1  118.09    6.50
   7   4  -1  118.09    6.50
   7   4  -1  121.49    6.70
  -7  -4   1  128.19    8.50
  -7  -4   1  125.49    7.20
  -7  -4   1  131.49    9.80
   6   4  -1   21.30    2.90
   6   4  -1   18.80    3.50
   6   4  -1   22.40    2.90
   6   4  -1   21.30    2.90
  -6  -4   1   24.10    4.60
  -6  -4   1   24.80    4.10
  -6  -4   1   24.50    3.40
  -6  -4   1   22.20    2.90
   5   4  -1  367.16   10.90
   5   4  -1  370.86   11.90
   5   4  -1  367.16   10.90
   5   4  -1  349.27   10.70
  -5  -4   1  380.46   13.20
  -5  -4   1  381.46   10.70
  -5  -4   1  357.86   11.50
  -5  -4   1  361.16   10.10
  -5  -4   1  363.96   12.20
   4   4  -1  250.97    8.50
   4   4  -1  243.68    9.00
   4   4  -1  245.58    8.00
   4   4  -1  251.27    7.80
   4   4  -1  251.87    8.70
   4   4  -1  252.97    7.40
   4   4  -1  245.58    8.00
   4   4  -1  251.27    7.80
  -4  -4   1  247.48    7.60
  -4  -4   1  253.57    8.90
  -4  -4   1  239.78    7.70
  -4  -4   1  238.28    9.40
  -4  -4   1  257.27    7.10
  -4  -4   1  247.78    8.00
  -4  -4   1  239.78    7.70
   3   4  -1    0.60    1.00
   3   4  -1    0.60    1.40
   3   4  -1    0.60    1.00
   3   4  -1    0.90    1.40
   3   4  -1    2.40    1.20
   3   4  -1    1.40    0.90
  -3  -4   1    1.80    1.90
  -3  -4   1    1.00    0.90
  -3  -4   1   -1.10    1.00
  -3  -4   1    1.40    1.50
  -3  -4   1    0.90    0.90
  -3  -4   1   -1.10    1.00
  -3  -4   1    1.30    1.50
   2   4  -1 1432.26   32.70
   2   4  -1 1412.46   32.80
   2   4  -1 1343.87   34.20
   2   4  -1 1453.55   34.10
   2   4  -1 1419.56   33.10
   2   4  -1 1451.25   34.50
  -2  -4   1 1373.46   33.10
  -2  -4   1 1378.56   34.50
  -2  -4   1 1432.46   33.40
  -2  -4   1 1373.56   33.10
  -2  -4   1 1368.56   34.20
  -2  -4   1 1421.06   33.20
   1   4  -1  249.18    7.70
   1   4  -1  242.78    6.50
   1   4  -1  256.57    6.90
   1   4  -1  242.78    6.50
   1   4  -1  253.17    7.70
   1   4  -1  251.87    6.60
   1   4  -1  258.57    6.70
  -1  -4   1  243.88    6.50
  -1  -4   1  221.48    8.30
  -1  -4   1  243.78    6.50
  -1  -4   1  249.18    6.80
  -1  -4   1  239.08    7.20
   0   4  -1  455.65   13.40
   0   4  -1  494.95   11.90
   0   4  -1  531.75   12.00
   0   4  -1  531.75   12.00
   0   4  -1  495.05   11.90
   0   4  -1  520.95   12.60
   0   4  -1  497.45   12.90
   0  -4   1  515.15   13.10
   0  -4   1  499.15   11.90
   0  -4   1  494.05   13.00
   0  -4   1  499.25   11.90
   0  -4   1  495.15   12.50
  -1   4  -1  234.18    7.50
  -1   4  -1  236.38    6.70
  -1   4  -1  230.98    7.40
   1  -4   1  228.68    6.80
   1  -4   1  257.57    7.50
   1  -4   1  246.68    7.70
   1  -4   1  230.88    7.20
   1  -4   1  238.08    7.60
  -2   4  -1    8.70    2.20
  -2   4  -1    7.80    1.20
  -2   4  -1    6.90    1.70
  -2   4  -1    7.90    1.70
   2  -4   1   11.10    2.00
   2  -4   1    9.30    2.10
   2  -4   1    8.90    1.40
   2  -4   1    7.40    1.50
   2  -4   1    8.10    2.00
  -3   4  -1   76.29    4.50
  -3   4  -1   79.79    3.70
  -3   4  -1   78.69    4.70
  -3   4  -1   82.59    4.60
   3  -4   1   77.69    2.30
   3  -4   1   80.59    4.80
   3  -4   1   83.89    3.60
   3  -4   1   76.09    4.70
   3  -4   1   75.79    2.30
   3  -4   1   78.69    4.30
   3  -4   1   75.79    2.30
   3  -4   1   77.69    2.30
   3  -4   1   78.29    4.30
  -4   4  -1   64.49    5.30
  -4   4  -1   66.99    6.10
  -4   4  -1   66.79    4.00
   4  -4   1   64.19    2.60
   4  -4   1   66.69    4.40
   4  -4   1   64.39    5.10
   4  -4   1   64.19    2.60
   4  -4   1   66.69    2.50
   4  -4   1   65.49    3.80
   4  -4   1   66.69    2.50
   4  -4   1   61.49    4.70
  -5   4  -1  772.52   21.00
  -5   4  -1  767.62   22.80
   5  -4   1  803.92   18.90
   5  -4   1  782.42   19.00
   5  -4   1  803.92   18.90
   5  -4   1  782.42   19.00
   5  -4   1  782.22   22.30
   5  -4   1  771.52   20.70
   5  -4   1  789.02   22.70
  -6   4  -1   45.40    5.20
  -6   4  -1   48.30    5.00
  -6   4  -1   36.90    5.40
   6  -4   1   42.70    3.10
   6  -4   1   42.70    3.10
   6  -4   1   61.09    6.90
   6  -4   1   47.30    5.40
   6  -4   1   41.70    4.00
   6  -4   1   41.60    4.00
  -7   4  -1   66.99    7.30
  -7   4  -1   50.59    6.70
  -7   4  -1   61.29    6.40
   7  -4   1   63.49    4.30
   7  -4   1   59.99    7.40
   7  -4   1   63.49    4.30
   7  -4   1   68.49    7.90
  -8   4  -1   93.59   10.60
  -8   4  -1   79.19    8.00
  -8   4  -1   76.29    9.90
   8  -4   1   90.79   10.20
   8  -4   1   94.29    9.60
   9   4  -2    6.20    4.60
   9   4  -2    8.00    6.80
   9   4  -2    6.20    4.60
   9   4  -2    8.50    6.10
  -9  -4   2    4.70    6.00
   8   4  -2  105.09    7.30
   8   4  -2  102.69   10.00
   8   4  -2  105.09    7.30
   8   4  -2  108.99    9.00
  -8  -4   2   91.59   10.60
  -8  -4   2  101.29    9.40
  -8  -4   2   89.69    7.90
   7   4  -2   21.40    3.90
   7   4  -2   23.70    3.50
   7   4  -2   16.20    2.90
   7   4  -2   23.70    3.50
   7   4  -2   15.60    4.50
  -7  -4   2   24.60    5.60
  -7  -4   2   18.70    4.50
  -7  -4   2   21.90    4.10
   6   4  -2   27.90    3.00
   6   4  -2   20.80    2.40
   6   4  -2   28.00    3.00
   6   4  -2   20.70    4.10
   6   4  -2   19.60    3.20
  -6  -4   2   22.50    3.40
  -6  -4   2   20.50    2.90
  -6  -4   2   24.50    4.70
  -6  -4   2   21.80    3.80
   5   4  -2  156.18    6.00
   5   4  -2  157.88    7.60
   5   4  -2  156.18    6.00
   5   4  -2  154.48    6.50
   5   4  -2  145.29    4.80
  -5  -4   2  143.09    6.20
  -5  -4   2  151.88    6.50
  -5  -4   2  156.88    7.50
  -5  -4   2  158.18    4.70
  -5  -4   2  159.78    8.00
   4   4  -2   84.39    3.90
   4   4  -2   86.29    4.30
   4   4  -2   90.99    5.20
   4   4  -2   84.39    3.90
   4   4  -2   85.09    2.80
   4   4  -2   88.49    4.80
   4   4  -2   82.79    5.20
   4   4  -2   86.09    2.80
  -4  -4   2   92.29    4.40
  -4  -4   2   87.19    5.50
  -4  -4   2   90.49    4.10
  -4  -4   2   93.89    5.20
   3   4  -2 1496.75   36.20
   3   4  -2 1434.86   34.50
   3   4  -2 1434.86   34.60
   3   4  -2 1470.55   34.70
   3   4  -2 1410.96   35.50
   3   4  -2 1438.86   36.10
  -3  -4   2 1445.46   34.60
  -3  -4   2 1494.75   36.10
  -3  -4   2 1445.66   34.60
  -3  -4   2 1468.95   34.80
   2   4  -2 2694.63   60.39
   2   4  -2 2698.23   60.59
   2   4  -2 2624.94   60.99
   2   4  -2 2624.84   60.99
   2   4  -2 2619.34   62.49
   2   4  -2 2665.13   62.19
   2   4  -2 2644.64   62.39
  -2  -4   2 2630.24   60.39
  -2  -4   2 2676.43   60.59
  -2  -4   2 2581.54   60.99
  -2  -4   2 2680.13   61.49
  -2  -4   2 2581.44   60.99
  -2  -4   2 2596.54   62.49
   1   4  -2  500.35   13.70
   1   4  -2  519.25   12.80
   1   4  -2  526.35   12.20
   1   4  -2  503.25   13.90
   1   4  -2  509.05   12.50
   1   4  -2  519.95   12.20
   1   4  -2  509.05   12.50
  -1  -4   2  529.35   14.30
  -1  -4   2  490.45   12.90
  -1  -4   2  514.65   13.50
  -1  -4   2  539.25   13.90
  -1  -4   2  494.95   12.60
  -1  -4   2  494.95   12.60
   0   4  -2 1192.28   30.00
   0   4  -2 1146.89   29.70
   0   4  -2 1243.58   29.50
   0   4  -2 1239.28   30.40
   0   4  -2 1239.98   28.20
   0   4  -2 1232.98   28.60
   0   4  -2 1239.98   28.20
   0  -4   2 1197.98   29.60
   0  -4   2 1254.47   28.30
   0  -4   2 1254.47   28.30
   0  -4   2 1237.38   29.80
   0  -4   2 1215.48   28.80
   0  -4   2 1227.38   29.60
  -1   4  -2  543.15   12.10
  -1   4  -2  520.65   14.10
  -1   4  -2  543.15   12.10
  -1   4  -2  510.05   14.20
  -1   4  -2  518.25   13.70
  -1   4  -2  510.05   13.50
   1  -4   2  535.35   12.10
   1  -4   2  525.75   14.00
   1  -4   2  522.05   13.80
   1  -4   2  501.05   14.30
   1  -4   2  535.35   12.10
   1  -4   2  518.15   14.30
  -2   4  -2 1104.79   28.40
  -2   4  -2 1142.39   27.60
  -2   4  -2 1124.99   28.50
  -2   4  -2 1123.49   27.90
   2  -4   2 1109.39   28.00
   2  -4   2 1146.59   28.60
   2  -4   2 1162.58   27.80
   2  -4   2 1165.48   27.90
   2  -4   2 1102.49   28.60
  -3   4  -2   38.50    3.90
  -3   4  -2   38.10    3.60
  -3   4  -2   30.30    3.60
  -3   4  -2   33.80    3.00
   3  -4   2   41.10    4.60
   3  -4   2   41.50    1.60
   3  -4   2   42.20    4.20
   3  -4   2   37.60    3.40
   3  -4   2   41.50    1.60
   3  -4   2   38.00    1.60
   3  -4   2   38.20    3.10
   3  -4   2   38.00    1.60
   3  -4   2   40.60    3.90
  -4   4  -2  314.67   11.70
  -4   4  -2  324.87   10.50
   4  -4   2  321.37   10.30
   4  -4   2  322.77    8.30
   4  -4   2  349.07   10.30
   4  -4   2  332.97   11.90
   4  -4   2  327.57    8.30
   4  -4   2  321.77   11.10
   4  -4   2  327.57    8.30
   4  -4   2  322.77    8.30
  -5   4  -2  140.99    7.10
  -5   4  -2  137.39    8.50
   5  -4   2  135.69    4.90
   5  -4   2  150.58    4.70
   5  -4   2  148.49    7.70
   5  -4   2  150.58    4.70
   5  -4   2  138.49    9.80
   5  -4   2  135.69    4.90
   5  -4   2  142.89    8.40
  -6   4  -2  255.77    9.80
  -6   4  -2  270.77   12.20
  -6   4  -2  278.57   11.10
   6  -4   2  271.67    8.00
   6  -4   2  271.67    8.00
   6  -4   2  283.17   12.60
   6  -4   2  269.37   11.90
  -7   4  -2   71.59    9.30
  -7   4  -2   72.79    8.10
  -7   4  -2   63.39    5.80
   7  -4   2   81.49   10.00
   7  -4   2   68.29    8.20
  -8   4  -2  110.79   12.10
  -8   4  -2  120.99   11.90
   8  -4   2  111.69   14.20
   8  -4   2  109.09   14.50
   9   4  -3  100.59   11.70
   9   4  -3   89.09    7.90
   9   4  -3   89.09    7.90
   9   4  -3  108.79   12.20
  -9  -4   3   83.79    7.70
  -9  -4   3   90.59   10.90
   8   4  -3   11.60    3.50
   8   4  -3    9.40    5.20
   8   4  -3   11.60    3.50
   8   4  -3   12.10    4.60
  -8  -4   3   19.60    4.70
  -8  -4   3    6.40    4.60
   7   4  -3    8.20    3.40
   7   4  -3   10.90    2.90
   7   4  -3   10.90    2.90
  -7  -4   3    9.30    3.60
  -7  -4   3    0.30    3.20
   6   4  -3   72.49    4.60
   6   4  -3   77.19    6.30
   6   4  -3   72.49    4.60
   6   4  -3   69.09    5.20
  -6  -4   3   74.99    5.20
  -6  -4   3   56.89    5.50
  -6  -4   3   68.09    6.00
   5   4  -3   43.00    3.40
   5   4  -3   45.00    3.80
   5   4  -3   48.20    4.90
   5   4  -3   43.00    3.40
  -5  -4   3   41.80    4.60
  -5  -4   3   33.90    3.70
  -5  -4   3   46.10    4.20
   4   4  -3  205.18    7.90
   4   4  -3  207.78    6.80
   4   4  -3  214.88    6.70
   4   4  -3  216.08    8.30
   4   4  -3  207.78    6.80
   4   4  -3  202.18    8.40
  -4  -4   3  194.08    6.70
  -4  -4   3  225.48    7.30
  -4  -4   3  221.18    8.40
  -4  -4   3  217.18    6.60
  -4  -4   3  194.08    6.70
   3   4  -3  453.35   11.90
   3   4  -3  453.35   11.90
   3   4  -3  461.35   11.40
   3   4  -3  451.55   13.30
   3   4  -3  442.76   13.10
   3   4  -3  454.75   13.60
  -3  -4   3  455.05   11.30
  -3  -4   3  435.26   13.40
  -3  -4   3  461.35   12.40
  -3  -4   3  449.06   12.00
  -3  -4   3  449.06   12.00
   2   4  -3  463.85   11.20
   2   4  -3  443.66   13.00
   2   4  -3  449.26   11.60
   2   4  -3  466.15   13.00
   2   4  -3  449.26   11.60
  -2  -4   3  468.55   11.30
  -2  -4   3  465.55   11.80
  -2  -4   3  465.55   11.80
  -2  -4   3  445.86   12.30
  -2  -4   3  433.96   13.00
  -2  -4   3  459.95   13.40
   1   4  -3  340.57    8.60
   1   4  -3  324.27    9.90
   1   4  -3  314.37   10.00
   1   4  -3  340.57    8.60
  -1  -4   3  332.47   10.40
  -1  -4   3  336.57    8.60
  -1  -4   3  336.57    8.60
  -1  -4   3  333.77   10.00
  -1  -4   3  340.27    9.80
  -1  -4   3  322.77    9.10
   0   4  -3  131.59    5.30
   0   4  -3  137.59    3.90
   0   4  -3  135.59    5.60
   0   4  -3  131.59    5.60
   0   4  -3  137.59    3.90
   0   4  -3  137.29    5.20
   0   4  -3  140.09    4.30
   0  -4   3  128.89    5.20
   0  -4   3  141.29    5.40
   0  -4   3  139.59    3.90
   0  -4   3  139.59    3.90
   0  -4   3  137.29    4.20
   0  -4   3  125.69    5.20
  -1   4  -3   57.89    4.20
  -1   4  -3   62.19    3.20
  -1   4  -3   58.59    2.00
  -1   4  -3   62.29    3.80
  -1   4  -3   58.59    2.00
  -1   4  -3   61.49    3.40
   1  -4   3   56.99    3.90
   1  -4   3   61.49    2.10
   1  -4   3   58.99    4.10
   1  -4   3   61.19    3.50
   1  -4   3   57.99    3.10
   1  -4   3   61.69    4.00
   1  -4   3   61.49    2.10
  -2   4  -3   29.60    3.60
  -2   4  -3   28.90    1.50
  -2   4  -3   23.10    2.80
  -2   4  -3   29.20    3.40
  -2   4  -3   28.90    1.50
  -2   4  -3   27.80    3.00
   2  -4   3   22.20    2.50
   2  -4   3   23.70    3.20
   2  -4   3   27.40    2.90
   2  -4   3   30.30    3.40
   2  -4   3   29.00    1.40
   2  -4   3   29.00    1.40
   2  -4   3   34.00    3.20
  -3   4  -3  178.68    7.60
  -3   4  -3  164.18    7.20
  -3   4  -3  177.78    7.00
   3  -4   3  176.48    4.80
   3  -4   3  176.48    4.80
   3  -4   3  175.48    7.20
   3  -4   3  182.98    7.10
   3  -4   3  180.18    7.00
   3  -4   3  173.08    7.90
   3  -4   3  181.28    4.80
   3  -4   3  150.28    7.80
   3  -4   3  181.28    4.80
  -4   4  -3  317.17   12.10
  -4   4  -3  322.87   11.10
   4  -4   3  317.87   11.30
   4  -4   3  323.47    8.40
   4  -4   3  326.37    8.50
   4  -4   3  323.57    8.40
   4  -4   3  315.07   12.00
   4  -4   3  343.77   10.50
   4  -4   3  326.37    8.50
  -5   4  -3   86.39    7.60
  -5   4  -3   72.59    5.50
  -5   4  -3   80.69    6.40
   5  -4   3   78.69    3.70
   5  -4   3   84.89    4.10
   5  -4   3   84.89    4.10
   5  -4   3   80.79   10.90
   5  -4   3   78.69    3.70
   5  -4   3   90.59   11.00
  -6   4  -3   27.30    4.50
  -6   4  -3   26.80    5.50
  -6   4  -3   36.50    4.40
   6  -4   3   32.60    6.20
   6  -4   3   29.20    2.80
   6  -4   3   29.20    2.80
   6  -4   3   32.50    5.20
  -7   4  -3    2.00    5.10
  -7   4  -3   -1.60    5.60
   7  -4   3    5.30    5.20
   7  -4   3   13.70    6.40
   9   4  -4   34.20    7.10
   9   4  -4   36.80    5.20
   9   4  -4   25.80    6.80
   9   4  -4   36.80    5.20
  -9  -4   4   28.60    6.10
  -9  -4   4   27.90    7.20
   8   4  -4   14.10    3.90
   8   4  -4   14.10    3.90
   8   4  -4   21.30    4.80
   8   4  -4   14.50    5.20
  -8  -4   4   12.30    4.80
  -8  -4   4   14.90    4.90
   7   4  -4    6.10    2.50
   7   4  -4    6.10    2.50
   7   4  -4   10.40    3.40
   7   4  -4   10.40    4.40
  -7  -4   4   11.20    3.50
  -7  -4   4   10.10    3.90
   6   4  -4   29.60    4.10
   6   4  -4   34.50    3.50
   6   4  -4   36.90    4.40
   6   4  -4   34.50    3.50
  -6  -4   4   34.90    4.00
  -6  -4   4   41.30    5.00
  -6  -4   4   40.40    4.70
   5   4  -4  137.39    5.60
   5   4  -4  137.39    5.60
   5   4  -4  134.99    7.20
   5   4  -4  138.29    5.60
  -5  -4   4  134.39    7.20
  -5  -4   4  141.79    5.60
  -5  -4   4  135.99    6.40
   4   4  -4  217.28    7.00
   4   4  -4  212.48    8.50
   4   4  -4  198.58    8.10
   4   4  -4  217.28    7.00
   4   4  -4  207.68    8.80
   4   4  -4  220.48    6.50
  -4  -4   4  229.98    8.90
  -4  -4   4  227.38    6.50
  -4  -4   4  210.78    7.10
  -4  -4   4  210.78    7.10
  -4  -4   4  218.28    7.50
   3   4  -4  570.44   16.40
   3   4  -4  586.94   15.10
   3   4  -4  586.94   15.10
   3   4  -4  605.64   16.80
   3   4  -4  604.14   14.10
  -3  -4   4  586.84   15.30
  -3  -4   4  608.64   14.10
  -3  -4   4  587.04   16.70
  -3  -4   4  590.94   17.10
  -3  -4   4  586.84   15.30
  -3  -4   4  592.64   16.00
   2   4  -4  365.06    9.40
   2   4  -4  359.66   11.20
   2   4  -4  361.86   11.20
   2   4  -4  371.06    9.70
   2   4  -4  371.06    9.70
  -2  -4   4  373.66   10.70
  -2  -4   4  364.46    9.80
  -2  -4   4  370.96   11.70
  -2  -4   4  362.16    9.60
  -2  -4   4  364.46    9.80
  -2  -4   4  362.36   11.30
   1   4  -4   46.80    3.70
   1   4  -4   42.70    3.20
   1   4  -4   41.50    3.00
   1   4  -4   42.60    2.20
   1   4  -4   42.60    2.20
  -1  -4   4   44.60    3.90
  -1  -4   4   43.50    2.30
  -1  -4   4   46.80    3.40
  -1  -4   4   43.50    2.30
  -1  -4   4   40.30    3.00
  -1  -4   4   43.70    3.50
   0   4  -4  269.47    9.20
   0   4  -4  268.17    7.20
   0   4  -4  275.17    7.30
   0   4  -4  268.17    7.20
   0   4  -4  250.97    8.80
   0   4  -4  276.37    8.70
   0   4  -4  279.57    8.70
   0  -4   4  285.67    8.80
   0  -4   4  274.37    7.50
   0  -4   4  266.27    7.20
   0  -4   4  272.07    8.90
   0  -4   4  266.27    7.20
   0  -4   4  281.77    8.70
  -1   4  -4  269.47    7.00
  -1   4  -4  273.37    9.00
  -1   4  -4  269.47    9.60
  -1   4  -4  276.67    8.20
  -1   4  -4  269.47    7.00
  -1   4  -4  264.77    9.40
  -1   4  -4  270.67    8.80
   1  -4   4  270.57    7.00
   1  -4   4  255.77    9.20
   1  -4   4  270.27    8.20
   1  -4   4  270.57    7.00
   1  -4   4  279.67    8.90
   1  -4   4  263.97    9.10
   1  -4   4  278.77    9.10
  -2   4  -4  194.28    8.40
  -2   4  -4  209.88    5.80
  -2   4  -4  205.78    7.70
  -2   4  -4  209.88    5.80
  -2   4  -4  209.28    7.60
  -2   4  -4  205.58    7.90
   2  -4   4  213.28    7.70
   2  -4   4  206.08    7.50
   2  -4   4  203.18    8.30
   2  -4   4  212.38    5.70
   2  -4   4  213.68    8.70
   2  -4   4  200.38    7.70
   2  -4   4  212.38    5.70
  -3   4  -4  299.27   10.90
  -3   4  -4  279.47   10.70
  -3   4  -4  299.77    8.30
  -3   4  -4  305.77   10.60
  -3   4  -4  299.77    8.30
   3  -4   4  315.77   10.20
   3  -4   4  314.27   10.60
   3  -4   4  314.57   11.40
   3  -4   4  308.07    8.00
   3  -4   4  308.07    8.00
  -4   4  -4   64.99    5.70
  -4   4  -4   66.29    6.60
   4  -4   4   61.99    3.40
   4  -4   4   61.99    3.40
   4  -4   4   56.49    3.10
   4  -4   4   59.49    6.50
   4  -4   4   64.89    5.40
   4  -4   4   64.89    5.50
   4  -4   4   56.59    3.10
  -5   4  -4  109.99    7.90
   5  -4   4  115.49    7.80
   5  -4   4  116.59    4.70
   5  -4   4  116.69    4.70
   5  -4   4  138.19    9.50
   5  -4   4  101.29    6.80
  -6   4  -4   69.19    8.50
  -6   4  -4   78.59    9.60
  -6   4  -4   81.39    7.20
   6  -4   4   90.99    8.70
   6  -4   4   97.89   11.00
  -7   4  -4   95.39   11.90
  -7   4  -4   99.19   11.40
   7  -4   4  105.09   11.30
   7  -4   4  114.69   12.60
   9   4  -5    8.00    6.50
   9   4  -5   -2.60    4.50
   9   4  -5   -2.60    4.50
   9   4  -5    5.60    5.90
  -9  -4   5   -3.50    6.30
  -9  -4   5   -2.50    5.10
   8   4  -5    9.60    4.30
   8   4  -5    0.90    3.40
   8   4  -5    8.10    4.70
   8   4  -5    0.90    3.40
  -8  -4   5    0.30    4.20
  -8  -4   5    1.80    4.80
   7   4  -5  148.19    7.10
   7   4  -5  148.19    7.10
   7   4  -5  158.98    7.80
  -7  -4   5  162.38    9.60
  -7  -4   5  162.08    9.90
  -7  -4   5  144.99    7.90
   6   4  -5   53.69    6.00
   6   4  -5   57.29    4.60
  -6  -4   5   58.49    6.00
  -6  -4   5   55.69    5.30
  -6  -4   5   50.39    4.70
   5   4  -5  141.99    5.80
   5   4  -5  129.59    7.20
   5   4  -5  139.89    5.50
   5   4  -5  141.99    5.80
  -5  -4   5  137.59    6.70
  -5  -4   5  135.29    7.40
  -5  -4   5  142.29    5.40
   4   4  -5  152.68    5.80
   4   4  -5  143.69    7.10
   4   4  -5  155.48    4.90
   4   4  -5  152.68    5.80
  -4  -4   5  161.28    6.70
  -4  -4   5  171.88    8.00
  -4  -4   5  171.88    8.00
  -4  -4   5  154.18    7.50
  -4  -4   5  156.98    4.70
   3   4  -5  123.99    4.70
   3   4  -5  117.09    3.80
   3   4  -5  131.59    6.20
   3   4  -5  114.19    5.80
   3   4  -5  123.99    4.70
  -3  -4   5  122.29    4.00
  -3  -4   5  111.49    6.30
  -3  -4   5  130.49    5.00
  -3  -4   5  121.39    6.40
  -3  -4   5  114.09    6.10
  -3  -4   5  130.49    5.00
   2   4  -5   93.49    3.70
   2   4  -5   94.19    3.70
   2   4  -5   93.49    3.70
   2   4  -5   88.99    5.00
   2   4  -5   90.89    5.10
  -2  -4   5   90.09    5.40
  -2  -4   5   93.39    4.90
  -2  -4   5   89.39    4.90
  -2  -4   5   88.49    3.90
  -2  -4   5   88.49    3.90
  -2  -4   5   84.09    5.30
   1   4  -5  442.86   11.40
   1   4  -5  442.86   11.40
   1   4  -5  445.86   13.20
   1   4  -5  427.66   13.20
   1   4  -5  445.46   12.20
   1   4  -5  445.26   13.10
  -1  -4   5  446.16   12.80
  -1  -4   5  442.96   10.70
  -1  -4   5  460.35   11.60
  -1  -4   5  460.35   11.60
  -1  -4   5  424.66   13.40
  -1  -4   5  452.05   10.70
  -1  -4   5  429.06   13.60
  -1  -4   5  442.56   12.50
   0   4  -5  322.67   10.50
   0   4  -5  336.47   10.50
   0   4  -5  309.67   10.00
   0   4  -5  337.97    8.70
   0   4  -5  326.27   10.80
   0   4  -5  337.97    8.70
   0  -4   5  328.87   10.30
   0  -4   5  287.37    9.50
   0  -4   5  334.97    8.80
   0  -4   5  325.47   10.70
   0  -4   5  334.97    8.80
   0  -4   5  323.77   10.40
  -1   4  -5   39.30    4.30
  -1   4  -5   51.39    4.20
  -1   4  -5   54.59    3.60
  -1   4  -5   49.70    5.50
  -1   4  -5   50.49    2.50
  -1   4  -5   50.49    2.50
  -1   4  -5   51.19    4.10
   1  -4   5   52.29    2.80
   1  -4   5   52.29    2.80
   1  -4   5   56.29    4.70
   1  -4   5   49.20    3.60
   1  -4   5   48.20    4.40
   1  -4   5   53.29    4.90
  -2   4  -5  289.17   10.40
  -2   4  -5  289.67    8.00
  -2   4  -5  289.67    8.00
  -2   4  -5  279.07    9.70
  -2   4  -5  293.27   10.10
   2  -4   5  302.47    7.90
   2  -4   5  290.97   10.80
   2  -4   5  302.47    7.90
   2  -4   5  258.37   11.00
   2  -4   5  291.57    9.80
   2  -4   5  293.47   10.00
  -3   4  -5   25.30    2.20
  -3   4  -5   25.30    2.20
  -3   4  -5   22.00    3.80
  -3   4  -5   14.10    3.20
   3  -4   5   24.90    2.30
   3  -4   5   21.30    3.40
   3  -4   5   25.00    2.30
   3  -4   5   20.20    4.10
   3  -4   5   22.60    3.90
  -4   4  -5   -0.40    3.00
  -4   4  -5    2.30    3.80
   4  -4   5    0.70    1.70
   4  -4   5    0.70    1.70
   4  -4   5    4.80    3.70
   4  -4   5    2.70    3.10
   4  -4   5    7.10    3.70
   4  -4   5    3.90    2.20
   4  -4   5    3.90    2.20
  -5   4  -5   48.80    6.90
  -5   4  -5   47.10    6.00
   5  -4   5   69.79    8.80
   5  -4   5   66.79    7.40
   5  -4   5   59.19    5.30
  -6   4  -5   20.00    5.90
  -6   4  -5   30.70    6.80
   6  -4   5   23.40    6.00
   6  -4   5   13.20    7.00
   9   4  -6   80.99    8.10
   9   4  -6   97.69   11.80
   9   4  -6   80.99    8.10
  -9  -4   6  109.09   11.60
  -9  -4   6   74.29    7.70
   8   4  -6  100.59    7.20
   8   4  -6  121.59   10.10
   8   4  -6  100.59    7.20
   8   4  -6  104.79    8.70
  -8  -4   6  104.79    8.40
  -8  -4   6  146.99   10.50
   7   4  -6   34.70    4.20
   7   4  -6   27.80    3.60
   7   4  -6   27.80    3.60
   7   4  -6   36.70    5.40
  -7  -4   6   44.60    6.10
  -7  -4   6   42.90    5.20
   6   4  -6   20.30    2.90
   6   4  -6   17.00    2.70
   6   4  -6   17.00    2.70
   6   4  -6   21.10    4.30
  -6  -4   6   19.80    4.00
  -6  -4   6   15.70    2.90
   5   4  -6  323.37   11.80
   5   4  -6  299.97    9.70
   5   4  -6  299.87    9.70
  -5  -4   6  313.57   12.20
  -5  -4   6  311.87   10.90
   4   4  -6  443.26   12.70
   4   4  -6  460.65   14.60
   4   4  -6  443.26   12.70
  -4  -4   6  459.05   15.10
  -4  -4   6  460.65   13.80
   3   4  -6   85.19    4.10
   3   4  -6   85.19    4.10
   3   4  -6   82.59    3.70
   3   4  -6   83.79    5.50
   3   4  -6   89.09    5.50
  -3  -4   6   85.79    5.00
  -3  -4   6   74.19    4.30
  -3  -4   6   83.39    5.90
  -3  -4   6   89.09    4.10
  -3  -4   6   74.19    4.30
   2   4  -6  219.58    6.60
   2   4  -6  197.18    7.90
   2   4  -6  219.58    6.60
   2   4  -6  219.18    7.00
   2   4  -6  189.28    8.20
  -2  -4   6  205.48    6.90
  -2  -4   6  205.48    6.90
  -2  -4   6  200.58    7.80
  -2  -4   6  206.18    8.60
  -2  -4   6  204.78    7.20
   1   4  -6   41.50    3.80
   1   4  -6   43.90    4.00
   1   4  -6   39.70    4.30
   1   4  -6   35.40    4.10
   1   4  -6   41.10    2.80
   1   4  -6   41.10    2.80
  -1  -4   6   40.40    3.00
  -1  -4   6   42.00    2.40
  -1  -4   6   38.20    4.00
  -1  -4   6   30.60    3.90
  -1  -4   6   41.40    2.40
  -1  -4   6   40.40    3.00
   0   4  -6  318.47   10.60
   0   4  -6  321.77    8.80
   0   4  -6  321.77    8.80
   0   4  -6  308.07    9.10
   0   4  -6  307.37   11.10
   0   4  -6  315.87   10.70
   0   4  -6  300.77   10.50
   0  -4   6  324.87    9.00
   0  -4   6  318.37   10.50
   0  -4   6  314.97   10.80
   0  -4   6  314.87    9.10
   0  -4   6  324.87    9.00
  -1   4  -6  583.74   18.80
  -1   4  -6  651.63   18.40
  -1   4  -6  620.04   17.00
  -1   4  -6  668.73   16.10
  -1   4  -6  668.73   16.10
  -1   4  -6  648.54   18.10
   1  -4   6  634.64   16.00
   1  -4   6  624.74   18.70
   1  -4   6  634.64   16.00
   1  -4   6  655.83   18.00
   1  -4   6  635.54   17.20
  -2   4  -6   26.70    3.80
  -2   4  -6   25.80    3.80
  -2   4  -6   24.00    2.40
  -2   4  -6   24.00    2.40
  -2   4  -6   22.90    3.20
   2  -4   6   27.70    4.10
   2  -4   6   21.10    3.80
   2  -4   6   24.30    2.50
   2  -4   6   19.20    2.90
   2  -4   6   24.30    2.50
  -3   4  -6    8.10    3.80
  -3   4  -6   10.10    2.30
  -3   4  -6    4.00    3.20
  -3   4  -6   10.10    2.30
   3  -4   6    9.50    2.40
   3  -4   6    6.30    3.50
   3  -4   6    5.50    2.90
   3  -4   6    9.50    2.40
  -4   4  -6   95.69    8.20
  -4   4  -6   85.29    9.00
   4  -4   6   92.09    7.30
   4  -4   6   99.79    5.00
   4  -4   6   99.79    5.00
   4  -4   6  105.59    8.00
   4  -4   6  109.49    8.50
  -5   4  -6   32.70    6.40
  -5   4  -6   24.70    7.00
   5  -4   6   25.40    5.50
   5  -4   6   32.60    6.30
  -6   4  -6   54.19    9.00
  -6   4  -6   77.19    8.80
   6  -4   6  109.99   13.20
   6  -4   6   63.39    8.20
   9   4  -7   44.50    7.70
  -9  -4   7   46.90    8.50
  -9  -4   7   35.10    6.70
   8   4  -7  104.49    7.20
   8   4  -7  118.09   10.20
   8   4  -7  104.49    7.20
  -8  -4   7   87.29    8.20
  -8  -4   7   86.09   10.10
   7   4  -7   25.10    3.60
   7   4  -7   16.60    3.40
   7   4  -7   15.90    5.00
   7   4  -7   25.00    3.60
  -7  -4   7   21.20    5.00
  -7  -4   7   10.80    4.10
   6   4  -7   19.10    2.50
   6   4  -7   14.80    3.20
   6   4  -7   14.80    3.20
   6   4  -7   18.30    4.10
  -6  -4   7   16.60    4.00
  -6  -4   7   13.20    4.80
   5   4  -7  251.27   10.60
   5   4  -7  218.78    9.70
   5   4  -7  218.78    9.70
   5   4  -7  253.27    7.10
  -5  -4   7  257.87    7.00
  -5  -4   7  242.88    9.40
  -5  -4   7  266.47   11.60
   4   4  -7  155.18    7.80
   4   4  -7  144.89    5.90
   4   4  -7  144.89    5.90
  -4  -4   7  147.09    5.20
  -4  -4   7  149.39    8.30
  -4  -4   7  146.49    7.10
  -4  -4   7  143.79    5.30
   3   4  -7  511.35   14.10
   3   4  -7  520.25   16.00
   3   4  -7  508.95   13.90
   3   4  -7  511.35   14.10
  -3  -4   7  533.15   15.60
  -3  -4   7  519.35   14.20
  -3  -4   7  533.45   16.70
   2   4  -7  269.17    8.80
   2   4  -7  266.87    8.10
   2   4  -7  233.58    9.80
   2   4  -7  266.87    8.10
   2   4  -7  258.17    9.80
  -2  -4   7  238.38    8.40
  -2  -4   7  273.27   10.40
  -2  -4   7  267.57    9.10
  -2  -4   7  238.38    8.40
  -2  -4   7  269.07    9.60
   1   4  -7   54.29    5.10
   1   4  -7   41.60    4.90
   1   4  -7   51.29    3.40
   1   4  -7   44.90    4.60
   1   4  -7   46.70    4.40
   1   4  -7   51.19    3.40
  -1  -4   7   51.09    3.10
  -1  -4   7   49.40    3.90
  -1  -4   7   52.69    4.80
  -1  -4   7   49.40    3.90
  -1  -4   7   40.50    4.80
  -1  -4   7   51.19    3.20
   0   4  -7  366.06   12.10
   0   4  -7  366.06   12.30
   0   4  -7  376.26   10.20
   0   4  -7  376.36   10.20
   0   4  -7  353.46   10.60
   0   4  -7  312.67   12.30
   0  -4   7  352.76   12.40
   0  -4   7  368.06   10.40
   0  -4   7  368.06   10.40
   0  -4   7  350.36   12.00
   0  -4   7  369.06   10.60
  -1   4  -7  206.88    6.90
  -1   4  -7  204.58    8.80
  -1   4  -7  207.48    9.20
  -1   4  -7  206.88    6.90
  -1   4  -7  193.08    8.10
   1  -4   7  207.28    7.00
   1  -4   7  207.28    7.00
   1  -4   7  202.38    9.50
   1  -4   7  208.58    7.90
   1  -4   7  227.58    9.40
  -2   4  -7    9.90    2.50
  -2   4  -7   14.70    3.80
  -2   4  -7    9.90    2.50
  -2   4  -7   11.20    3.50
   2  -4   7   12.10    2.60
   2  -4   7   15.30    3.70
   2  -4   7   12.10    2.60
   2  -4   7   14.70    3.00
   2  -4   7   19.20    4.30
  -3   4  -7   50.29    4.60
  -3   4  -7   38.20    5.00
  -3   4  -7   50.39    4.60
  -3   4  -7   47.90    5.80
   3  -4   7   40.50    4.90
   3  -4   7   46.10    5.90
   3  -4   7   49.20    5.60
  -4   4  -7   66.99    8.70
  -4   4  -7   87.19    8.70
   4  -4   7   80.69    8.40
   4  -4   7   95.99    9.20
  -5   4  -7    3.80    5.90
  -5   4  -7   13.30    7.40
   5  -4   7   18.60    6.80
   5  -4   7   14.80    5.90
   9   4  -8    9.20    7.00
  -9  -4   8   -1.30    4.90
   8   4  -8   71.89    7.00
   8   4  -8   79.39   10.20
   8   4  -8   71.89    7.00
  -8  -4   8   79.89    9.40
  -8  -4   8   66.89    7.20
   7   4  -8  118.79    9.40
   7   4  -8  115.49    7.00
   7   4  -8  115.49    7.00
  -7  -4   8  143.79   10.70
  -7  -4   8  118.89    8.50
   6   4  -8   47.50    4.30
   6   4  -8   63.19    7.30
   6   4  -8   47.50    4.30
  -6  -4   8   61.79    7.30
  -6  -4   8   55.09    5.80
   5   4  -8  163.08    6.90
   5   4  -8  163.08    6.90
   5   4  -8  165.88    9.10
  -5  -4   8  143.59    8.10
  -5  -4   8  163.78    9.80
   4   4  -8    7.90    2.60
   4   4  -8   10.30    3.10
   4   4  -8    7.40    2.40
   4   4  -8    7.40    2.40
  -4  -4   8    8.50    2.40
  -4  -4   8    4.90    3.70
  -4  -4   8    4.20    3.20
   3   4  -8  177.48    6.80
   3   4  -8  175.98    8.20
   3   4  -8  161.48    7.20
   3   4  -8  177.48    6.80
  -3  -4   8  178.98    8.30
  -3  -4   8  176.48    9.20
  -3  -4   8  176.28    7.40
   2   4  -8   61.79    5.40
   2   4  -8   59.89    4.10
   2   4  -8   51.89    5.60
   2   4  -8   59.89    4.10
   2   4  -8   58.49    5.80
  -2  -4   8   57.39    5.40
  -2  -4   8   58.59    2.90
  -2  -4   8   58.59    2.90
  -2  -4   8   54.89    5.70
   1   4  -8  268.57   10.70
   1   4  -8  287.17    8.80
   1   4  -8  287.17    8.80
   1   4  -8  284.77   10.60
  -1  -4   8  284.77   10.80
  -1  -4   8  279.17    8.80
  -1  -4   8  296.07    8.60
  -1  -4   8  290.17   11.00
   0   4  -8  578.34   15.40
   0   4  -8  578.34   15.40
   0   4  -8  553.04   16.10
   0   4  -8  581.74   17.20
   0  -4   8  577.14   18.00
   0  -4   8  574.84   15.80
   0  -4   8  571.44   17.30
  -1   4  -8   95.09    5.30
  -1   4  -8   95.09    5.30
  -1   4  -8   84.29    7.30
  -1   4  -8  103.49    7.30
  -1   4  -8  104.79    7.20
   1  -4   8  101.09    7.70
   1  -4   8   98.39    6.10
   1  -4   8  113.69    7.80
  -2   4  -8   32.10    3.50
  -2   4  -8   32.10    3.50
  -2   4  -8   35.20    5.20
  -2   4  -8   34.20    5.00
   2  -4   8   34.40    4.30
   2  -4   8   28.20    5.20
   2  -4   8   26.20    4.70
  -3   4  -8   43.60    6.70
  -3   4  -8   44.90    6.60
  -3   4  -8   38.20    4.00
  -3   4  -8   38.20    4.00
   3  -4   8   43.30    5.50
   3  -4   8   40.30    6.20
   3  -4   8   41.30    6.00
  -4   4  -8  101.29   11.90
  -4   4  -8   92.19   10.90
   4  -4   8  132.99   11.10
   4  -4   8  117.29   10.60
   8   4  -9   43.70    7.30
   8   4  -9   30.30    5.40
   8   4  -9   30.30    5.40
  -8  -4   9   31.00    5.70
  -8  -4   9   54.39    8.90
   7   4  -9  139.39   10.70
   7   4  -9  132.79    7.80
   7   4  -9  132.79    7.80
  -7  -4   9  122.19    8.50
  -7  -4   9  150.68   13.00
   6   4  -9   20.20    3.60
   6   4  -9   20.20    3.60
   6   4  -9    5.20    4.10
  -6  -4   9   12.40    4.40
  -6  -4   9    9.00    5.90
   5   4  -9  191.88    9.70
   5   4  -9  182.88    8.00
   5   4  -9  182.88    8.00
  -5  -4   9  180.78    9.00
  -5  -4   9  177.38   12.00
   4   4  -9   32.60    3.60
   4   4  -9   32.60    3.60
   4   4  -9   27.30    4.30
  -4  -4   9   33.20    4.80
  -4  -4   9   38.80    5.80
  -4  -4   9   32.70    3.70
   3   4  -9    3.40    4.40
   3   4  -9   -2.50    3.70
   3   4  -9    3.40    4.40
   3   4  -9    2.30    2.90
  -3  -4   9    3.70    3.30
  -3  -4   9    6.80    4.20
  -3  -4   9    2.30    3.20
   2   4  -9  410.56   14.10
   2   4  -9  407.86   12.10
   2   4  -9  405.56   14.10
   2   4  -9  407.76   12.10
  -2  -4   9  405.16   13.70
  -2  -4   9  384.26   14.00
  -2  -4   9  396.26   10.60
   1   4  -9   48.30    5.80
   1   4  -9   52.79    6.10
   1   4  -9   49.60    4.60
   1   4  -9   49.60    4.60
  -1  -4   9   37.10    5.10
  -1  -4   9   35.90    4.00
  -1  -4   9   37.50    5.20
   0   4  -9  205.98    7.90
   0   4  -9  202.08   10.00
   0   4  -9  205.98    7.90
   0   4  -9  202.88    9.60
   0  -4   9  218.78   10.60
   0  -4   9  200.78    8.20
   0  -4   9  195.18   10.20
  -1   4  -9  130.49    8.30
  -1   4  -9  127.59    6.70
  -1   4  -9  127.59    6.70
  -1   4  -9  109.49    8.50
   1  -4   9  123.09    9.40
   1  -4   9  112.59    7.30
   1  -4   9  126.99    9.10
  -2   4  -9   18.30    5.60
  -2   4  -9   16.40    3.90
  -2   4  -9   16.40    3.90
  -2   4  -9   21.20    5.10
   2  -4   9   14.40    5.40
   2  -4   9   20.90    6.20
   2  -4   9   19.00    5.40
  -3   4  -9  100.39   11.10
  -3   4  -9   91.89    9.50
   3  -4   9  117.69   11.50
   3  -4   9  107.79   10.00
   8   4 -10   92.99    9.20
  -8  -4  10   88.89    9.10
  -8  -4  10   85.29   11.50
   7   4 -10  116.99   10.30
   7   4 -10  121.29    8.40
   7   4 -10  121.29    8.40
  -7  -4  10   97.29   12.70
  -7  -4  10  122.59   13.90
   6   4 -10   41.80    6.20
   6   4 -10   28.50    4.60
   6   4 -10   28.50    4.60
  -6  -4  10   19.40    7.00
  -6  -4  10   25.50    5.10
   5   4 -10    3.30    3.50
   5   4 -10   -3.80    3.90
   5   4 -10    3.30    3.50
  -5  -4  10    7.00    5.30
  -5  -4  10    8.10    4.10
   4   4 -10    5.50    3.10
   4   4 -10    5.50    3.10
   4   4 -10    4.20    3.60
  -4  -4  10    0.40    3.80
  -4  -4  10    8.20    3.90
  -4  -4  10   -3.00    5.40
   3   4 -10   40.80    4.00
   3   4 -10   27.90    4.70
   3   4 -10   48.30    5.90
   3   4 -10   40.80    4.00
  -3  -4  10   33.90    5.20
  -3  -4  10   46.10    5.30
   2   4 -10   26.00    3.70
   2   4 -10   21.50    4.50
   2   4 -10   28.20    4.80
   2   4 -10   26.00    3.70
  -2  -4  10   22.10    4.90
  -2  -4  10   23.20    4.90
   1   4 -10   91.29    6.50
   1   4 -10  106.09    8.50
   1   4 -10   91.29    6.50
   1   4 -10  125.89    8.50
  -1  -4  10  102.29    8.80
  -1  -4  10  105.79    8.90
   0   4 -10   38.20    5.50
   0   4 -10   34.50    4.20
   0   4 -10   34.30    5.70
   0   4 -10   34.50    4.20
   0  -4  10   44.40    6.40
   0  -4  10   45.90    6.70
  -1   4 -10   44.30    6.50
  -1   4 -10   50.69    5.00
  -1   4 -10   50.69    5.00
  -1   4 -10   33.60    5.90
   1  -4  10   38.40    6.30
   1  -4  10   42.90    6.80
   1  -4  10   35.10    6.90
  -2   4 -10   62.99    7.90
   2  -4  10   65.89    8.60
   7   4 -11    5.80    6.20
  -7  -4  11   -6.00    8.60
  -7  -4  11   -1.30    4.90
   6   4 -11   19.40    5.90
   6   4 -11   18.60    4.50
   6   4 -11   18.60    4.60
  -6  -4  11   30.90    7.70
  -6  -4  11    4.80    4.30
   5   4 -11   20.30    4.60
   5   4 -11   22.00    5.80
   5   4 -11   20.30    4.60
  -5  -4  11   16.90    7.30
  -5  -4  11   21.50    5.50
   4   4 -11   35.50    5.90
   4   4 -11   39.60    4.80
   4   4 -11   39.60    4.80
   4   4 -11   38.90    6.60
  -4  -4  11   42.10    7.50
  -4  -4  11   43.30    6.30
   3   4 -11   36.00    4.50
   3   4 -11   29.20    5.60
   3   4 -11   36.00    4.50
   3   4 -11   36.90    6.50
  -3  -4  11   36.20    5.90
  -3  -4  11   38.80    6.00
   2   4 -11    6.60    3.90
   2   4 -11    6.60    3.90
   2   4 -11    4.60    4.90
   2   4 -11   14.70    5.10
  -2  -4  11    8.70    5.40
  -2  -4  11   10.70    5.40
   1   4 -11   68.69    8.20
   1   4 -11   69.29    7.70
   1   4 -11   79.39    7.30
   1   4 -11   79.39    7.30
  -1  -4  11   73.39    7.80
  -1  -4  11   70.69    8.10
   0   4 -11   17.70    4.80
   0   4 -11   21.40    5.90
   0   4 -11   17.70    4.80
   0  -4  11   21.40    6.90
   0  -4  11   29.50    6.60
   1  -4  11   64.39    8.80
   1  -4  11   55.09    8.40
   5   4 -12   23.20    6.00
   5   4 -12   26.50    6.80
   5   4 -12   23.20    6.00
  -5  -4  12   27.00    5.80
  -5  -4  12   37.60    9.20
   4   4 -12   90.59    8.80
   4   4 -12   90.79    8.80
   4   4 -12   71.69    8.20
   3   4 -12   32.60    5.70
   3   4 -12   32.60    5.70
   3   4 -12   27.20    7.00
  -3  -4  12   25.80    6.60
  -3  -4  12   22.70    8.60
   2   4 -12    7.20    5.10
   2   4 -12    7.20    5.10
   2   4 -12   17.90    6.60
  -2  -4  12   12.00    7.10
  -2  -4  12   15.50    6.50
   1   4 -12   54.89    6.40
   1   4 -12   54.99    6.40
  -1  -4  12   69.59    8.80
  -1  -4  12   70.09    9.10
  -2   5  12   68.69    7.90
  -2   5  12   48.00    7.80
  -2   5  12   53.39    8.00
   2  -5 -12   65.39    8.50
  -3   5  12  140.79   11.90
  -3   5  12  142.49   11.90
  -3   5  12  123.79    9.70
   3  -5 -12  131.79   12.30
  -4   5  12    8.60    6.40
  -4   5  12    5.90    5.10
  -4   5  12   -4.60    5.70
  -5   5  12    7.30    6.20
   1   5  11   26.30    8.00
  -1  -5 -11   39.50    8.60
   0   5  11    2.60    5.90
   0   5  11   -2.50    5.00
   0  -5 -11    1.90    4.60
   0  -5 -11    1.90    4.60
   0  -5 -11   -4.00    6.20
  -1   5  11    1.40    5.60
  -1   5  11   15.00    5.60
   1  -5 -11   16.50    6.20
   1  -5 -11   16.30    4.80
   1  -5 -11   16.30    4.80
  -2   5  11  111.19    9.90
  -2   5  11  111.59    8.80
  -2   5  11  114.19    9.60
   2  -5 -11  113.79    8.40
   2  -5 -11  113.79    8.40
   2  -5 -11  127.19   10.40
  -3   5  11    3.50    4.60
  -3   5  11    0.50    4.70
  -3   5  11    5.50    4.30
   3  -5 -11   -5.60    3.60
   3  -5 -11   -0.90    5.00
   3  -5 -11   -5.60    3.60
  -4   5  11   93.09    9.50
  -4   5  11   95.69    7.70
  -4   5  11  109.39   10.40
   4  -5 -11   96.29    8.30
   4  -5 -11  103.69    9.00
   4  -5 -11   96.29    8.30
  -5   5  11   42.20    5.60
  -5   5  11   55.29    7.70
  -5   5  11   50.79    6.90
   5  -5 -11   44.50    5.90
   5  -5 -11   44.60    5.90
  -6   5  11   52.39    7.50
  -6   5  11   58.09    7.00
   6  -5 -11   68.39    6.80
   6  -5 -11   68.49    6.80
   6  -5 -11   62.59    8.00
   2   5  10   -8.60    5.60
   2   5  10   -2.50    5.90
  -2  -5 -10   -8.00    5.30
  -2  -5 -10   -8.10    5.30
  -2  -5 -10    2.00    7.00
   1   5  10   25.30    5.90
   1   5  10   33.60    5.90
  -1  -5 -10   33.00    5.60
  -1  -5 -10   34.10    7.10
  -1  -5 -10   33.00    5.60
   0   5  10   43.20    6.10
   0   5  10   58.49    6.90
   0  -5 -10   70.49    6.10
   0  -5 -10   70.49    6.10
   0  -5 -10   54.69    7.00
  -1   5  10   58.79    5.40
  -1   5  10   52.69    6.00
  -1   5  10   67.49    7.50
   1  -5 -10   47.30    4.70
   1  -5 -10   47.30    4.70
   1  -5 -10   75.09    8.50
  -2   5  10   68.09    7.70
  -2   5  10   59.49    6.30
  -2   5  10   76.19    7.60
   2  -5 -10   63.09    7.30
   2  -5 -10   53.19    5.00
   2  -5 -10   53.19    5.00
  -3   5  10  121.99    7.50
  -3   5  10  120.99    8.70
  -3   5  10  134.69    9.20
   3  -5 -10  121.99    7.30
   3  -5 -10  127.59    8.60
   3  -5 -10  121.99    7.30
  -4   5  10   74.19    6.70
  -4   5  10   68.39    7.60
  -4   5  10   92.09    9.00
   4  -5 -10   78.89    6.80
   4  -5 -10   78.89    6.80
   4  -5 -10   82.59    7.20
  -5   5  10   18.90    5.10
  -5   5  10   20.80    4.60
   5  -5 -10   20.10    5.20
   5  -5 -10   19.50    4.40
   5  -5 -10   19.50    4.40
  -6   5  10    8.60    5.40
  -6   5  10    6.20    4.20
   6  -5 -10    9.60    4.20
   6  -5 -10    8.40    5.30
   6  -5 -10    9.60    4.20
  -7   5  10    2.70    5.80
  -7   5  10   -0.90    4.20
   7  -5 -10    5.30    6.60
   7  -5 -10   13.30    4.70
   7  -5 -10   13.30    4.70
   3   5   9   -3.40    5.40
   3   5   9  -11.80    5.70
  -3  -5  -9   19.90    7.10
  -3  -5  -9   -0.10    5.50
  -3  -5  -9   -0.10    5.50
   2   5   9  157.68   10.90
   2   5   9  161.48   10.60
  -2  -5  -9  169.08    9.50
  -2  -5  -9  166.68   12.10
  -2  -5  -9  169.08    9.50
   1   5   9   42.00    5.60
   1   5   9   50.69    6.20
  -1  -5  -9   53.19    5.40
  -1  -5  -9   51.99    6.90
  -1  -5  -9   53.19    5.40
   0   5   9   41.50    5.20
   0   5   9   46.00    5.60
   0  -5  -9   49.60    4.90
   0  -5  -9   49.60    4.90
   0  -5  -9   45.20    5.90
  -1   5   9   62.19    6.40
  -1   5   9   51.39    5.60
  -1   5   9   66.59    6.70
   1  -5  -9   66.09    6.80
   1  -5  -9   63.69    5.50
   1  -5  -9   63.69    5.50
  -2   5   9   12.90    3.80
  -2   5   9   10.60    3.30
  -2   5   9   14.40    4.00
   2  -5  -9    7.20    2.90
   2  -5  -9   12.40    3.80
   2  -5  -9    7.20    2.90
  -3   5   9  119.69    7.00
  -3   5   9  124.89    8.10
  -3   5   9  126.59    8.40
   3  -5  -9  136.29    7.00
   3  -5  -9  136.29    7.00
   3  -5  -9  114.59    7.10
  -4   5   9   69.99    7.10
  -4   5   9   76.19    5.20
  -4   5   9   68.49    5.70
   4  -5  -9   79.19    6.10
   4  -5  -9   79.19    6.10
   4  -5  -9   58.89    5.60
   4  -5  -9   70.39    7.10
  -5   5   9   16.90    3.70
  -5   5   9   12.70    3.80
  -5   5   9   23.70    4.70
   5  -5  -9   16.30    3.50
   5  -5  -9   15.90    3.30
   5  -5  -9   21.50    4.60
   5  -5  -9   16.30    3.50
  -6   5   9   19.40    4.20
  -6   5   9   27.40    5.10
  -6   5   9   22.30    4.60
   6  -5  -9   25.00    5.50
   6  -5  -9   28.20    4.00
   6  -5  -9   28.20    4.00
  -7   5   9    7.80    5.50
  -7   5   9   15.00    5.30
  -7   5   9   16.80    4.30
   7  -5  -9   16.50    4.30
   7  -5  -9   13.90    5.60
   7  -5  -9   16.50    4.30
  -8   5   9   65.89    8.80
  -8   5   9   55.79    6.30
   8  -5  -9   50.39    8.30
   8  -5  -9   70.69    6.40
   8  -5  -9   70.69    6.40
   4   5   8   39.00    8.10
   4   5   8   46.40    7.10
  -4  -5  -8   71.09    7.10
  -4  -5  -8   71.09    7.10
  -4  -5  -8   56.79    8.10
   3   5   8  129.49   10.50
   3   5   8  121.59    9.90
  -3  -5  -8  142.19    9.40
  -3  -5  -8  148.59   11.10
  -3  -5  -8  142.09    9.40
   2   5   8    2.00    3.40
   2   5   8    1.10    4.10
  -2  -5  -8   -3.10    3.40
  -2  -5  -8    7.70    4.60
  -2  -5  -8   -3.10    3.40
   1   5   8  403.96   14.70
   1   5   8  418.46   14.70
  -1  -5  -8  414.66   13.50
  -1  -5  -8  425.56   15.50
  -1  -5  -8  414.66   13.50
   0   5   8  247.98    8.60
   0   5   8  267.27   10.70
   0   5   8  254.97   10.50
   0  -5  -8  252.57    9.50
   0  -5  -8  271.57   11.30
   0  -5  -8  252.57    9.50
  -1   5   8   44.40    5.30
  -1   5   8   50.89    5.50
  -1   5   8   47.40    4.80
   1  -5  -8   38.20    3.60
   1  -5  -8   54.69    5.60
   1  -5  -8   38.20    3.60
  -2   5   8  199.08    9.00
  -2   5   8  200.18    7.70
  -2   5   8  200.58    9.30
   2  -5  -8  199.58    9.70
   2  -5  -8  199.58    9.70
   2  -5  -8  199.38    8.40
  -3   5   8   17.60    3.20
  -3   5   8   21.20    3.60
  -3   5   8   22.70    2.40
  -3   5   8   13.50    3.30
   3  -5  -8   17.90    3.50
   3  -5  -8   17.80    3.00
   3  -5  -8   16.50    3.40
   3  -5  -8   13.10    4.60
   3  -5  -8   13.10    4.60
  -4   5   8  229.28    9.90
  -4   5   8  223.68    8.70
  -4   5   8  225.98    8.90
  -4   5   8  226.08    8.10
   4  -5  -8  222.28    9.10
   4  -5  -8  230.58    8.60
   4  -5  -8  234.48   10.30
   4  -5  -8  230.58    8.60
   4  -5  -8  223.38    8.10
  -5   5   8    4.20    3.40
  -5   5   8    2.70    2.80
  -5   5   8    6.60    3.10
   5  -5  -8    7.90    2.70
   5  -5  -8    7.90    2.70
   5  -5  -8    2.10    2.10
   5  -5  -8    2.60    3.50
  -6   5   8   31.60    4.90
  -6   5   8   26.60    4.40
  -6   5   8   30.10    4.80
   6  -5  -8   28.10    3.80
   6  -5  -8   28.10    3.80
   6  -5  -8   32.80    5.20
  -7   5   8   16.80    4.90
  -7   5   8   17.20    5.10
  -7   5   8   13.70    4.10
   7  -5  -8   17.50    5.60
   7  -5  -8   15.40    3.80
   7  -5  -8   15.40    3.80
  -8   5   8   61.89    7.80
  -8   5   8   45.50    6.80
   8  -5  -8   46.80    7.60
   8  -5  -8   46.30    5.70
   8  -5  -8   46.30    5.70
   5   5   7   34.90    8.30
   5   5   7   55.29    6.50
   5   5   7   55.19    6.50
  -5  -5  -7   63.79    8.80
   4   5   7    5.60    4.70
   4   5   7   10.10    5.70
  -4  -5  -7   12.00    5.50
  -4  -5  -7    8.90    4.60
  -4  -5  -7    8.90    4.60
   3   5   7   78.89    7.30
   3   5   7   83.69    8.10
  -3  -5  -7   77.79    8.50
  -3  -5  -7   80.29    7.00
  -3  -5  -7   80.29    7.00
   2   5   7  157.68    8.50
   2   5   7  166.38    8.90
  -2  -5  -7  167.38    9.60
  -2  -5  -7  164.78    7.80
  -2  -5  -7  164.78    7.80
   1   5   7   49.50    6.30
  -1  -5  -7   53.59    6.10
  -1  -5  -7   57.59    5.20
  -1  -5  -7   57.59    5.20
   0   5   7  103.19    6.30
   0   5   7  102.29    5.00
   0   5   7  100.89    6.40
   0  -5  -7  103.39    5.50
   0  -5  -7   99.99    6.60
   0  -5  -7  103.39    5.50
  -1   5   7   18.80    3.30
  -1   5   7   22.70    3.40
  -1   5   7   18.30    2.80
  -1   5   7   14.30    3.10
   1  -5  -7   19.00    2.60
   1  -5  -7   19.00    2.60
   1  -5  -7   20.20    3.00
  -2   5   7  599.54   17.90
  -2   5   7  596.74   17.70
  -2   5   7  543.75   16.90
  -2   5   7  578.74   16.30
   2  -5  -7  602.74   16.30
   2  -5  -7  621.44   16.60
   2  -5  -7  586.84   17.60
   2  -5  -7  602.74   16.30
  -3   5   7  142.29    6.20
  -3   5   7  139.69    7.20
  -3   5   7  138.99    5.40
  -3   5   7  144.99    6.30
   3  -5  -7  137.69    6.10
   3  -5  -7  147.29    7.40
   3  -5  -7  136.79    5.80
   3  -5  -7  137.99    5.90
   3  -5  -7  137.69    6.10
  -4   5   7   64.09    5.60
  -4   5   7   64.99    4.70
  -4   5   7   55.09    4.80
  -4   5   7   63.39    4.40
   4  -5  -7   56.19    4.40
   4  -5  -7   59.39    5.80
   4  -5  -7   56.19    4.40
   4  -5  -7   62.09    3.80
   4  -5  -7   59.99    5.60
  -5   5   7    3.70    2.90
  -5   5   7    6.70    3.10
  -5   5   7    4.40    2.80
   5  -5  -7    1.70    2.50
   5  -5  -7    2.10    2.20
   5  -5  -7    3.20    3.10
   5  -5  -7    2.10    2.20
   5  -5  -7    1.80    1.70
  -6   5   7   73.29    7.00
  -6   5   7   77.69    6.10
  -6   5   7   90.39    7.00
   6  -5  -7   73.19    5.50
   6  -5  -7   73.09    5.50
   6  -5  -7   77.99    7.90
  -7   5   7   14.20    4.50
  -7   5   7   10.60    3.70
  -7   5   7   20.40    4.80
   7  -5  -7   13.80    3.40
   7  -5  -7   11.20    4.80
   7  -5  -7   13.80    3.40
  -8   5   7   77.49    7.20
  -8   5   7   83.89    9.40
  -8   5   7   86.69    9.60
   8  -5  -7   72.69    6.90
   8  -5  -7   72.69    6.90
   8  -5  -7   97.49   10.40
  -9   5   7   44.60    6.00
  -9   5   7   49.30    8.70
   9  -5  -7   46.00    5.50
   9  -5  -7   36.10    8.50
   9  -5  -7   46.00    5.50
   6   5   6   99.19    9.50
   6   5   6   99.19    9.50
   6   5   6   58.29    9.40
   5   5   6   -2.60    4.90
   5   5   6    4.60    4.10
   5   5   6    4.40    6.10
   5   5   6    4.60    4.10
  -5  -5  -6    6.80    5.80
   4   5   6   32.90    5.10
   4   5   6   32.00    6.00
  -4  -5  -6   29.00    4.30
  -4  -5  -6   30.10    5.70
  -4  -5  -6   29.00    4.30
   3   5   6   14.10    3.40
   3   5   6   21.50    4.40
  -3  -5  -6   22.00    3.60
  -3  -5  -6   23.60    4.60
  -3  -5  -6   22.00    3.60
   2   5   6   87.29    6.40
   2   5   6   80.39    6.10
  -2  -5  -6   92.89    6.90
  -2  -5  -6   92.29    5.60
  -2  -5  -6   92.29    5.60
   1   5   6  785.22   21.90
   1   5   6  802.12   22.00
   1   5   6  789.82   19.30
  -1  -5  -6  775.52   20.70
  -1  -5  -6  778.62   22.20
  -1  -5  -6  775.52   20.70
   0   5   6  149.69    7.00
   0   5   6  161.18    5.50
   0   5   6  153.68    7.10
   0   5   6  137.79    6.70
   0  -5  -6  154.28    6.20
   0  -5  -6  152.78    7.00
   0  -5  -6  154.28    6.20
  -1   5   6   34.90    3.70
  -1   5   6   33.90    4.10
  -1   5   6   33.50    3.50
  -1   5   6   37.00    4.20
   1  -5  -6   37.90    3.30
   1  -5  -6   37.90    3.30
   1  -5  -6   39.10    3.70
  -2   5   6  199.58    8.10
  -2   5   6  201.68    7.10
  -2   5   6  200.28    5.80
  -2   5   6  209.88    7.00
   2  -5  -6  203.58    7.00
   2  -5  -6  196.88    6.90
   2  -5  -6  202.78    6.20
   2  -5  -6  192.88    8.10
   2  -5  -6  196.88    6.90
  -3   5   6  344.07    9.90
  -3   5   6  360.66   10.80
  -3   5   6  346.87   11.70
  -3   5   6  344.47    9.80
   3  -5  -6  335.37   10.20
   3  -5  -6  335.37   10.20
   3  -5  -6  351.96   11.90
   3  -5  -6  333.47   11.10
   3  -5  -6  347.97   10.30
  -4   5   6   17.30    3.20
  -4   5   6   23.20    2.70
  -4   5   6   18.20    2.80
  -4   5   6   21.40    3.40
   4  -5  -6   21.90    2.30
   4  -5  -6   19.20    3.40
   4  -5  -6   20.50    2.50
   4  -5  -6   20.50    2.50
   4  -5  -6   17.10    3.20
  -5   5   6  687.53   20.00
  -5   5   6  687.43   19.20
  -5   5   6  690.13   19.30
   5  -5  -6  700.23   20.70
   5  -5  -6  664.73   18.00
   5  -5  -6  664.73   18.00
  -6   5   6   83.19    6.70
  -6   5   6   64.49    6.30
  -6   5   6   60.99    5.40
   6  -5  -6   56.59    6.60
   6  -5  -6   68.89    4.80
   6  -5  -6   76.99    6.80
   6  -5  -6   68.89    4.80
  -7   5   6    8.90    3.50
  -7   5   6    3.70    4.20
   7  -5  -6    5.80    4.40
   7  -5  -6    6.50    4.40
  -8   5   6   69.19    7.80
  -8   5   6   46.40    5.50
   8  -5  -6   61.59    7.20
   8  -5  -6   73.49    6.50
   8  -5  -6   73.49    6.50
   8  -5  -6   48.10    6.80
  -9   5   6   24.20    5.30
  -9   5   6   40.70    8.00
   9  -5  -6   10.60    6.90
   9  -5  -6   37.60    5.00
   9  -5  -6   37.60    5.00
   6   5   5   31.00    6.00
   6   5   5   34.30    7.40
   6   5   5   35.00    5.30
   6   5   5   35.00    5.30
  -6  -5  -5   43.80    7.40
   5   5   5   17.40    3.80
   5   5   5    4.50    5.40
   5   5   5   17.40    3.80
   5   5   5    1.90    3.80
  -5  -5  -5    7.20    3.90
  -5  -5  -5    5.50    5.30
   4   5   5   81.79    6.90
   4   5   5   75.39    7.70
  -4  -5  -5   74.69    7.70
  -4  -5  -5   81.89    6.20
  -4  -5  -5   73.59    5.40
  -4  -5  -5   81.89    6.20
   3   5   5  109.09    7.00
   3   5   5  108.79    5.40
  -3  -5  -5  104.29    6.00
  -3  -5  -5  107.89    7.50
  -3  -5  -5  104.29    6.00
  -3  -5  -5  105.19    4.90
   2   5   5  105.09    6.00
   2   5   5  104.99    6.10
   2   5   5  106.39    3.90
  -2  -5  -5  104.19    5.50
  -2  -5  -5  105.29    3.90
  -2  -5  -5  102.49    6.50
  -2  -5  -5  104.19    5.50
   1   5   5  140.69    6.60
   1   5   5  130.69    6.30
   1   5   5  146.29    6.60
  -1  -5  -5  142.89    5.80
  -1  -5  -5  142.89    5.80
  -1  -5  -5  134.29    6.70
   0   5   5  220.68    7.30
   0   5   5  241.98    8.70
   0   5   5  236.48    8.60
   0   5   5  205.18    8.60
   0   5   5  228.88    8.00
   0   5   5  220.68    7.30
   0   5   5  238.88    6.90
   0  -5  -5  234.28    7.50
   0  -5  -5  229.98   11.40
   0  -5  -5  234.28    7.50
   0  -5  -5  232.78    8.20
  -1   5   5  268.67    8.20
  -1   5   5  273.57    9.30
  -1   5   5  277.17    9.50
  -1   5   5  252.37    9.60
  -1   5   5  254.37    8.00
  -1   5   5  238.58    9.30
  -1   5   5  276.47    6.60
  -1   5   5  269.87    8.10
  -1   5   5  254.37    8.00
  -1   5   5  270.47    6.80
   1  -5  -5  277.17    8.20
   1  -5  -5  269.47    8.50
   1  -5  -5  277.17    8.20
   1  -5  -5  269.67    9.20
  -2   5   5  109.89    5.50
  -2   5   5  105.99    4.40
  -2   5   5  105.99    4.40
  -2   5   5  107.69    6.20
  -2   5   5  109.29    4.20
  -2   5   5  108.79    4.10
  -2   5   5  113.09    5.00
  -2   5   5   98.79    6.30
   2  -5  -5  103.09    5.50
   2  -5  -5  103.09    4.90
   2  -5  -5  104.59    4.40
   2  -5  -5  104.59    4.40
  -3   5   5   78.79    5.20
  -3   5   5   79.79    5.80
  -3   5   5   83.49    4.30
  -3   5   5   78.19    5.90
  -3   5   5   87.09    4.10
  -3   5   5   83.39    3.30
  -3   5   5   87.09    4.10
   3  -5  -5   82.09    3.90
   3  -5  -5   82.69    4.90
   3  -5  -5   82.19    3.90
   3  -5  -5   83.39    3.20
   3  -5  -5   90.29    5.20
  -4   5   5  855.21   22.40
  -4   5   5  872.31   23.40
  -4   5   5  813.12   21.30
  -4   5   5  813.12   21.30
  -4   5   5  875.11   22.50
   4  -5  -5  866.01   21.40
   4  -5  -5  851.41   23.70
   4  -5  -5  867.91   23.30
   4  -5  -5  835.42   22.60
   4  -5  -5  866.01   21.40
  -5   5   5   54.49    4.30
  -5   5   5   59.69    5.20
  -5   5   5   54.49    4.30
  -5   5   5   57.59    4.70
   5  -5  -5   55.79    5.40
   5  -5  -5   62.09    5.80
   5  -5  -5   56.39    3.80
   5  -5  -5   56.39    3.80
  -6   5   5  135.79    7.90
  -6   5   5  127.89    6.90
   6  -5  -5  127.29    5.60
   6  -5  -5  131.29    7.90
   6  -5  -5  127.29    5.60
  -7   5   5   27.00    5.20
  -7   5   5   21.70    4.10
   7  -5  -5   20.50    3.10
   7  -5  -5   26.50    5.00
   7  -5  -5   20.50    3.10
   7  -5  -5   25.40    4.90
  -8   5   5   15.50    5.50
  -8   5   5   12.60    3.80
   8  -5  -5   12.50    3.40
   8  -5  -5   14.60    5.70
   8  -5  -5   14.40    5.60
   8  -5  -5   12.50    3.40
  -9   5   5   44.90    7.70
   9  -5  -5   39.60    8.30
   9  -5  -5   37.10    7.60
   9  -5  -5   45.60    6.10
   9  -5  -5   45.60    6.10
   7   5   4   99.19    9.50
   7   5   4   99.19    9.50
   7   5   4  131.39   13.10
  -7  -5  -4   79.89   10.10
   6   5   4    6.50    4.70
   6   5   4    2.90    5.40
   6   5   4    0.70    3.80
   6   5   4    0.70    3.80
  -6  -5  -4    8.60    4.60
  -6  -5  -4    3.50    5.50
   5   5   4  159.28    7.80
   5   5   4  145.69    9.10
   5   5   4  159.28    7.80
  -5  -5  -4  153.88    8.20
  -5  -5  -4  182.38   10.40
   4   5   4    2.50    2.70
   4   5   4    7.50    3.70
   4   5   4    7.20    3.80
  -4  -5  -4    3.00    4.90
  -4  -5  -4    9.90    2.80
   3   5   4  142.29    7.00
   3   5   4  149.69    6.50
   3   5   4  155.58    7.40
  -3  -5  -4  148.99    6.60
  -3  -5  -4  148.99    6.60
  -3  -5  -4  151.38    7.90
  -3  -5  -4  148.29    5.80
   2   5   4    3.00    2.00
   2   5   4    1.10    1.80
  -2  -5  -4    1.40    1.80
  -2  -5  -4    3.20    1.50
  -2  -5  -4    1.40    1.80
  -2  -5  -4    3.20    2.40
   1   5   4  295.97    7.40
   1   5   4  282.47    9.50
   1   5   4  297.57    7.30
   1   5   4  295.87    9.50
   1   5   4  289.87    9.30
   1   5   4  250.37    8.30
   1   5   4  276.37    9.80
   1   5   4  250.37    8.30
  -1  -5  -4  281.47    8.70
  -1  -5  -4  294.07    9.70
  -1  -5  -4  273.07    9.80
  -1  -5  -4  281.47    8.70
   0   5   4  184.48    6.40
   0   5   4  176.08    6.90
   0   5   4  174.68    7.20
   0   5   4  183.68    4.80
   0   5   4  175.78    6.90
   0   5   4  174.28    7.20
   0   5   4  183.78    5.80
   0   5   4  182.48    4.70
   0  -5  -4  182.98    6.00
   0  -5  -4  182.98    6.00
   0  -5  -4  181.58    7.30
   0  -5  -4  177.08    6.60
  -1   5   4  633.34   18.30
  -1   5   4  673.43   16.80
  -1   5   4  685.43   16.60
  -1   5   4  704.83   17.10
  -1   5   4  660.43   18.30
  -1   5   4  668.03   18.50
  -1   5   4  682.23   16.90
  -1   5   4  698.03   16.50
  -1   5   4  673.43   16.80
   1  -5  -4  669.73   17.00
   1  -5  -4  648.74   18.20
   1  -5  -4  673.23   16.50
   1  -5  -4  668.63   17.30
   1  -5  -4  669.73   17.00
  -2   5   4  103.89    5.70
  -2   5   4  108.99    4.00
  -2   5   4  113.89    4.70
  -2   5   4  108.99    4.00
  -2   5   4  111.69    5.60
  -2   5   4  108.69    3.60
  -2   5   4  106.69    5.20
   2  -5  -4  104.89    4.50
   2  -5  -4  103.19    3.70
   2  -5  -4  103.59    4.10
   2  -5  -4  103.59    4.00
   2  -5  -4  107.79    5.30
  -3   5   4  103.49    5.60
  -3   5   4  102.09    5.00
  -3   5   4   98.79    4.10
  -3   5   4   98.79    4.10
  -3   5   4  102.99    5.90
  -3   5   4   98.09    4.80
   3  -5  -4   98.49    3.90
   3  -5  -4   96.59    5.10
   3  -5  -4   98.49    3.90
   3  -5  -4   95.39    5.30
   3  -5  -4   93.09    5.40
  -4   5   4  261.27    9.30
  -4   5   4  246.18    7.60
  -4   5   4  239.78    9.90
  -4   5   4  288.07   11.20
  -4   5   4  246.18    7.60
  -4   5   4  247.08    8.60
   4  -5  -4  248.48    9.30
   4  -5  -4  256.27    9.50
   4  -5  -4  252.67    7.50
   4  -5  -4  258.77    9.80
   4  -5  -4  252.67    7.50
  -5   5   4  394.56   11.20
  -5   5   4  405.16   13.20
  -5   5   4  394.56   11.20
  -5   5   4  395.66   12.40
   5  -5  -4  404.96   11.00
   5  -5  -4  388.26   13.50
   5  -5  -4  404.96   11.00
   5  -5  -4  409.36   13.40
  -6   5   4   69.99    6.30
  -6   5   4   68.59    5.00
  -6   5   4   61.59    5.30
  -6   5   4   68.59    5.00
   6  -5  -4   67.89    4.10
   6  -5  -4   67.89    4.10
   6  -5  -4   70.19    6.60
   6  -5  -4   64.19    7.20
  -7   5   4   37.50    4.90
  -7   5   4   41.30    5.50
   7  -5  -4   37.40    5.20
   7  -5  -4   41.90    5.60
   7  -5  -4   38.30    3.40
   7  -5  -4   38.30    3.40
  -8   5   4   13.90    4.20
  -8   5   4   16.40    5.40
   8  -5  -4    4.60    5.30
   8  -5  -4    8.20    5.50
   8  -5  -4    7.70    3.00
   8  -5  -4    7.70    3.00
  -9   5   4    9.40    4.80
  -9   5   4   13.90    6.80
   9  -5  -4   19.30    7.20
   9  -5  -4   29.30    7.30
   7   5   3   81.49    8.30
   7   5   3   97.09    7.80
   7   5   3   61.49    7.40
   7   5   3   97.09    7.80
  -7  -5  -3   61.89    7.50
  -7  -5  -3   72.89    9.10
   6   5   3  107.89    6.90
   6   5   3  107.89    6.90
   6   5   3  101.59    8.50
  -6  -5  -3   95.49    7.80
  -6  -5  -3   95.09    9.40
   5   5   3  184.38    7.70
   5   5   3  186.98    9.80
   5   5   3  171.88    9.20
   5   5   3  184.38    7.70
  -5  -5  -3  181.98    8.40
  -5  -5  -3  178.08   10.00
   4   5   3  132.99    5.90
   4   5   3  119.39    7.50
   4   5   3  108.99    6.80
   4   5   3  118.09    6.90
   4   5   3  132.99    5.90
  -4  -5  -3  118.39    6.10
  -4  -5  -3  128.99    7.60
   3   5   3   78.09    4.80
   3   5   3   74.59    4.90
   3   5   3   84.59    5.20
  -3  -5  -3   74.49    4.60
  -3  -5  -3   75.99    5.60
  -3  -5  -3   82.59    4.40
  -3  -5  -3   74.49    4.60
  -3  -5  -3   79.49    5.80
   2   5   3  303.97    9.50
   2   5   3  303.97    9.50
   2   5   3  336.77    9.20
   2   5   3  344.37   10.30
   2   5   3  353.66   10.70
   2   5   3  335.87   10.70
  -2  -5  -3  318.67    9.70
  -2  -5  -3  320.77   10.60
  -2  -5  -3  334.47    9.50
  -2  -5  -3  318.67    9.70
  -2  -5  -3  313.37   10.70
  -2  -5  -3  353.36   11.20
   1   5   3   55.29    3.50
   1   5   3   52.39    3.60
   1   5   3   47.80    3.70
   1   5   3   47.20    3.00
   1   5   3   47.20    2.40
   1   5   3   49.60    3.50
   1   5   3   47.20    3.00
  -1  -5  -3   53.29    3.70
  -1  -5  -3   43.50    3.00
  -1  -5  -3   48.50    2.70
  -1  -5  -3   43.30    3.80
  -1  -5  -3   43.50    3.10
   0   5   3  692.73   17.30
   0   5   3  715.53   17.80
   0   5   3  707.43   18.70
   0   5   3  664.53   18.40
   0   5   3  673.93   18.60
   0   5   3  696.53   18.70
   0   5   3  706.53   17.20
   0   5   3  708.93   17.00
   0   5   3  692.73   17.30
   0   5   3  696.93   17.00
   0  -5  -3  693.63   17.20
   0  -5  -3  705.23   17.50
   0  -5  -3  704.23   18.00
   0  -5  -3  705.23   17.50
  -1   5   3 2261.97   52.39
  -1   5   3 2261.97   52.39
  -1   5   3 2310.17   52.49
  -1   5   3 2263.67   52.79
  -1   5   3 2164.68   53.99
  -1   5   3 2175.88   53.89
  -1   5   3 2300.47   52.49
  -1   5   3 2299.67   54.09
   1  -5  -3 2195.78   52.69
   1  -5  -3 2334.37   52.69
   1  -5  -3 2254.87   53.99
   1  -5  -3 2275.47   52.49
   1  -5  -3 2275.47   52.49
  -2   5   3  947.41   25.60
  -2   5   3  988.60   23.80
  -2   5   3  992.70   24.80
  -2   5   3  988.60   23.80
  -2   5   3 1018.80   24.70
  -2   5   3 1025.50   23.10
  -2   5   3 1002.60   25.60
   2  -5  -3 1004.00   24.70
   2  -5  -3 1023.10   23.30
   2  -5  -3  960.60   25.50
   2  -5  -3 1011.10   23.90
   2  -5  -3  993.30   25.60
   2  -5  -3 1011.10   23.90
  -3   5   3 2077.49   50.69
  -3   5   3 1926.71   50.29
  -3   5   3 2072.39   48.40
  -3   5   3 2072.39   48.40
  -3   5   3 2181.68   50.39
  -3   5   3 2154.78   49.80
   3  -5  -3 2075.29   48.50
   3  -5  -3 2075.29   48.50
   3  -5  -3 2146.89   50.09
   3  -5  -3 2110.39   50.89
   3  -5  -3 2077.59   50.59
  -4   5   3   14.90    2.60
  -4   5   3   22.60    2.00
  -4   5   3   24.20    2.90
  -4   5   3   28.50    3.80
  -4   5   3   22.60    2.00
  -4   5   3   21.30    3.30
   4  -5  -3   20.30    3.40
   4  -5  -3   21.10    2.10
   4  -5  -3   21.10    2.10
   4  -5  -3   23.00    3.10
   4  -5  -3   22.70    3.20
  -5   5   3   42.00    4.40
  -5   5   3   44.70    3.40
  -5   5   3   45.00    5.20
  -5   5   3   44.70    3.40
   5  -5  -3   45.50    5.20
   5  -5  -3   44.30    4.90
   5  -5  -3   40.90    3.00
   5  -5  -3   40.90    3.00
  -6   5   3  115.09    5.50
  -6   5   3  114.09    6.20
  -6   5   3  115.79    7.50
  -6   5   3  115.09    5.50
   6  -5  -3  125.19    7.70
   6  -5  -3  114.09    4.70
   6  -5  -3  103.19    8.30
   6  -5  -3  114.49    4.00
   6  -5  -3  114.09    4.70
   6  -5  -3  115.39    3.80
  -7   5   3   38.80    5.30
  -7   5   3   29.50    4.30
   7  -5  -3   40.50    3.80
   7  -5  -3   33.10    5.30
   7  -5  -3   35.90    5.20
   7  -5  -3   40.50    3.80
  -8   5   3   63.49    7.70
  -8   5   3   54.89    5.80
   8  -5  -3   57.09    5.10
   8  -5  -3   68.89    7.80
   8  -5  -3   63.69    7.80
   8  -5  -3   57.09    5.10
  -9   5   3  126.09    9.20
  -9   5   3  138.09   12.40
   9  -5  -3  142.89   15.30
   9  -5  -3  109.29   13.50
   8   5   2  156.28   10.20
   8   5   2  156.28   10.20
  -8  -5  -2  170.18   15.00
  -8  -5  -2  145.69   13.00
   7   5   2   64.19    5.60
   7   5   2   64.19    5.60
   7   5   2   91.09   10.50
   7   5   2   55.99    6.70
  -7  -5  -2   78.29   10.10
  -7  -5  -2   69.79    8.70
   6   5   2   54.69    7.10
   6   5   2   73.39    5.90
   6   5   2   73.39    5.90
   6   5   2   68.79    7.40
  -6  -5  -2   63.29    8.00
  -6  -5  -2   70.39    6.80
   5   5   2  126.39    7.50
   5   5   2  119.99    7.60
   5   5   2  112.29    6.00
   5   5   2  112.29    6.00
  -5  -5  -2  128.59    8.40
  -5  -5  -2  111.39    6.70
   4   5   2  231.28    9.10
   4   5   2  245.68    8.30
   4   5   2  234.38    9.20
   4   5   2  245.68    8.30
   4   5   2  241.18    8.70
  -4  -5  -2  223.18    8.90
  -4  -5  -2  237.28    8.70
  -4  -5  -2  238.98   10.20
   3   5   2  291.17    9.20
   3   5   2  289.37   10.90
   3   5   2  306.27    9.00
   3   5   2  299.87    9.20
   3   5   2  286.07    9.60
   3   5   2  306.27    9.00
  -3  -5  -2  282.87    9.50
  -3  -5  -2  273.77    9.80
  -3  -5  -2  277.67   10.40
  -3  -5  -2  289.47    9.20
   2   5   2   39.50    2.90
   2   5   2   39.50    2.90
   2   5   2   45.60    3.60
   2   5   2   44.20    3.10
   2   5   2   40.60    2.90
  -2  -5  -2   34.80    3.50
  -2  -5  -2   43.00    3.50
  -2  -5  -2   43.10    3.70
  -2  -5  -2   42.00    3.10
  -2  -5  -2   45.30    3.10
  -2  -5  -2   45.30    3.10
   1   5   2  530.15   14.20
   1   5   2  530.15   14.60
   1   5   2  533.95   13.50
   1   5   2  529.75   14.30
   1   5   2  536.55   14.50
   1   5   2  524.35   14.40
   1   5   2  533.95   13.50
  -1  -5  -2  507.65   13.20
  -1  -5  -2  540.65   14.60
  -1  -5  -2  511.05   13.60
  -1  -5  -2  511.05   13.60
  -1  -5  -2  525.35   13.80
  -1  -5  -2  539.35   14.50
   0   5   2  327.87    9.10
   0   5   2  314.47    9.10
   0   5   2  320.97    8.60
   0   5   2  320.47    9.70
   0   5   2  326.37    8.90
   0   5   2  320.97    8.60
   0   5   2  340.27    9.90
   0   5   2  330.77    9.80
   0  -5  -2  321.97    8.70
   0  -5  -2  326.67    8.90
   0  -5  -2  321.97    8.70
   0  -5  -2  313.47    9.40
   0  -5  -2  319.77    9.60
  -1   5   2  824.32   19.00
  -1   5   2  806.22   18.90
  -1   5   2  793.82   19.60
  -1   5   2  766.02   20.50
  -1   5   2  776.72   20.40
  -1   5   2  806.32   18.90
   1  -5  -2  783.72   20.50
   1  -5  -2  774.02   19.00
   1  -5  -2  786.82   20.50
   1  -5  -2  800.92   19.70
   1  -5  -2  774.02   19.00
   1  -5  -2  797.32   19.20
   1  -5  -2  790.32   19.80
  -2   5   2  622.44   17.20
  -2   5   2  640.24   15.10
  -2   5   2  645.04   17.00
  -2   5   2  640.34   15.10
  -2   5   2  617.34   16.40
   2  -5  -2  631.74   16.60
   2  -5  -2  625.94   16.30
   2  -5  -2  616.34   15.60
   2  -5  -2  622.44   17.10
   2  -5  -2  616.24   15.60
   2  -5  -2  639.44   17.10
  -3   5   2  152.58    6.00
  -3   5   2  154.48    6.60
  -3   5   2  158.48    6.50
  -3   5   2  161.38    6.60
  -3   5   2  158.18    4.60
  -3   5   2  158.18    4.60
   3  -5  -2  142.79    6.50
   3  -5  -2  156.98    4.60
   3  -5  -2  156.98    4.60
   3  -5  -2  158.38    6.50
   3  -5  -2  149.79    6.30
   3  -5  -2  157.58    6.00
  -4   5   2  332.27   11.10
  -4   5   2  337.37    8.90
  -4   5   2  358.96   11.70
  -4   5   2  337.37    8.90
  -4   5   2  323.77   11.20
   4  -5  -2  337.67    8.80
   4  -5  -2  337.67    8.80
   4  -5  -2  338.77   11.40
   4  -5  -2  331.27   11.30
   4  -5  -2  330.37   11.40
  -5   5   2  215.08    9.30
  -5   5   2  213.08    6.60
  -5   5   2  213.08    6.60
  -5   5   2  224.78    6.30
  -5   5   2  215.08    8.00
   5  -5  -2  224.28    9.40
   5  -5  -2  218.68    9.30
   5  -5  -2  210.88    6.30
   5  -5  -2  210.88    6.30
   5  -5  -2  219.28    6.00
  -6   5   2  746.73   22.00
  -6   5   2  707.43   18.40
  -6   5   2  753.12   18.80
  -6   5   2  707.43   18.40
  -6   5   2  710.73   20.30
   6  -5  -2  743.63   18.30
   6  -5  -2  723.03   18.20
   6  -5  -2  772.72   22.20
   6  -5  -2  743.63   18.30
  -7   5   2   37.40    5.30
  -7   5   2   43.20    4.20
  -7   5   2   48.90    5.30
   7  -5  -2   61.99    7.10
   7  -5  -2   41.50    3.70
   7  -5  -2   49.99    7.00
   7  -5  -2   41.70    3.70
  -8   5   2    0.20    4.60
  -8   5   2    2.40    4.00
   8  -5  -2   10.90    5.60
   8  -5  -2    3.00    3.20
   8  -5  -2    3.00    3.20
   8  -5  -2   -1.00    5.80
  -9   5   2  128.29    9.40
   9  -5  -2  185.08   14.60
   8   5   1   26.50    5.10
   8   5   1   26.50    5.10
   8   5   1   30.40    6.30
  -8  -5  -1   39.80    8.60
  -8  -5  -1   31.80    7.20
   7   5   1  106.29    7.10
   7   5   1   95.49    8.80
   7   5   1  106.89    8.40
   7   5   1  106.29    7.10
  -7  -5  -1   97.19    8.70
  -7  -5  -1  129.59   10.90
   6   5   1  117.79    6.40
   6   5   1  110.59    8.00
   6   5   1  117.79    6.40
   6   5   1  116.69    7.40
  -6  -5  -1  115.49    8.90
  -6  -5  -1   98.99    7.20
   5   5   1   47.70    5.50
   5   5   1   51.59    4.10
   5   5   1   51.59    4.10
   5   5   1   50.29    5.40
  -5  -5  -1   46.80    5.90
  -5  -5  -1   40.80    5.10
  -5  -5  -1   44.60    4.90
   4   5   1  259.77    9.40
   4   5   1  288.77    8.80
   4   5   1  266.17    8.60
   4   5   1  266.17    8.60
   4   5   1  279.07    9.80
  -4  -5  -1  243.38    9.40
  -4  -5  -1  265.57    9.40
  -4  -5  -1  273.37   10.50
  -4  -5  -1  253.97    7.80
  -4  -5  -1  257.67    8.90
   3   5   1   23.70    2.90
   3   5   1   18.30    2.20
   3   5   1   17.60    2.50
   3   5   1   20.90    2.20
   3   5   1   24.70    3.10
   3   5   1   20.90    2.20
   3   5   1   18.30    2.20
   3   5   1   23.90    2.50
  -3  -5  -1   25.30    3.00
  -3  -5  -1   31.00    3.00
  -3  -5  -1   26.40    3.00
  -3  -5  -1   18.80    2.90
  -3  -5  -1   26.00    3.10
   2   5   1  593.54   15.20
   2   5   1  600.24   15.30
   2   5   1  575.44   15.00
   2   5   1  587.14   15.50
   2   5   1  575.44   15.00
   2   5   1  557.04   15.90
  -2  -5  -1  585.94   15.80
  -2  -5  -1  560.44   14.60
  -2  -5  -1  606.14   16.40
  -2  -5  -1  594.24   15.70
  -2  -5  -1  588.24   15.50
   1   5   1   73.89    3.80
   1   5   1   76.69    3.10
   1   5   1   70.79    3.40
   1   5   1   76.29    3.60
   1   5   1   70.79    3.70
   1   5   1   75.39    3.60
   1   5   1   72.79    3.70
   1   5   1   76.69    3.10
  -1  -5  -1   74.39    3.60
  -1  -5  -1   72.99    3.70
  -1  -5  -1   68.69    3.90
  -1  -5  -1   72.69    3.20
  -1  -5  -1   72.69    3.20
   0   5   1  202.68    5.60
   0   5   1  204.78    6.60
   0   5   1  202.68    5.60
   0   5   1  201.98    6.30
   0   5   1  203.88    6.90
   0   5   1  195.68    6.50
   0   5   1  197.18    6.60
   0  -5  -1  204.08    6.70
   0  -5  -1  198.58    5.70
   0  -5  -1  198.58    5.70
   0  -5  -1  198.58    6.60
   0  -5  -1  205.18    6.50
   0  -5  -1  201.58    6.40
  -1   5   1  102.59    4.40
  -1   5   1  106.09    3.20
  -1   5   1   98.99    4.30
  -1   5   1  103.29    4.80
  -1   5   1  106.09    3.20
  -1   5   1  101.19    3.50
  -1   5   1  109.99    3.60
   1  -5  -1  105.79    3.30
   1  -5  -1  104.19    4.60
   1  -5  -1  104.49    4.60
   1  -5  -1  103.19    4.60
   1  -5  -1  100.09    4.70
   1  -5  -1  105.79    3.30
  -2   5   1 1482.05   33.60
  -2   5   1 1494.25   33.50
  -2   5   1 1460.55   35.90
  -2   5   1 1375.76   35.40
  -2   5   1 1503.65   33.70
  -2   5   1 1414.66   35.40
  -2   5   1 1482.05   33.60
   2  -5  -1 1453.05   35.10
   2  -5  -1 1447.46   36.00
   2  -5  -1 1417.76   35.70
   2  -5  -1 1461.05   35.60
   2  -5  -1 1487.95   33.70
   2  -5  -1 1487.95   33.70
  -3   5   1   86.59    2.80
  -3   5   1   82.99    2.70
  -3   5   1   86.59    4.90
  -3   5   1   89.69    4.80
  -3   5   1   86.59    5.00
  -3   5   1   86.59    2.80
   3  -5  -1   88.19    4.50
   3  -5  -1   84.19    5.10
   3  -5  -1   88.89    4.90
   3  -5  -1   85.39    2.80
   3  -5  -1   86.99    2.70
   3  -5  -1   78.49    4.80
   3  -5  -1   86.99    2.70
  -4   5   1  180.18    7.90
  -4   5   1  177.08    5.00
  -4   5   1  177.08    5.00
  -4   5   1  156.88    7.50
  -4   5   1  171.48    5.20
   4  -5  -1  169.98    5.10
   4  -5  -1  174.38    4.90
   4  -5  -1  171.28    7.70
   4  -5  -1  166.38    7.80
   4  -5  -1  174.78    6.80
   4  -5  -1  167.68    7.40
   4  -5  -1  174.38    4.90
  -5   5   1  552.24   13.90
  -5   5   1  561.54   14.80
  -5   5   1  552.24   13.90
  -5   5   1  575.04   16.00
  -5   5   1  554.84   17.60
   5  -5  -1  554.44   13.80
   5  -5  -1  547.55   17.40
   5  -5  -1  566.34   14.40
   5  -5  -1  554.44   13.80
   5  -5  -1  582.54   17.50
  -6   5   1   46.80    3.70
  -6   5   1   42.70    4.20
  -6   5   1   46.80    3.70
  -6   5   1   37.00    5.40
  -6   5   1   46.00    4.20
   6  -5  -1   43.20    2.90
   6  -5  -1   43.20    2.90
   6  -5  -1   44.50    5.60
   6  -5  -1   49.60    5.50
   6  -5  -1   40.90    4.00
  -7   5   1   18.40    3.80
  -7   5   1   20.20    4.10
  -7   5   1    9.00    4.40
   7  -5  -1   15.70    4.70
   7  -5  -1   16.10    2.40
   7  -5  -1   19.30    5.10
   7  -5  -1   16.10    2.40
  -8   5   1  370.26   15.90
  -8   5   1  345.17   13.30
   8  -5  -1  383.16   16.60
   8  -5  -1  383.56   17.20
  -9   5   1   11.10    5.20
   9  -5  -1   10.40    8.70
   8   5   0  312.87   14.30
   8   5   0  317.37   12.10
   8   5   0  317.37   12.10
  -8  -5   0  304.47   15.10
  -8  -5   0  305.87   17.10
   7   5   0   66.69    7.50
   7   5   0   80.39    6.10
   7   5   0   61.99    6.50
   7   5   0   80.39    6.10
  -7  -5   0   66.19    7.00
  -7  -5   0   72.19    9.30
   6   5   0   21.00    2.90
   6   5   0   22.80    3.50
   6   5   0   23.40    4.10
   6   5   0   21.00    2.90
  -6  -5   0   19.60    3.60
  -6  -5   0   18.30    3.80
  -6  -5   0   20.20    3.70
   5   5   0   23.10    2.80
   5   5   0   14.70    3.20
   5   5   0   21.70    3.20
   5   5   0   23.10    2.80
  -5  -5   0   19.30    3.40
  -5  -5   0   21.50    3.80
  -5  -5   0   26.30    3.20
  -5  -5   0   22.60    3.00
   4   5   0  251.17    8.20
   4   5   0  242.78    8.90
   4   5   0  254.37    9.20
   4   5   0  260.07    9.00
   4   5   0  254.37    9.20
   4   5   0  272.07    8.00
   4   5   0  251.17    8.20
  -4  -5   0  235.98    8.70
  -4  -5   0  250.47   10.00
  -4  -5   0  260.37    8.10
  -4  -5   0  257.97    7.90
  -4  -5   0  256.87    9.20
   3   5   0  116.39    4.60
   3   5   0  105.69    5.50
   3   5   0  114.69    4.80
   3   5   0  114.59    4.80
   3   5   0  122.59    5.00
   3   5   0  116.39    4.60
   3   5   0  104.09    4.50
   3   5   0  110.39    4.90
  -3  -5   0  115.49    5.00
  -3  -5   0  114.59    5.30
  -3  -5   0  117.99    6.00
  -3  -5   0  119.69    4.90
  -3  -5   0  111.29    4.50
   2   5   0  492.45   12.60
   2   5   0  483.25   12.70
   2   5   0  481.65   13.20
   2   5   0  492.45   12.60
   2   5   0  484.85   12.50
   2   5   0  480.45   12.40
   2   5   0  476.85   13.60
   2   5   0  484.75   12.50
   2   5   0  476.85   12.60
  -2  -5   0  474.05   13.00
  -2  -5   0  468.65   13.50
  -2  -5   0  476.95   12.60
  -2  -5   0  471.95   13.90
   1   5   0  143.09    5.10
   1   5   0  140.39    5.40
   1   5   0  139.09    4.90
   1   5   0  135.19    5.30
   1   5   0  141.29    4.50
   1   5   0  139.79    4.50
   1   5   0  138.29    4.80
   1   5   0  141.29    4.50
   1   5   0  139.79    4.50
   1   5   0  139.59    4.90
  -1  -5   0  140.99    5.50
  -1  -5   0  141.69    5.10
  -1  -5   0  138.69    5.60
  -1  -5   0  144.49    4.90
   0   5   0   -0.10    1.40
   0   5   0    1.30    0.80
   0   5   0   -0.30    1.40
   0   5   0    2.60    1.10
   0   5   0    1.30    0.80
   0   5   0    1.60    1.10
   0   5   0    0.20    0.70
   0   5   0    1.20    1.10
   0   5   0   -1.10    1.20
   0   5   0    0.20    0.70
   0  -5   0    0.60    1.00
   0  -5   0    1.70    1.20
   0  -5   0   -0.20    1.80
   0  -5   0    0.50    0.80
   0  -5   0    0.50    0.80
  -1   5   0  142.69    4.50
  -1   5   0  144.89    3.80
  -1   5   0  135.69    5.20
  -1   5   0  144.89    3.80
  -1   5   0  142.99    5.50
  -1   5   0  152.28    5.80
   1  -5   0  143.69    3.80
   1  -5   0  143.69    3.80
   1  -5   0  137.19    5.60
   1  -5   0  147.99    5.70
   1  -5   0  141.39    5.50
   1  -5   0  137.99    5.30
   1  -5   0  138.29    4.60
  -2   5   0  479.25   13.50
  -2   5   0  499.45   11.20
  -2   5   0  458.75   13.20
  -2   5   0  499.45   11.20
  -2   5   0  495.55   12.00
  -2   5   0  458.15   13.60
   2  -5   0  485.55   13.90
   2  -5   0  485.55   13.20
   2  -5   0  479.35   11.20
   2  -5   0  481.95   13.50
   2  -5   0  479.35   11.20
   2  -5   0  491.95   12.20
  -3   5   0  113.39    5.60
  -3   5   0  116.59    4.10
  -3   5   0  109.29    5.40
  -3   5   0  117.59    3.00
  -3   5   0  117.59    3.00
  -3   5   0  117.19    5.80
   3  -5   0  113.49    5.70
   3  -5   0  115.49    3.00
   3  -5   0  115.59    3.00
   3  -5   0  113.49    5.20
   3  -5   0  121.89    4.10
   3  -5   0  114.59    5.60
   3  -5   0  108.39    5.70
  -4   5   0  249.68    9.70
  -4   5   0  241.88    9.00
   4  -5   0  255.27    9.70
   4  -5   0  249.88    7.60
   4  -5   0  255.87    6.50
   4  -5   0  256.67    9.50
   4  -5   0  255.87    6.50
   4  -5   0  264.07    8.70
   4  -5   0  250.77    6.40
   4  -5   0  250.77    6.40
  -5   5   0   26.10    3.30
  -5   5   0   15.60    3.70
  -5   5   0   26.70    3.40
   5  -5   0   16.30    2.90
   5  -5   0   23.10    2.60
   5  -5   0   23.50    3.70
   5  -5   0   17.60    3.50
   5  -5   0   16.30    2.90
  -6   5   0   18.90    4.20
  -6   5   0   21.60    3.50
  -6   5   0   20.90    3.30
   6  -5   0   27.20    2.60
   6  -5   0   27.10    3.40
   6  -5   0   24.40    2.00
   6  -5   0   24.40    2.00
   6  -5   0   27.20    2.60
   6  -5   0   27.00    4.20
   6  -5   0   27.50    4.90
  -7   5   0   70.19    8.10
  -7   5   0   56.29    6.50
  -7   5   0   64.29    6.30
   7  -5   0   48.70    3.70
   7  -5   0   48.70    3.70
  -8   5   0  321.87   14.90
  -8   5   0  303.17   12.20
   8  -5   0  310.17   16.40
   8  -5   0  312.77   15.20
   9   5  -1    1.90    8.00
   9   5  -1   13.70    6.80
  -9  -5   1   17.70    7.80
  -9  -5   1   16.80    9.40
   8   5  -1  365.86   13.30
   8   5  -1  365.86   13.30
   8   5  -1  378.66   15.20
  -8  -5   1  349.77   15.80
  -8  -5   1  398.76   17.90
   7   5  -1   18.90    3.50
   7   5  -1   18.90    3.50
   7   5  -1   18.30    3.40
   7   5  -1   19.00    4.30
  -7  -5   1   15.90    4.20
  -7  -5   1   21.70    5.40
  -7  -5   1   20.90    4.80
   6   5  -1   42.10    4.00
   6   5  -1   46.40    5.60
   6   5  -1   54.19    5.90
   6   5  -1   54.19    5.90
  -6  -5   1   46.80    4.30
  -6  -5   1   46.60    5.70
  -6  -5   1   40.00    5.40
  -6  -5   1   48.20    5.20
   5   5  -1  552.44   15.90
   5   5  -1  573.34   16.30
   5   5  -1  555.54   15.30
   5   5  -1  555.54   15.30
  -5  -5   1  561.14   14.50
  -5  -5   1  534.55   16.80
  -5  -5   1  493.65   15.60
  -5  -5   1  558.64   15.00
  -5  -5   1  580.74   17.90
   4   5  -1  174.78    5.60
   4   5  -1  175.78    6.80
   4   5  -1  173.38    8.20
  -4  -5   1  170.58    6.20
  -4  -5   1  162.88    6.40
  -4  -5   1  174.28    7.90
  -4  -5   1  165.28    7.20
   3   5  -1   83.89    3.40
   3   5  -1   82.29    3.90
   3   5  -1   78.19    3.90
   3   5  -1   78.19    3.90
   3   5  -1   77.29    4.40
   3   5  -1   91.09    3.20
   3   5  -1   86.39    4.80
  -3  -5   1   76.09    3.50
  -3  -5   1   88.09    4.30
  -3  -5   1   79.39    5.00
  -3  -5   1   83.19    3.90
  -3  -5   1   76.19    3.50
  -3  -5   1   83.89    4.80
   2   5  -1 1466.25   34.60
   2   5  -1 1467.65   34.50
   2   5  -1 1434.86   36.10
   2   5  -1 1466.25   34.60
   2   5  -1 1525.85   34.80
   2   5  -1 1525.85   34.80
   2   5  -1 1490.95   35.80
   2   5  -1 1463.35   36.00
   2   5  -1 1469.55   34.40
   2   5  -1 1351.06   35.30
  -2  -5   1 1499.65   35.10
  -2  -5   1 1439.26   34.60
  -2  -5   1 1458.75   36.10
  -2  -5   1 1437.16   34.60
   1   5  -1  108.39    3.60
   1   5  -1  108.39    3.60
   1   5  -1  107.89    3.70
   1   5  -1   91.99    4.40
   1   5  -1  106.29    3.80
   1   5  -1  100.79    3.60
   1   5  -1  101.19    4.60
   1   5  -1  107.89    3.70
   1   5  -1  104.09    4.60
   1   5  -1  105.39    4.70
  -1  -5   1  100.69    4.80
  -1  -5   1   99.29    4.00
  -1  -5   1  104.49    4.70
   0   5  -1  204.98    6.10
   0   5  -1  199.08    7.10
   0   5  -1  204.38    5.40
   0   5  -1  204.38    5.40
   0   5  -1  200.88    6.60
   0   5  -1  201.98    5.30
   0   5  -1  192.88    6.90
   0   5  -1  201.98    5.30
   0  -5   1  197.48    6.50
   0  -5   1  195.28    6.70
   0  -5   1  195.48    6.70
   0  -5   1  197.68    6.10
  -1   5  -1   73.69    4.10
  -1   5  -1   73.59    2.00
  -1   5  -1   79.79    4.00
  -1   5  -1   73.49    3.40
  -1   5  -1   70.89    3.20
  -1   5  -1   73.49    2.00
  -1   5  -1   76.39    2.00
  -1   5  -1   76.39    2.00
   1  -5   1   74.89    4.10
   1  -5   1   67.09    4.20
   1  -5   1   71.99    3.50
   1  -5   1   73.59    4.20
   1  -5   1   74.49    3.40
  -2   5  -1  606.54   16.40
  -2   5  -1  587.54   16.40
  -2   5  -1  600.44   15.80
  -2   5  -1  591.34   15.10
   2  -5   1  601.64   15.30
   2  -5   1  578.04   16.50
   2  -5   1  600.14   15.90
   2  -5   1  591.04   16.60
   2  -5   1  608.04   16.10
  -3   5  -1   26.70    2.40
  -3   5  -1   22.40    3.10
  -3   5  -1   20.20    2.80
  -3   5  -1   27.30    3.30
   3  -5   1   22.00    2.90
   3  -5   1   21.70    2.50
   3  -5   1   22.40    2.80
   3  -5   1   20.40    3.30
   3  -5   1   27.70    3.10
  -4   5  -1  266.37    8.60
  -4   5  -1  271.57   10.50
   4  -5   1  261.47    6.60
   4  -5   1  271.67   10.50
   4  -5   1  282.37   10.10
   4  -5   1  264.07    6.60
   4  -5   1  272.07    8.50
   4  -5   1  264.07    6.60
   4  -5   1  278.17    9.10
   4  -5   1  261.47    6.60
  -5   5  -1   47.80    4.20
  -5   5  -1   37.70    4.80
  -5   5  -1   46.70    4.50
   5  -5   1   44.80    2.50
   5  -5   1   47.40    2.40
   5  -5   1   53.09    6.00
   5  -5   1   47.40    2.40
   5  -5   1   47.00    4.50
   5  -5   1   44.80    2.50
   5  -5   1   51.29    4.50
   5  -5   1   50.09    5.30
  -6   5  -1  118.09    6.80
  -6   5  -1  110.19    6.70
  -6   5  -1  119.09    8.50
   6  -5   1  107.39    4.10
   6  -5   1  107.39    4.10
   6  -5   1  122.69    7.90
   6  -5   1  107.99    8.70
   6  -5   1   99.09    7.00
  -7   5  -1  111.79    9.90
  -7   5  -1   95.69    7.20
  -7   5  -1  104.39    8.30
   7  -5   1  109.59   10.10
   7  -5   1  103.39    9.30
  -8   5  -1   30.90    7.30
  -8   5  -1   31.90    5.50
   8  -5   1   36.80    8.00
   8  -5   1   36.60    6.60
   9   5  -2  143.09   13.90
   9   5  -2  147.69   13.10
   9   5  -2  114.59    9.60
   9   5  -2  114.39    9.60
  -9  -5   2  122.59   12.40
   8   5  -2    6.30    3.80
   8   5  -2    8.60    4.60
   8   5  -2    7.60    5.60
   8   5  -2    6.30    3.80
  -8  -5   2    6.10    5.40
  -8  -5   2    9.80    6.20
  -8  -5   2    1.80    4.80
   7   5  -2   46.20    5.00
   7   5  -2   45.50    4.20
   7   5  -2   45.50    4.20
   7   5  -2   49.80    5.30
   7   5  -2   49.40    6.50
  -7  -5   2   44.00    4.90
  -7  -5   2   53.49    6.40
  -7  -5   2   55.69    7.00
   6   5  -2  672.83   22.10
   6   5  -2  740.53   20.20
   6   5  -2  727.13   21.90
   6   5  -2  705.93   17.50
   6   5  -2  672.93   22.10
  -6  -5   2  737.53   21.70
  -6  -5   2  720.63   22.30
  -6  -5   2  710.33   17.50
  -6  -5   2  683.93   20.50
   5   5  -2  215.48    6.10
   5   5  -2  218.18    9.50
   5   5  -2  212.68    6.10
   5   5  -2  220.28    7.60
   5   5  -2  218.98    8.20
   5   5  -2  220.28    7.60
  -5  -5   2  205.78    9.00
  -5  -5   2  214.28    7.90
  -5  -5   2  212.88    9.60
  -5  -5   2  223.98    7.90
   4   5  -2  343.57   10.00
   4   5  -2  309.67   10.60
   4   5  -2  334.47   11.40
   4   5  -2  332.77    8.20
   4   5  -2  322.77    9.60
   4   5  -2  322.77    9.60
   4   5  -2  336.97    8.20
  -4  -5   2  340.47    9.70
  -4  -5   2  315.27    9.60
  -4  -5   2  315.27    9.60
  -4  -5   2  314.47   11.10
  -4  -5   2  326.67    9.90
   3   5  -2  158.68    4.10
   3   5  -2  145.19    5.20
   3   5  -2  147.09    5.30
   3   5  -2  145.19    5.20
   3   5  -2  148.59    6.70
   3   5  -2  152.78    4.30
   3   5  -2  158.68    6.20
   3   5  -2  146.89    6.60
  -3  -5   2  144.09    5.10
  -3  -5   2  153.08    5.10
  -3  -5   2  154.78    5.80
  -3  -5   2  156.18    6.60
  -3  -5   2  144.09    5.10
   2   5  -2  644.24   17.30
   2   5  -2  651.83   15.50
   2   5  -2  626.44   15.80
   2   5  -2  655.43   15.60
   2   5  -2  626.44   15.80
   2   5  -2  645.14   15.60
   2   5  -2  617.24   17.50
   2   5  -2  636.14   17.30
  -2  -5   2  621.54   15.90
  -2  -5   2  634.84   15.50
  -2  -5   2  621.54   15.90
  -2  -5   2  658.33   16.70
   1   5  -2  775.02   20.60
   1   5  -2  801.62   18.70
   1   5  -2  760.32   20.20
   1   5  -2  787.22   18.80
   1   5  -2  787.12   18.80
   1   5  -2  764.12   19.40
  -1  -5   2  791.42   20.00
  -1  -5   2  794.52   18.80
  -1  -5   2  794.52   18.80
  -1  -5   2  780.62   20.90
  -1  -5   2  799.02   18.70
  -1  -5   2  758.52   20.20
  -1  -5   2  797.72   19.50
   0   5  -2  331.07    8.00
   0   5  -2  331.07    8.00
   0   5  -2  326.97    8.60
   0   5  -2  325.37   10.30
   0   5  -2  316.57    9.40
   0   5  -2  322.27    9.50
   0   5  -2  318.77   10.10
   0  -5   2  325.27    8.10
   0  -5   2  325.27    8.10
   0  -5   2  327.87    9.70
   0  -5   2  323.37    9.70
   0  -5   2  326.67    9.60
   0  -5   2  322.87    8.70
  -1   5  -2  538.85   13.80
  -1   5  -2  544.35   14.60
  -1   5  -2  531.55   14.00
  -1   5  -2  518.15   14.70
   1  -5   2  534.05   14.50
   1  -5   2  514.05   14.90
   1  -5   2  539.85   14.00
   1  -5   2  537.85   14.20
   1  -5   2  499.15   14.60
  -2   5  -2   43.90    3.20
  -2   5  -2   44.10    2.90
  -2   5  -2   43.30    3.80
  -2   5  -2   40.40    3.60
   2  -5   2   43.60    3.20
   2  -5   2   39.40    4.10
   2  -5   2   38.50    3.20
   2  -5   2   47.10    4.00
  -3   5  -2  275.87    9.90
  -3   5  -2  288.37    9.60
  -3   5  -2  244.48   11.70
  -3   5  -2  301.87    9.10
   3  -5   2  299.37    9.80
   3  -5   2  287.67    9.10
   3  -5   2  284.87   10.30
   3  -5   2  283.07    9.40
  -4   5  -2  244.08   10.10
  -4   5  -2  241.18    8.60
   4  -5   2  239.48    5.90
   4  -5   2  247.98    9.50
   4  -5   2  239.38    5.90
   4  -5   2  233.08    8.50
   4  -5   2  241.78   10.00
   4  -5   2  235.38    5.90
   4  -5   2  235.48    5.90
  -5   5  -2  125.49    8.40
  -5   5  -2  127.49    6.80
   5  -5   2  134.49    8.30
   5  -5   2  122.19    6.70
   5  -5   2  121.29    3.90
   5  -5   2  114.99    4.00
   5  -5   2  116.59    7.20
   5  -5   2  132.79    7.50
   5  -5   2  114.99    4.00
   5  -5   2  121.29    3.90
  -6   5  -2   65.19    6.10
  -6   5  -2   63.99    6.50
  -6   5  -2   76.69    8.10
   6  -5   2   61.39    7.00
   6  -5   2   73.69    8.40
  -7   5  -2   88.59    8.70
  -7   5  -2   73.49    7.10
  -7   5  -2   82.19   10.00
   7  -5   2   87.69    9.20
   7  -5   2   84.79    9.00
  -8   5  -2  152.28   13.60
   8  -5   2  183.18   15.70
   9   5  -3  122.79    9.20
   9   5  -3  130.49   12.40
   9   5  -3  128.79   13.30
   9   5  -3  122.79    9.20
  -9  -5   3  142.29   12.80
   8   5  -3   49.20    6.70
   8   5  -3   53.69    4.70
   8   5  -3   53.69    4.70
   8   5  -3   71.29    8.50
  -8  -5   3   55.09    6.30
  -8  -5   3   57.59    6.90
   7   5  -3   40.00    4.30
   7   5  -3   49.40    6.10
   7   5  -3   40.00    4.30
   7   5  -3   34.80    5.30
  -7  -5   3   42.90    4.90
  -7  -5   3   46.80    6.00
   6   5  -3  124.79    7.90
   6   5  -3   98.59    8.30
   6   5  -3  120.89    6.40
   6   5  -3   98.59    8.30
  -6  -5   3  110.19    6.40
  -6  -5   3  117.09    7.40
  -6  -5   3  118.29    6.60
   5   5  -3   49.10    3.70
   5   5  -3   49.10    3.70
   5   5  -3   40.20    3.80
   5   5  -3   43.70    5.20
  -5  -5   3   44.10    3.80
  -5  -5   3   51.89    5.10
   4   5  -3   25.30    3.60
   4   5  -3   23.10    2.60
   4   5  -3   20.80    2.20
   4   5  -3   20.80    2.20
   4   5  -3   20.60    3.80
  -4  -5   3   23.00    2.50
  -4  -5   3   26.40    3.70
  -4  -5   3   25.40    2.40
  -4  -5   3   23.60    2.90
  -4  -5   3   25.40    2.40
   3   5  -3 2103.49   50.09
   3   5  -3 2028.20   49.70
   3   5  -3 2068.79   48.20
   3   5  -3 2100.89   47.50
   3   5  -3 1969.20   50.09
   3   5  -3 2068.69   48.20
  -3  -5   3 2079.89   50.39
  -3  -5   3 2077.29   47.50
  -3  -5   3 2002.50   48.20
  -3  -5   3 2040.80   48.80
  -3  -5   3 2002.50   48.20
   2   5  -3 1019.50   23.00
   2   5  -3 1024.50   23.70
   2   5  -3 1021.40   24.00
   2   5  -3  926.51   25.40
   2   5  -3  990.30   25.60
   2   5  -3 1027.20   23.10
   2   5  -3 1021.50   24.00
  -2  -5   3  973.40   26.10
  -2  -5   3  986.00   24.00
  -2  -5   3  986.00   24.00
  -2  -5   3  937.11   25.50
  -2  -5   3 1005.00   25.00
  -2  -5   3 1003.90   23.80
   1   5  -3 2240.28   52.79
   1   5  -3 2256.07   53.89
   1   5  -3 2259.17   52.19
   1   5  -3 2268.07   51.59
   1   5  -3 2227.78   54.29
   1   5  -3 2259.17   52.19
  -1  -5   3 2227.78   53.49
  -1  -5   3 2232.08   53.99
  -1  -5   3 2304.77   52.29
  -1  -5   3 2304.77   52.29
  -1  -5   3 2219.08   53.09
  -1  -5   3 2274.37   51.59
  -1  -5   3 2298.47   54.79
   0   5  -3  721.43   17.20
   0   5  -3  707.23   18.30
   0   5  -3  691.03   18.50
   0   5  -3  703.03   19.00
   0   5  -3  704.53   16.70
   0   5  -3  704.53   16.70
   0   5  -3  687.13   19.20
   0  -5   3  734.03   18.70
   0  -5   3  726.63   16.80
   0  -5   3  695.03   18.50
   0  -5   3  726.63   16.80
   0  -5   3  696.53   17.30
   0  -5   3  690.63   18.70
  -1   5  -3   45.00    3.80
  -1   5  -3   46.60    1.70
  -1   5  -3   46.20    4.20
  -1   5  -3   49.90    3.20
  -1   5  -3   46.30    3.20
  -1   5  -3   46.60    1.70
   1  -5   3   47.10    4.00
   1  -5   3   48.30    1.70
   1  -5   3   42.80    2.90
   1  -5   3   51.09    3.50
   1  -5   3   41.70    4.20
   1  -5   3   48.30    1.70
   1  -5   3   47.00    3.90
  -2   5  -3  316.47    9.90
  -2   5  -3  331.87   10.40
  -2   5  -3  335.17   11.10
  -2   5  -3  334.97   10.90
   2  -5   3  326.77   10.40
   2  -5   3  329.77   10.10
   2  -5   3  326.67   10.30
   2  -5   3  331.77   11.10
  -3   5  -3   87.79    4.80
  -3   5  -3   79.69    5.40
  -3   5  -3   75.39    5.80
   3  -5   3   68.79    4.90
   3  -5   3   70.39    5.00
   3  -5   3   81.09    5.50
   3  -5   3   71.59    5.90
  -4   5  -3  129.09    7.80
  -4   5  -3  120.49    6.40
   4  -5   3  124.29    3.70
   4  -5   3  126.59    3.70
   4  -5   3  126.49    3.70
   4  -5   3  128.49    7.90
   4  -5   3  131.69    7.10
   4  -5   3  128.89    6.60
   4  -5   3  124.29    3.70
  -5   5  -3  180.38    8.70
   5  -5   3  182.78    9.40
   5  -5   3  182.38    8.20
   5  -5   3  185.58   10.20
  -6   5  -3   89.49    8.20
  -6   5  -3   97.49    7.00
  -6   5  -3  123.09   10.30
   6  -5   3  117.69    9.80
   6  -5   3  110.89    8.80
  -7   5  -3   78.99    9.90
  -7   5  -3   77.29    8.80
  -7   5  -3   77.59    7.80
   7  -5   3   86.49    9.80
   7  -5   3   78.09   10.10
   9   5  -4   19.90    6.50
   9   5  -4   10.70    4.70
   9   5  -4   10.70    4.70
   9   5  -4   22.40    7.00
  -9  -5   4   11.40    6.00
  -9  -5   4   21.80    6.60
   8   5  -4    6.90    5.50
   8   5  -4    1.80    5.00
   8   5  -4    2.30    3.30
   8   5  -4    2.30    3.30
  -8  -5   4    8.60    4.70
  -8  -5   4    1.80    4.70
   7   5  -4   32.80    4.00
   7   5  -4   32.80    4.00
   7   5  -4   40.30    5.70
   7   5  -4   34.60    4.40
  -7  -5   4   41.50    6.00
  -7  -5   4   43.30    5.00
   6   5  -4   80.09    6.60
   6   5  -4   60.59    5.50
   6   5  -4   63.39    4.90
   6   5  -4   60.59    5.50
  -6  -5   4   59.09    5.60
  -6  -5   4   78.69    6.60
  -6  -5   4   70.09    5.20
   5   5  -4  377.36   13.60
   5   5  -4  399.76   11.30
   5   5  -4  398.46   11.80
   5   5  -4  398.46   11.80
  -5  -5   4  423.16   14.20
  -5  -5   4  395.96   11.20
  -5  -5   4  403.76   12.40
   4   5  -4  257.67    8.10
   4   5  -4  257.67    8.10
   4   5  -4  263.57    9.80
   4   5  -4  262.07    7.30
  -4  -5   4  267.67   10.10
  -4  -5   4  235.28    8.30
  -4  -5   4  262.97    7.20
  -4  -5   4  235.28    8.30
   3   5  -4   87.99    5.70
   3   5  -4   90.29    5.40
   3   5  -4   92.59    4.00
   3   5  -4   92.59    4.00
   3   5  -4   95.69    5.40
  -3  -5   4   93.89    4.20
  -3  -5   4  100.09    5.90
  -3  -5   4   93.89    4.20
  -3  -5   4   98.29    5.10
  -3  -5   4   92.39    5.60
   2   5  -4  109.69    4.00
   2   5  -4   95.29    4.50
   2   5  -4  109.69    4.00
   2   5  -4  109.09    5.40
   2   5  -4  104.89    5.30
  -2  -5   4  113.39    4.20
  -2  -5   4  107.09    5.60
  -2  -5   4  113.39    4.20
  -2  -5   4  107.99    5.80
  -2  -5   4  104.99    5.10
  -2  -5   4  106.29    4.20
   1   5  -4  689.93   16.70
   1   5  -4  680.53   18.90
   1   5  -4  689.93   16.70
   1   5  -4  696.63   18.60
   1   5  -4  680.53   17.80
   1   5  -4  668.23   18.80
  -1  -5   4  671.73   18.80
  -1  -5   4  694.03   19.40
  -1  -5   4  677.53   18.20
  -1  -5   4  690.23   17.80
  -1  -5   4  688.13   16.90
  -1  -5   4  688.13   16.90
   0   5  -4  171.28    7.40
   0   5  -4  179.48    7.20
   0   5  -4  175.48    5.10
   0   5  -4  175.48    7.00
   0   5  -4  175.48    5.10
   0   5  -4  179.78    5.40
   0   5  -4  174.78    6.70
   0  -5   4  179.98    7.10
   0  -5   4  178.38    5.10
   0  -5   4  180.28    6.80
   0  -5   4  178.48    5.10
   0  -5   4  178.38    6.80
   0  -5   4  175.48    5.40
  -1   5  -4  292.67   10.70
  -1   5  -4  292.17    9.40
  -1   5  -4  291.87    7.40
  -1   5  -4  277.27   10.10
  -1   5  -4  289.87   10.00
  -1   5  -4  291.87    7.40
  -1   5  -4  292.27    8.80
   1  -5   4  290.57    8.80
   1  -5   4  297.37    9.80
   1  -5   4  279.47   10.30
   1  -5   4  298.97    7.50
   1  -5   4  296.27   10.10
   1  -5   4  291.87    9.90
   1  -5   4  298.97    7.50
  -2   5  -4    4.30    2.30
  -2   5  -4    3.50    1.00
  -2   5  -4    3.50    1.00
  -2   5  -4    1.20    2.20
  -2   5  -4    3.60    2.00
   2  -5   4    2.50    2.60
   2  -5   4    3.40    1.00
   2  -5   4    3.80    1.90
   2  -5   4    6.10    2.80
   2  -5   4    3.40    1.00
   2  -5   4    3.90    3.30
   2  -5   4    4.00    2.40
  -3   5  -4  158.88    7.70
  -3   5  -4  156.28    7.20
  -3   5  -4  156.68    8.90
   3  -5   4  153.58    4.30
   3  -5   4  145.79    7.00
   3  -5   4  147.29    8.00
   3  -5   4  143.99    4.20
   3  -5   4  134.49    7.90
   3  -5   4  153.58    4.30
   3  -5   4  143.99    4.20
  -4   5  -4    5.50    3.70
  -4   5  -4    8.60    3.10
   4  -5   4    7.40    6.10
   4  -5   4    8.90    1.60
   4  -5   4    7.80    1.40
   4  -5   4   15.60    3.70
   4  -5   4   15.10    3.30
   4  -5   4    8.90    1.60
   4  -5   4    7.80    1.40
  -5   5  -4  156.88   10.60
  -5   5  -4  174.28    9.30
   5  -5   4  172.58    8.30
   5  -5   4  168.88    9.50
   5  -5   4  179.38   10.80
  -6   5  -4   11.20    4.30
  -6   5  -4   15.90    5.00
  -6   5  -4   18.30    6.40
   6  -5   4   18.40    6.00
   6  -5   4   11.20    4.90
  -7   5  -4  133.19   12.30
  -7   5  -4  133.39   12.90
   7  -5   4  131.19   13.70
   7  -5   4  137.29   11.90
   9   5  -5   40.90    7.70
   9   5  -5   41.60    5.80
   9   5  -5   41.60    5.80
  -9  -5   5   41.80    6.70
  -9  -5   5   42.10    7.50
   8   5  -5   13.40    3.80
   8   5  -5    6.80    4.30
   8   5  -5   15.30    5.50
   8   5  -5   13.40    3.80
  -8  -5   5   22.10    5.80
  -8  -5   5   16.00    5.10
   7   5  -5   20.90    3.90
   7   5  -5   24.30    3.10
   7   5  -5   31.50    5.20
   7   5  -5   24.30    3.10
  -7  -5   5   26.90    4.80
  -7  -5   5   34.40    4.90
   6   5  -5  117.89    5.90
   6   5  -5  131.79    8.20
   6   5  -5  125.69    5.90
   6   5  -5  117.89    5.90
  -6  -5   5  128.49    7.20
  -6  -5   5  133.99    6.10
  -6  -5   5  128.89   12.90
   5   5  -5   60.09    5.60
   5   5  -5   56.29    4.00
   5   5  -5   56.29    4.00
   5   5  -5   57.69    3.50
  -5  -5   5   59.09    4.70
  -5  -5   5   54.59    3.40
  -5  -5   5   56.09    5.80
   4   5  -5  868.61   23.90
   4   5  -5  847.32   21.70
   4   5  -5  863.51   20.20
   4   5  -5  847.32   21.70
  -4  -5   5  868.11   20.10
  -4  -5   5  821.42   22.60
  -4  -5   5  872.71   24.50
   3   5  -5   95.79    6.80
   3   5  -5   83.39    4.00
   3   5  -5   83.09    3.00
   3   5  -5   83.39    4.00
   3   5  -5   83.79    5.30
  -3  -5   5   88.69    4.40
  -3  -5   5   89.49    5.20
  -3  -5   5   88.69    4.40
  -3  -5   5   83.09    3.30
  -3  -5   5   81.99    5.80
   2   5  -5  114.59    4.30
   2   5  -5  110.79    6.00
   2   5  -5  121.29    5.90
   2   5  -5  111.69    4.50
   2   5  -5  114.59    4.30
  -2  -5   5  107.99    4.70
  -2  -5   5  113.79    6.30
  -2  -5   5  113.79    4.50
  -2  -5   5  113.79    4.50
   1   5  -5  275.97    9.80
   1   5  -5  271.57    9.60
   1   5  -5  267.17    7.50
   1   5  -5  259.77    8.60
   1   5  -5  262.17    9.20
   1   5  -5  267.17    7.50
  -1  -5   5  270.67    7.70
  -1  -5   5  268.87    9.20
  -1  -5   5  268.07    8.80
  -1  -5   5  256.57    9.60
  -1  -5   5  270.67    7.70
   0   5  -5  230.88    6.40
   0   5  -5  212.88    9.00
   0   5  -5  230.88    6.40
   0   5  -5  237.28    8.30
   0   5  -5  219.98    8.40
   0   5  -5  194.68    8.00
   0   5  -5  223.58    8.60
   0  -5   5  223.08    6.80
   0  -5   5  235.98    6.60
   0  -5   5  214.28    8.60
   0  -5   5  235.98    6.60
   0  -5   5  230.18    8.50
   0  -5   5  234.38    8.40
  -1   5  -5  142.19    5.60
  -1   5  -5  137.29    6.30
  -1   5  -5  140.59    4.30
  -1   5  -5  140.59    4.30
  -1   5  -5  137.49    6.80
  -1   5  -5  126.99    7.90
   1  -5   5  137.09    6.90
   1  -5   5  129.59    4.40
   1  -5   5  137.99    6.80
   1  -5   5  129.59    4.40
   1  -5   5  137.09    5.50
  -2   5  -5  108.79    3.90
  -2   5  -5  108.29    6.20
  -2   5  -5   94.19    5.80
  -2   5  -5  108.79    3.90
  -2   5  -5  109.79    6.40
   2  -5   5  105.49    6.90
   2  -5   5  108.29    3.90
   2  -5   5  109.89    5.70
   2  -5   5  108.29    3.90
  -3   5  -5  114.59    4.30
  -3   5  -5  114.59    4.30
  -3   5  -5  117.29    7.50
  -3   5  -5  115.89    6.80
   3  -5   5  101.19    7.10
   3  -5   5  113.09    4.00
   3  -5   5  113.09    4.00
   3  -5   5  108.99    7.70
   3  -5   5  111.49    6.60
  -4   5  -5   76.19    6.50
  -4   5  -5   84.39    8.10
   4  -5   5   69.29    6.60
   4  -5   5   74.89    3.50
   4  -5   5   88.89   11.00
   4  -5   5   87.69    8.00
   4  -5   5   74.89    3.50
  -5   5  -5    2.20    5.50
  -5   5  -5   14.00    4.50
   5  -5   5    9.10    4.30
   5  -5   5    5.90    5.10
   5  -5   5    7.90    4.60
  -6   5  -5   38.00    7.90
  -6   5  -5   35.60    6.60
   6  -5   5   40.00    6.70
   6  -5   5   41.90    8.40
   9   5  -6   33.70    7.60
  -9  -5   6   27.10    6.40
  -9  -5   6   32.60    8.40
   8   5  -6   64.69    6.20
   8   5  -6   64.79    6.20
   8   5  -6   65.79    7.60
  -8  -5   6   56.29    6.60
  -8  -5   6   59.29    7.70
   7   5  -6   11.70    3.10
   7   5  -6    7.50    4.70
   7   5  -6    6.60    3.30
   7   5  -6   11.70    3.10
  -7  -5   6    7.60    3.90
  -7  -5   6   13.60    5.10
   6   5  -6   63.59    4.80
   6   5  -6   69.39    4.70
   6   5  -6   60.09    7.10
   6   5  -6   63.59    4.80
  -6  -5   6   72.29    4.50
  -6  -5   6   60.79    7.30
  -6  -5   6   67.29    6.00
   5   5  -6  669.83   20.40
   5   5  -6  668.53   18.10
   5   5  -6  668.53   18.10
   5   5  -6  680.63   16.60
  -5  -5   6  646.04   19.10
  -5  -5   6  700.93   21.30
  -5  -5   6  676.33   16.40
   4   5  -6   20.30    2.50
   4   5  -6   23.40    3.60
   4   5  -6   20.30    2.50
  -4  -5   6   18.80    3.60
  -4  -5   6   18.70    3.80
   3   5  -6  350.26   10.00
   3   5  -6  364.06   12.20
   3   5  -6  350.26   10.00
   3   5  -6  346.97    9.40
  -3  -5   6  356.66    9.80
  -3  -5   6  322.07   10.30
  -3  -5   6  357.16   11.60
  -3  -5   6  322.07   10.30
  -3  -5   6  360.06   12.80
   2   5  -6  198.58    6.40
   2   5  -6  198.58    6.40
   2   5  -6  200.98    8.20
   2   5  -6  200.38    9.40
   2   5  -6  197.88    6.70
  -2  -5   6  192.68    7.10
  -2  -5   6  197.28    9.00
  -2  -5   6  188.18    6.70
  -2  -5   6  203.68    8.20
  -2  -5   6  188.18    6.70
   1   5  -6   41.30    2.80
   1   5  -6   31.10    3.40
   1   5  -6   41.30    2.80
   1   5  -6   27.80    3.60
   1   5  -6   34.60    4.10
   1   5  -6   37.30    4.50
  -1  -5   6   37.30    1.90
  -1  -5   6   39.90    3.20
  -1  -5   6   39.90    3.20
  -1  -5   6   32.20    1.90
  -1  -5   6   34.80    3.80
  -1  -5   6   31.10    3.40
   0   5  -6  162.38    5.10
   0   5  -6  142.79    7.40
   0   5  -6  147.19    7.20
   0   5  -6  150.78    5.30
   0   5  -6  136.19    8.00
   0   5  -6  162.38    5.10
   0   5  -6  145.69    6.90
   0  -5   6  150.48    5.40
   0  -5   6  150.48    5.30
   0  -5   6  164.58    7.40
   0  -5   6  150.48    5.30
   0  -5   6  153.18    7.40
  -1   5  -6  759.92   18.70
  -1   5  -6  762.62   19.80
  -1   5  -6  730.63   21.20
  -1   5  -6  753.32   21.30
  -1   5  -6  760.02   18.70
   1  -5   6  756.92   19.90
   1  -5   6  758.92   18.70
   1  -5   6  775.42   21.90
   1  -5   6  758.92   18.70
   1  -5   6  784.42   21.10
  -2   5  -6   92.89    6.40
  -2   5  -6   91.39    4.10
  -2   5  -6   91.39    4.10
  -2   5  -6   97.49    6.30
  -2   5  -6   77.39    6.10
   2  -5   6   85.59    4.10
   2  -5   6   85.79    6.70
   2  -5   6   85.59    4.10
   2  -5   6   91.89    5.80
   2  -5   6   87.79    6.90
  -3   5  -6   25.00    4.60
  -3   5  -6   21.80    2.50
  -3   5  -6   21.80    2.50
   3  -5   6   24.80    3.90
   3  -5   6   26.10    4.80
   3  -5   6   20.80    4.50
  -4   5  -6   32.80    6.10
  -4   5  -6   32.50    5.30
   4  -5   6   37.20    5.50
   4  -5   6   32.70    5.00
   4  -5   6   44.60    6.70
  -5   5  -6    0.90    5.20
  -5   5  -6   -1.20    6.30
   5  -5   6   -2.10    7.00
   5  -5   6    0.90    4.70
  -6   5  -6   74.19    9.50
  -6   5  -6   70.19   10.00
   6  -5   6   74.79    8.70
   9   5  -7   47.70    8.40
   8   5  -7  104.89   10.10
   8   5  -7   65.99    5.80
   8   5  -7   65.99    5.80
  -8  -5   7   77.79    8.30
  -8  -5   7   91.79   11.30
   7   5  -7    9.10    5.00
   7   5  -7   12.10    3.10
   7   5  -7   12.10    3.10
  -7  -5   7   17.70    4.60
  -7  -5   7   13.90    5.70
   6   5  -7   82.89    5.50
   6   5  -7   91.49    7.50
   6   5  -7   82.89    5.50
  -6  -5   7   90.49    8.90
  -6  -5   7   75.29    6.60
   5   5  -7    1.00    2.10
   5   5  -7    2.20    3.20
   5   5  -7    1.00    2.10
  -5  -5   7    4.00    4.00
  -5  -5   7   -1.20    2.80
   4   5  -7   62.89    4.20
   4   5  -7   54.89    3.30
   4   5  -7   62.89    4.20
   4   5  -7   61.09    5.90
  -4  -5   7   58.39    5.60
  -4  -5   7   66.79    6.70
  -4  -5   7   60.49    3.30
   3   5  -7  137.19    7.30
   3   5  -7  138.89    5.70
   3   5  -7  141.89    5.80
   3   5  -7  138.89    5.70
  -3  -5   7  143.79    7.30
  -3  -5   7  140.29    8.10
  -3  -5   7  142.19    5.90
   2   5  -7  608.34   15.50
   2   5  -7  608.34   15.50
   2   5  -7  601.44   16.20
   2   5  -7  594.14   17.90
   2   5  -7  606.34   17.80
  -2  -5   7  537.35   15.70
  -2  -5   7  579.34   16.40
  -2  -5   7  591.04   17.40
  -2  -5   7  617.14   18.70
  -2  -5   7  537.35   15.70
   1   5  -7   21.60    2.30
   1   5  -7   21.80    4.00
   1   5  -7   21.60    2.30
   1   5  -7   15.40    3.20
   1   5  -7   14.70    2.90
  -1  -5   7   19.60    3.40
  -1  -5   7   22.10    3.80
  -1  -5   7   21.90    2.50
  -1  -5   7   17.50    2.60
  -1  -5   7   17.50    2.60
  -1  -5   7   17.00    2.20
   0   5  -7  102.09    4.40
   0   5  -7  102.49    4.90
   0   5  -7   90.79    6.10
   0   5  -7  102.09    4.40
   0   5  -7   95.29    6.50
   0  -5   7   98.09    4.60
   0  -5   7  100.19    6.90
   0  -5   7  102.49    4.90
   0  -5   7  101.59    6.70
   0  -5   7  102.49    4.90
  -1   5  -7   64.29    3.70
  -1   5  -7   47.80    5.20
  -1   5  -7   55.79    5.80
  -1   5  -7   64.29    3.70
  -1   5  -7   54.69    5.70
   1  -5   7   57.99    4.30
   1  -5   7   57.99    4.30
   1  -5   7   60.69    5.60
   1  -5   7   58.59    4.70
   1  -5   7   67.69    6.30
  -2   5  -7  169.18    6.20
  -2   5  -7  159.38    8.50
  -2   5  -7  169.18    6.20
  -2   5  -7  148.99    8.70
   2  -5   7  161.98    7.90
   2  -5   7  156.28    9.50
   2  -5   7  165.78    7.10
   2  -5   7  159.98    8.70
   2  -5   7  165.78    7.10
  -3   5  -7   86.29    5.20
  -3   5  -7   87.69    9.70
  -3   5  -7   86.89    7.80
  -3   5  -7   86.39    5.20
   3  -5   7   77.09    7.90
   3  -5   7   91.09    7.30
   3  -5   7   93.59    8.60
  -4   5  -7   10.00    5.90
  -4   5  -7   10.60    5.20
   4  -5   7   12.40    5.20
   4  -5   7   12.80    4.70
   4  -5   7   15.30    5.80
  -5   5  -7   42.30    7.70
  -5   5  -7   48.80    9.30
   5  -5   7   45.90    7.00
   5  -5   7   54.09    8.30
   8   5  -8   47.90    5.60
   8   5  -8   56.39    7.60
   8   5  -8   47.90    5.60
  -8  -5   8   42.50    6.20
  -8  -5   8   63.09    9.10
   7   5  -8    9.10    5.40
   7   5  -8   17.30    3.70
   7   5  -8   17.40    3.70
  -7  -5   8   14.60    4.90
  -7  -5   8   17.70    6.70
   6   5  -8   31.50    5.50
   6   5  -8   30.50    3.70
   6   5  -8   30.50    3.70
  -6  -5   8   27.80    5.10
  -6  -5   8   38.00    6.50
   5   5  -8    0.10    2.40
   5   5  -8    1.30    3.50
   5   5  -8    0.10    2.40
  -5  -5   8    7.40    3.60
  -5  -5   8   -0.80    4.20
   4   5  -8  230.88    7.80
  -4  -5   8  237.48   11.30
  -4  -5   8  233.58    7.70
  -4  -5   8  230.18   10.00
   3   5  -8   14.80    3.10
   3   5  -8   17.20    2.70
   3   5  -8   14.70    3.40
   3   5  -8   17.20    2.70
  -3  -5   8   14.40    4.30
  -3  -5   8   18.20    3.10
  -3  -5   8   16.00    3.60
   2   5  -8  192.88    8.60
   2   5  -8  195.18    7.10
   2   5  -8  195.18    7.10
   2   5  -8  185.68    9.40
   2   5  -8  192.78    8.90
  -2  -5   8  197.88    8.40
  -2  -5   8  203.38    9.10
   1   5  -8   46.40    3.90
   1   5  -8   46.40    3.90
   1   5  -8   48.80    5.80
  -1  -5   8   48.80    5.60
  -1  -5   8   38.90    3.30
  -1  -5   8   43.00    5.10
  -1  -5   8   46.10    3.60
   0   5  -8  245.68    8.90
   0   5  -8  254.57    8.20
   0   5  -8  244.88   10.50
   0   5  -8  257.97   10.50
   0   5  -8  254.57    8.20
   0  -5   8  241.48   10.80
   0  -5   8  259.27   10.80
   0  -5   8  241.98    8.70
   0  -5   8  257.07    8.40
   0  -5   8  241.98    8.70
  -1   5  -8  414.36   12.10
  -1   5  -8  437.46   15.30
  -1   5  -8  414.36   12.10
  -1   5  -8  415.96   14.60
   1  -5   8  416.56   13.20
   1  -5   8  459.65   14.40
   1  -5   8  398.46   15.20
   1  -5   8  411.46   14.70
   1  -5   8  459.65   14.40
  -2   5  -8    7.90    2.90
  -2   5  -8    7.80    4.30
  -2   5  -8    1.60    3.90
  -2   5  -8    7.90    2.90
   2  -5   8    8.20    3.80
   2  -5   8    5.80    4.90
   2  -5   8    2.50    4.60
  -3   5  -8  144.89   10.30
  -3   5  -8  145.69   11.40
   3  -5   8  165.08   11.30
   3  -5   8  137.79   10.30
   3  -5   8  160.08    9.70
  -4   5  -8   41.40    8.70
  -4   5  -8   47.70    7.60
   4  -5   8   56.59    7.20
   4  -5   8   71.59    8.70
   8   5  -9   71.19    8.40
  -8  -5   9   53.49    7.20
  -8  -5   9   68.39   10.20
   7   5  -9   16.70    5.80
   7   5  -9   22.00    4.40
   7   5  -9   22.00    4.40
  -7  -5   9    9.50    5.10
  -7  -5   9   19.20    7.30
   6   5  -9   20.80    3.60
   6   5  -9   20.80    3.60
   6   5  -9   19.60    5.10
  -6  -5   9   20.40    4.60
  -6  -5   9   31.90    6.50
   5   5  -9   23.20    3.90
   5   5  -9   25.30    4.70
   5   5  -9   23.20    3.90
  -5  -5   9   15.80    4.50
  -5  -5   9   26.20    5.60
   4   5  -9   65.49    5.30
   4   5  -9   65.49    5.30
   4   5  -9   70.69    6.80
  -4  -5   9   82.79   11.30
  -4  -5   9   75.29    6.90
  -4  -5   9   65.79    5.40
   3   5  -9  120.09    6.30
   3   5  -9  120.09    6.30
   3   5  -9  133.29    8.90
   3   5  -9  129.29    7.90
  -3  -5   9  117.19    7.90
  -3  -5   9  107.09    6.90
  -3  -5   9  129.19    9.00
   2   5  -9    6.50    4.30
   2   5  -9   12.10    2.70
   2   5  -9    7.90    3.20
   2   5  -9   12.10    2.70
  -2  -5   9    9.50    3.70
  -2  -5   9    9.50    4.30
   1   5  -9   59.09    6.40
   1   5  -9   64.29    5.00
   1   5  -9   54.69    6.70
   1   5  -9   64.29    5.00
  -1  -5   9   65.69    6.80
  -1  -5   9   46.00    3.70
  -1  -5   9   61.09    6.30
   0   5  -9   56.89    6.90
   0   5  -9   51.19    4.80
   0   5  -9   59.59    7.20
   0   5  -9   51.19    4.80
   0  -5   9   54.59    5.00
   0  -5   9   50.09    6.20
   0  -5   9   41.40    6.00
  -1   5  -9   52.59    4.40
  -1   5  -9   52.59    4.40
  -1   5  -9   46.30    5.70
  -1   5  -9   47.80    6.10
   1  -5   9   48.80    6.20
   1  -5   9   54.49    6.60
   1  -5   9   41.80    6.00
  -2   5  -9  161.08   10.90
  -2   5  -9  178.28   10.90
   2  -5   9  165.28   12.00
   2  -5   9  163.68   11.20
  -3   5  -9    4.40    7.30
  -3   5  -9   -6.60    6.10
   3  -5   9    6.00    6.50
   3  -5   9   13.20    5.70
   7   5 -10    8.20    5.80
   7   5 -10    6.80    4.70
   7   5 -10    6.80    4.70
  -7  -5  10    1.40    7.80
  -7  -5  10   15.30    4.90
   6   5 -10   10.30    4.10
   6   5 -10   10.30    4.10
   6   5 -10   11.20    5.20
  -6  -5  10   17.50    7.30
  -6  -5  10    9.80    4.50
   5   5 -10   13.10    5.10
   5   5 -10   22.20    4.30
   5   5 -10   22.20    4.30
  -5  -5  10   10.70    6.10
  -5  -5  10   14.60    4.20
   4   5 -10   85.89    8.20
   4   5 -10   79.29    6.50
   4   5 -10   79.29    6.50
  -4  -5  10   61.69    6.40
  -4  -5  10   88.29    9.90
   3   5 -10  123.59    7.20
   3   5 -10  140.49    8.80
   3   5 -10  123.59    7.20
  -3  -5  10  121.59    8.40
  -3  -5  10  121.99    8.70
   2   5 -10   67.99    7.90
   2   5 -10   66.39    5.80
   2   5 -10   56.69    7.30
   2   5 -10   66.39    5.80
  -2  -5  10   65.09    6.90
  -2  -5  10   74.89    7.60
   1   5 -10   54.89    4.60
   1   5 -10   55.29    6.50
   1   5 -10   59.79    6.60
   1   5 -10   54.89    4.60
  -1  -5  10   55.29    6.50
  -1  -5  10   51.89    6.70
   0   5 -10   72.89    8.40
   0   5 -10   55.69    4.90
   0   5 -10   52.99    6.70
   0   5 -10   55.69    4.90
   0  -5  10   53.29    7.10
   0  -5  10   53.49    7.20
  -1   5 -10   36.60    6.30
  -1   5 -10   40.20    6.70
   1  -5  10   44.60    7.10
   1  -5  10   51.99    7.60
  -2   5 -10    2.50    6.00
   2  -5  10    1.50    6.70
   2  -5  10   -1.40    6.90
   6   5 -11   55.69    6.10
   6   5 -11   55.69    6.10
   6   5 -11   56.39    7.60
  -6  -5  11   52.99    7.30
  -6  -5  11   62.99    9.50
   5   5 -11   51.19    5.50
   5   5 -11   51.19    5.50
   5   5 -11   48.20    6.50
  -5  -5  11   32.80    6.90
  -5  -5  11   45.00    8.60
   4   5 -11  120.79   11.40
   4   5 -11   77.09    7.80
   4   5 -11  103.29    9.50
   4   5 -11   77.09    7.80
  -4  -5  11   99.39    9.20
   3   5 -11   12.20    4.00
   3   5 -11    3.70    4.40
   3   5 -11   -3.00    5.70
   3   5 -11   12.20    4.00
  -3  -5  11   -4.40    4.90
  -3  -5  11    0.60    4.90
   2   5 -11   95.59   10.00
   2   5 -11  111.69    7.80
   2   5 -11  120.39    9.80
   2   5 -11  111.79    7.80
  -2  -5  11  101.89   10.30
  -2  -5  11  115.39   10.10
   1   5 -11   20.40    4.30
   1   5 -11   20.40    4.30
   1   5 -11   10.90    5.40
   1   5 -11    8.20    5.70
  -1  -5  11   12.40    6.00
  -1  -5  11    5.30    5.90
   0   5 -11    4.90    5.70
   0   5 -11    8.00    4.50
   0   5 -11    8.00    4.50
   0  -5  11    1.50    6.20
   0  -5  11   -1.40    6.40
   1  -5  11   28.50    8.10
   5   5 -12   17.20    6.70
  -5  -5  12   12.10    9.10
   4   5 -12   14.20    5.30
   4   5 -12    5.80    5.80
   4   5 -12   11.30    7.90
   4   5 -12   14.20    5.30
  -4  -5  12    1.90    5.30
   3   5 -12  127.09   10.00
   3   5 -12  127.09   10.00
   3   5 -12  122.29   11.00
   2   5 -12   39.80    6.10
   2   5 -12   39.80    6.10
  -2  -5  12   60.79    8.00
  -2  -5  12   46.50    8.10
   0   6  11  127.29   15.10
   0   6  11   97.79   11.20
   0  -6 -11  106.99   12.80
  -1   6  11  140.19   11.40
  -1   6  11  134.79   11.20
   1  -6 -11  158.88   10.10
   1  -6 -11  158.88   10.10
   1  -6 -11  144.99   12.40
  -2   6  11   42.70    5.80
  -2   6  11   25.00    5.90
  -2   6  11   38.10    6.40
   2  -6 -11   34.90    5.40
   2  -6 -11   34.90    5.40
   2  -6 -11   25.50    6.50
  -3   6  11   -9.20    4.90
  -3   6  11    0.10    5.30
  -3   6  11    2.80    4.50
   3  -6 -11   -1.00    5.00
   3  -6 -11    4.30    4.20
   3  -6 -11    4.30    4.20
  -4   6  11    2.20    5.90
  -4   6  11    0.60    4.20
  -4   6  11    6.70    5.40
   4  -6 -11   -5.40    4.10
   4  -6 -11   -5.40    4.10
  -5   6  11   18.40    5.40
  -5   6  11   32.50    7.50
  -5   6  11    8.70    6.30
   5  -6 -11    3.30    5.00
   5  -6 -11    3.30    5.00
  -6   6  11    6.90    4.60
  -6   6  11    6.80    6.50
   6  -6 -11   -5.50    7.50
   6  -6 -11    4.50    7.00
   6  -6 -11   -5.50    7.50
  -2  -6 -10   14.10    7.70
   1   6  10   42.90    7.40
   1   6  10   39.70    6.60
  -1  -6 -10   46.00    7.50
  -1  -6 -10   38.60    5.80
  -1  -6 -10   38.60    5.80
   0   6  10  104.09    9.10
   0   6  10  101.39    9.90
   0  -6 -10   93.49    8.30
   0  -6 -10  131.99   10.70
   0  -6 -10   93.49    8.30
  -1   6  10   52.19    6.50
  -1   6  10   52.69    6.50
  -1   6  10   37.00    5.60
   1  -6 -10   55.09    6.70
   1  -6 -10   47.20    5.40
   1  -6 -10   47.10    5.40
  -2   6  10   44.20    6.00
  -2   6  10   56.79    6.40
  -2   6  10   53.99    5.30
   2  -6 -10   54.99    6.20
   2  -6 -10   53.79    5.30
   2  -6 -10   53.79    5.30
  -3   6  10  104.39    9.50
  -3   6  10   93.59    7.40
  -3   6  10  109.39    8.70
   3  -6 -10  106.09    8.20
   3  -6 -10   87.09    7.10
   3  -6 -10   87.09    7.10
  -4   6  10    0.60    4.60
  -4   6  10    6.00    5.20
  -4   6  10    3.10    3.80
   4  -6 -10    4.60    5.50
   4  -6 -10    8.70    4.00
   4  -6 -10    8.70    4.00
  -5   6  10  161.48   10.60
  -5   6  10  115.89    8.10
   5  -6 -10  131.69   10.40
   5  -6 -10  125.89    8.70
   5  -6 -10  125.89    8.70
  -6   6  10  203.78   10.30
  -6   6  10  223.48   12.80
   6  -6 -10  220.28   10.80
   6  -6 -10  212.98   13.50
   6  -6 -10  220.28   10.80
  -7   6  10   15.10    6.80
  -7   6  10    5.20    4.30
   7  -6 -10   -4.40    6.70
   7  -6 -10   -5.10    4.90
   7  -6 -10   -5.10    4.90
   3   6   9   39.60    8.20
  -3  -6  -9   48.20    8.80
   2   6   9    4.60    4.90
   2   6   9    7.20    4.70
  -2  -6  -9    3.60    5.90
  -2  -6  -9    2.20    4.90
  -2  -6  -9    2.20    4.90
   1   6   9   86.39    8.60
   1   6   9   86.79    8.40
  -1  -6  -9   83.29    7.80
  -1  -6  -9   95.09    9.80
  -1  -6  -9   83.29    7.80
   0   6   9  111.19    8.40
   0   6   9  122.29    8.90
   0  -6  -9  131.99    7.50
   0  -6  -9  128.89    9.30
   0  -6  -9  131.99    7.50
  -1   6   9  113.39    8.10
  -1   6   9  110.09    6.90
  -1   6   9  124.79    8.20
   1  -6  -9  125.79    7.20
   1  -6  -9  125.79    7.20
   1  -6  -9  119.39    8.50
  -2   6   9   93.59    6.40
  -2   6   9  105.79    7.90
  -2   6   9   86.19    7.20
   2  -6  -9   77.59    7.10
   2  -6  -9  111.89    6.50
   2  -6  -9  111.89    6.50
  -3   6   9   17.00    3.80
  -3   6   9   17.30    4.50
  -3   6   9    6.10    3.90
   3  -6  -9   16.40    3.60
   3  -6  -9   14.40    3.50
   3  -6  -9   14.40    3.50
  -4   6   9   23.30    4.90
  -4   6   9   21.10    4.00
   4  -6  -9   24.30    4.20
   4  -6  -9   20.70    4.60
   4  -6  -9   24.30    4.20
   4  -6  -9   22.80    3.50
  -5   6   9  194.68   10.60
  -5   6   9  197.08    8.80
  -5   6   9  181.08    8.90
   5  -6  -9  208.08    9.30
   5  -6  -9  207.88    9.30
   5  -6  -9  185.68   11.10
  -6   6   9   73.29    6.90
  -6   6   9   87.69    8.80
  -6   6   9   68.89    6.40
   6  -6  -9   79.59    7.00
   6  -6  -9   79.59    7.00
   6  -6  -9   82.69    9.60
  -7   6   9    9.20    5.80
  -7   6   9    2.50    6.60
  -7   6   9    0.90    5.70
   7  -6  -9    6.00    4.10
   7  -6  -9    4.20    5.80
   7  -6  -9    6.00    4.20
  -8   6   9   11.40    7.20
  -8   6   9   12.50    4.60
  -8   6   9   12.30    6.90
   8  -6  -9    7.70    5.10
   8  -6  -9   19.50    7.70
   8  -6  -9    7.70    5.10
   4   6   8   14.20    7.70
  -4  -6  -8   28.10    6.80
  -4  -6  -8   28.10    6.80
  -4  -6  -8   22.90    7.90
   3   6   8   26.80    6.60
   3   6   8   25.90    5.90
  -3  -6  -8   35.30    6.80
  -3  -6  -8   28.40    5.10
  -3  -6  -8   28.40    5.10
   2   6   8   37.50    5.70
   2   6   8   41.70    5.60
  -2  -6  -8   38.90    4.80
  -2  -6  -8   38.90    4.80
  -2  -6  -8   35.50    6.00
   1   6   8   69.49    7.00
   1   6   8   69.19    7.00
  -1  -6  -8   83.79    6.50
  -1  -6  -8   83.79    6.50
  -1  -6  -8   76.89    7.70
   0   6   8   96.59    7.20
   0   6   8  103.49    5.90
   0   6   8  102.49    7.30
   0  -6  -8  106.79    7.60
   0  -6  -8  109.79    6.40
   0  -6  -8  109.79    6.40
  -1   6   8  152.58    9.60
  -1   6   8  180.18    9.00
  -1   6   8  173.48    8.70
   1  -6  -8  182.68    7.70
   1  -6  -8  180.78    8.70
   1  -6  -8  182.68    7.70
  -2   6   8   72.19    5.40
  -2   6   8   58.69    7.60
  -2   6   8   70.99    7.80
   2  -6  -8   70.69    5.20
   2  -6  -8   70.69    5.20
   2  -6  -8   67.09    5.60
  -3   6   8    1.90    2.80
  -3   6   8    1.30    3.20
  -3   6   8    4.50    4.50
  -3   6   8    3.30    2.00
   3  -6  -8    5.40    2.60
   3  -6  -8    3.70    2.40
   3  -6  -8    3.10    3.90
   3  -6  -8    5.40    2.60
  -4   6   8   19.80    3.20
  -4   6   8   20.60    6.80
  -4   6   8   25.90    3.90
   4  -6  -8   20.20    4.10
   4  -6  -8   24.50    3.50
   4  -6  -8   22.90    2.90
   4  -6  -8   24.50    3.50
  -5   6   8   20.50    5.00
  -5   6   8   27.10    4.20
  -5   6   8   30.60    4.30
   5  -6  -8   27.30    4.80
   5  -6  -8   25.00    3.80
   5  -6  -8   25.00    3.80
  -6   6   8  128.39    8.80
  -6   6   8  127.19    7.60
  -6   6   8  120.29    8.70
   6  -6  -8  121.29    7.10
   6  -6  -8  116.79    9.30
   6  -6  -8  121.29    7.10
  -7   6   8    4.60    3.80
  -7   6   8    1.20    4.90
  -7   6   8   10.50    5.20
   7  -6  -8    3.00    3.70
   7  -6  -8    3.00    3.70
   7  -6  -8    2.70    5.50
  -8   6   8    6.70    6.20
  -8   6   8    4.90    4.10
  -8   6   8   10.90    6.90
   8  -6  -8   12.70    4.60
   8  -6  -8    1.00    6.50
   8  -6  -8   12.70    4.60
   5   6   7    8.20    7.80
   4   6   7    7.80    6.20
   4   6   7    5.80    4.90
  -4  -6  -7   16.70    5.10
  -4  -6  -7   23.50    6.20
  -4  -6  -7   16.70    5.10
   3   6   7  104.09    8.70
   3   6   7   94.49    7.90
  -3  -6  -7  115.19    7.70
  -3  -6  -7  115.29    7.70
  -3  -6  -7  101.89    9.70
   2   6   7    7.60    3.70
   2   6   7    1.70    3.10
  -2  -6  -7    4.30    3.80
  -2  -6  -7    1.40    3.00
  -2  -6  -7    1.40    3.00
   1   6   7  290.97   11.50
   1   6   7  299.37   11.50
  -1  -6  -7  302.17   12.00
  -1  -6  -7  298.17   10.50
  -1  -6  -7  298.17   10.50
   0   6   7  383.06   10.80
   0   6   7  369.26   13.00
   0   6   7  371.86   13.50
   0  -6  -7  378.56   13.10
  -1   6   7  215.08    8.80
  -1   6   7  217.58    9.60
  -1   6   7  220.08    7.80
  -1   6   7  223.58    9.40
   1  -6  -7  224.88    8.20
   1  -6  -7  224.38    8.80
   1  -6  -7  224.88    8.20
  -2   6   7  317.07   11.90
  -2   6   7  315.17   11.50
  -2   6   7  326.27   10.40
  -2   6   7  317.87   10.10
   2  -6  -7  301.57   10.10
   2  -6  -7  315.87   11.50
   2  -6  -7  316.27   10.40
   2  -6  -7  301.57   10.10
  -3   6   7   58.79    3.90
  -3   6   7   61.09    5.60
  -3   6   7   61.39    4.80
  -3   6   7   55.89    4.50
   3  -6  -7   59.89    4.10
   3  -6  -7   61.49    4.90
   3  -6  -7   49.99    5.50
   3  -6  -7   63.49    4.70
   3  -6  -7   63.49    4.70
  -4   6   7   74.09    5.10
  -4   6   7   80.09    5.40
  -4   6   7   71.49    4.30
  -4   6   7   77.89    6.30
   4  -6  -7   76.29    3.90
   4  -6  -7   86.29    5.20
   4  -6  -7   79.39    6.60
   4  -6  -7   86.29    5.20
   4  -6  -7   62.39    6.40
  -5   6   7   37.50    4.30
  -5   6   7   31.60    4.10
  -5   6   7   31.50    4.80
   5  -6  -7   32.80    3.60
   5  -6  -7   32.80    3.60
   5  -6  -7   37.00    5.00
  -6   6   7   15.90    4.00
  -6   6   7   10.50    3.90
   6  -6  -7   14.00    4.30
   6  -6  -7   12.70    3.00
   6  -6  -7   12.70    3.00
  -7   6   7  112.89    9.10
  -7   6   7   96.39    9.10
  -7   6   7   79.49    7.10
   7  -6  -7   91.89    9.40
   7  -6  -7  102.39    6.80
   7  -6  -7  102.39    6.80
  -8   6   7  104.09   11.00
  -8   6   7  113.79   10.80
   8  -6  -7   76.39    7.50
   8  -6  -7   84.49   10.80
   8  -6  -7   76.39    7.50
   5   6   6   31.00    5.50
   5   6   6   31.00    5.50
   5   6   6   27.00    6.20
   5   6   6   27.80    7.40
  -5  -6  -6   42.10    7.20
   4   6   6    7.60    4.80
   4   6   6    2.60    4.00
  -4  -6  -6    6.50    4.00
  -4  -6  -6   17.80    5.20
  -4  -6  -6    6.50    4.00
   3   6   6   78.19    7.60
   3   6   6   73.29    6.60
  -3  -6  -6   70.49    6.20
  -3  -6  -6   82.39    7.80
  -3  -6  -6   70.49    6.20
   2   6   6    9.70    3.80
   2   6   6   14.90    3.30
  -2  -6  -6   20.00    4.10
  -2  -6  -6   17.00    3.20
  -2  -6  -6   17.00    3.20
   1   6   6   83.19    5.80
   1   6   6   69.19    5.60
   1   6   6   81.09    5.00
  -1  -6  -6   75.99    5.10
  -1  -6  -6   75.99    5.10
  -1  -6  -6   75.89    6.10
   0   6   6  304.07    9.10
   0   6   6  301.67   11.20
   0   6   6  316.17   11.70
   0   6   6  303.47   11.00
   0  -6  -6  306.87   10.80
   0  -6  -6  309.87    9.90
   0  -6  -6  309.87    9.90
  -1   6   6 1021.70   27.40
  -1   6   6 1049.20   25.40
  -1   6   6 1000.80   27.60
  -1   6   6  979.10   25.80
   1  -6  -6 1046.80   25.90
   1  -6  -6 1014.30   26.40
   1  -6  -6 1046.70   25.90
  -2   6   6  433.76   14.00
  -2   6   6  416.86   12.00
  -2   6   6  431.96   11.10
   2  -6  -6  452.05   12.40
   2  -6  -6  430.56   12.30
   2  -6  -6  430.56   12.30
   2  -6  -6  427.66   13.90
   2  -6  -6  430.26   11.50
  -3   6   6  176.78    7.20
  -3   6   6  175.78    8.00
  -3   6   6  166.88    6.30
  -3   6   6  177.68    5.90
   3  -6  -6  159.58    6.80
   3  -6  -6  175.58    6.60
   3  -6  -6  171.38    8.20
   3  -6  -6  175.58    6.60
   3  -6  -6  169.08    5.80
  -4   6   6  130.29    7.40
  -4   6   6  148.29    6.70
  -4   6   6  137.69    6.80
   4  -6  -6  144.69    5.80
   4  -6  -6  134.89    7.60
   4  -6  -6  145.49    7.70
   4  -6  -6  144.69    5.80
  -5   6   6  169.08    7.90
  -5   6   6  178.58    8.90
  -5   6   6  185.48    8.30
   5  -6  -6  180.08    6.80
   5  -6  -6  180.08    6.80
   5  -6  -6  181.08   10.10
  -6   6   6   74.69    6.00
  -6   6   6   66.89    7.10
  -6   6   6   77.19    7.00
   6  -6  -6   66.29    4.80
   6  -6  -6   66.29    4.80
   6  -6  -6   72.99    7.50
   6  -6  -6   80.69    7.40
  -7   6   6   87.29    6.90
  -7   6   6   93.59    8.80
   7  -6  -6   72.69    8.50
   7  -6  -6   84.09    9.00
  -8   6   6   22.50    6.50
  -8   6   6   24.30    5.00
   8  -6  -6   33.80    7.00
   8  -6  -6   25.50    4.10
   8  -6  -6   21.00    6.30
   8  -6  -6   25.50    4.10
  -9   6   6   24.40    5.40
  -9   6   6   24.70    7.60
   9  -6  -6   25.70    8.30
   6   6   5   -5.60    5.50
   6   6   5    1.80    5.00
   6   6   5    1.80    5.00
   6   6   5    2.40    7.20
  -6  -6  -5   -3.00    6.50
   5   6   5    1.70    5.90
   5   6   5   14.40    4.10
   5   6   5   14.40    4.10
  -5  -6  -5    9.20    5.00
   4   6   5   23.80    4.80
   4   6   5   15.20    3.90
  -4  -6  -5   25.70    5.40
  -4  -6  -5   25.70    4.20
  -4  -6  -5   29.10    3.70
  -4  -6  -5   25.70    4.20
   3   6   5   91.19    6.90
   3   6   5   88.49    5.30
   3   6   5   88.79    6.30
  -3  -6  -5   87.49    7.70
  -3  -6  -5   88.29    5.90
  -3  -6  -5   88.39    4.90
  -3  -6  -5   88.29    5.90
   2   6   5   86.39    3.70
   2   6   5   84.89    5.90
   2   6   5   83.99    5.80
  -2  -6  -5   78.99    5.10
  -2  -6  -5   87.69    3.80
  -2  -6  -5   78.99    5.10
  -2  -6  -5   94.09    6.40
   1   6   5   64.19    4.70
   1   6   5   53.39    3.50
   1   6   5   53.69    4.50
  -1  -6  -5   65.29    5.20
  -1  -6  -5   54.79    4.10
  -1  -6  -5   54.79    4.10
   0   6   5   47.00    4.20
   0   6   5   48.20    3.80
   0   6   5   43.70    4.00
   0   6   5   41.70    4.30
   0  -6  -5   43.60    3.40
   0  -6  -5   47.60    4.20
   0  -6  -5   43.60    3.40
  -1   6   5   24.20    3.10
  -1   6   5   26.30    2.60
  -1   6   5   35.60    3.60
  -1   6   5   32.30    2.20
  -1   6   5   35.80    4.10
  -1   6   5   26.30    2.60
  -1   6   5   32.90    2.30
   1  -6  -5   32.30    3.10
   1  -6  -5   32.30    3.10
   1  -6  -5   22.80    2.90
   1  -6  -5   34.30    3.30
  -2   6   5  224.68    7.40
  -2   6   5  239.98    7.10
  -2   6   5  247.78    8.20
  -2   6   5  224.68    7.40
  -2   6   5  231.88    8.10
  -2   6   5  250.67    9.30
   2  -6  -5  250.17    7.70
   2  -6  -5  250.17    7.70
   2  -6  -5  239.38    9.20
   2  -6  -5  239.08    7.60
  -3   6   5  271.67    8.70
  -3   6   5  296.37    9.40
  -3   6   5  308.97   10.70
  -3   6   5  298.97    9.70
  -3   6   5  271.67    8.70
  -3   6   5  289.07    7.60
   3  -6  -5  296.57    8.80
   3  -6  -5  296.57    8.80
   3  -6  -5  285.17    9.50
   3  -6  -5  292.77    7.70
   3  -6  -5  292.17   10.70
  -4   6   5  104.49    5.90
  -4   6   5   89.29    4.90
  -4   6   5   89.29    4.90
  -4   6   5  101.09    6.40
  -4   6   5  103.49    5.90
   4  -6  -5  110.59    6.60
   4  -6  -5  102.09    6.80
   4  -6  -5  107.49    6.60
   4  -6  -5  106.29    4.70
   4  -6  -5  106.29    4.70
  -5   6   5    3.50    2.80
  -5   6   5    3.50    2.80
  -5   6   5    1.80    3.00
  -5   6   5    1.80    2.80
   5  -6  -5    0.70    3.20
   5  -6  -5    6.50    3.20
   5  -6  -5    3.50    1.80
   5  -6  -5    3.50    1.80
  -6   6   5   28.30    4.60
  -6   6   5   16.80    3.50
   6  -6  -5   26.10    2.90
   6  -6  -5   24.30    4.20
   6  -6  -5   26.00    4.50
   6  -6  -5   26.10    2.90
  -7   6   5   32.30    4.80
  -7   6   5   32.10    5.30
   7  -6  -5   35.10    5.70
   7  -6  -5   26.20    3.40
   7  -6  -5   28.90    5.50
   7  -6  -5   26.20    3.40
  -8   6   5    2.20    5.70
  -8   6   5    4.40    3.80
   8  -6  -5    1.60    3.40
   8  -6  -5    1.60    3.40
   8  -6  -5   -1.30    5.60
   8  -6  -5    0.00    5.30
  -9   6   5   24.30    5.10
  -9   6   5   14.50    7.70
   9  -6  -5   15.60    7.90
   7   6   4   91.79   10.20
   6   6   4    9.50    4.30
   6   6   4   13.90    6.50
   6   6   4   -2.00    4.60
   6   6   4    9.50    4.30
  -6  -6  -4   14.10    6.50
  -6  -6  -4   24.70    5.30
   5   6   4   36.70    4.40
   5   6   4   36.70    4.40
   5   6   4   31.00    5.60
   5   6   4   21.70    4.60
  -5  -6  -4   40.70    4.80
  -5  -6  -4   29.60    5.50
   4   6   4  355.86   12.80
   4   6   4  344.47   12.60
   4   6   4  350.46   11.50
   4   6   4  365.26   13.30
   4   6   4  350.46   11.50
  -4  -6  -4  371.96   14.30
  -4  -6  -4  350.46   11.70
   3   6   4  213.68    8.60
   3   6   4  200.38    7.90
   3   6   4  194.68    8.50
  -3  -6  -4  193.78    7.90
  -3  -6  -4  193.78    7.90
  -3  -6  -4  201.28    7.40
  -3  -6  -4  200.08    9.50
   2   6   4  117.69    6.20
   2   6   4  123.99    6.40
   2   6   4  124.79    5.00
  -2  -6  -4  121.69    6.90
  -2  -6  -4  119.39    5.50
  -2  -6  -4  119.39    5.50
  -2  -6  -4  127.19    5.00
   1   6   4  162.98    5.00
   1   6   4  163.18    7.00
   1   6   4  158.58    7.00
   1   6   4  171.18    8.70
   1   6   4  156.28    6.80
   1   6   4  171.28    5.20
   1   6   4  163.78    5.30
  -1  -6  -4  162.88    6.20
  -1  -6  -4  162.98    7.10
  -1  -6  -4  162.88    6.20
   0   6   4   62.29    2.80
   0   6   4   65.99    4.10
   0   6   4   60.19    5.00
   0   6   4   75.49    4.60
   0   6   4   72.49    3.70
   0   6   4   59.49    4.80
   0   6   4   65.09    2.90
   0   6   4   72.89    4.50
   0  -6  -4   69.79    3.80
   0  -6  -4   67.29    4.30
   0  -6  -4   69.79    3.80
  -1   6   4    6.70    1.50
  -1   6   4    9.20    1.60
  -1   6   4    7.60    2.30
  -1   6   4    6.10    2.10
  -1   6   4   10.00    1.70
  -1   6   4    8.50    2.10
  -1   6   4    9.20    1.60
  -1   6   4    5.10    2.80
   1  -6  -4    7.30    1.70
   1  -6  -4    6.40    1.50
   1  -6  -4    6.40    1.50
   1  -6  -4    6.80    1.80
  -2   6   4  308.47    8.00
  -2   6   4  295.07   10.30
  -2   6   4  303.77    8.60
  -2   6   4  303.77    8.60
  -2   6   4  294.07   10.70
  -2   6   4  288.47   10.50
  -2   6   4  312.07    9.30
  -2   6   4  315.87    9.40
   2  -6  -4  312.17    9.40
   2  -6  -4  307.77    8.30
   2  -6  -4  312.07    8.80
   2  -6  -4  312.07    8.80
   2  -6  -4  295.57   10.30
  -3   6   4  288.47    9.50
  -3   6   4  265.77   10.30
  -3   6   4  298.47    8.40
  -3   6   4  298.47    8.40
  -3   6   4  298.77    9.80
  -3   6   4  281.87   10.90
   3  -6  -4  282.07    8.30
   3  -6  -4  301.87    9.70
   3  -6  -4  301.27   10.40
   3  -6  -4  289.07   10.40
   3  -6  -4  282.07    8.30
  -4   6   4  736.63   19.70
  -4   6   4  675.63   17.40
  -4   6   4  676.03   18.90
  -4   6   4  675.63   17.40
   4  -6  -4  717.43   20.30
   4  -6  -4  690.53   17.50
   4  -6  -4  665.03   19.50
   4  -6  -4  690.53   17.50
   4  -6  -4  720.13   20.10
  -5   6   4    9.80    3.50
  -5   6   4   14.30    3.30
  -5   6   4   15.80    2.40
  -5   6   4   15.80    2.40
   5  -6  -4   16.50    2.10
   5  -6  -4   12.80    3.40
   5  -6  -4   16.50    2.10
   5  -6  -4   14.40    3.60
  -6   6   4   85.09    7.00
  -6   6   4   85.39    5.60
  -6   6   4   91.29    6.30
  -6   6   4   85.39    5.60
   6  -6  -4   92.19    7.30
   6  -6  -4   81.89    4.50
   6  -6  -4   81.89    4.50
   6  -6  -4   94.59    7.50
  -7   6   4   16.70    4.80
  -7   6   4   19.30    4.30
   7  -6  -4   20.50    5.20
   7  -6  -4   14.20    4.50
   7  -6  -4   20.10    2.90
   7  -6  -4   20.10    2.80
  -8   6   4   38.40    5.30
  -8   6   4   42.50    6.80
   8  -6  -4   44.20    7.00
   8  -6  -4   41.50    4.00
   8  -6  -4   48.70    7.30
   8  -6  -4   41.40    4.00
  -9   6   4   73.19    7.70
  -9   6   4   70.89    9.70
   9  -6  -4   93.69   10.10
   7   6   3   76.49    8.60
   7   6   3   60.99    5.90
   7   6   3   60.99    5.90
   7   6   3   66.49    7.90
  -7  -6  -3   68.79    8.10
  -7  -6  -3   80.69    9.20
   6   6   3  182.18   13.70
   6   6   3  190.98   11.20
   6   6   3  209.88    9.60
   6   6   3  209.88    9.60
  -6  -6  -3  224.08   12.80
  -6  -6  -3  215.48   10.80
   5   6   3  127.89    8.70
   5   6   3  128.79    6.70
   5   6   3  128.79    6.70
   5   6   3  113.59    8.30
  -5  -6  -3  125.49    9.20
  -5  -6  -3  133.49    7.60
   4   6   3  338.57   12.10
   4   6   3  350.66   11.40
   4   6   3  365.26   12.70
   4   6   3  350.66   11.40
   4   6   3  369.76   12.00
  -4  -6  -3  353.86   11.60
  -4  -6  -3  335.67   13.40
   3   6   3   53.29    4.60
   3   6   3   54.59    4.60
   3   6   3   47.20    4.40
  -3  -6  -3   55.49    4.40
  -3  -6  -3   57.29    4.30
  -3  -6  -3   53.29    5.50
  -3  -6  -3   55.49    4.40
   2   6   3   88.09    4.90
   2   6   3   86.79    5.30
   2   6   3   99.69    5.20
   2   6   3   93.19    4.30
   2   6   3   98.99    5.00
   2   6   3   88.09    4.90
  -2  -6  -3   92.19    4.70
  -2  -6  -3   92.19    4.70
  -2  -6  -3   82.99    5.70
  -2  -6  -3   95.59    5.70
  -2  -6  -3   94.19    4.50
   1   6   3  274.97    9.10
   1   6   3  276.37    9.60
   1   6   3  264.57    9.10
   1   6   3  270.67    8.20
   1   6   3  270.67    8.20
   1   6   3  276.57    8.10
   1   6   3  275.97    9.30
   1   6   3  281.47    7.90
   1   6   3  262.37    9.40
  -1  -6  -3  280.17    9.40
  -1  -6  -3  282.87    9.60
  -1  -6  -3  286.27    8.50
  -1  -6  -3  286.27    8.50
  -1  -6  -3  273.37    7.80
   0   6   3    9.10    2.30
   0   6   3    8.50    2.00
   0   6   3    8.40    2.10
   0   6   3   10.80    1.80
   0   6   3    9.20    1.60
   0   6   3    9.30    1.60
   0   6   3    8.50    1.70
   0   6   3    9.30    1.60
   0  -6  -3    9.60    2.00
   0  -6  -3    9.20    1.90
   0  -6  -3   10.80    1.70
   0  -6  -3    7.80    1.80
   0  -6  -3   10.80    1.70
  -1   6   3   20.70    1.90
  -1   6   3   22.90    3.10
  -1   6   3   23.80    2.90
  -1   6   3   24.20    2.20
  -1   6   3   14.80    2.30
  -1   6   3   26.50    3.10
  -1   6   3   20.70    1.90
  -1   6   3   26.40    2.80
   1  -6  -3   22.10    2.20
   1  -6  -3   20.90    2.50
   1  -6  -3   22.60    2.30
   1  -6  -3   24.20    2.80
   1  -6  -3   22.10    2.20
   1  -6  -3   21.80    2.20
  -2   6   3   43.60    2.50
  -2   6   3   40.40    3.30
  -2   6   3   38.70    3.90
  -2   6   3   37.50    1.70
  -2   6   3   43.60    3.50
  -2   6   3   34.40    3.90
  -2   6   3   41.00    1.90
  -2   6   3   43.60    2.50
   2  -6  -3   41.70    2.50
   2  -6  -3   38.50    3.80
   2  -6  -3   40.40    3.70
   2  -6  -3   41.70    2.50
   2  -6  -3   38.30    3.60
  -3   6   3 1535.05   35.20
  -3   6   3 1413.36   37.70
  -3   6   3 1492.65   37.20
  -3   6   3 1535.15   35.20
  -3   6   3 1412.66   37.40
  -3   6   3 1468.15   36.90
   3  -6  -3 1543.75   37.90
   3  -6  -3 1512.35   37.00
   3  -6  -3 1528.45   35.30
   3  -6  -3 1500.65   37.70
   3  -6  -3 1528.45   35.30
  -4   6   3   27.60    2.60
  -4   6   3   36.70    4.40
  -4   6   3   27.60    2.60
  -4   6   3   33.00    3.70
   4  -6  -3   29.40    2.30
   4  -6  -3   21.80    3.20
   4  -6  -3   25.90    4.10
   4  -6  -3   29.40    2.30
   4  -6  -3   26.30    3.60
  -5   6   3  201.38    6.50
  -5   6   3  201.38    6.50
  -5   6   3  189.78    9.00
  -5   6   3  188.98    7.80
   5  -6  -3  192.68    6.20
   5  -6  -3  192.68    6.20
   5  -6  -3  189.68    9.10
   5  -6  -3  199.48    9.10
  -6   6   3   14.00    3.30
  -6   6   3   10.90    4.00
  -6   6   3   14.30    2.70
  -6   6   3   14.30    2.70
   6  -6  -3   17.20    4.00
   6  -6  -3   13.70    4.10
   6  -6  -3   13.00    2.10
   6  -6  -3   13.00    2.10
  -7   6   3   18.00    4.70
  -7   6   3   19.60    4.30
   7  -6  -3   19.50    2.70
   7  -6  -3   21.00    4.90
   7  -6  -3   25.90    5.30
   7  -6  -3   19.50    2.70
  -8   6   3  138.39   10.60
  -8   6   3  116.69    8.40
   8  -6  -3  140.69   11.10
   8  -6  -3  127.39   11.60
  -9   6   3   44.30    9.30
   9  -6  -3   65.59    9.40
   7   6   2   32.40    4.90
   7   6   2   23.90    5.90
   7   6   2   32.40    4.90
  -7  -6  -2   37.50    7.00
  -7  -6  -2   32.30    6.40
   6   6   2   11.30    3.40
   6   6   2   11.40    4.60
   6   6   2   12.80    4.80
   6   6   2   11.30    3.40
  -6  -6  -2   14.80    4.50
  -6  -6  -2   14.30    5.10
   5   6   2   19.90    3.20
   5   6   2   31.20    5.20
   5   6   2   28.80    4.40
   5   6   2   19.90    3.20
  -5  -6  -2   26.20    4.10
  -5  -6  -2   20.00    4.40
   4   6   2  236.48    8.40
   4   6   2  236.48    8.40
   4   6   2  247.18    9.40
   4   6   2  244.48    9.70
   4   6   2  246.48    9.00
  -4  -6  -2  229.58    9.40
  -4  -6  -2  243.08    9.00
  -4  -6  -2  238.08   10.50
   3   6   2  118.19    5.30
   3   6   2  128.39    6.10
   3   6   2  118.09    5.30
   3   6   2  123.89    5.50
   3   6   2  116.99    5.70
  -3  -6  -2  132.89    5.90
  -3  -6  -2  126.89    6.90
  -3  -6  -2  119.29    6.40
  -3  -6  -2  120.19    6.40
   2   6   2   72.99    4.20
   2   6   2   75.69    3.90
   2   6   2   67.99    4.80
   2   6   2   70.39    4.00
   2   6   2   65.19    4.40
   2   6   2   68.89    3.70
   2   6   2   66.49    4.60
   2   6   2   68.89    3.70
  -2  -6  -2   70.19    3.80
  -2  -6  -2   59.39    3.80
  -2  -6  -2   70.19    3.80
  -2  -6  -2   70.79    4.80
  -2  -6  -2   62.79    4.60
  -2  -6  -2   64.19    3.70
   1   6   2   36.50    3.20
   1   6   2   33.10    2.60
   1   6   2   33.10    2.60
   1   6   2   31.10    3.40
   1   6   2   37.70    3.00
   1   6   2   35.20    3.10
   1   6   2   33.80    2.90
   1   6   2   28.70    3.40
  -1  -6  -2   34.10    3.40
  -1  -6  -2   36.50    2.70
  -1  -6  -2   31.50    3.40
  -1  -6  -2   36.50    2.70
  -1  -6  -2   36.40    3.10
   0   6   2  322.17   10.40
   0   6   2  331.37   10.20
   0   6   2  336.17    9.70
   0   6   2  330.37    8.90
   0   6   2  314.57   10.10
   0   6   2  330.37    8.90
   0   6   2  324.17    9.40
   0  -6  -2  328.67    9.10
   0  -6  -2  338.67   10.20
   0  -6  -2  322.27    9.70
   0  -6  -2  328.67    9.10
   0  -6  -2  340.57    9.50
  -1   6   2 1517.75   35.10
  -1   6   2 1472.15   36.80
  -1   6   2 1457.45   37.10
  -1   6   2 1528.75   35.30
  -1   6   2 1517.75   35.10
  -1   6   2 1481.35   36.00
   1  -6  -2 1507.05   35.20
   1  -6  -2 1468.25   36.90
   1  -6  -2 1527.95   36.10
   1  -6  -2 1513.05   35.60
   1  -6  -2 1506.95   35.20
   1  -6  -2 1521.35   37.00
   1  -6  -2 1489.85   36.20
  -2   6   2 1207.78   26.80
  -2   6   2 1186.98   29.90
  -2   6   2 1182.08   26.80
  -2   6   2 1168.08   27.30
  -2   6   2 1176.88   28.90
  -2   6   2 1129.19   29.30
  -2   6   2 1168.18   27.30
   2  -6  -2 1127.69   29.50
   2  -6  -2 1172.48   29.70
   2  -6  -2 1161.38   28.70
   2  -6  -2 1142.19   27.40
   2  -6  -2 1148.59   29.00
   2  -6  -2 1142.19   27.40
  -3   6   2  262.17    9.10
  -3   6   2  252.37    9.10
  -3   6   2  252.77    6.90
  -3   6   2  252.77    6.90
  -3   6   2  266.57    8.60
  -3   6   2  249.08    9.50
   3  -6  -2  255.87    9.50
   3  -6  -2  260.07    8.60
   3  -6  -2  252.17    9.00
   3  -6  -2  261.47    6.90
   3  -6  -2  254.47    9.20
   3  -6  -2  261.47    6.90
  -4   6   2  584.14   16.50
  -4   6   2  607.34   17.80
  -4   6   2  584.14   14.50
  -4   6   2  584.14   14.50
   4  -6  -2  592.14   14.40
   4  -6  -2  585.24   17.60
   4  -6  -2  583.34   17.60
   4  -6  -2  592.14   14.40
  -5   6   2   70.79    3.50
  -5   6   2   69.89    5.10
  -5   6   2   68.79    6.30
  -5   6   2   70.79    3.50
   5  -6  -2   65.49    3.10
   5  -6  -2   69.49    6.20
   5  -6  -2   65.49    3.10
   5  -6  -2   67.69    6.00
  -6   6   2  117.29    6.80
  -6   6   2  120.29    5.10
  -6   6   2  120.19    5.10
   6  -6  -2  122.89    8.20
   6  -6  -2  123.29    4.60
   6  -6  -2  118.49    4.30
   6  -6  -2  123.29    4.40
   6  -6  -2  123.39    4.60
   6  -6  -2  126.89    8.30
  -7   6   2   34.40    4.90
  -7   6   2   29.50    5.50
   7  -6  -2   35.80    5.90
   7  -6  -2   36.70    3.00
   7  -6  -2   40.50    6.10
   7  -6  -2   36.70    3.00
  -8   6   2   17.10    5.70
  -8   6   2   10.20    4.30
   8  -6  -2    3.90    5.10
   8  -6  -2   20.90    6.30
  -9   6   2   49.70    6.50
   9  -6  -2   57.99   10.10
   8   6   1   36.30    5.70
   8   6   1   17.20    6.30
   8   6   1   36.30    5.70
  -8  -6  -1   31.90    7.60
  -8  -6  -1   15.80    8.30
   7   6   1  289.87   12.00
   7   6   1  272.97   11.00
   7   6   1  294.37   13.70
   7   6   1  272.97   11.00
  -7  -6  -1  279.57   13.40
  -7  -6  -1  281.07   15.30
   6   6   1   14.00    4.30
   6   6   1   21.10    3.40
   6   6   1   21.10    3.40
   6   6   1   11.80    4.00
  -6  -6  -1   22.60    5.20
  -6  -6  -1   22.90    4.50
   5   6   1   87.69    7.60
   5   6   1   87.69    7.60
   5   6   1   93.89    6.90
   5   6   1   89.19    6.30
  -5  -6  -1  100.59    7.60
  -5  -6  -1  102.99    6.60
  -5  -6  -1   92.19    6.50
   4   6   1  480.85   14.50
   4   6   1  481.25   13.50
   4   6   1  484.05   13.40
   4   6   1  448.56   14.10
   4   6   1  481.25   13.50
  -4  -6  -1  477.45   14.50
  -4  -6  -1  470.25   13.90
  -4  -6  -1  450.65   12.50
  -4  -6  -1  475.05   15.80
   3   6   1  148.49    5.80
   3   6   1  156.18    6.30
   3   6   1  144.49    6.00
   3   6   1  148.49    5.80
   3   6   1  144.49    6.00
   3   6   1  157.38    5.80
   3   6   1  153.78    6.30
  -3  -6  -1  145.79    5.60
  -3  -6  -1  148.99    7.20
  -3  -6  -1  155.68    6.50
  -3  -6  -1  150.68    6.60
  -3  -6  -1  147.49    6.30
   2   6   1  276.67    8.50
   2   6   1  301.67    8.90
   2   6   1  294.77    8.60
   2   6   1  294.77    8.60
   2   6   1  276.57    8.50
   2   6   1  289.37    9.00
   2   6   1  286.27    9.70
   2   6   1  290.57    9.40
   2   6   1  304.67    9.10
   2   6   1  286.77    9.20
  -2  -6  -1  293.37    8.60
  -2  -6  -1  300.27   10.00
  -2  -6  -1  288.87    9.40
   1   6   1  790.22   20.10
   1   6   1  765.52   19.10
   1   6   1  765.52   19.10
   1   6   1  761.82   20.10
   1   6   1  753.62   20.10
   1   6   1  812.82   20.00
   1   6   1  798.92   20.20
   1   6   1  774.02   20.00
  -1  -6  -1  781.52   19.30
  -1  -6  -1  781.52   19.30
  -1  -6  -1  772.02   20.30
  -1  -6  -1  729.53   20.20
  -1  -6  -1  794.32   19.50
   0   6   1   99.19    3.50
   0   6   1  105.09    4.50
   0   6   1  109.59    5.00
   0   6   1  101.99    4.20
   0   6   1  100.19    4.60
   0   6   1   90.69    4.70
   0   6   1  107.99    4.70
   0   6   1   99.19    3.50
   0  -6  -1  104.29    4.70
   0  -6  -1  101.09    4.60
   0  -6  -1  101.29    4.50
   0  -6  -1   98.19    3.60
   0  -6  -1   92.49    4.70
   0  -6  -1   98.09    3.60
  -1   6   1   68.79    4.00
  -1   6   1   72.59    3.10
  -1   6   1   66.69    4.30
  -1   6   1   69.79    3.80
  -1   6   1   69.29    3.00
   1  -6  -1   74.09    4.10
   1  -6  -1   72.19    3.90
   1  -6  -1   69.69    2.80
   1  -6  -1   69.69    2.80
   1  -6  -1   67.19    4.00
   1  -6  -1   66.39    3.80
  -2   6   1  113.79    3.40
  -2   6   1  121.69    5.20
  -2   6   1  117.99    5.80
  -2   6   1  119.69    3.70
  -2   6   1  113.79    3.40
  -2   6   1  119.69    5.40
  -2   6   1  122.29    3.50
   2  -6  -1  118.69    5.40
   2  -6  -1  109.69    5.50
   2  -6  -1  114.99    3.50
   2  -6  -1  114.99    3.50
   2  -6  -1  112.39    5.60
  -3   6   1  187.78    4.90
  -3   6   1  178.48    7.10
  -3   6   1  168.28    7.50
  -3   6   1  187.28    4.90
  -3   6   1  187.78    4.90
  -3   6   1  188.58    7.40
   3  -6  -1  190.88    7.50
   3  -6  -1  178.18    4.90
   3  -6  -1  187.18    5.00
   3  -6  -1  177.58    7.70
   3  -6  -1  182.18    7.80
   3  -6  -1  178.18    4.90
   3  -6  -1  174.18    6.90
  -4   6   1  216.48    9.20
  -4   6   1  223.68    8.30
  -4   6   1  225.88    6.00
  -4   6   1  225.88    6.00
  -4   6   1  224.58    6.20
   4  -6  -1  217.68    6.20
   4  -6  -1  223.88    9.10
   4  -6  -1  223.88    5.90
   4  -6  -1  217.78    9.30
   4  -6  -1  223.88    5.90
   4  -6  -1  229.98    8.30
  -5   6   1  316.07   10.90
  -5   6   1  309.67    8.40
  -5   6   1  326.47    9.00
  -5   6   1  309.77    8.40
  -5   6   1  331.97   12.60
   5  -6  -1  320.07    8.40
   5  -6  -1  331.17   12.20
   5  -6  -1  324.07   12.40
   5  -6  -1  320.07    8.40
  -6   6   1   35.30    3.90
  -6   6   1   30.80    4.80
  -6   6   1   29.00    3.80
   6  -6  -1   39.60    5.70
   6  -6  -1   31.90    2.60
   6  -6  -1   35.20    2.90
   6  -6  -1   35.20    2.90
   6  -6  -1   29.20    4.50
   6  -6  -1   31.90    2.60
   6  -6  -1   34.40    3.70
  -7   6   1   62.99    7.90
  -7   6   1   55.79    5.50
   7  -6  -1   65.19    7.80
   7  -6  -1   63.29    7.30
  -8   6   1   58.39    6.20
  -8   6   1   79.29    9.50
   8  -6  -1   86.19   10.30
   8  -6  -1   74.69    9.30
   8   6   0    3.60    5.30
   8   6   0    3.20    4.30
   8   6   0    3.20    4.30
  -8  -6   0   14.50    6.60
  -8  -6   0    0.70    7.10
   7   6   0   51.99    6.50
   7   6   0   53.69    5.30
   7   6   0   53.19    5.20
   7   6   0   53.69    5.30
  -7  -6   0   58.79    7.90
  -7  -6   0   60.19    6.90
   6   6   0  146.59    9.40
   6   6   0  150.18    7.40
   6   6   0  138.89    6.70
   6   6   0  138.89    6.70
  -6  -6   0  158.48   10.00
  -6  -6   0  140.59    8.20
  -6  -6   0  153.28    8.80
   5   6   0  177.88    7.10
   5   6   0  178.08    7.40
   5   6   0  175.68    8.40
   5   6   0  177.88    7.10
  -5  -6   0  184.88    7.40
  -5  -6   0  177.78    8.40
  -5  -6   0  178.08    7.50
  -5  -6   0  187.38    9.60
   4   6   0  209.48    6.90
   4   6   0  213.88    7.40
   4   6   0  213.88    7.40
   4   6   0  207.68    8.00
   4   6   0  201.08    8.30
  -4  -6   0  193.08    8.00
  -4  -6   0  199.08    8.50
  -4  -6   0  201.68    7.40
  -4  -6   0  213.68    9.40
  -4  -6   0  209.28    7.40
   3   6   0  480.25   13.40
   3   6   0  490.25   13.20
   3   6   0  490.75   13.30
   3   6   0  484.05   13.90
   3   6   0  481.15   13.30
   3   6   0  490.35   13.20
   3   6   0  490.75   13.30
   3   6   0  493.95   12.80
   3   6   0  470.45   14.60
  -3  -6   0  467.05   14.40
  -3  -6   0  488.75   13.90
  -3  -6   0  491.15   15.10
  -3  -6   0  484.25   13.10
   2   6   0  316.27    9.80
   2   6   0  312.67    8.90
   2   6   0  311.47    9.10
   2   6   0  303.87    8.90
   2   6   0  303.27   10.00
   2   6   0  310.97    9.40
   2   6   0  303.97    8.90
   2   6   0  313.97    9.00
   2   6   0  312.67    8.90
   2   6   0  314.27    9.30
  -2  -6   0  309.57    9.20
  -2  -6   0  304.07   10.30
  -2  -6   0  310.87   10.10
   1   6   0   40.80    2.90
   1   6   0   42.00    3.20
   1   6   0   38.20    2.80
   1   6   0   39.70    2.70
   1   6   0   38.80    3.00
   1   6   0   38.80    2.50
   1   6   0   46.00    2.60
   1   6   0   41.30    3.20
   1   6   0   46.00    2.60
   1   6   0   38.80    2.50
  -1  -6   0   47.10    3.50
  -1  -6   0   41.00    2.90
  -1  -6   0   40.70    3.50
   0   6   0  611.04   15.90
   0   6   0  611.74   16.30
   0   6   0  598.74   14.70
   0   6   0  598.74   14.70
   0   6   0  603.24   15.80
   0   6   0  626.74   16.60
   0   6   0  600.84   16.20
   0   6   0  595.94   15.70
   0  -6   0  579.74   16.10
   0  -6   0  609.14   15.90
   0  -6   0  608.94   15.80
  -1   6   0   40.80    3.40
  -1   6   0   46.60    2.90
  -1   6   0   42.40    1.70
  -1   6   0   44.60    3.60
  -1   6   0   42.10    2.50
  -1   6   0   42.40    1.70
  -1   6   0   45.20    3.20
   1  -6   0   43.10    1.90
   1  -6   0   37.40    2.90
   1  -6   0   45.30    3.40
   1  -6   0   43.10    1.90
   1  -6   0   40.10    3.50
   1  -6   0   39.00    3.00
  -2   6   0  307.27    9.90
  -2   6   0  313.67    8.30
  -2   6   0  308.87   10.20
  -2   6   0  311.17    9.70
  -2   6   0  311.67    7.30
  -2   6   0  311.67    7.30
   2  -6   0  310.47    7.40
   2  -6   0  307.37   10.30
   2  -6   0  301.07   10.10
   2  -6   0  315.67    9.70
   2  -6   0  307.67    9.90
   2  -6   0  318.57    8.60
   2  -6   0  310.47    7.40
  -3   6   0  483.25   14.20
  -3   6   0  489.75   12.10
  -3   6   0  481.25   13.90
  -3   6   0  442.66   14.20
   3  -6   0  470.45   13.50
   3  -6   0  485.85   14.70
   3  -6   0  440.86   14.20
   3  -6   0  464.25   14.10
  -4   6   0  204.68    9.10
   4  -6   0  204.18    5.20
   4  -6   0  204.28    5.20
   4  -6   0  213.18    8.10
   4  -6   0  208.58    8.70
   4  -6   0  206.08    6.70
   4  -6   0  218.88    9.40
  -5   6   0  176.58    7.60
  -5   6   0  180.38    6.50
  -5   6   0  167.68    9.10
   5  -6   0  178.68    8.90
   5  -6   0  179.88    7.70
   5  -6   0  182.38    9.30
   5  -6   0  171.78    4.90
   5  -6   0  170.88    6.50
   5  -6   0  173.88    4.80
   5  -6   0  173.88    4.80
   5  -6   0  171.78    4.90
  -6   6   0  146.19    9.40
  -6   6   0  142.39    6.80
  -6   6   0  147.39    7.60
   6  -6   0  150.48    9.70
   6  -6   0  152.28    9.10
   6  -6   0  153.18    5.10
   6  -6   0  153.18    5.10
  -7   6   0   44.90    5.10
  -7   6   0   52.39    5.20
  -7   6   0   57.79    7.20
   7  -6   0   49.99    6.40
   7  -6   0   45.00    7.20
  -8   6   0   10.00    6.00
  -8   6   0    6.90    4.90
   8  -6   0   12.30    6.40
   8  -6   0    5.90    7.20
   8   6  -1   61.09    7.00
   8   6  -1   78.99    7.80
   8   6  -1   78.99    7.80
  -8  -6   1   76.99    8.40
  -8  -6   1   67.49    9.60
   7   6  -1   53.69    5.80
   7   6  -1   50.69    4.60
   7   6  -1   50.59    4.60
  -7  -6   1   63.89    6.90
  -7  -6   1   72.49    8.20
  -7  -6   1   57.29    7.30
   6   6  -1   30.90    3.10
   6   6  -1   31.80    4.30
   6   6  -1   26.50    3.10
   6   6  -1   26.50    3.10
  -6  -6   1   34.10    3.50
  -6  -6   1   38.10    5.80
  -6  -6   1   30.90    4.50
  -6  -6   1   43.80    4.60
   5   6  -1  321.97    9.70
   5   6  -1  335.77   10.30
   5   6  -1  336.97   11.50
   5   6  -1  314.57    9.70
   5   6  -1  335.77   10.30
  -5  -6   1  330.47   12.80
  -5  -6   1  324.87   10.30
  -5  -6   1  292.97   10.90
  -5  -6   1  322.17   12.00
   4   6  -1  221.08    8.00
   4   6  -1  210.88    7.50
   4   6  -1  228.28    6.70
   4   6  -1  227.48    9.60
   4   6  -1  219.38    7.10
   4   6  -1  210.88    7.50
  -4  -6   1  229.58    8.00
  -4  -6   1  225.88    9.60
  -4  -6   1  220.28    8.00
  -4  -6   1  228.58    9.20
   3   6  -1  180.48    7.60
   3   6  -1  190.08    7.80
   3   6  -1  185.28    6.30
   3   6  -1  179.38    6.50
   3   6  -1  189.58    6.30
   3   6  -1  188.98    7.30
   3   6  -1  189.58    6.30
   3   6  -1  179.38    6.50
   3   6  -1  180.08    6.10
   3   6  -1  186.48    5.70
  -3  -6   1  188.48    7.80
  -3  -6   1  180.58    8.00
  -3  -6   1  192.78    6.80
  -3  -6   1  185.58    6.60
   2   6  -1  125.79    4.70
   2   6  -1  120.89    4.40
   2   6  -1  118.59    5.60
   2   6  -1  120.79    4.70
   2   6  -1  120.89    4.40
   2   6  -1  117.29    5.50
   2   6  -1  116.79    4.50
   2   6  -1  121.59    4.30
   2   6  -1  116.89    4.50
   2   6  -1  120.29    4.40
   2   6  -1  114.29    5.50
  -2  -6   1  118.29    5.70
  -2  -6   1  120.99    5.20
   1   6  -1   69.69    4.20
   1   6  -1   66.19    3.00
   1   6  -1   68.29    2.90
   1   6  -1   72.59    4.20
   1   6  -1   74.19    3.40
   1   6  -1   74.49    4.00
   1   6  -1   66.19    3.00
   1   6  -1   68.29    2.90
   1   6  -1   66.99    3.60
  -1  -6   1   60.29    4.20
  -1  -6   1   69.29    4.10
  -1  -6   1   73.29    3.60
   0   6  -1  100.09    5.00
   0   6  -1  100.49    3.20
   0   6  -1   95.89    4.30
   0   6  -1  102.89    4.10
   0   6  -1  100.49    3.20
   0   6  -1   98.29    4.70
   0   6  -1  103.19    3.30
   0   6  -1  100.69    5.00
   0   6  -1  103.19    3.30
   0  -6   1   99.99    4.30
   0  -6   1  100.09    4.60
   0  -6   1  106.39    5.00
   0  -6   1  102.39    4.10
  -1   6  -1  760.62   20.40
  -1   6  -1  781.52   18.00
  -1   6  -1  775.42   20.70
  -1   6  -1  773.22   19.80
  -1   6  -1  802.82   18.10
  -1   6  -1  785.42   19.60
  -1   6  -1  781.52   18.00
  -1   6  -1  802.92   18.10
   1  -6   1  763.72   20.70
   1  -6   1  766.92   20.00
   1  -6   1  791.22   19.80
   1  -6   1  793.02   20.30
   1  -6   1  769.42   20.70
  -2   6  -1  289.87    9.80
  -2   6  -1  303.37    9.30
  -2   6  -1  296.47    8.40
  -2   6  -1  291.17    9.80
   2  -6   1  287.47   10.20
   2  -6   1  298.27    8.80
   2  -6   1  300.87    9.60
   2  -6   1  300.77    9.70
   2  -6   1  301.07   10.10
  -3   6  -1  155.98    6.60
  -3   6  -1  158.98    5.60
  -3   6  -1  155.18    7.10
   3  -6   1  152.18    6.90
   3  -6   1  157.58    6.70
   3  -6   1  152.68    5.80
   3  -6   1  159.88    7.40
  -4   6  -1  502.35   15.80
  -4   6  -1  481.45   13.60
   4  -6   1  488.35   14.40
   4  -6   1  476.25   15.30
   4  -6   1  477.95   13.60
   4  -6   1  488.95   15.90
  -5   6  -1   92.49    5.30
  -5   6  -1   91.69    7.50
   5  -6   1   90.79    7.40
   5  -6   1   96.69    6.20
   5  -6   1   83.79    5.50
   5  -6   1   99.79    6.90
  -6   6  -1   15.50    4.90
  -6   6  -1   11.20    3.50
  -6   6  -1   18.30    3.50
   6  -6   1   19.60    4.00
   6  -6   1   14.50    4.60
  -7   6  -1  280.07   11.90
  -7   6  -1  289.27   13.70
  -7   6  -1  297.27   11.60
   7  -6   1  291.77   13.80
   7  -6   1  278.67   14.60
  -8   6  -1   25.80    7.10
  -8   6  -1   15.90    5.40
   8  -6   1   25.70    8.60
   9   6  -2   43.90    9.00
   9   6  -2   59.49    7.90
  -9  -6   2   55.49    9.40
   8   6  -2   19.90    4.20
   8   6  -2    6.80    5.70
   8   6  -2   19.90    4.20
   8   6  -2    9.90    5.00
  -8  -6   2    8.00    5.70
  -8  -6   2   14.00    6.00
   7   6  -2   28.70    3.80
   7   6  -2   31.80    5.40
   7   6  -2   40.00    5.80
   7   6  -2   28.70    3.80
  -7  -6   2   44.10    6.20
  -7  -6   2   29.50    4.60
   6   6  -2  114.19    5.80
   6   6  -2  108.49    4.70
   6   6  -2  114.19    5.80
   6   6  -2  109.99    4.40
   6   6  -2  121.59    7.00
  -6  -6   2  133.49    8.20
  -6  -6   2  112.89    6.70
   5   6  -2   60.19    4.10
   5   6  -2   65.29    3.00
   5   6  -2   68.79    3.20
   5   6  -2   65.09    5.00
   5   6  -2   60.19    4.10
   5   6  -2   63.99    5.80
  -5  -6   2   63.79    5.00
  -5  -6   2   66.99    5.00
  -5  -6   2   60.99    5.80
   4   6  -2  579.34   14.50
   4   6  -2  586.54   17.90
   4   6  -2  582.24   15.80
   4   6  -2  599.44   14.30
   4   6  -2  601.14   16.10
   4   6  -2  582.24   15.80
  -4  -6   2  586.94   17.80
  -4  -6   2  612.34   16.40
  -4  -6   2  594.54   15.90
   3   6  -2  255.67    9.40
   3   6  -2  263.57    7.80
   3   6  -2  254.87    7.70
   3   6  -2  241.68    9.30
   3   6  -2  257.37    7.60
   3   6  -2  251.47    7.10
   3   6  -2  263.57    7.80
   3   6  -2  252.47    6.80
   3   6  -2  238.28    8.80
  -3  -6   2  242.18    7.70
  -3  -6   2  261.77    8.60
  -3  -6   2  242.18    7.70
  -3  -6   2  266.57    9.70
   2   6  -2 1174.48   27.70
   2   6  -2 1083.59   29.20
   2   6  -2 1093.69   29.50
   2   6  -2 1200.18   27.60
   2   6  -2 1185.18   27.40
   2   6  -2 1174.58   27.70
   2   6  -2 1146.39   29.40
  -2  -6   2 1116.69   29.80
  -2  -6   2 1196.08   28.70
  -2  -6   2 1147.79   27.70
  -2  -6   2 1161.88   27.60
  -2  -6   2 1147.79   27.70
   1   6  -2 1502.45   35.40
   1   6  -2 1516.15   37.60
   1   6  -2 1498.95   37.10
   1   6  -2 1527.25   35.50
   1   6  -2 1502.45   35.40
   1   6  -2 1506.65   36.10
  -1  -6   2 1533.75   38.00
  -1  -6   2 1484.25   36.30
  -1  -6   2 1528.35   35.40
  -1  -6   2 1528.45   35.40
  -1  -6   2 1458.05   37.00
  -1  -6   2 1506.05   36.80
  -1  -6   2 1548.05   35.50
   0   6  -2  326.57    9.80
   0   6  -2  316.27   10.60
   0   6  -2  324.87   10.50
   0   6  -2  327.37    8.10
   0   6  -2  318.67    9.70
   0   6  -2  327.37    8.10
   0  -6   2  327.77   10.00
   0  -6   2  322.77    9.90
   0  -6   2  314.97    9.90
   0  -6   2  329.47    8.20
   0  -6   2  329.47    8.20
   0  -6   2  323.97    9.20
  -1   6  -2   32.90    3.60
  -1   6  -2   33.90    2.70
  -1   6  -2   30.70    2.80
  -1   6  -2   37.50    4.00
  -1   6  -2   38.10    3.80
   1  -6   2   36.00    3.20
   1  -6   2   34.60    4.10
   1  -6   2   36.20    3.90
   1  -6   2   39.00    3.00
   1  -6   2   27.10    3.30
  -2   6  -2   72.39    4.70
  -2   6  -2   70.79    4.30
  -2   6  -2   74.39    3.80
  -2   6  -2   76.79    4.80
   2  -6   2   73.39    4.40
   2  -6   2   70.49    4.10
   2  -6   2   65.89    5.50
   2  -6   2   68.29    5.00
   2  -6   2   66.79    4.80
  -3   6  -2  123.49    6.50
  -3   6  -2  129.99    6.40
  -3   6  -2  126.29    5.40
   3  -6   2  119.79    6.10
   3  -6   2  119.49    6.80
   3  -6   2  122.79    5.80
  -4   6  -2  247.88   10.30
  -4   6  -2  241.48    8.60
   4  -6   2  230.88    9.10
   4  -6   2  262.27   10.70
   4  -6   2  241.58    9.90
   4  -6   2  224.08    8.70
  -5   6  -2   25.70    5.90
  -5   6  -2   28.20    3.70
   5  -6   2   20.50    3.90
   5  -6   2   28.40    5.40
   5  -6   2   35.80    5.30
   5  -6   2   25.80    3.90
  -6   6  -2    5.50    3.50
  -6   6  -2    8.50    4.80
  -6   6  -2    9.70    3.70
   6  -6   2   11.00    4.60
   6  -6   2    8.60    4.90
  -7   6  -2   28.80    5.20
  -7   6  -2   26.00    6.10
  -7   6  -2   29.40    5.60
   7  -6   2   25.40    7.00
   7  -6   2   27.90    6.50
   9   6  -3   34.50    9.10
   9   6  -3   59.69    8.00
  -9  -6   3  103.39   13.10
   8   6  -3  120.39    8.10
   8   6  -3  120.39    8.10
   8   6  -3  129.09   11.60
   8   6  -3  135.39    9.70
  -8  -6   3  121.09    9.00
  -8  -6   3  145.19   11.20
   7   6  -3   17.40    4.80
   7   6  -3   21.20    3.60
   7   6  -3   21.20    3.60
   7   6  -3   15.50    3.80
  -7  -6   3   14.40    4.30
  -7  -6   3   20.80    4.50
   6   6  -3   13.10    2.60
   6   6  -3   13.10    2.60
   6   6  -3   12.00    2.90
   6   6  -3    5.70    4.50
  -6  -6   3   20.00    3.80
  -6  -6   3   12.30    3.20
   5   6  -3  197.08    7.30
   5   6  -3  197.08    7.30
   5   6  -3  205.28    7.40
   5   6  -3  195.38    9.30
  -5  -6   3  210.08    7.50
  -5  -6   3  212.78    9.70
  -5  -6   3  193.98    8.00
   4   6  -3   23.80    3.30
   4   6  -3   24.90    2.60
   4   6  -3   28.10    3.10
   4   6  -3   24.90    2.60
  -4  -6   3   33.30    2.90
  -4  -6   3   35.90    3.70
  -4  -6   3   24.90    3.60
   3   6  -3 1418.46   37.50
   3   6  -3 1524.85   35.30
   3   6  -3 1514.85   35.90
   3   6  -3 1554.14   35.30
   3   6  -3 1514.85   35.90
   3   6  -3 1411.96   38.00
   3   6  -3 1486.85   37.90
   3   6  -3 1514.05   34.70
   3   6  -3 1495.05   34.70
  -3  -6   3 1527.35   36.00
  -3  -6   3 1527.35   36.00
  -3  -6   3 1519.45   36.90
  -3  -6   3 1487.45   38.40
   2   6  -3   37.10    3.70
   2   6  -3   36.00    3.90
   2   6  -3   37.10    3.60
   2   6  -3   35.80    2.50
   2   6  -3   42.90    1.80
   2   6  -3   35.80    2.50
   2   6  -3   38.80    2.00
  -2  -6   3   37.30    4.10
  -2  -6   3   33.60    2.50
  -2  -6   3   42.30    3.90
  -2  -6   3   33.60    2.50
  -2  -6   3   42.00    2.70
   1   6  -3   25.60    1.80
   1   6  -3   25.60    1.80
   1   6  -3   27.90    3.20
   1   6  -3   23.40    1.70
   1   6  -3   22.70    2.90
   1   6  -3   21.70    3.10
   1   6  -3   21.60    2.90
  -1  -6   3   17.00    2.70
  -1  -6   3   24.10    1.60
  -1  -6   3   17.40    2.50
  -1  -6   3   23.70    3.10
  -1  -6   3   23.50    2.00
  -1  -6   3   23.20    2.70
  -1  -6   3   23.50    2.00
   0   6  -3    9.80    2.50
   0   6  -3    9.40    1.10
   0   6  -3   11.20    1.90
   0   6  -3    9.40    1.10
   0   6  -3    7.90    2.20
   0   6  -3    7.80    1.40
   0   6  -3    9.30    1.90
   0  -6   3   11.00    1.10
   0  -6   3   11.00    1.10
   0  -6   3    6.40    2.00
   0  -6   3   10.70    1.50
   0  -6   3    8.60    2.10
   0  -6   3    8.30    2.40
  -1   6  -3  284.87    8.60
  -1   6  -3  266.67   10.30
  -1   6  -3  283.87    6.80
  -1   6  -3  277.87    9.80
  -1   6  -3  283.87    6.80
  -1   6  -3  270.97    9.50
  -1   6  -3  281.77    8.90
   1  -6   3  285.07    6.80
   1  -6   3  270.27    9.60
   1  -6   3  297.57    8.70
   1  -6   3  266.87   10.00
   1  -6   3  285.27    9.60
   1  -6   3  270.27    9.30
   1  -6   3  285.07    6.80
  -2   6  -3   94.19    5.60
  -2   6  -3   95.99    4.70
  -2   6  -3   97.19    5.40
   2  -6   3   87.39    5.50
   2  -6   3   99.59    5.50
   2  -6   3   92.69    4.90
   2  -6   3   94.79    5.80
  -3   6  -3   50.09    5.90
  -3   6  -3   51.79    5.10
  -3   6  -3   60.79    4.50
   3  -6   3   62.79    5.50
   3  -6   3   56.79    5.00
   3  -6   3   57.89    5.30
   3  -6   3   55.99    5.10
  -4   6  -3  350.46   13.40
  -4   6  -3  359.46   12.00
   4  -6   3  373.16   12.10
   4  -6   3  363.56   12.90
   4  -6   3  366.66   13.80
  -5   6  -3  119.09    9.00
  -5   6  -3  131.09    7.70
   5  -6   3  122.89    7.50
   5  -6   3  116.79    8.40
   5  -6   3  119.69    9.00
  -6   6  -3  198.08    9.40
  -6   6  -3  205.78   10.40
  -6   6  -3  176.98   12.40
   6  -6   3  209.98   11.60
   6  -6   3  205.38   12.40
  -7   6  -3   60.59    7.40
  -7   6  -3   78.89    8.10
  -7   6  -3   61.19    8.40
   7  -6   3   71.49    8.30
   7  -6   3   62.19    9.00
   9   6  -4   82.69    9.60
  -9  -6   4   69.29   10.80
  -9  -6   4   75.39    8.10
   8   6  -4   40.10    7.20
   8   6  -4   37.70    6.70
   8   6  -4   31.80    4.70
   8   6  -4   31.80    4.70
  -8  -6   4   46.20    7.10
  -8  -6   4   44.50    6.20
   7   6  -4   17.70    4.90
   7   6  -4   22.70    3.90
   7   6  -4   18.00    3.40
   7   6  -4   18.00    3.40
  -7  -6   4   22.20    5.30
  -7  -6   4   18.50    4.50
   6   6  -4   91.49    5.40
   6   6  -4   91.49    5.40
   6   6  -4   96.49    5.70
  -6  -6   4   75.49    5.60
  -6  -6   4   96.19    7.50
  -6  -6   4   87.89    6.50
   5   6  -4   16.30    3.70
   5   6  -4   15.90    2.30
   5   6  -4   16.00    2.60
   5   6  -4   16.00    2.60
  -5  -6   4   18.20    3.90
  -5  -6   4   14.20    2.20
  -5  -6   4   13.10    3.40
   4   6  -4  704.33   17.30
   4   6  -4  695.63   18.40
   4   6  -4  695.63   20.50
   4   6  -4  695.63   18.40
  -4  -6   4  706.33   17.40
  -4  -6   4  705.93   19.30
  -4  -6   4  716.93   21.10
   3   6  -4  287.87    8.60
   3   6  -4  295.17    7.40
   3   6  -4  289.97   10.50
   3   6  -4  287.87    8.60
  -3  -6   4  295.07   10.00
  -3  -6   4  275.07    8.60
  -3  -6   4  299.67   11.00
  -3  -6   4  275.07    8.60
  -3  -6   4  282.67    7.40
   2   6  -4  310.77    8.60
   2   6  -4  310.77    8.60
   2   6  -4  313.77    9.10
   2   6  -4  314.37   10.50
   2   6  -4  289.97   10.50
  -2  -6   4  321.47   11.30
  -2  -6   4  306.37    8.80
  -2  -6   4  312.37   10.30
  -2  -6   4  314.57    9.00
  -2  -6   4  287.07   10.60
  -2  -6   4  306.37    8.80
   1   6  -4    9.10    2.20
   1   6  -4   11.70    2.70
   1   6  -4    9.50    1.10
   1   6  -4    8.80    1.30
   1   6  -4    9.80    2.70
   1   6  -4    6.50    2.50
   1   6  -4    8.80    1.30
  -1  -6   4   10.00    1.50
  -1  -6   4    8.50    2.60
  -1  -6   4    1.40    2.30
  -1  -6   4   11.50    2.10
  -1  -6   4   10.00    1.50
   0   6  -4   59.69    5.20
   0   6  -4   54.29    5.00
   0   6  -4   63.99    2.60
   0   6  -4   63.99    2.60
   0   6  -4   63.39    3.30
   0   6  -4   60.69    4.70
   0   6  -4   66.49    4.20
   0  -6   4   68.59    2.80
   0  -6   4   64.19    4.90
   0  -6   4   67.09    5.00
   0  -6   4   65.29    3.20
   0  -6   4   68.49    2.80
   0  -6   4   68.89    4.50
  -1   6  -4  145.39    7.40
  -1   6  -4  164.88    4.50
  -1   6  -4  138.69    8.10
  -1   6  -4  161.78    7.40
  -1   6  -4  157.48    6.60
  -1   6  -4  164.88    4.50
  -1   6  -4  164.78    6.30
   1  -6   4  150.08    7.10
   1  -6   4  171.78    4.60
   1  -6   4  169.88   10.20
   1  -6   4  171.78    4.60
   1  -6   4  159.08    7.50
   1  -6   4  165.08    6.00
  -2   6  -4  124.79    6.50
  -2   6  -4  120.99    6.70
  -2   6  -4  125.69    6.00
   2  -6   4  123.89    7.10
   2  -6   4  128.69    6.80
   2  -6   4  120.99    5.90
   2  -6   4  104.29    6.50
  -3   6  -4  209.88    9.20
  -3   6  -4  197.98    8.40
   3  -6   4  201.48    9.70
   3  -6   4  212.48    8.90
   3  -6   4  195.98    8.50
  -4   6  -4  351.36   12.50
  -4   6  -4  346.07   13.90
   4  -6   4  365.26   14.20
   4  -6   4  357.36   12.40
   4  -6   4  354.86   13.00
  -5   6  -4   37.90    5.00
  -5   6  -4   21.90    5.60
   5  -6   4   46.00    6.30
   5  -6   4   26.10    4.90
   5  -6   4   28.00    4.80
  -6   6  -4   14.50    5.40
  -6   6  -4   12.30    4.70
  -6   6  -4   10.80    6.50
   6  -6   4   22.80    6.50
   6  -6   4   15.50    5.40
  -7   6  -4   82.49   10.10
  -7   6  -4   84.59    9.40
   9   6  -5   33.20    7.80
  -9  -6   5   18.30    6.30
   8   6  -5    3.50    3.60
   8   6  -5    3.50    3.60
   8   6  -5   -1.20    4.80
   8   6  -5   13.00    5.60
  -8  -6   5    0.70    4.80
  -8  -6   5    0.80    5.50
   7   6  -5   31.40    5.80
   7   6  -5   23.80    3.70
   7   6  -5   23.80    3.70
   7   6  -5   38.40    4.30
  -7  -6   5   38.90    6.40
  -7  -6   5   26.00    4.70
   6   6  -5   20.90    2.90
   6   6  -5   29.80    5.00
   6   6  -5   23.00    3.00
   6   6  -5   20.90    2.90
  -6  -6   5   20.80    4.20
  -6  -6   5   21.10    3.20
  -6  -6   5   21.70    4.50
   5   6  -5    5.40    3.10
   5   6  -5    6.00    2.10
   5   6  -5    6.00    2.10
  -5  -6   5    1.80    3.40
  -5  -6   5    2.40    2.90
   4   6  -5  105.49    6.60
   4   6  -5  105.69    5.00
   4   6  -5  105.69    5.00
  -4  -6   5   99.29    6.00
  -4  -6   5  103.99    7.10
   3   6  -5  294.77    8.70
   3   6  -5  289.27    7.70
   3   6  -5  294.77    8.70
   3   6  -5  297.77   10.70
  -3  -6   5  292.57   10.30
  -3  -6   5  301.27    8.10
  -3  -6   5  280.97   11.30
  -3  -6   5  277.17    9.00
  -3  -6   5  277.17    9.00
   2   6  -5  240.08    7.30
   2   6  -5  240.48    9.20
   2   6  -5  240.08    7.30
   2   6  -5  236.18    7.70
  -2  -6   5  247.78    7.70
  -2  -6   5  250.27   10.10
  -2  -6   5  247.98    7.70
  -2  -6   5  238.08    8.90
  -2  -6   5  248.28    7.90
   1   6  -5   33.80    4.40
   1   6  -5   32.10    2.30
   1   6  -5   32.10    2.30
   1   6  -5   30.50    3.80
   1   6  -5   33.90    3.80
   1   6  -5   34.30    4.40
  -1  -6   5   31.30    3.70
  -1  -6   5   33.40    3.70
  -1  -6   5   32.80    2.90
  -1  -6   5   32.80    2.90
   0   6  -5   47.40    2.50
   0   6  -5   56.99    4.90
   0   6  -5   46.60    4.20
   0   6  -5   47.40    2.50
   0   6  -5   41.50    4.50
   0  -6   5   41.10    2.70
   0  -6   5   39.60    3.50
   0  -6   5   43.90    4.30
   0  -6   5   48.10    4.80
   0  -6   5   41.10    2.70
  -1   6  -5   55.99    4.50
  -1   6  -5   55.39    2.80
  -1   6  -5   54.79    5.00
  -1   6  -5   55.29    2.80
  -1   6  -5   60.29    4.20
   1  -6   5   53.69    2.80
   1  -6   5   67.49    5.60
   1  -6   5   58.29    5.50
   1  -6   5   51.99    3.90
   1  -6   5   53.69    2.80
  -2   6  -5   88.09    5.80
  -2   6  -5   90.29    3.30
  -2   6  -5   90.29    3.30
  -2   6  -5   80.59    5.90
  -2   6  -5   88.19    6.50
   2  -6   5   87.59    3.20
   2  -6   5   91.29    7.00
   2  -6   5   87.59    3.20
   2  -6   5   91.29    5.40
   2  -6   5   88.89    6.60
  -3   6  -5   86.79    7.10
  -3   6  -5   91.19    6.50
   3  -6   5   87.69    3.10
   3  -6   5   89.19    6.30
   3  -6   5   85.39    3.10
   3  -6   5   91.49    7.00
   3  -6   5   85.39    3.10
   3  -6   5   87.79    3.10
   3  -6   5  106.49   12.60
  -4   6  -5   23.80    5.40
  -4   6  -5   21.90    5.00
   4  -6   5   25.10    4.60
   4  -6   5   30.40    5.30
   4  -6   5   25.40    4.90
  -5   6  -5   16.10    4.90
  -5   6  -5   -2.70    5.80
   5  -6   5    4.60    4.50
   5  -6   5    7.40    4.70
   5  -6   5   10.30    5.60
  -6   6  -5    6.60    6.00
  -6   6  -5    3.30    4.90
  -6   6  -5    4.70    7.20
   6  -6   5    6.30    6.50
   6  -6   5    9.00    5.70
   9   6  -6   21.80    7.90
  -9  -6   6   22.60    6.80
   8   6  -6   16.00    4.10
   8   6  -6   16.00    4.10
   8   6  -6   20.40    6.30
  -8  -6   6   18.80    6.80
  -8  -6   6   27.60    5.70
   7   6  -6   65.69    5.70
   7   6  -6   73.59    7.60
   7   6  -6   65.69    5.70
  -7  -6   6   93.79    9.40
  -7  -6   6   84.39    7.50
   6   6  -6   67.99    5.20
   6   6  -6   72.69    4.50
   6   6  -6   67.99    5.20
   6   6  -6   73.59    7.40
  -6  -6   6   80.09    8.60
  -6  -6   6   73.29    6.60
   5   6  -6  176.68    9.10
  -5  -6   6  165.78    7.90
  -5  -6   6  175.78   10.10
   4   6  -6  136.49    7.80
   4   6  -6  148.89    6.10
   4   6  -6  148.89    6.10
  -4  -6   6  139.29    7.20
  -4  -6   6  145.99    8.40
   3   6  -6  184.08    6.50
   3   6  -6  170.98    5.70
   3   6  -6  183.98    6.50
   3   6  -6  176.58    8.30
  -3  -6   6  173.58    8.00
  -3  -6   6  164.48    8.90
  -3  -6   6  172.98    6.30
   2   6  -6  436.96   11.70
   2   6  -6  426.06   12.10
   2   6  -6  436.96   11.70
   2   6  -6  416.16   13.80
  -2  -6   6  413.86   13.70
  -2  -6   6  431.26   14.90
  -2  -6   6  434.26   12.60
  -2  -6   6  428.76   12.10
  -2  -6   6  428.76   12.00
   1   6  -6  924.41   25.20
   1   6  -6 1007.70   27.10
   1   6  -6  985.50   26.60
   1   6  -6  997.50   24.00
   1   6  -6  997.50   24.00
  -1  -6   6 1012.30   25.90
  -1  -6   6  993.80   24.20
  -1  -6   6  993.80   24.20
  -1  -6   6  970.70   26.30
   0   6  -6  284.37   10.60
   0   6  -6  301.67   11.20
   0   6  -6  288.07    8.50
   0   6  -6  303.07    8.30
   0   6  -6  303.07    8.30
   0  -6   6  299.37    8.60
   0  -6   6  299.37    8.60
   0  -6   6  307.17   11.10
   0  -6   6  308.47   11.10
   0  -6   6  305.77    8.80
  -1   6  -6   78.49    5.60
  -1   6  -6   72.79    4.80
  -1   6  -6   74.39    3.40
  -1   6  -6   74.39    3.40
  -1   6  -6   79.79    6.40
   1  -6   6   75.89    4.70
   1  -6   6   79.79    6.40
   1  -6   6   77.69    6.50
   1  -6   6   81.69    3.80
   1  -6   6   81.69    3.80
  -2   6  -6   13.90    3.60
  -2   6  -6   12.20    3.80
  -2   6  -6   19.40    2.00
  -2   6  -6   16.90    3.90
  -2   6  -6   19.40    2.00
   2  -6   6    8.80    3.80
   2  -6   6   20.60    4.30
   2  -6   6   18.10    2.10
   2  -6   6   18.40    3.30
   2  -6   6   18.10    2.10
  -3   6  -6   66.49    7.00
   3  -6   6   74.19    6.60
   3  -6   6   95.49    8.40
   3  -6   6   80.59    7.30
  -4   6  -6    4.20    5.30
  -4   6  -6    7.10    4.50
   4  -6   6    9.40    4.80
   4  -6   6    4.00    4.30
   4  -6   6   11.20    5.60
  -5   6  -6   16.00    7.70
  -5   6  -6   36.20    6.60
   5  -6   6   35.10    6.40
   5  -6   6   45.30    7.60
   5  -6   6   28.20    6.00
   8   6  -7   78.69    6.60
   8   6  -7   78.79    6.60
   8   6  -7  119.79   11.50
  -8  -6   7   80.89    8.60
   7   6  -7   96.89    9.90
   7   6  -7   73.09    6.60
   7   6  -7   73.09    6.60
  -7  -6   7   90.19   10.40
  -7  -6   7   91.59    7.80
   6   6  -7   10.60    3.00
   6   6  -7   18.30    4.80
   6   6  -7   10.60    3.00
  -6  -6   7   18.60    4.30
  -6  -6   7   13.40    5.50
   5   6  -7   31.20    5.10
   5   6  -7   36.30    3.60
   5   6  -7   36.30    3.60
  -5  -6   7   37.60    4.80
  -5  -6   7   47.60    6.40
   4   6  -7   76.19    3.30
   4   6  -7   79.39    4.80
   4   6  -7   78.09    6.60
   4   6  -7   79.39    4.80
  -4  -6   7   79.19    7.40
  -4  -6   7   72.89    6.00
  -4  -6   7   76.59    3.50
   3   6  -7   62.09    5.60
   3   6  -7   60.79    4.10
   3   6  -7   60.79    4.10
   3   6  -7   59.69    4.30
  -3  -6   7   60.59    6.50
  -3  -6   7   60.39    4.40
  -3  -6   7   55.19    5.70
   2   6  -7  323.97    9.50
   2   6  -7  312.57   11.60
   2   6  -7  323.97    9.50
   2   6  -7  313.37   12.00
   2   6  -7  294.97   10.20
  -2  -6   7  328.87   11.00
  -2  -6   7  310.07   10.60
  -2  -6   7  315.57   11.70
  -2  -6   7  328.77   11.00
   1   6  -7  214.78    9.60
   1   6  -7  218.38    7.10
   1   6  -7  218.38    7.10
   1   6  -7  219.18    9.10
  -1  -6   7  224.98    9.50
  -1  -6   7  205.88    7.50
  -1  -6   7  224.18    9.20
  -1  -6   7  205.88    7.50
   0   6  -7  372.16   10.30
   0   6  -7  373.66   13.30
   0   6  -7  372.06   10.70
   0   6  -7  380.66   12.90
   0   6  -7  372.16   10.30
   0  -6   7  374.86   10.70
   0  -6   7  384.26   13.40
   0  -6   7  374.86   10.70
   0  -6   7  376.06   13.40
   0  -6   7  370.76   10.70
  -1   6  -7  298.67    8.60
  -1   6  -7  275.97    9.90
  -1   6  -7  303.37   11.70
  -1   6  -7  298.67    8.60
   1  -6   7  306.57   11.70
   1  -6   7  293.87    8.80
   1  -6   7  293.87    8.80
   1  -6   7  284.57    9.90
   1  -6   7  305.27   12.30
  -2   6  -7    4.50    2.20
  -2   6  -7   11.10    3.90
  -2   6  -7    6.90    3.80
  -2   6  -7    4.50    2.20
   2  -6   7   10.40    4.40
   2  -6   7    8.00    4.60
   2  -6   7    7.30    3.10
  -3   6  -7   91.69    8.20
  -3   6  -7   95.39    9.20
   3  -6   7   98.39    8.70
   3  -6   7   97.19   11.80
   3  -6   7  115.19   10.20
  -4   6  -7   18.40    7.10
  -4   6  -7   16.80    5.40
   4  -6   7   18.10    5.60
   4  -6   7   20.50    5.70
   4  -6   7   29.00    6.60
  -5   6  -7   24.50    7.40
  -5   6  -7   18.70    9.00
   5  -6   7   23.30    6.90
   8   6  -8   20.50    7.50
   8   6  -8   20.50    7.50
   8   6  -8   17.40    6.60
  -8  -6   8   13.10    8.30
   7   6  -8    6.30    3.70
   7   6  -8   -3.50    5.20
   7   6  -8    6.30    3.70
  -7  -6   8    1.10    6.40
  -7  -6   8    2.80    4.50
   6   6  -8  111.39    9.70
   6   6  -8  129.99    7.00
   6   6  -8  130.09    7.00
  -6  -6   8  107.19    7.60
  -6  -6   8  120.89   10.80
   5   6  -8   28.60    3.70
   5   6  -8   28.60    3.70
   5   6  -8   27.20    4.90
  -5  -6   8   25.20    4.90
  -5  -6   8   24.00    5.60
   4   6  -8   24.50    4.30
   4   6  -8   25.70    3.20
   4   6  -8   25.70    3.20
  -4  -6   8   18.50    4.00
   3   6  -8    5.00    2.90
   3   6  -8    8.20    2.50
   3   6  -8    8.20    2.50
   3   6  -8    2.00    3.10
  -3  -6   8    5.40    3.50
  -3  -6   8   11.60    4.50
  -3  -6   8    8.50    2.90
   2   6  -8   71.09    7.00
   2   6  -8   69.09    6.00
   2   6  -8   77.09    4.70
   2   6  -8   77.09    4.70
   2   6  -8   84.69    6.80
  -2  -6   8   70.99    6.10
  -2  -6   8   67.49    6.20
   1   6  -8  178.78    8.70
   1   6  -8  174.18    9.20
   1   6  -8  170.48    6.40
   1   6  -8  170.48    6.40
  -1  -6   8  169.18    9.20
  -1  -6   8  169.08    8.60
   0   6  -8   97.89    5.10
   0   6  -8  111.49    7.10
   0   6  -8  106.69    7.80
   0   6  -8   97.89    5.10
   0  -6   8   98.49    6.00
   0  -6   8  106.19    5.20
   0  -6   8   98.49    6.00
   0  -6   8  110.69    7.90
   0  -6   8  105.29    7.90
  -1   6  -8   86.09    8.00
  -1   6  -8   78.89    5.00
  -1   6  -8   87.69    7.70
  -1   6  -8   78.99    5.00
   1  -6   8   74.39    7.80
   1  -6   8   80.79    8.30
   1  -6   8   76.59    5.90
  -2   6  -8   38.50    6.00
  -2   6  -8   48.90    6.00
   2  -6   8   57.39    6.60
   2  -6   8   52.29    6.60
   2  -6   8   49.99    7.10
  -3   6  -8   26.30    6.70
  -3   6  -8   23.40    5.80
   3  -6   8   30.10    7.10
   3  -6   8   29.30    5.50
   3  -6   8   35.60    6.80
  -4   6  -8   16.30    6.70
  -4   6  -8   22.40    8.30
   4  -6   8   25.30    6.80
   4  -6   8   37.70    8.70
   8   6  -9    3.00    7.10
  -8  -6   9   15.80    5.40
   7   6  -9    9.70    4.30
   7   6  -9    9.70    4.30
   7   6  -9    4.40    6.00
  -7  -6   9    1.50    5.40
  -7  -6   9    7.80    7.30
   6   6  -9   69.19    6.50
   6   6  -9   63.49    7.40
   6   6  -9   69.19    6.50
  -6  -6   9   68.19    8.80
  -6  -6   9   76.29    8.00
   5   6  -9  186.68   10.80
   5   6  -9  199.38    8.50
   5   6  -9  199.38    8.50
  -5  -6   9  176.58    9.80
  -5  -6   9  194.28   12.70
   4   6  -9   22.40    4.60
   4   6  -9   22.80    3.60
   4   6  -9   22.80    3.60
  -4  -6   9   16.60    5.50
  -4  -6   9   15.20    4.30
   3   6  -9   11.60    3.70
   3   6  -9   16.60    3.10
   3   6  -9   16.60    3.10
  -3  -6   9    7.10    5.80
  -3  -6   9   20.20    4.50
  -3  -6   9   11.20    3.70
   2   6  -9   83.39    6.90
   2   6  -9   88.99    8.50
   2   6  -9   96.19    5.70
   2   6  -9   96.19    5.70
  -2  -6   9   84.39    7.60
  -2  -6   9   99.99    7.40
   1   6  -9  116.19    8.00
   1   6  -9  110.69    6.10
   1   6  -9  104.19    8.40
   1   6  -9  110.49    6.10
  -1  -6   9  110.49    8.50
  -1  -6   9  122.29    8.60
   0   6  -9  135.49    6.40
   0   6  -9  123.59    8.70
   0   6  -9  135.49    6.40
   0   6  -9  111.39   12.00
   0  -6   9  129.59    9.20
   0  -6   9  121.99    9.50
  -1   6  -9   88.29    9.40
  -1   6  -9   98.59    6.10
  -1   6  -9   86.69    8.70
  -1   6  -9   98.59    6.10
   1  -6   9  106.19    9.60
   1  -6   9  114.29   10.00
  -2   6  -9    5.60    5.10
  -2   6  -9    8.10    5.80
   2  -6   9    0.40    6.00
   2  -6   9   12.40    6.40
  -3   6  -9   39.90    8.00
  -3   6  -9   51.09    8.90
   3  -6   9   50.29    7.90
   3  -6   9   53.89    9.10
   7   6 -10   -0.70    6.30
  -7  -6  10    0.60    8.60
  -7  -6  10   -3.00    4.30
   6   6 -10  206.38   10.60
   6   6 -10  206.38   10.60
   6   6 -10  216.78   12.90
  -6  -6  10  230.68   14.80
   5   6 -10  114.49    7.90
   5   6 -10  139.89   10.40
   5   6 -10  114.49    7.90
  -5  -6  10  127.19   12.20
  -5  -6  10  115.49    8.60
   4   6 -10    3.30    3.40
   4   6 -10    3.30    3.40
   4   6 -10    2.30    4.20
  -4  -6  10    8.60    5.90
  -4  -6  10    2.00    4.30
   3   6 -10   93.89    6.80
   3   6 -10  112.39   10.00
   3   6 -10   93.89    6.80
   3   6 -10   92.49    8.20
  -3  -6  10   96.49    8.60
  -3  -6  10  105.09    8.40
   2   6 -10   59.29    7.20
   2   6 -10   57.49    6.80
   2   6 -10   63.79    5.80
   2   6 -10   63.79    5.80
  -2  -6  10   49.60    6.90
  -2  -6  10   48.10    6.00
   1   6 -10   39.30    5.50
   1   6 -10   44.10    6.90
   1   6 -10   50.69    4.50
   1   6 -10   50.69    4.50
  -1  -6  10   44.60    6.50
  -1  -6  10   37.60    6.50
   0   6 -10  114.79    9.90
   0   6 -10  119.89   10.10
   0   6 -10  115.69   10.10
   0   6 -10  119.89   10.10
   0  -6  10  116.79   10.40
   0  -6  10  101.99    9.80
  -1   6 -10   41.00    7.00
  -1   6 -10   46.30    7.20
   1  -6  10   40.10    7.60
   1  -6  10   42.00    7.50
   2  -6  10   14.40    7.20
   2  -6  10   24.10    8.30
   6   6 -11   12.00    6.60
  -6  -6  11   14.30    8.70
  -6  -6  11   18.20    5.20
   5   6 -11   23.30    5.10
   5   6 -11   14.30    5.60
   5   6 -11   23.30    5.10
  -5  -6  11   14.60    5.00
  -5  -6  11   23.40    8.60
   4   6 -11    1.10    4.20
   4   6 -11    8.00    6.80
   4   6 -11    1.10    4.20
   4   6 -11   -3.10    4.90
  -4  -6  11    8.60    4.90
   3   6 -11  -12.20    5.90
   3   6 -11   -3.50    4.70
   3   6 -11    0.80    3.90
   3   6 -11    0.80    3.90
  -3  -6  11    5.00    5.30
   2   6 -11   31.70    4.90
   2   6 -11   25.50    5.60
   2   6 -11   31.20    6.70
   2   6 -11   31.70    4.90
  -2  -6  11   40.50    6.60
  -2  -6  11   42.20    6.90
   1   6 -11  154.68    8.90
   1   6 -11  154.68    8.90
   1   6 -11  133.99   11.70
   1   6 -11  157.98   11.30
  -1  -6  11  143.79   11.90
  -1  -6  11  133.19   11.30
   0   6 -11  118.89   15.50
   0  -6  11  131.79   12.90
   0  -6  11  103.19    9.80
  -1   7  11   63.09    7.70
  -1   7  11   45.70    7.20
   1  -7 -11   67.19    8.60
  -2   7  11   76.99    8.30
  -2   7  11   75.49    8.10
  -2   7  11   83.99    7.00
   2  -7 -11   66.99    6.90
   2  -7 -11   79.99    8.40
   2  -7 -11   66.99    6.90
  -3   7  11   -4.50    5.50
  -3   7  11    5.00    6.40
  -3   7  11    9.30    4.80
   3  -7 -11    5.40    4.60
   3  -7 -11    5.40    4.60
  -4   7  11  125.69    9.00
  -4   7  11  139.49   12.70
  -4   7  11  130.59   11.20
   4  -7 -11  136.19    9.70
   4  -7 -11  136.19    9.70
  -5   7  11   73.19    8.80
  -5   7  11   61.59    7.40
  -5   7  11   70.39    9.10
   5  -7 -11   53.39    8.00
   5  -7 -11   53.39    8.00
   1   7  10   50.39    7.50
   1   7  10   67.09    8.30
  -1  -7 -10   77.89    9.10
   0   7  10  115.29    9.80
   0   7  10   96.59   10.00
   0  -7 -10  113.49   11.30
   0  -7 -10  112.89    9.00
   0  -7 -10  112.89    9.00
  -1   7  10   49.30    6.60
  -1   7  10   41.90    6.20
   1  -7 -10   47.30    7.00
   1  -7 -10   48.80    5.60
   1  -7 -10   48.80    5.60
  -2   7  10   55.79    6.60
  -2   7  10   57.79    5.50
  -2   7  10   53.59    6.70
   2  -7 -10   59.39    5.70
   2  -7 -10   52.79    6.30
   2  -7 -10   59.39    5.70
  -3   7  10   28.10    5.90
  -3   7  10   21.50    5.50
  -3   7  10   29.40    4.90
   3  -7 -10   31.30    4.70
   3  -7 -10   31.30    4.70
   3  -7 -10   30.40    4.90
  -4   7  10   -3.00    5.30
  -4   7  10    2.60    4.00
  -4   7  10    0.60    4.90
   4  -7 -10    2.10    3.80
   4  -7 -10    2.10    3.80
  -5   7  10   78.09    8.10
  -5   7  10   77.79    7.30
   5  -7 -10   73.99    6.50
   5  -7 -10   66.69    7.50
   5  -7 -10   73.99    6.60
  -6   7  10  226.48   13.50
   6  -7 -10  201.08   11.30
   6  -7 -10  201.08   11.30
   6  -7 -10  201.08   13.80
   2   7   9   20.90    5.90
   2   7   9   20.60    6.30
  -2  -7  -9   32.70    5.40
  -2  -7  -9   23.20    7.00
  -2  -7  -9   32.70    5.40
   1   7   9   39.10    6.00
   1   7   9   36.10    6.00
  -1  -7  -9   46.20    5.70
  -1  -7  -9   38.90    6.40
  -1  -7  -9   46.20    5.70
   0   7   9   45.30    5.80
   0   7   9   52.59    6.10
   0  -7  -9   43.40    5.00
   0  -7  -9   54.19    6.20
   0  -7  -9   43.40    5.00
  -1   7   9   56.39    6.10
  -1   7   9   67.09    7.50
  -1   7   9   53.09    6.00
   1  -7  -9   70.09    6.50
   1  -7  -9   70.09    6.50
   1  -7  -9   68.89    7.60
  -2   7   9  136.59    9.20
  -2   7   9  138.89    7.50
  -2   7   9  123.19    8.70
   2  -7  -9  129.79    8.10
   2  -7  -9  124.19    7.60
   2  -7  -9  124.19    7.60
  -3   7   9    4.90    3.80
  -3   7   9    4.70    3.40
  -3   7   9    2.90    4.30
   3  -7  -9    9.00    3.20
   3  -7  -9    1.90    3.40
   3  -7  -9    9.00    3.20
  -4   7   9   39.30    5.60
  -4   7   9   33.40    4.50
   4  -7  -9   30.20    4.50
   4  -7  -9   30.20    4.50
   4  -7  -9   31.20    5.10
  -5   7   9   10.00    3.80
  -5   7   9    7.20    4.70
   5  -7  -9    8.80    4.10
   5  -7  -9    8.80    4.10
   5  -7  -9   16.10    5.10
  -6   7   9   94.39   10.00
  -6   7   9   83.79    7.30
   6  -7  -9  104.09    8.30
   6  -7  -9   88.79   10.70
   6  -7  -9  104.09    8.30
  -7   7   9  131.89   11.60
  -7   7   9   95.79   11.00
  -7   7   9  105.69    8.10
   7  -7  -9   99.49    8.90
   7  -7  -9   99.49    8.90
   7  -7  -9  100.29   11.90
   3   7   8   -0.20    5.40
   3   7   8    2.10    5.00
  -3  -7  -8   16.20    6.40
  -3  -7  -8   12.80    5.20
  -3  -7  -8   12.80    5.20
   2   7   8  124.39    9.80
   2   7   8  112.09    8.80
  -2  -7  -8  128.99   10.60
  -2  -7  -8  108.09    8.10
  -2  -7  -8  108.09    8.10
   1   7   8    2.20    3.90
   1   7   8    1.60    3.70
  -1  -7  -8    0.30    3.50
  -1  -7  -8    6.60    4.20
  -1  -7  -8    0.30    3.50
   0   7   8  155.48    9.00
   0   7   8  164.38    9.10
   0  -7  -8  165.78    9.40
   0  -7  -8  163.88    8.00
   0  -7  -8  163.88    8.00
  -1   7   8   99.49    6.10
  -1   7   8   96.19    7.50
  -1   7   8   81.79    7.00
   1  -7  -8   96.69    6.30
   1  -7  -8   93.89    7.10
   1  -7  -8   96.69    6.30
  -2   7   8    4.70    3.10
  -2   7   8    3.10    3.20
  -2   7   8    4.00    3.60
   2  -7  -8   -1.60    2.80
   2  -7  -8   -1.60    2.80
   2  -7  -8    3.80    2.80
  -3   7   8   68.49    6.70
  -3   7   8   61.99    5.50
  -3   7   8   63.79    3.90
   3  -7  -8   61.99    6.70
   3  -7  -8   59.79    5.10
   3  -7  -8   53.59    5.20
   3  -7  -8   53.59    5.20
  -4   7   8   78.49    6.00
  -4   7   8   86.49    5.50
  -4   7   8   90.39    7.50
   4  -7  -8   83.89    5.90
   4  -7  -8   74.99    4.60
   4  -7  -8   83.89    5.90
   4  -7  -8   78.79    7.70
  -5   7   8   56.79    6.10
  -5   7   8   48.40    5.10
  -5   7   8   42.20    5.60
   5  -7  -8   42.70    4.40
   5  -7  -8   42.70    4.40
   5  -7  -8   47.60    5.80
  -6   7   8   26.60    5.50
  -6   7   8   29.70    5.10
  -6   7   8   19.90    4.30
   6  -7  -8   30.70    5.90
   6  -7  -8   20.40    4.00
   6  -7  -8   20.40    4.00
  -7   7   8   55.09    6.20
  -7   7   8   57.19    7.50
  -7   7   8   63.79    7.20
   7  -7  -8   52.09    5.60
   7  -7  -8   52.09    5.60
   7  -7  -8   61.39    8.00
  -8   7   8   42.70    7.90
  -8   7   8   43.80    6.40
  -8   7   8   50.09    8.20
   8  -7  -8   44.10    5.60
   8  -7  -8   41.10    8.20
   8  -7  -8   44.10    5.60
   4   7   7  -14.40    5.00
   4   7   7   -5.00    6.20
  -4  -7  -7   -2.20    6.40
  -4  -7  -7    0.10    5.00
  -4  -7  -7    0.10    5.00
   3   7   7    5.00    4.80
   3   7   7    4.30    4.00
  -3  -7  -7    2.70    4.20
  -3  -7  -7    7.60    5.10
  -3  -7  -7    2.70    4.20
   2   7   7  153.78    8.90
   2   7   7  154.98    9.00
  -2  -7  -7  145.79   10.00
  -2  -7  -7  146.39    7.90
  -2  -7  -7  146.39    7.90
   1   7   7  132.39    8.00
   1   7   7  139.39    8.20
  -1  -7  -7  131.69    7.20
  -1  -7  -7  131.69    7.20
  -1  -7  -7  147.99    8.90
   0   7   7   97.59    6.80
   0   7   7   94.19    5.30
   0   7   7  102.09    6.70
   0  -7  -7  103.09    6.10
   0  -7  -7   91.39    6.80
   0  -7  -7  103.09    6.10
  -1   7   7  448.66   12.70
  -1   7   7  396.86   15.90
   1  -7  -7  435.56   13.80
  -2   7   7  122.59    7.30
  -2   7   7  114.69    6.20
  -2   7   7  120.19    6.30
   2  -7  -7  115.99   10.00
   2  -7  -7  125.79    6.20
   2  -7  -7  109.29    5.90
   2  -7  -7  109.29    5.90
  -3   7   7   44.30    3.80
  -3   7   7   41.60    4.30
  -3   7   7   42.80    4.40
  -3   7   7   40.50    5.00
   3  -7  -7   45.60    3.90
   3  -7  -7   45.40    5.10
   3  -7  -7   40.10    7.40
   3  -7  -7   38.60    3.80
   3  -7  -7   38.60    3.80
  -4   7   7    3.20    2.00
  -4   7   7    6.60    4.10
  -4   7   7    3.40    3.00
  -4   7   7    1.30    2.50
   4  -7  -7    0.30    3.20
   4  -7  -7    1.10    2.60
   4  -7  -7    1.20    4.00
   4  -7  -7    1.10    2.60
   4  -7  -7   -0.20    1.50
  -5   7   7   21.90    4.60
  -5   7   7   21.10    4.00
  -5   7   7   23.70    4.10
   5  -7  -7   23.20    4.60
  -6   7   7   44.50    6.10
  -6   7   7   45.00    5.30
  -6   7   7   51.29    5.80
   6  -7  -7   59.39    6.80
   6  -7  -7   46.70    4.40
   6  -7  -7   46.70    4.40
  -7   7   7    9.70    5.10
  -7   7   7    1.10    4.00
  -7   7   7   -7.90    4.80
   7  -7  -7    0.60    5.60
   7  -7  -7    7.30    3.50
   7  -7  -7    7.20    3.50
  -8   7   7   21.10    5.10
  -8   7   7   29.90    7.10
  -8   7   7    9.10    6.70
   8  -7  -7   20.90    4.60
   8  -7  -7   20.90    4.60
   8  -7  -7    6.00    6.80
   5   7   6   50.39    7.30
   5   7   6   55.39    6.20
   5   7   6   34.90    8.30
   5   7   6   55.49    6.20
  -5  -7  -6   52.59    8.40
   4   7   6   62.59    7.90
   4   7   6   75.99    7.90
  -4  -7  -6   76.69    6.90
  -4  -7  -6   78.69   10.00
  -4  -7  -6   76.69    6.90
   3   7   6  103.89    7.70
   3   7   6  108.19    8.50
  -3  -7  -6   93.79    8.90
  -3  -7  -6  115.39    7.40
  -3  -7  -6  115.39    7.40
   2   7   6   64.69    6.20
   2   7   6   61.99    6.20
  -2  -7  -6   60.59    5.50
  -2  -7  -6   51.89    7.10
  -2  -7  -6   60.59    5.50
   1   7   6  115.69    7.00
   1   7   6  125.99    7.50
  -1  -7  -6  132.69    7.10
  -1  -7  -6  120.49    7.60
  -1  -7  -6  132.69    7.10
   0   7   6   90.59    4.90
   0   7   6   85.49    6.20
   0   7   6   79.99    6.00
   0  -7  -6   88.59    6.00
   0  -7  -6   82.19    5.20
   0  -7  -6   82.19    5.20
  -1   7   6   63.99    5.00
  -1   7   6   70.19    5.70
  -1   7   6   78.19    5.80
  -1   7   6   66.29    4.90
   1  -7  -6   65.49    4.50
   1  -7  -6   71.29    5.00
   1  -7  -6   65.49    4.50
  -2   7   6    4.80    2.70
  -2   7   6    6.70    2.30
  -2   7   6    5.10    2.20
  -2   7   6    3.30    1.70
  -2   7   6    0.70    2.50
   2  -7  -6    5.60    2.40
   2  -7  -6    7.30    2.00
   2  -7  -6    3.50    2.10
   2  -7  -6    7.30    2.00
  -3   7   6  141.79    7.70
  -3   7   6  148.29    6.10
  -3   7   6  137.79    6.80
   3  -7  -6  137.19    5.90
   3  -7  -6  137.19    5.90
   3  -7  -6  159.18    8.00
   3  -7  -6  148.99    7.00
   3  -7  -6  144.49    5.20
  -4   7   6   98.09    6.00
  -4   7   6   97.19    7.10
  -4   7   6   97.99    6.20
   4  -7  -6   89.29    6.90
   4  -7  -6   93.39    5.10
   4  -7  -6   93.39    5.10
   4  -7  -6   90.29    7.10
  -5   7   6  124.29    8.10
  -5   7   6  113.29    7.20
  -5   7   6  112.69    6.90
   5  -7  -6  108.69    5.60
   5  -7  -6  110.79    7.60
   5  -7  -6  108.79    5.60
  -6   7   6   17.10    4.60
  -6   7   6   24.70    4.30
  -6   7   6   25.00    4.70
   6  -7  -6   23.30    3.10
   6  -7  -6   23.30    3.10
   6  -7  -6   23.50    4.90
   6  -7  -6   15.70    4.40
  -7   7   6   17.20    4.40
  -7   7   6   23.20    5.50
   7  -7  -6   25.00    6.00
   7  -7  -6   28.70    5.90
  -8   7   6   41.60    7.50
   8  -7  -6   35.40    4.60
   8  -7  -6   32.90    7.60
   8  -7  -6   42.20    7.70
   8  -7  -6   35.40    4.60
   6   7   5  133.39   14.80
  -6  -7  -5  192.28   22.90
   5   7   5    1.70    4.90
   5   7   5    7.50    4.20
   5   7   5    7.50    4.20
   5   7   5    5.70    5.80
  -5  -7  -5    7.30    5.70
   4   7   5    4.00    3.40
   4   7   5    4.70    3.90
   4   7   5    4.00    3.40
   4   7   5    5.70    4.00
  -4  -7  -5    8.30    3.70
  -4  -7  -5    3.10    3.20
  -4  -7  -5    8.20    4.70
  -4  -7  -5    8.30    3.70
   3   7   5   32.00    4.40
  -3  -7  -5   27.20    4.80
  -3  -7  -5   37.40    4.30
  -3  -7  -5   29.90    3.20
  -3  -7  -5   37.40    4.30
   2   7   5 1047.30   27.10
   2   7   5 1025.20   24.00
   2   7   5  998.70   24.00
  -2  -7  -5  927.21   29.10
  -2  -7  -5  927.21   29.10
  -2  -7  -5 1016.90   28.00
   1   7   5   10.00    2.70
   1   7   5   14.40    2.70
   1   7   5   13.80    2.90
  -1  -7  -5    7.80    2.60
  -1  -7  -5    7.80    2.60
  -1  -7  -5   14.30    3.10
   0   7   5  188.78    8.30
   0   7   5  180.28    7.60
   0   7   5  182.68    8.00
   0   7   5  200.78    6.80
   0   7   5  188.68    5.30
   0   7   5  189.38    5.20
   0  -7  -5  186.18    7.00
   0  -7  -5  200.88    8.10
   0  -7  -5  186.18    7.00
  -1   7   5   21.50    2.70
  -1   7   5   31.60    3.00
  -1   7   5   29.00    3.50
  -1   7   5   33.20    3.30
  -1   7   5   26.50    3.70
   1  -7  -5   26.90    2.70
   1  -7  -5   28.10    3.60
   1  -7  -5   26.90    2.70
  -2   7   5  340.67    9.80
  -2   7   5  290.17    9.40
  -2   7   5  290.17    9.40
  -2   7   5  325.87    9.00
  -2   7   5  321.57   11.50
  -2   7   5  327.07   10.30
   2  -7  -5  293.37   11.50
   2  -7  -5  339.17    9.70
   2  -7  -5  339.17    9.70
   2  -7  -5  335.67   11.60
   2  -7  -5  322.67    9.90
  -3   7   5 1177.48   30.70
  -3   7   5 1177.48   30.70
  -3   7   5 1284.87   32.00
  -3   7   5 1276.57   33.40
  -3   7   5 1318.97   31.80
   3  -7  -5 1309.47   31.10
   3  -7  -5 1309.47   31.10
   3  -7  -5 1313.97   33.70
   3  -7  -5 1266.87   31.90
  -4   7   5  275.67    9.10
  -4   7   5  299.07   10.60
  -4   7   5  307.77   11.50
  -4   7   5  308.97   10.50
  -4   7   5  275.67    9.10
   4  -7  -5  305.47    9.10
   4  -7  -5  306.27   11.70
   4  -7  -5  305.47    9.10
   4  -7  -5  280.77   11.10
   4  -7  -5  290.67   11.50
  -5   7   5  149.88    8.10
  -5   7   5  138.79    7.30
   5  -7  -5  148.19    8.70
   5  -7  -5  146.79    8.50
   5  -7  -5  154.58    6.10
   5  -7  -5  154.58    6.10
  -6   7   5   82.79    7.60
  -6   7   5   89.39    6.20
   6  -7  -5   97.39    8.00
   6  -7  -5   86.79    4.90
   6  -7  -5   67.39   10.50
   6  -7  -5   86.79    4.90
  -7   7   5   19.40    5.20
  -7   7   5   13.40    4.00
   7  -7  -5   18.30    3.10
   7  -7  -5   18.30    3.10
   7  -7  -5   12.80    5.10
   7  -7  -5   21.30    5.00
  -8   7   5    1.20    4.00
  -8   7   5    7.40    5.90
   8  -7  -5   -4.60    5.30
   8  -7  -5   -0.80    6.30
   6   7   4   22.00    7.50
   6   7   4   19.90    4.90
   6   7   4   19.60    6.40
   6   7   4   19.90    4.90
  -6  -7  -4   30.50    7.60
   5   7   4   40.90    6.30
   5   7   4   46.40    4.80
   5   7   4   46.40    4.80
   5   7   4   35.90    5.50
  -5  -7  -4   55.09    6.90
  -5  -7  -4   40.40    6.60
   4   7   4  141.09    8.40
   4   7   4  149.88    7.40
   4   7   4  131.99    8.00
   4   7   4  149.88    7.40
  -4  -7  -4  140.99    7.70
  -4  -7  -4  128.99    9.30
   3   7   4  313.57   10.10
   3   7   4  301.47   10.90
   3   7   4  278.57   15.80
  -3  -7  -4  306.37   14.00
  -3  -7  -4  306.47   12.40
  -3  -7  -4  306.37   14.00
  -3  -7  -4  293.57   10.00
   2   7   4   39.40    3.70
   2   7   4   51.29    4.70
   2   7   4   53.99    4.80
  -2  -7  -4   54.89    5.50
  -2  -7  -4   46.40    4.20
  -2  -7  -4   46.40    4.20
  -2  -7  -4   49.90    4.00
   1   7   4    5.70    2.60
   1   7   4    8.60    2.20
   1   7   4    3.00    2.70
   1   7   4    5.60    1.80
   1   7   4    7.10    2.10
  -1  -7  -4    6.70    2.20
  -1  -7  -4    6.70    2.20
  -1  -7  -4    3.90    2.30
   0   7   4  243.38    8.50
   0   7   4  251.17    7.30
   0   7   4  261.87    9.40
   0   7   4  255.27    7.90
   0   7   4  242.88    9.20
   0  -7  -4  241.18    8.70
   0  -7  -4  235.08    8.00
   0  -7  -4  235.08    8.00
  -1   7   4   55.49    3.60
  -1   7   4   56.29    6.20
  -1   7   4   55.09    4.60
  -1   7   4   52.89    3.40
  -1   7   4   61.99    4.10
  -1   7   4   52.89    3.40
  -1   7   4   57.09    3.90
   1  -7  -4   52.99    3.70
   1  -7  -4   52.19    4.30
   1  -7  -4   57.59    3.50
   1  -7  -4   57.59    3.50
  -2   7   4  152.68    5.50
  -2   7   4  174.28    6.40
  -2   7   4  154.48    6.50
  -2   7   4  159.38    4.90
  -2   7   4  153.48    7.30
  -2   7   4  152.68    5.50
   2  -7  -4  161.88    7.30
   2  -7  -4  152.88    5.20
   2  -7  -4  165.98    6.70
   2  -7  -4  154.28    5.50
   2  -7  -4  154.28    5.50
  -3   7   4   25.80    2.50
  -3   7   4   17.40    2.80
  -3   7   4   24.30    3.50
  -3   7   4   25.80    2.50
   3  -7  -4   22.20    3.60
   3  -7  -4   29.50    4.00
   3  -7  -4   24.90    2.30
   3  -7  -4   19.40    3.30
   3  -7  -4   24.90    2.30
  -4   7   4   20.20    3.40
  -4   7   4   20.20    2.40
  -4   7   4   14.60    3.60
  -4   7   4   20.20    2.40
   4  -7  -4   21.10    2.20
   4  -7  -4   19.30    4.50
   4  -7  -4   23.50    3.90
   4  -7  -4   24.90    4.00
   4  -7  -4   21.10    2.20
  -5   7   4   44.00    4.20
  -5   7   4   44.00    4.20
  -5   7   4   40.40    4.90
  -5   7   4   46.70    4.90
   5  -7  -4   33.80    3.30
   5  -7  -4   34.50    5.50
   5  -7  -4   33.80    3.30
   5  -7  -4   37.50    4.80
  -6   7   4   49.30    4.00
  -6   7   4   49.30    4.00
  -6   7   4   57.09    5.70
   6  -7  -4   56.39    6.80
   6  -7  -4   58.99    4.00
   6  -7  -4   58.99    4.00
  -7   7   4   35.10    5.70
  -7   7   4   37.20    5.10
   7  -7  -4   38.30    3.40
   7  -7  -4   37.20    6.10
   7  -7  -4   40.90    5.80
   7  -7  -4   38.30    3.40
  -8   7   4    6.80    4.40
  -8   7   4    8.80    6.20
   8  -7  -4   18.10    6.20
   8  -7  -4    7.60    6.20
   7   7   3  138.19   10.10
   7   7   3  138.19   10.10
   7   7   3  105.29   12.90
   7   7   3   90.49   11.50
  -7  -7  -3  143.49   14.40
  -7  -7  -3  133.49   13.80
   6   7   3   81.19    7.10
   6   7   3   75.59    8.10
   6   7   3   81.19    7.10
   6   7   3   63.99    7.50
  -6  -7  -3   66.79    8.50
  -6  -7  -3   72.69    9.00
   5   7   3   19.90    4.10
   5   7   3   32.10    4.00
   5   7   3   28.80    5.10
   5   7   3   32.20    4.00
  -5  -7  -3   19.90    5.00
  -5  -7  -3   24.00    4.60
   4   7   3  102.39    5.70
   4   7   3   91.59    6.60
   4   7   3   78.99    7.60
   4   7   3  102.39    5.70
   4   7   3   81.79    6.60
  -4  -7  -3  102.69    6.50
   3   7   3  437.06   12.90
   3   7   3  437.06   12.90
   3   7   3  444.06   14.00
   3   7   3  434.06   13.40
   3   7   3  419.46   12.70
  -3  -7  -3  412.36   12.90
  -3  -7  -3  412.36   12.90
  -3  -7  -3  447.36   15.10
  -3  -7  -3  442.06   13.20
   2   7   3  120.99    6.00
   2   7   3  108.99    5.00
   2   7   3  116.59    6.00
  -2  -7  -3  109.49    7.70
  -2  -7  -3  114.09    5.50
  -2  -7  -3  114.09    5.50
  -2  -7  -3  116.49    6.70
  -2  -7  -3  112.59    4.80
  -2  -7  -3  118.99    5.50
   1   7   3  182.18    7.50
   1   7   3  173.88    8.00
   1   7   3  195.98    7.70
   1   7   3  198.58    6.50
   1   7   3  198.68    6.60
   1   7   3  180.48    6.60
   1   7   3  198.58    7.60
   1   7   3  180.48    6.60
   1   7   3  184.88    8.10
  -1  -7  -3  195.48    6.70
  -1  -7  -3  195.58    6.70
  -1  -7  -3  194.48    6.50
  -1  -7  -3  199.98    7.90
   0   7   3  138.69    6.20
   0   7   3  128.19    4.90
   0   7   3  130.59    5.10
   0   7   3  131.79    6.20
   0   7   3  129.19    7.00
   0   7   3  128.19    4.90
   0   7   3  130.39    5.60
   0   7   3  133.79    6.40
   0   7   3  130.99    5.30
   0  -7  -3  138.09    5.40
   0  -7  -3  136.49    5.20
   0  -7  -3  136.69    5.80
   0  -7  -3  136.49    5.20
   0  -7  -3  140.89    6.20
  -1   7   3   30.50    2.60
  -1   7   3   28.80    3.70
  -1   7   3   30.50    2.60
  -1   7   3   31.90    3.30
  -1   7   3   24.80    3.10
  -1   7   3   29.30    3.70
  -1   7   3   30.50    2.70
  -1   7   3   27.80    2.90
   1  -7  -3   28.70    3.30
   1  -7  -3   26.50    2.50
   1  -7  -3   34.20    3.20
   1  -7  -3   26.50    2.50
  -2   7   3  217.78    6.50
  -2   7   3  198.68    8.90
  -2   7   3  219.88    6.00
  -2   7   3  223.98    7.70
  -2   7   3  217.78    6.50
  -2   7   3  224.58    5.90
  -2   7   3  218.88    7.60
   2  -7  -3  217.98    6.60
   2  -7  -3  217.98    6.60
   2  -7  -3  227.68    8.60
   2  -7  -3  219.38    8.60
   2  -7  -3  222.38    8.20
   2  -7  -3  213.48    7.70
  -3   7   3 1095.49   28.30
  -3   7   3 1100.69   27.80
  -3   7   3 1118.19   26.10
  -3   7   3 1118.19   26.10
   3  -7  -3 1084.59   26.20
   3  -7  -3 1114.99   29.20
   3  -7  -3 1044.90   28.90
   3  -7  -3 1052.89   28.20
   3  -7  -3 1084.59   26.20
  -4   7   3   92.19    6.70
  -4   7   3   95.19    4.00
  -4   7   3   95.19    4.00
  -4   7   3   97.09    5.90
   4  -7  -3   95.19    3.90
   4  -7  -3   88.99    6.10
   4  -7  -3   94.09    6.40
   4  -7  -3   95.19    3.90
  -5   7   3  134.59    6.80
  -5   7   3  136.99    5.40
  -5   7   3  149.19    8.50
  -5   7   3  136.99    5.40
   5  -7  -3  149.39    8.40
   5  -7  -3  159.68    8.30
   5  -7  -3  147.69    5.10
   5  -7  -3  147.69    5.00
  -6   7   3   35.80    3.30
  -6   7   3   30.50    4.80
  -6   7   3   27.90    4.10
  -6   7   3   35.80    3.30
   6  -7  -3   29.70    4.70
   6  -7  -3   35.50    3.30
   6  -7  -3   35.50    3.30
  -7   7   3    1.30    4.40
  -7   7   3    0.60    3.50
   7  -7  -3    3.60    2.20
   7  -7  -3    9.50    4.40
   7  -7  -3    3.60    2.20
   7  -7  -3    9.20    5.10
  -8   7   3   52.69    7.50
  -8   7   3   39.30    5.80
   8  -7  -3   45.40    6.90
   8  -7  -3   61.19    8.10
   7   7   2   80.99    6.80
   7   7   2   80.99    6.80
   7   7   2   84.29    8.70
   7   7   2   92.89   10.10
  -7  -7  -2   68.79    9.30
  -7  -7  -2   75.49    8.20
   6   7   2  118.09    7.40
   6   7   2   98.19    9.10
   6   7   2  118.59    9.80
   6   7   2  118.09    7.40
  -6  -7  -2  128.59   10.30
  -6  -7  -2  128.29    9.00
   5   7   2   47.00    5.00
   5   7   2   39.20    4.00
   5   7   2   39.20    4.00
   5   7   2   38.70    4.80
  -5  -7  -2   52.39    6.60
  -5  -7  -2   49.90    6.30
   4   7   2    3.70    3.60
   4   7   2    7.10    2.30
   4   7   2    5.30    2.80
   4   7   2    7.10    2.30
   4   7   2    6.30    2.70
  -4  -7  -2   12.00    3.00
  -4  -7  -2    3.10    3.10
   3   7   2   -0.30    1.80
   3   7   2    3.70    1.90
   3   7   2   -0.30    1.90
   3   7   2   -0.60    3.00
   3   7   2    4.30    2.50
   3   7   2    3.70    1.90
  -3  -7  -2   -1.00    2.30
  -3  -7  -2    2.30    3.00
  -3  -7  -2    3.10    2.70
  -3  -7  -2   -1.90    2.10
   2   7   2   15.40    2.50
   2   7   2   10.80    2.40
   2   7   2   16.30    2.80
   2   7   2   11.70    2.10
   2   7   2   19.10    2.70
   2   7   2   11.70    2.10
   2   7   2   16.00    3.10
   2   7   2   20.30    2.70
  -2  -7  -2   18.10    2.60
  -2  -7  -2   17.20    2.60
  -2  -7  -2   17.90    2.70
  -2  -7  -2   15.80    3.10
  -2  -7  -2   17.90    2.70
   1   7   2   37.40    3.40
   1   7   2   32.10    4.10
   1   7   2   35.20    3.90
   1   7   2   33.90    2.90
   1   7   2   33.00    3.40
   1   7   2   37.10    3.50
   1   7   2   33.90    2.90
   1   7   2   32.70    3.30
   1   7   2   35.10    3.50
  -1  -7  -2   39.80    3.10
  -1  -7  -2   39.80    3.10
  -1  -7  -2   39.60    3.60
  -1  -7  -2   42.00    3.80
   0   7   2  255.57    7.40
   0   7   2  254.27    8.10
   0   7   2  266.47    8.50
   0   7   2  248.68    9.00
   0   7   2  260.07    8.90
   0   7   2  255.57    7.40
   0   7   2  252.47    8.10
   0   7   2  252.27    9.20
   0  -7  -2  248.38    7.50
   0  -7  -2  256.47    8.20
   0  -7  -2  246.48    8.60
   0  -7  -2  251.57    8.40
   0  -7  -2  248.38    7.50
  -1   7   2  706.73   17.70
  -1   7   2  712.93   18.90
  -1   7   2  719.43   20.00
  -1   7   2  727.53   18.20
  -1   7   2  732.93   18.10
  -1   7   2  752.52   19.60
  -1   7   2  706.73   17.70
  -1   7   2  723.73   19.70
   1  -7  -2  704.83   19.10
   1  -7  -2  729.93   17.90
   1  -7  -2  729.93   17.90
   1  -7  -2  735.33   18.90
   1  -7  -2  713.73   19.70
   1  -7  -2  740.03   19.70
  -2   7   2   66.89    2.60
  -2   7   2   67.69    5.00
  -2   7   2   71.69    5.50
  -2   7   2   71.69    3.00
  -2   7   2   70.49    4.30
  -2   7   2   70.69    2.60
  -2   7   2   71.69    3.00
   2  -7  -2   70.19    3.00
   2  -7  -2   74.39    4.90
   2  -7  -2   66.39    4.80
   2  -7  -2   67.59    4.50
   2  -7  -2   70.19    3.00
   2  -7  -2   64.79    4.50
  -3   7   2  128.49    6.50
  -3   7   2  148.19    6.90
  -3   7   2  144.29    4.50
  -3   7   2  144.29    4.50
   3  -7  -2  148.29    7.30
   3  -7  -2  147.99    4.50
   3  -7  -2  136.59    7.10
   3  -7  -2  150.38    7.10
   3  -7  -2  147.99    4.50
   3  -7  -2  146.09    6.50
  -4   7   2  153.58    7.10
  -4   7   2  164.88    8.10
  -4   7   2  164.08    5.00
  -4   7   2  164.08    5.00
   4  -7  -2  156.18    4.80
   4  -7  -2  156.18    4.80
   4  -7  -2  162.58    7.90
   4  -7  -2  162.58    8.10
   4  -7  -2  159.78    7.10
  -5   7   2  178.98    5.80
  -5   7   2  187.38    9.60
  -5   7   2  187.98    8.20
  -5   7   2  178.98    5.80
   5  -7  -2  188.48    5.60
   5  -7  -2  196.58    9.50
   5  -7  -2  187.18    9.30
   5  -7  -2  188.48    5.60
  -6   7   2   19.30    4.40
  -6   7   2   15.50    3.60
   6  -7  -2   14.90    4.40
   6  -7  -2   18.40    1.90
   6  -7  -2   18.40    1.90
   6  -7  -2   27.50    4.80
  -7   7   2   33.90    6.00
  -7   7   2   33.10    4.90
   7  -7  -2   39.50    6.10
   7  -7  -2   39.40    6.40
  -8   7   2   18.80    5.30
  -8   7   2   16.50    6.20
   8  -7  -2   21.00    6.40
   8  -7  -2    6.80    6.60
   8   7   1   17.90    7.10
  -8  -7  -1   38.60    8.40
   7   7   1   75.59    9.40
   7   7   1   87.19    7.10
   7   7   1   87.19    7.10
  -7  -7  -1  102.69   12.00
  -7  -7  -1   82.29    9.80
   6   7   1   26.30    3.90
   6   7   1   21.30    4.80
   6   7   1   26.30    3.90
   6   7   1   22.10    4.80
  -6  -7  -1   28.30    5.20
  -6  -7  -1   21.50    5.70
   5   7   1   96.19    6.40
   5   7   1   87.69    6.90
   5   7   1  106.29    5.90
   5   7   1  106.29    5.90
  -5  -7  -1   86.69    6.90
  -5  -7  -1  102.69    7.30
  -5  -7  -1   86.59    8.00
   4   7   1  192.28    7.50
   4   7   1  195.08    8.30
   4   7   1  192.28    7.50
   4   7   1  205.58    7.50
   4   7   1  207.08    8.30
  -4  -7  -1  183.98    8.10
  -4  -7  -1  194.28    7.20
  -4  -7  -1  197.98    8.70
  -4  -7  -1  197.88    9.60
   3   7   1  213.58    8.40
   3   7   1  223.18    7.60
   3   7   1  229.18    8.40
   3   7   1  226.98    8.30
   3   7   1  207.88    8.60
   3   7   1  229.88    7.70
   3   7   1  229.88    7.70
  -3  -7  -1  225.48    8.80
  -3  -7  -1  219.18    9.40
  -3  -7  -1  221.58    7.60
   2   7   1   60.99    3.50
   2   7   1   56.29    3.90
   2   7   1   60.99    3.50
   2   7   1   59.39    4.60
   2   7   1   46.10    3.60
   2   7   1   55.79    3.80
   2   7   1   57.39    4.40
   2   7   1   55.39    4.30
   2   7   1   50.39    4.40
   2   7   1   46.10    3.60
  -2  -7  -1   57.19    4.30
  -2  -7  -1   53.49    4.60
  -2  -7  -1   61.89    4.30
   1   7   1  334.97   10.20
   1   7   1  332.67   10.30
   1   7   1  329.77   10.30
   1   7   1  319.07    9.20
   1   7   1  324.47   10.30
   1   7   1  337.57   10.30
   1   7   1  331.17   10.50
   1   7   1  325.77   10.30
   1   7   1  319.07    9.20
  -1  -7  -1  328.97    9.90
  -1  -7  -1  325.07   10.60
  -1  -7  -1  328.67    9.30
  -1  -7  -1  328.67    9.30
  -1  -7  -1  328.27   10.50
   0   7   1    1.20    2.00
   0   7   1    2.60    1.50
   0   7   1    4.20    1.90
   0   7   1    2.70    1.20
   0   7   1    3.40    1.70
   0   7   1    1.70    1.40
   0   7   1    2.70    1.20
   0   7   1    3.70    1.80
   0  -7  -1    3.50    1.70
   0  -7  -1    2.60    1.20
   0  -7  -1    2.60    1.20
   0  -7  -1    2.60    2.10
   0  -7  -1    1.80    1.50
  -1   7   1  465.15   13.10
  -1   7   1  457.15   11.40
  -1   7   1  465.15   13.80
  -1   7   1  457.15   11.40
  -1   7   1  448.76   12.00
  -1   7   1  451.75   13.20
  -1   7   1  466.55   12.20
  -1   7   1  437.26   13.60
   1  -7  -1  455.45   13.60
   1  -7  -1  454.35   13.40
   1  -7  -1  449.95   13.20
   1  -7  -1  457.25   11.50
   1  -7  -1  457.25   11.50
   1  -7  -1  452.15   13.00
  -2   7   1  588.04   16.80
  -2   7   1  610.24   14.40
  -2   7   1  610.14   14.40
  -2   7   1  605.34   14.90
  -2   7   1  609.94   16.80
  -2   7   1  577.54   17.30
  -2   7   1  606.74   14.70
   2  -7  -1  614.44   17.20
   2  -7  -1  601.24   14.50
   2  -7  -1  600.14   17.40
   2  -7  -1  582.54   16.90
   2  -7  -1  597.04   16.40
   2  -7  -1  601.24   14.50
  -3   7   1  142.49    4.10
  -3   7   1  142.49    4.10
  -3   7   1  152.88    6.90
  -3   7   1  145.99    4.20
  -3   7   1  151.38    4.40
  -3   7   1  133.09    6.70
   3  -7  -1  134.39    7.30
   3  -7  -1  143.89    4.10
   3  -7  -1  143.89    4.10
   3  -7  -1  163.48    7.20
   3  -7  -1  152.48    6.60
   3  -7  -1  139.19    7.10
  -4   7   1  699.83   20.60
  -4   7   1  693.73   16.70
  -4   7   1  708.63   16.60
  -4   7   1  708.63   16.60
   4  -7  -1  703.63   16.60
   4  -7  -1  688.73   19.20
   4  -7  -1  704.63   20.50
   4  -7  -1  704.43   16.80
   4  -7  -1  696.13   20.80
   4  -7  -1  703.63   16.60
  -5   7   1   21.80    2.10
  -5   7   1   23.00    2.50
  -5   7   1   17.40    3.20
  -5   7   1   22.90    4.60
  -5   7   1   21.80    2.10
   5  -7  -1   28.10    4.30
   5  -7  -1   21.10    1.60
   5  -7  -1   15.90    3.90
   5  -7  -1   22.20    2.10
   5  -7  -1   21.10    1.60
  -6   7   1   25.40    2.90
  -6   7   1   23.10    4.00
  -6   7   1   24.70    5.00
   6  -7  -1   24.90    2.80
   6  -7  -1   24.10    5.00
   6  -7  -1   24.90    2.80
   6  -7  -1   19.20    4.30
  -7   7   1   83.49    7.10
  -7   7   1   95.19    9.20
   7  -7  -1   99.39    9.40
   7  -7  -1   97.29   10.30
  -8   7   1   59.19    7.90
  -8   7   1   48.20    6.10
   8  -7  -1   42.50    7.10
   8  -7  -1   60.39    8.80
   8   7   0   19.10    5.00
   8   7   0   18.10    6.40
   8   7   0   19.10    5.00
  -8  -7   0   33.60    8.50
  -8  -7   0   24.30    7.20
   7   7   0  154.58    8.40
   7   7   0  154.58    8.40
   7   7   0  146.89   10.40
  -7  -7   0  164.18   12.70
  -7  -7   0  163.18   11.00
   6   7   0   16.00    3.10
   6   7   0   21.60    4.60
   6   7   0   16.00    3.10
   6   7   0   21.90    4.20
  -6  -7   0   16.70    5.40
   5   7   0  138.89    7.20
   5   7   0  151.38    6.70
   5   7   0  137.99    7.70
  -5  -7   0  155.98    7.30
  -5  -7   0  154.18    9.30
  -5  -7   0  148.89    8.40
   4   7   0  121.89    5.70
   4   7   0  109.49    6.10
   4   7   0  119.79    6.30
   4   7   0  127.29    5.10
   4   7   0  121.89    5.70
  -4  -7   0  127.89    7.80
  -4  -7   0  134.09    7.30
  -4  -7   0  121.19    6.20
  -4  -7   0  107.79    6.60
   3   7   0   16.00    2.70
   3   7   0   13.80    2.20
   3   7   0   14.30    2.00
   3   7   0   14.90    2.50
   3   7   0   15.00    2.10
   3   7   0   16.40    3.00
   3   7   0   14.90    2.50
   3   7   0   14.30    2.00
   3   7   0   14.90    2.80
  -3  -7   0   13.90    2.80
  -3  -7   0   14.10    3.20
  -3  -7   0   10.50    2.80
   2   7   0  488.25   13.30
   2   7   0  480.45   14.40
   2   7   0  480.65   13.10
   2   7   0  480.65   13.10
   2   7   0  482.55   13.60
   2   7   0  487.35   14.10
   2   7   0  480.25   13.00
   2   7   0  480.25   13.00
   2   7   0  485.45   13.80
   2   7   0  493.75   14.60
   2   7   0  487.85   13.40
  -2  -7   0  493.45   14.90
  -2  -7   0  480.45   14.60
  -2  -7   0  490.55   13.50
   1   7   0  177.28    6.40
   1   7   0  178.08    5.60
   1   7   0  172.78    5.60
   1   7   0  177.98    5.60
   1   7   0  167.28    6.80
   1   7   0  172.68    6.20
   1   7   0  173.28    6.70
   1   7   0  172.78    5.60
   1   7   0  163.68    6.30
   1   7   0  175.28    6.80
   1   7   0  182.08    7.00
   1   7   0  163.68    6.60
  -1  -7   0  168.68    6.30
  -1  -7   0  176.98    6.60
  -1  -7   0  175.68    7.10
   0   7   0    2.20    2.00
   0   7   0    0.40    1.00
   0   7   0   -0.40    1.40
   0   7   0    0.40    1.00
   0   7   0    0.40    1.30
   0   7   0   -1.30    1.90
   0   7   0   -1.70    1.60
   0   7   0   -0.10    1.50
   0   7   0    2.50    1.00
   0   7   0    2.50    1.00
   0  -7   0    0.80    1.50
   0  -7   0    1.30    1.30
   0  -7   0   -0.30    2.00
  -1   7   0  169.88    4.60
  -1   7   0  164.18    4.70
  -1   7   0  169.98    4.60
  -1   7   0  172.18    6.10
  -1   7   0  174.68    7.40
  -1   7   0  172.08    7.20
  -1   7   0  164.18    4.70
  -1   7   0  173.48    6.50
  -1   7   0  162.38    6.70
   1  -7   0  166.68    7.10
   1  -7   0  156.18    6.80
   1  -7   0  168.68    6.60
   1  -7   0  170.48    6.80
  -2   7   0  494.85   11.30
  -2   7   0  478.05   13.90
  -2   7   0  490.25   11.40
  -2   7   0  490.35   12.40
  -2   7   0  474.95   14.30
  -2   7   0  494.85   11.30
  -2   7   0  490.25   11.40
  -2   7   0  473.55   14.50
   2  -7   0  475.75   13.90
   2  -7   0  463.15   14.70
   2  -7   0  481.35   12.80
   2  -7   0  483.15   14.20
   2  -7   0  494.25   14.90
  -3   7   0   16.00    2.80
  -3   7   0   19.50    3.10
  -3   7   0   15.90    1.80
   3  -7   0   16.00    2.10
   3  -7   0   10.70    2.90
   3  -7   0   11.40    2.40
   3  -7   0   19.50    3.10
  -4   7   0  117.49    7.00
  -4   7   0  108.09    5.50
   4  -7   0  117.79    4.80
   4  -7   0  116.59    6.90
   4  -7   0  121.69    7.30
   4  -7   0  125.19    6.20
  -5   7   0  141.49    8.80
  -5   7   0  146.79    7.10
  -5   7   0  149.29    5.80
   5  -7   0  143.69    8.80
   5  -7   0  152.08    6.20
   5  -7   0  146.19    8.80
   5  -7   0  145.99    7.40
  -6   7   0   22.60    4.30
  -6   7   0   16.30    3.20
  -6   7   0   17.20    4.90
   6  -7   0   19.60    5.00
   6  -7   0   21.20    4.70
  -7   7   0  153.38   10.80
  -7   7   0  156.68    9.10
   7  -7   0  162.28   11.10
   7  -7   0  172.48   12.60
  -8   7   0   16.00    5.40
  -8   7   0   17.50    7.10
   8  -7   0   30.20    8.40
   8  -7   0   25.60    9.50
   8   7  -1   53.89    5.60
   8   7  -1   60.69    7.20
   8   7  -1   53.89    5.60
   8   7  -1   51.69    7.80
  -8  -7   1   42.00    7.60
  -8  -7   1   39.00    8.30
   7   7  -1   84.39    6.80
   7   7  -1   84.39    6.80
   7   7  -1   82.19    9.50
   7   7  -1  101.79    8.60
  -7  -7   1   93.09   10.70
  -7  -7   1  106.59    9.70
   6   7  -1   21.10    3.50
   6   7  -1   21.10    3.50
   6   7  -1   21.10    4.10
   6   7  -1   20.70    3.10
  -6  -7   1   27.10    4.60
  -6  -7   1   20.40    5.10
  -6  -7   1   31.00    8.20
   5   7  -1   24.50    3.00
   5   7  -1   19.10    2.80
   5   7  -1   17.60    4.00
   5   7  -1   25.10    3.70
   5   7  -1   24.50    3.00
   5   7  -1   19.00    3.10
  -5  -7   1   19.50    4.00
  -5  -7   1   26.30    4.00
  -5  -7   1   22.90    4.60
   4   7  -1  701.73   18.80
   4   7  -1  718.43   17.40
   4   7  -1  679.53   18.40
   4   7  -1  709.53   20.80
   4   7  -1  679.53   18.40
   4   7  -1  698.23   18.00
  -4  -7   1  672.33   19.00
  -4  -7   1  699.03   18.70
  -4  -7   1  687.03   20.50
  -4  -7   1  694.83   21.00
   3   7  -1  136.29    6.00
   3   7  -1  136.39    6.00
   3   7  -1  140.99    5.50
   3   7  -1  145.29    6.10
   3   7  -1  139.49    6.90
   3   7  -1  139.49    6.50
   3   7  -1  144.69    5.10
   3   7  -1  140.99    5.50
   3   7  -1  144.69    5.50
   3   7  -1  144.49    5.60
  -3  -7   1  148.29    7.20
  -3  -7   1  142.59    6.40
   2   7  -1  582.84   15.80
   2   7  -1  591.84   15.60
   2   7  -1  590.64   15.30
   2   7  -1  606.34   15.60
   2   7  -1  606.34   15.60
   2   7  -1  611.14   17.20
   2   7  -1  600.14   15.80
   2   7  -1  602.84   15.50
   2   7  -1  590.64   15.30
   2   7  -1  570.64   16.80
  -2  -7   1  606.74   16.30
  -2  -7   1  586.84   17.40
   1   7  -1  452.75   13.60
   1   7  -1  464.25   11.90
   1   7  -1  469.35   12.00
   1   7  -1  464.25   11.90
   1   7  -1  469.35   12.00
   1   7  -1  468.25   12.60
   1   7  -1  458.35   12.40
   1   7  -1  464.15   13.80
   1   7  -1  468.15   13.00
   1   7  -1  443.56   13.30
   1   7  -1  459.15   13.80
  -1  -7   1  452.95   12.80
  -1  -7   1  469.75   13.30
  -1  -7   1  436.46   14.00
   0   7  -1    4.60    2.20
   0   7  -1    3.10    1.50
   0   7  -1    4.30    1.50
   0   7  -1    3.70    1.90
   0   7  -1    2.60    2.00
   0   7  -1    2.40    2.00
   0   7  -1    2.80    1.00
   0   7  -1    2.80    1.00
   0  -7   1    5.20    1.80
   0  -7   1    3.10    1.30
   0  -7   1    4.00    1.60
   0  -7   1    1.30    2.10
  -1   7  -1  328.77    9.90
  -1   7  -1  329.57    8.00
  -1   7  -1  333.57    8.00
  -1   7  -1  323.47   10.60
  -1   7  -1  320.17   10.70
  -1   7  -1  330.17    9.50
  -1   7  -1  318.57   11.10
  -1   7  -1  333.87    8.00
  -1   7  -1  329.57    8.00
   1  -7   1  326.47   10.80
   1  -7   1  328.77   10.50
   1  -7   1  325.87   10.00
   1  -7   1  336.77    9.90
   1  -7   1  307.07   10.80
  -2   7  -1   55.69    4.70
  -2   7  -1   56.19    3.10
  -2   7  -1   54.69    4.40
  -2   7  -1   58.39    4.30
   2  -7   1   43.40    5.10
   2  -7   1   57.79    3.70
   2  -7   1   51.89    4.60
   2  -7   1   56.99    4.20
   2  -7   1   58.09    5.40
  -3   7  -1  230.58    9.10
  -3   7  -1  226.18    7.20
  -3   7  -1  196.38    8.50
   3  -7   1  231.28    8.80
   3  -7   1  229.78    8.90
   3  -7   1  229.78    9.50
   3  -7   1  227.78    7.60
  -4   7  -1  200.98    7.10
  -4   7  -1  185.48    9.00
   4  -7   1  207.08    9.10
   4  -7   1  195.68    8.30
   4  -7   1  195.28    9.40
   4  -7   1  200.88    7.50
  -5   7  -1   94.89    7.90
  -5   7  -1   94.09    5.40
   5  -7   1   89.99    6.10
   5  -7   1   80.19    7.60
   5  -7   1   96.99    6.30
   5  -7   1  100.99    8.10
  -6   7  -1   21.20    3.80
  -6   7  -1   24.30    4.20
  -6   7  -1   20.90    5.50
   6  -7   1   27.10    5.20
   6  -7   1   27.10    5.50
  -7   7  -1  110.59   10.50
  -7   7  -1   96.49    7.90
   7  -7   1   93.39   10.60
   7  -7   1   86.49    9.80
  -8   7  -1   26.90    5.80
   8  -7   1   33.90    9.00
   8   7  -2   23.60    4.70
   8   7  -2   21.00    5.70
   8   7  -2   23.60    4.70
   8   7  -2    2.40    6.40
  -8  -7   2   19.00    6.70
   7   7  -2   28.30    3.90
   7   7  -2   28.30    3.90
   7   7  -2   27.20    5.70
   7   7  -2   24.80    6.20
  -7  -7   2   40.10    6.10
  -7  -7   2   41.60    5.40
   6   7  -2   16.60    3.90
   6   7  -2   11.70    2.60
   6   7  -2   21.20    4.40
   6   7  -2   11.70    2.60
   6   7  -2   17.70    2.10
  -6  -7   2   20.50    4.20
  -6  -7   2   15.50    4.10
   5   7  -2  178.28    7.20
   5   7  -2  185.18    5.70
   5   7  -2  178.28    7.20
   5   7  -2  178.58    7.80
   5   7  -2  179.88    5.80
   5   7  -2  178.88    9.30
  -5  -7   2  182.28    7.90
  -5  -7   2  173.88    9.10
  -5  -7   2  194.78    9.40
   4   7  -2  165.88    5.00
   4   7  -2  168.48    6.60
   4   7  -2  164.68    8.20
   4   7  -2  158.58    6.30
   4   7  -2  158.58    6.30
   4   7  -2  166.38    5.50
  -4  -7   2  172.08    8.40
  -4  -7   2  150.58    6.50
  -4  -7   2  165.88    7.30
   3   7  -2  144.19    5.30
   3   7  -2  139.79    5.80
   3   7  -2  151.78    5.60
   3   7  -2  180.18    9.40
   3   7  -2  151.78    5.60
   3   7  -2  146.89    5.70
   3   7  -2  149.49    4.90
   3   7  -2  154.08    7.10
   3   7  -2  146.49    6.00
   3   7  -2  146.49    6.00
  -3  -7   2  139.49    5.40
  -3  -7   2  139.39    5.40
  -3  -7   2  145.39    7.40
  -3  -7   2  147.09    6.70
   2   7  -2   70.19    3.90
   2   7  -2   76.69    4.80
   2   7  -2   60.59    3.80
   2   7  -2   61.99    4.70
   2   7  -2   60.59    3.80
   2   7  -2   62.79    3.20
   2   7  -2   66.09    3.50
   2   7  -2   62.69    4.40
   2   7  -2   66.99    3.50
   2   7  -2   62.79    3.20
  -2  -7   2   65.19    5.10
  -2  -7   2   68.29    3.50
  -2  -7   2   65.89    3.30
  -2  -7   2   65.89    3.30
  -2  -7   2   63.89    4.70
   1   7  -2  710.93   20.00
   1   7  -2  723.93   18.80
   1   7  -2  718.53   20.00
   1   7  -2  734.13   19.50
   1   7  -2  697.03   19.80
   1   7  -2  713.93   17.60
   1   7  -2  669.03   18.50
   1   7  -2  738.23   17.90
   1   7  -2  713.93   17.60
   1   7  -2  738.23   17.90
  -1  -7   2  732.63   18.90
  -1  -7   2  726.13   19.60
  -1  -7   2  710.43   20.40
  -1  -7   2  752.12   19.50
   0   7  -2  237.78    7.10
   0   7  -2  252.17    9.20
   0   7  -2  262.97    7.70
   0   7  -2  256.07    8.40
   0   7  -2  237.78    7.10
   0   7  -2  240.88    9.40
   0   7  -2  256.77    6.60
   0   7  -2  256.77    6.60
   0   7  -2  243.88    8.40
   0  -7   2  258.97    8.70
   0  -7   2  247.58    8.60
   0  -7   2  246.38    7.60
   0  -7   2  253.07    8.90
  -1   7  -2   35.70    4.10
  -1   7  -2   39.60    4.20
  -1   7  -2   36.50    1.30
  -1   7  -2   33.70    3.40
  -1   7  -2   34.30    1.40
  -1   7  -2   31.90    4.00
  -1   7  -2   38.50    3.00
  -1   7  -2   36.50    1.30
  -1   7  -2   34.30    1.40
   1  -7   2   37.40    4.00
   1  -7   2   39.30    3.70
   1  -7   2   33.40    4.30
   1  -7   2   34.20    3.60
   1  -7   2   37.90    3.20
  -2   7  -2   22.70    2.60
  -2   7  -2   19.50    3.10
  -2   7  -2   20.60    3.00
   2  -7   2   18.20    3.40
   2  -7   2   20.50    2.80
   2  -7   2   17.20    3.10
   2  -7   2   14.70    2.60
  -3   7  -2    0.40    1.70
  -3   7  -2    3.80    2.80
  -3   7  -2    0.00    2.00
   3  -7   2   -1.30    2.70
   3  -7   2    1.10    2.10
   3  -7   2    2.40    2.30
   3  -7   2    3.60    2.90
  -4   7  -2    4.50    3.20
  -4   7  -2    3.40    2.20
   4  -7   2    5.40    3.10
   4  -7   2    7.80    3.10
   4  -7   2    6.70    3.10
   4  -7   2    6.80    3.50
  -5   7  -2   51.69    5.30
  -5   7  -2   45.20    5.80
   5  -7   2   45.70    5.50
   5  -7   2   47.70    5.10
   5  -7   2   45.30    6.30
   5  -7   2   54.99    6.60
  -6   7  -2  114.99    7.60
  -6   7  -2  111.59    7.60
  -6   7  -2  104.89    9.80
   6  -7   2  111.19   10.40
   6  -7   2  111.69    9.70
  -7   7  -2   82.79    9.70
  -7   7  -2   80.49    8.20
   7  -7   2   87.49    9.20
   7  -7   2   78.89    9.20
   8   7  -3   50.29    7.80
   8   7  -3   49.60    5.70
   8   7  -3   56.19    6.60
   8   7  -3   49.60    5.70
  -8  -7   3   47.00    6.70
  -8  -7   3   60.69    8.30
   7   7  -3    3.90    3.20
   7   7  -3   -1.20    4.40
   7   7  -3    3.90    3.20
   7   7  -3    8.00    3.70
  -7  -7   3    7.00    4.60
  -7  -7   3    1.50    5.10
   6   7  -3   46.00    4.30
   6   7  -3   34.00    3.90
   6   7  -3   37.70    5.20
   6   7  -3   46.00    4.30
  -6  -7   3   30.20    4.30
  -6  -7   3   37.60    5.80
  -6  -7   3   34.90    4.80
   5   7  -3  153.88    6.50
   5   7  -3  158.98    8.60
   5   7  -3  148.99    6.60
   5   7  -3  153.88    6.50
  -5  -7   3  152.28    8.80
  -5  -7   3  150.08    7.60
  -5  -7   3  156.08    6.70
   4   7  -3   96.09    4.60
   4   7  -3   84.49    4.60
   4   7  -3   91.99    6.40
   4   7  -3   84.49    4.60
   4   7  -3   94.29    4.60
  -4  -7   3   86.89    5.90
  -4  -7   3   97.89    6.90
   3   7  -3 1111.49   25.70
   3   7  -3 1054.99   26.50
   3   7  -3 1095.59   25.80
   3   7  -3 1094.09   25.70
   3   7  -3 1054.99   26.50
   3   7  -3 1084.09   28.70
   3   7  -3 1077.59   26.00
  -3  -7   3 1054.69   26.60
  -3  -7   3 1072.79   29.30
  -3  -7   3 1054.79   26.60
   2   7  -3  187.58    8.50
   2   7  -3  220.08    6.70
   2   7  -3  219.98    6.70
   2   7  -3  222.58    8.50
   2   7  -3  221.58    7.10
   2   7  -3  219.18    6.20
   2   7  -3  219.38    5.90
   2   7  -3  195.78    8.90
  -2  -7   3  222.58    9.20
  -2  -7   3  212.08    8.40
  -2  -7   3  212.68    8.70
  -2  -7   3  223.28    6.80
  -2  -7   3  222.78    6.80
  -2  -7   3  208.48    7.30
   1   7  -3   26.90    3.50
   1   7  -3   32.10    2.20
   1   7  -3   23.50    2.00
   1   7  -3   32.70    3.60
   1   7  -3   34.10    3.70
   1   7  -3   23.50    2.00
   1   7  -3   22.70    3.20
  -1  -7   3   31.00    3.70
  -1  -7   3   34.60    3.20
  -1  -7   3   27.80    2.30
  -1  -7   3   27.80    2.30
  -1  -7   3   32.10    2.20
  -1  -7   3   30.60    3.60
   0   7  -3  136.29    6.20
   0   7  -3  122.79    6.90
   0   7  -3  134.79    4.90
   0   7  -3  132.79    5.80
   0   7  -3  140.29    4.10
   0   7  -3  140.29    4.10
   0   7  -3  137.49    6.60
   0  -7   3  114.99    4.60
   0  -7   3  130.59    6.10
   0  -7   3  136.39    6.40
   0  -7   3  114.99    4.60
   0  -7   3  132.69    4.90
   0  -7   3  127.59    7.00
  -1   7  -3  193.18    5.00
  -1   7  -3  197.38    4.80
  -1   7  -3  195.88    7.20
  -1   7  -3  197.38    4.80
  -1   7  -3  193.18    5.00
  -1   7  -3  190.98    7.70
  -1   7  -3  199.68    7.00
  -1   7  -3  190.98    8.20
   1  -7   3  201.58    7.00
   1  -7   3  187.78    7.90
   1  -7   3  199.38    8.20
   1  -7   3  189.88    7.90
  -2   7  -3  111.59    6.30
  -2   7  -3  113.29    5.50
  -2   7  -3  113.49    6.50
   2  -7   3  118.89    6.60
   2  -7   3  112.29    6.30
   2  -7   3  118.99    5.90
   2  -7   3  125.79    7.10
  -3   7  -3  435.96   14.40
  -3   7  -3  431.26   13.00
   3  -7   3  392.46   13.40
   3  -7   3  435.76   13.90
   3  -7   3  438.56   15.00
   3  -7   3  424.36   13.70
  -4   7  -3   86.79   10.60
  -4   7  -3   78.39    5.80
   4  -7   3  103.19    8.10
   4  -7   3   81.49    6.50
   4  -7   3   93.29    6.80
  -5   7  -3   26.40    4.20
  -5   7  -3   12.60    4.90
   5  -7   3   23.10    5.30
   5  -7   3   22.70    4.60
   5  -7   3   27.90    4.60
  -6   7  -3   80.19    8.10
  -6   7  -3   74.29    8.70
  -6   7  -3   78.89    7.30
   6  -7   3   71.99    8.80
   6  -7   3   77.89    9.20
   6  -7   3   73.49    7.60
  -7   7  -3  106.89   13.50
  -7   7  -3  113.29    9.30
   7  -7   3  114.19   12.40
   7  -7   3  121.79   13.80
   8   7  -4   15.70    5.60
   8   7  -4    8.10    4.20
   8   7  -4    7.70    5.00
   8   7  -4    8.10    4.20
  -8  -7   4   13.80    6.60
  -8  -7   4   10.90    5.20
   7   7  -4   37.70    6.00
   7   7  -4   36.90    4.60
   7   7  -4   38.80    4.40
   7   7  -4   38.80    4.40
  -7  -7   4   37.90    5.20
  -7  -7   4   41.30    6.60
   6   7  -4   62.39    5.10
   6   7  -4   53.19    4.80
   6   7  -4   53.19    4.80
   6   7  -4   56.99    6.90
  -6  -7   4   59.59    6.10
  -6  -7   4   51.19    5.20
  -6  -7   4   70.99    7.90
   5   7  -4   38.80    4.90
   5   7  -4   41.00    4.00
   5   7  -4   42.00    3.70
   5   7  -4   41.00    4.00
  -5  -7   4   35.70    4.50
  -5  -7   4   40.30    5.20
  -5  -7   4   46.00    4.10
   4   7  -4   21.70    2.70
   4   7  -4   23.00    2.70
   4   7  -4   21.70    2.60
   4   7  -4   18.60    3.30
   4   7  -4   21.70    2.70
  -4  -7   4   16.30    3.90
  -4  -7   4   17.60    3.50
   3   7  -4   21.90    2.30
   3   7  -4   24.40    3.70
   3   7  -4   28.20    3.10
   3   7  -4   21.90    2.30
  -3  -7   4   22.70    3.70
  -3  -7   4   17.70    2.30
  -3  -7   4   20.80    2.30
  -3  -7   4   17.70    2.30
  -3  -7   4   28.00    3.90
   2   7  -4  163.68    5.50
   2   7  -4  167.38    7.40
   2   7  -4  164.28    6.50
   2   7  -4  163.68    5.50
  -2  -7   4  160.38    8.10
  -2  -7   4  162.68    6.00
  -2  -7   4  153.68    5.60
  -2  -7   4  165.28    7.10
  -2  -7   4  153.68    5.60
   1   7  -4   56.49    2.50
   1   7  -4   51.79    4.90
   1   7  -4   54.69    2.80
   1   7  -4   50.99    4.30
   1   7  -4   54.69    2.80
   1   7  -4   54.89    5.20
  -1  -7   4   57.19    3.10
  -1  -7   4   57.19    3.10
  -1  -7   4   58.49    5.00
  -1  -7   4   59.69    2.30
  -1  -7   4   53.29    4.00
  -1  -7   4   45.10    5.10
   0   7  -4  244.28    8.80
   0   7  -4  250.27    6.60
   0   7  -4  233.28    9.40
   0   7  -4  255.37    9.60
   0   7  -4  250.27    6.60
   0   7  -4  245.08    7.60
   0  -7   4  234.38    9.30
   0  -7   4  248.98    6.80
   0  -7   4  248.98    6.80
   0  -7   4  232.48    9.40
   0  -7   4  243.98    9.10
  -1   7  -4    5.80    0.90
  -1   7  -4    6.40    2.70
  -1   7  -4    5.00    2.10
  -1   7  -4    6.40    2.40
  -1   7  -4    5.80    0.90
   1  -7   4    5.40    2.00
   1  -7   4   -0.20    2.70
   1  -7   4    7.60    1.00
   1  -7   4    7.60    1.00
   1  -7   4    5.80    2.90
   1  -7   4    5.70    2.80
  -2   7  -4   50.19    5.50
  -2   7  -4   51.29    5.40
  -2   7  -4   54.39    4.50
   2  -7   4   57.59    5.70
   2  -7   4   51.99    5.50
   2  -7   4   48.30    4.60
  -3   7  -4  315.37   11.10
  -3   7  -4  291.47   11.80
   3  -7   4  307.67   11.30
   3  -7   4  326.97   12.80
   3  -7   4  303.47   11.40
  -4   7  -4  129.19    7.60
  -4   7  -4  128.59    8.90
   4  -7   4  141.59    9.30
   4  -7   4  121.59    8.30
   4  -7   4  134.89    8.20
  -5   7  -4   54.69    7.40
  -5   7  -4   45.40    5.70
   5  -7   4   35.20    5.20
   5  -7   4   58.99    7.50
   5  -7   4   33.20    5.80
  -6   7  -4   30.40    7.90
  -6   7  -4   26.00    6.00
  -6   7  -4   20.90    5.00
   6  -7   4   25.30    6.70
   6  -7   4   34.30    7.40
   6  -7   4   24.20    5.70
   8   7  -5    0.30    4.00
   8   7  -5    7.60    5.80
   8   7  -5    0.30    4.00
  -8  -7   5    0.80    4.90
  -8  -7   5   -0.10    6.20
   7   7  -5   13.00    5.30
   7   7  -5   20.40    3.90
   7   7  -5   14.30    3.90
   7   7  -5   20.40    3.90
  -7  -7   5   27.00    5.80
  -7  -7   5   15.70    4.40
   6   7  -5   91.39    5.40
   6   7  -5   85.29    5.70
   6   7  -5   85.29    5.70
   6   7  -5   96.29    8.10
  -6  -7   5   97.29    9.00
  -6  -7   5   89.19    7.00
   5   7  -5  146.99    5.50
   5   7  -5  129.99   10.80
   5   7  -5  152.58    5.20
  -5  -7   5  138.79    7.60
   4   7  -5  313.17    9.70
   4   7  -5  311.57   11.90
   4   7  -5  313.17    9.70
  -4  -7   5  298.37   11.20
  -4  -7   5  303.67   12.70
   3   7  -5 1326.87   33.90
   3   7  -5 1344.57   31.30
   3   7  -5 1344.57   31.30
  -3  -7   5 1257.07   33.00
  -3  -7   5 1310.87   35.00
  -3  -7   5 1323.47   30.70
  -3  -7   5 1177.68   31.50
  -3  -7   5 1177.68   31.50
   2   7  -5  331.17   10.30
   2   7  -5  339.17    9.40
   2   7  -5  339.17    9.40
   2   7  -5  320.67   11.60
  -2  -7   5  335.07   10.10
  -2  -7   5  324.87   11.50
  -2  -7   5  321.57    9.70
  -2  -7   5  331.37   12.60
  -2  -7   5  321.57    9.70
   1   7  -5   24.00    3.70
   1   7  -5   28.10    4.20
   1   7  -5   26.20    2.40
   1   7  -5   25.80    3.40
   1   7  -5   26.20    2.40
  -1  -7   5   33.00    2.90
  -1  -7   5   26.00    3.20
  -1  -7   5   33.00    2.90
  -1  -7   5   31.50    4.20
   0   7  -5  176.78    9.20
   0   7  -5  172.88    8.30
   0   7  -5  184.78    5.40
   0   7  -5  184.78    5.40
   0   7  -5  190.78    7.90
   0   7  -5  176.78    6.00
   0  -7   5  186.68    5.80
   0  -7   5  186.68    5.80
   0  -7   5  177.78    8.00
   0  -7   5  187.78    8.50
  -1   7  -5   12.70    2.70
  -1   7  -5   14.50    2.60
  -1   7  -5   10.50    1.40
  -1   7  -5   10.50    1.40
  -1   7  -5   14.20    3.50
   1  -7   5   14.00    1.60
   1  -7   5    9.40    3.60
   1  -7   5   14.00    1.60
   1  -7   5   15.00    2.50
   1  -7   5   14.50    3.40
  -2   7  -5 1024.50   27.80
  -2   7  -5  999.50   26.80
  -2   7  -5  950.90   26.10
   2  -7   5 1035.50   28.40
   2  -7   5  983.20   26.90
   2  -7   5 1002.80   26.30
  -3   7  -5   23.20    4.00
   3  -7   5   29.40    4.40
   3  -7   5   33.20    4.90
   3  -7   5   37.30    5.40
  -4   7  -5    8.70    4.30
  -4   7  -5   15.10    5.40
   4  -7   5   19.00    5.10
   4  -7   5    8.10    3.90
   4  -7   5   11.90    4.70
  -5   7  -5   11.90    6.30
  -5   7  -5    6.00    4.90
   5  -7   5    9.30    5.80
   5  -7   5    9.40    5.20
   5  -7   5   13.30    5.20
  -6   7  -5  154.38   14.70
  -6   7  -5  162.88   13.10
  -6   7  -5  146.09    9.80
   6  -7   5  177.38   11.10
   6  -7   5  149.59   13.40
   6  -7   5  169.58   20.20
   8   7  -6   29.30    4.90
   8   7  -6   29.30    4.90
   8   7  -6   36.90    7.50
  -8  -7   6   50.69    8.40
  -8  -7   6   25.70    5.80
   7   7  -6   10.60    3.50
   7   7  -6   24.00    6.20
   7   7  -6   10.60    3.50
  -7  -7   6   17.90    6.50
  -7  -7   6   19.70    5.00
   6   7  -6   16.80    3.40
   6   7  -6   19.10    4.90
   6   7  -6   16.80    3.40
  -6  -7   6   22.40    4.60
  -6  -7   6   25.10    5.70
   5   7  -6  128.09    6.10
   5   7  -6  114.29    8.20
   5   7  -6  128.09    6.10
  -5  -7   6  109.79    7.30
  -5  -7   6  120.19    9.10
   4   7  -6  103.79    5.30
   4   7  -6   94.59    7.20
   4   7  -6  103.79    5.30
  -4  -7   6   96.59    6.60
  -4  -7   6   99.79    7.90
   3   7  -6  146.59    5.40
   3   7  -6  148.29    5.90
   3   7  -6  148.29    5.90
   3   7  -6  143.59    7.80
  -3  -7   6  145.39    7.80
  -3  -7   6  142.49    5.90
  -3  -7   6  156.38    8.90
   2   7  -6    2.50    2.60
   2   7  -6    3.00    1.70
   2   7  -6    3.00    1.70
   2   7  -6    7.70    3.40
   2   7  -6    0.20    2.30
  -2  -7   6   -0.10    3.30
  -2  -7   6    5.50    2.30
  -2  -7   6    4.00    2.30
  -2  -7   6    4.00    2.30
  -2  -7   6    2.50    2.90
   1   7  -6   73.19    3.60
   1   7  -6   73.19    3.60
   1   7  -6   65.99    6.50
   1   7  -6   63.09    6.10
   1   7  -6   63.79    5.20
  -1  -7   6   80.09    4.40
  -1  -7   6   80.09    4.40
  -1  -7   6   68.69    5.40
  -1  -7   6   66.49    6.10
   0   7  -6   83.99    4.00
   0   7  -6   91.49    3.80
   0   7  -6   91.39    3.80
   0   7  -6   90.69    6.70
   0   7  -6   78.09    5.80
   0  -7   6   92.29    4.30
   0  -7   6   86.99    4.10
   0  -7   6   92.29    4.30
   0  -7   6   88.99    6.90
   0  -7   6   87.49    6.60
  -1   7  -6  119.19    4.20
  -1   7  -6  119.29    4.20
  -1   7  -6  118.49    6.00
  -1   7  -6  122.79    6.90
  -1   7  -6  117.19    7.60
   1  -7   6  122.09    4.50
   1  -7   6  115.39    5.80
   1  -7   6  138.09    7.90
   1  -7   6  122.69    8.10
   1  -7   6  122.09    4.50
  -2   7  -6   74.69    6.70
  -2   7  -6   69.89    3.40
  -2   7  -6   64.69    6.30
  -2   7  -6   74.69    7.00
  -2   7  -6   69.89    3.40
   2  -7   6   77.89    7.40
   2  -7   6   68.39    5.90
   2  -7   6   75.09    7.50
  -3   7  -6  110.19    8.20
  -3   7  -6  102.69    8.40
   3  -7   6  101.79    8.10
   3  -7   6  132.99   10.00
   3  -7   6  102.89    7.80
  -4   7  -6   78.89    9.70
  -4   7  -6   63.09    6.80
   4  -7   6   85.79    7.40
   4  -7   6   64.19    7.90
   4  -7   6   70.69    7.00
  -5   7  -6   49.70    7.40
  -5   7  -6   49.99    9.20
   5  -7   6   57.79    7.10
   5  -7   6   52.09    7.40
   5  -7   6   53.89    8.20
   8   7  -7    6.80    4.70
   8   7  -7   21.90    7.20
   8   7  -7    6.80    4.70
  -8  -7   7   13.00    5.50
  -8  -7   7   12.70    7.90
   7   7  -7   -1.30    5.00
   7   7  -7   -7.00    3.50
   7   7  -7   -7.00    3.50
  -7  -7   7   -1.60    6.40
  -7  -7   7   -2.00    4.50
   6   7  -7   46.70    6.50
   6   7  -7   53.09    4.70
   6   7  -7   53.09    4.70
  -6  -7   7   59.59    7.80
  -6  -7   7   43.50    5.50
   5   7  -7   17.60    4.50
   5   7  -7   22.80    3.30
   5   7  -7   22.80    3.30
  -5  -7   7   23.20    4.20
  -5  -7   7   20.00    5.40
   4   7  -7    1.50    2.20
   4   7  -7    4.20    3.50
   4   7  -7    1.50    2.20
  -4  -7   7    5.20    4.40
  -4  -7   7    1.00    3.40
   3   7  -7   41.00    4.50
   3   7  -7   46.30    4.10
   3   7  -7   46.30    4.10
  -3  -7   7   46.30    4.40
  -3  -7   7   37.60    4.90
  -3  -7   7   47.80    6.20
   2   7  -7  108.89    6.50
   2   7  -7  128.99    5.30
   2   7  -7  128.89    5.30
   2   7  -7  128.69    8.50
   2   7  -7  125.39    7.40
  -2  -7   7  117.89    7.70
  -2  -7   7  120.19    6.50
   1   7  -7  440.86   11.70
   1   7  -7  440.86   11.70
   1   7  -7  401.26   14.40
   1   7  -7  427.56   15.10
  -1  -7   7  409.96   12.10
  -1  -7   7  410.06   12.10
  -1  -7   7  427.06   14.10
  -1  -7   7  438.16   14.80
   0   7  -7   94.99    4.40
   0   7  -7  100.29    4.70
   0   7  -7   96.79    7.30
   0   7  -7   94.99    4.40
   0  -7   7   88.59    4.50
   0  -7   7   87.69    4.90
   0  -7   7  102.49    7.40
   0  -7   7   87.69    4.90
   0  -7   7   87.69    7.40
  -1   7  -7  127.99    8.60
  -1   7  -7  150.58    8.30
  -1   7  -7  138.39    5.20
  -1   7  -7  138.39    5.20
   1  -7   7  132.39    8.50
   1  -7   7  128.59    6.60
  -2   7  -7  151.68    9.30
  -2   7  -7  150.08    9.80
   2  -7   7  152.78    8.10
   2  -7   7  150.38   10.60
   2  -7   7  148.49    9.50
  -3   7  -7    8.00    5.20
  -3   7  -7    8.70    4.40
   3  -7   7    4.50    5.40
   3  -7   7    5.50    5.50
  -4   7  -7    3.30    6.80
  -4   7  -7    1.90    5.50
   4  -7   7   -2.40    5.30
   4  -7   7   -3.50    5.60
   4  -7   7    7.30    6.90
   8   7  -8   36.60    7.80
  -8  -7   8   40.50    6.60
   7   7  -8   58.99    7.80
   7   7  -8   80.19    7.30
   7   7  -8   80.19    7.30
  -7  -7   8   53.09    6.90
  -7  -7   8   63.79    9.30
   6   7  -8   22.10    3.90
   6   7  -8   22.10    3.90
   6   7  -8   19.80    5.50
  -6  -7   8   22.00    6.90
  -6  -7   8   17.00    4.60
   5   7  -8   45.10    4.10
   5   7  -8   43.90    5.90
   5   7  -8   45.10    4.10
  -5  -7   8   37.60    5.70
  -5  -7   8   53.79    7.30
   4   7  -8   68.99    5.40
   4   7  -8   68.99    5.40
   4   7  -8   75.69    7.20
  -4  -7   8   75.09    6.40
  -4  -7   8   79.39    8.70
   3   7  -8   70.59    5.00
   3   7  -8   70.59    5.00
   3   7  -8   57.89    6.40
   3   7  -8   52.59    6.50
  -3  -7   8   58.19    5.40
  -3  -7   8   62.49    8.00
  -3  -7   8   70.19    7.10
   2   7  -8    4.00    2.30
   2   7  -8    3.10    3.20
   2   7  -8    4.00    2.30
   2   7  -8    7.70    4.70
  -2  -7   8    3.50    3.90
  -2  -7   8    3.50    3.20
   1   7  -8   88.69    5.00
   1   7  -8   97.89    7.00
   1   7  -8   88.69    5.00
   1   7  -8   93.89    8.10
  -1  -7   8  107.59    7.80
  -1  -7   8   96.59    7.80
   0   7  -8  150.28    8.80
   0   7  -8  137.79    5.90
   0   7  -8  137.79    5.90
   0  -7   8  153.38    9.40
   0  -7   8  160.28   10.50
  -1   7  -8    3.60    2.50
  -1   7  -8   10.00    4.70
  -1   7  -8    3.60    2.50
  -1   7  -8   10.70    4.20
   1  -7   8    3.50    4.70
   1  -7   8    1.20    3.00
   1  -7   8    3.60    4.70
  -2   7  -8  123.69    9.60
  -2   7  -8  106.09    9.30
   2  -7   8  121.39    8.50
   2  -7   8  138.89   11.40
   2  -7   8  117.59    9.70
  -3   7  -8   12.30    6.60
  -3   7  -8   13.50    6.00
   3  -7   8   15.90    6.40
   3  -7   8    4.80    5.20
   3  -7   8    0.50    6.50
   7   7  -9  114.89    8.60
   7   7  -9  114.89    8.60
   7   7  -9   99.19   11.80
  -7  -7   9  113.09    9.40
  -7  -7   9  107.19   11.90
   6   7  -9   61.89    5.70
   6   7  -9   85.19    9.00
   6   7  -9   61.89    5.70
  -6  -7   9  113.89   12.20
  -6  -7   9   78.99    7.90
   5   7  -9   13.90    3.50
   5   7  -9   13.90    3.50
   5   7  -9    8.50    4.60
  -5  -7   9    7.30    4.80
  -5  -7   9   13.30    6.10
   4   7  -9   42.80    4.40
   4   7  -9   42.80    4.40
   4   7  -9   36.50    5.50
  -4  -7   9   30.30    5.40
  -4  -7   9   44.20    7.40
   3   7  -9   -3.50    3.60
   3   7  -9    8.00    5.20
   3   7  -9   12.10    3.10
   3   7  -9   12.10    3.10
  -3  -7   9    4.40    4.10
  -3  -7   9    2.50    3.70
   2   7  -9  133.99    9.60
   2   7  -9  127.29    6.70
   2   7  -9  127.29    6.70
   2   7  -9  121.49    8.50
  -2  -7   9  123.29    9.00
  -2  -7   9  128.89    8.80
   1   7  -9   58.99    6.80
   1   7  -9   49.90    6.50
   1   7  -9   57.79    5.20
   1   7  -9   57.79    5.20
  -1  -7   9   60.29    6.80
  -1  -7   9   60.69    6.60
   0   7  -9   59.89    5.20
   0   7  -9   59.89    5.20
   0   7  -9   42.90    6.00
   0   7  -9   49.80    6.30
   0  -7   9   55.59    6.90
   0  -7   9   51.99    6.90
  -1   7  -9   31.30    6.30
  -1   7  -9   34.00    6.40
   1  -7   9   48.00    7.00
   1  -7   9   47.00    7.30
  -2   7  -9   41.90    7.50
  -2   7  -9   28.70    6.60
   2  -7   9   28.10    7.10
   2  -7   9   44.50    7.70
   6   7 -10  215.28   13.30
   6   7 -10  190.38   10.60
   6   7 -10  190.38   10.60
  -6  -7  10  178.68   15.50
  -6  -7  10  176.78   11.10
   5   7 -10   78.79    7.80
   5   7 -10   78.79    7.80
   5   7 -10   86.89   10.00
  -5  -7  10   61.89    9.60
  -5  -7  10   63.99    7.30
   4   7 -10    5.20    5.90
   4   7 -10    2.40    3.70
   4   7 -10    2.40    3.70
   4   7 -10   -3.20    4.50
  -4  -7  10    2.40    5.10
  -4  -7  10  -11.00    5.90
   3   7 -10   25.00    6.50
   3   7 -10   24.20    5.50
   3   7 -10   25.00    4.20
   3   7 -10   25.00    4.20
  -3  -7  10   27.10    5.70
   2   7 -10   63.79    6.30
   2   7 -10   63.79    6.30
   2   7 -10   66.09    7.70
   2   7 -10   48.30    6.10
  -2  -7  10   61.29    7.00
  -2  -7  10   57.79    7.50
   1   7 -10   49.20    7.60
   1   7 -10   66.19    6.40
   1   7 -10   42.80    6.00
   1   7 -10   66.19    6.40
  -1  -7  10   43.60    7.00
  -1  -7  10   60.29    7.70
   0   7 -10  111.59   10.40
   0   7 -10   99.49   10.80
   0  -7  10  130.59   12.40
   0  -7  10  101.19   10.70
  -1   7 -10   78.29    8.80
  -1   7 -10   66.49    8.50
   1  -7  10   64.39    8.50
   1  -7  10   84.09    9.60
   5   7 -11   67.89    8.00
   5   7 -11   98.19    9.10
   5   7 -11   98.29    9.00
   5   7 -11   64.19   10.10
  -5  -7  11   74.59   10.40
  -5  -7  11   56.09    7.70
   4   7 -11  144.79    9.40
   4   7 -11  115.09   10.50
   4   7 -11  123.49   13.80
   4   7 -11  144.79    9.40
  -4  -7  11  115.29   10.60
   3   7 -11    4.90    7.00
   3   7 -11    9.50    4.50
   3   7 -11   -7.10    5.40
   3   7 -11    9.50    4.50
   2   7 -11   64.89    7.60
   2   7 -11   82.39    9.10
   2   7 -11   75.89    6.10
   2   7 -11   75.89    6.10
  -2  -7  11   80.99    8.90
  -2  -7  11   99.49   11.40
   1   7 -11   66.49    8.70
   1   7 -11   65.09    8.70
  -1  -7  11   68.49    8.60
  -1  -7  11   73.39    9.20
  -2   8  11  217.78   14.80
  -3   8  11  148.39   12.90
  -3   8  11  146.69   12.50
  -3   8  11  157.18    9.60
  -4   8  11  -12.60    6.20
  -4   8  11   10.50    7.30
  -4   8  11    5.60    5.10
  -1  -8 -10   91.99   10.20
   0   8  10   -6.20    5.90
   0   8  10   -1.60    5.40
   0  -8 -10    1.40    7.50
   0  -8 -10    9.60    6.70
   0  -8 -10    1.40    7.50
  -1   8  10   50.09    6.90
  -1   8  10   50.99    7.20
   1  -8 -10   49.30    6.20
   1  -8 -10   49.30    6.20
   1  -8 -10   56.89    7.10
  -2   8  10  115.99    8.70
  -2   8  10  115.39   10.90
  -2   8  10  119.59   10.10
   2  -8 -10  125.59    8.90
   2  -8 -10  125.59    8.90
   2  -8 -10   99.69   11.40
  -3   8  10  130.49   11.20
  -3   8  10  152.68   11.40
  -3   8  10  121.49    8.40
   3  -8 -10  117.59    9.00
   3  -8 -10  117.59    9.00
  -4   8  10  115.99    7.90
  -4   8  10  134.69   11.80
  -4   8  10  119.09   10.70
   4  -8 -10  106.29    8.90
   4  -8 -10  106.29    8.90
  -5   8  10   35.10    5.60
  -5   8  10   36.00    7.20
   5  -8 -10   24.90    6.60
   5  -8 -10   26.80    5.20
   5  -8 -10   26.80    5.20
  -6   8  10   52.29    6.20
  -6   8  10   63.19    8.70
   6  -8 -10   59.19    6.70
   6  -8 -10   59.29    6.70
   6  -8 -10   38.90    8.00
   2   8   9  -17.90    6.10
  -2  -8  -9   18.10    7.10
   1   8   9   32.00    6.60
   1   8   9   34.40    6.40
  -1  -8  -9   32.40    5.40
  -1  -8  -9   32.40    5.40
  -1  -8  -9   40.90    7.40
   0   8   9   27.90    5.30
   0   8   9   16.30    5.00
   0  -8  -9   18.70    4.50
   0  -8  -9   18.70    4.50
   0  -8  -9   18.50    5.40
  -1   8   9   30.40    5.00
  -1   8   9   41.50    4.90
  -1   8   9   47.80    6.00
   1  -8  -9   44.80    4.90
   1  -8  -9   44.80    4.90
   1  -8  -9   35.30    5.60
  -2   8   9   36.80    4.80
  -2   8   9   23.20    5.20
  -2   8   9   37.80    5.60
   2  -8  -9   37.90    4.60
   2  -8  -9   37.90    4.60
   2  -8  -9   34.70    5.00
  -3   8   9   46.40    6.20
  -3   8   9   41.70    6.20
  -3   8   9   47.00    5.20
   3  -8  -9   56.89    5.40
   3  -8  -9   56.79    5.40
  -4   8   9    3.60    4.10
  -4   8   9    5.90    5.00
   4  -8  -9    0.90    4.50
   4  -8  -9    5.90    3.60
   4  -8  -9    5.90    3.60
  -5   8   9   87.39    9.90
  -5   8   9   84.49    7.40
   5  -8  -9  100.69    8.00
   5  -8  -9   81.39   10.10
   5  -8  -9  100.69    8.00
  -6   8   9  182.68    9.80
  -6   8   9  204.88   13.20
   6  -8  -9  188.28   10.40
   6  -8  -9  188.28   10.40
   6  -8  -9  210.38   13.10
  -7   8   9   33.30    7.70
  -7   8   9   30.80    5.70
   7  -8  -9   44.50    9.00
   7  -8  -9   40.40    6.10
   7  -8  -9   40.40    6.10
   3   8   8    5.90    6.30
  -3  -8  -8    3.20    7.10
  -3  -8  -8    0.20    6.80
  -3  -8  -8    0.20    6.80
   2   8   8   89.79    9.60
   2   8   8   70.79    8.40
  -2  -8  -8  100.89    8.40
  -2  -8  -8  100.89    8.40
  -2  -8  -8  121.99   11.40
   1   8   8  149.09    9.30
   1   8   8  138.69    9.40
  -1  -8  -8  149.39    9.00
  -1  -8  -8  164.88   10.60
  -1  -8  -8  149.39    9.00
   0   8   8   58.49    6.90
   0   8   8   64.09    7.20
   0  -8  -8   56.19    6.50
   0  -8  -8   74.79    6.80
   0  -8  -8   74.79    6.70
  -1   8   8  129.99    8.80
  -1   8   8  132.59    7.10
  -1   8   8  133.89    8.80
   1  -8  -8  126.69    7.40
   1  -8  -8  135.39    8.30
   1  -8  -8  126.69    7.40
  -2   8   8   71.59    7.50
  -2   8   8   59.49    5.90
  -2   8   8   69.09    7.10
   2  -8  -8   70.39    6.30
   2  -8  -8   64.89    6.10
   2  -8  -8   64.89    6.10
  -3   8   8   64.49    7.20
  -3   8   8   67.19    6.00
   3  -8  -8   64.99    5.80
   3  -8  -8   64.99    5.80
   3  -8  -8   62.49    6.90
   3  -8  -8   70.19    5.60
  -4   8   8   79.89    5.70
  -4   8   8   73.89    7.80
  -4   8   8   64.99    6.10
   4  -8  -8   61.99    8.00
   4  -8  -8   60.89    5.70
   4  -8  -8   60.89    5.70
  -5   8   8  119.89    9.40
  -5   8   8  126.49    7.90
  -5   8   8  106.89    7.40
   5  -8  -8  118.49    7.40
   5  -8  -8  118.49    7.40
   5  -8  -8  121.09    9.70
  -6   8   8    8.40    4.20
  -6   8   8   14.10    5.60
  -6   8   8   13.70    5.00
   6  -8  -8    8.70    4.10
   6  -8  -8   17.20    6.00
   6  -8  -8    8.70    4.10
  -7   8   8   51.99    7.30
  -7   8   8   41.80    7.50
  -7   8   8   40.10    5.70
   7  -8  -8   42.30    7.40
   7  -8  -8   46.50    5.50
   7  -8  -8   46.50    5.50
   4   8   7   -9.80    6.60
  -4  -8  -7   -5.20    7.00
  -4  -8  -7   -5.20    7.00
  -4  -8  -7    4.10    7.10
   3   8   7   51.39    6.60
   3   8   7   39.60    6.90
  -3  -8  -7   53.19    6.00
  -3  -8  -7   57.39    7.50
  -3  -8  -7   53.19    6.00
   2   8   7    7.00    4.60
   2   8   7    9.20    4.00
  -2  -8  -7   11.10    3.70
  -2  -8  -7   11.00    3.70
  -2  -8  -7    3.90    4.80
   1   8   7   17.30    3.80
   1   8   7   17.10    4.10
  -1  -8  -7   17.90    3.80
  -1  -8  -7   17.90    3.80
   0   8   7   51.89    6.20
   0   8   7   38.20    4.80
   0   8   7   53.79    5.20
   0  -8  -7   62.39    6.50
   0  -8  -7   41.20    4.20
   0  -8  -7   41.20    4.20
  -1   8   7  366.56   13.80
  -1   8   7  348.77   11.30
  -1   8   7  367.36   13.70
   1  -8  -7  373.86   12.00
   1  -8  -7  365.76   12.70
   1  -8  -7  373.86   12.00
  -2   8   7  132.19    6.80
  -2   8   7  140.89    6.60
  -2   8   7  141.89    8.50
  -2   8   7  141.09    8.40
  -2   8   7  132.09    4.50
  -2   8   7  134.89    6.80
   2  -8  -7  145.69    6.70
   2  -8  -7  131.19    7.90
   2  -8  -7  139.69    6.90
   2  -8  -7  145.69    6.70
  -3   8   7  127.29    8.20
  -3   8   7  124.29    5.70
  -3   8   7  122.39    6.90
   3  -8  -7  122.49    5.60
   3  -8  -7  123.19    7.90
  -4   8   7  143.49    8.90
  -4   8   7  134.59    7.60
  -4   8   7  139.89    7.10
   4  -8  -7  135.99    8.90
  -5   8   7   35.80    5.60
  -5   8   7   33.70    4.70
  -5   8   7   43.60    5.00
   5  -8  -7   41.70    4.00
   5  -8  -7   29.20    5.20
   5  -8  -7   41.70    4.00
  -6   8   7   48.30    6.40
  -6   8   7   59.49    6.50
   6  -8  -7   63.19    5.10
   6  -8  -7   74.69    9.10
   6  -8  -7   63.09    5.10
  -7   8   7   31.90    6.70
  -7   8   7   44.80    7.00
  -7   8   7   34.40    5.70
   7  -8  -7   28.20    4.60
   7  -8  -7   28.20    4.60
   7  -8  -7   44.80    7.10
  -8   8   7   22.40    5.70
  -8   8   7   44.60    8.60
  -8   8   7   24.10    7.70
   5   8   6   -7.80    7.20
  -5  -8  -6   -6.30    7.70
   4   8   6   35.90    6.40
   4   8   6   32.10    4.90
   4   8   6   37.80    6.20
   4   8   6   32.10    4.90
  -4  -8  -6   26.70    5.70
  -4  -8  -6   41.90    7.80
  -4  -8  -6   26.70    5.70
   3   8   6    8.90    4.60
   3   8   6    0.60    3.80
  -3  -8  -6   15.50    3.60
  -3  -8  -6   15.50    3.60
  -3  -8  -6   14.80    5.10
   2   8   6   33.40    4.60
   2   8   6   45.50    5.30
  -2  -8  -6   45.00    4.90
  -2  -8  -6   45.00    4.90
  -2  -8  -6   38.30    5.70
   1   8   6   49.80    5.60
   1   8   6   53.49    5.60
  -1  -8  -6   58.39    4.90
  -1  -8  -6   58.39    4.90
  -1  -8  -6   50.79    5.80
   0   8   6   24.80    3.40
   0   8   6   25.60    4.90
   0   8   6   24.60    4.10
   0  -8  -6   23.70    4.00
  -1   8   6   18.40    3.30
  -1   8   6   20.80    3.90
  -1   8   6   18.10    2.30
  -1   8   6   24.10    4.40
  -1   8   6   20.50    2.30
   1  -8  -6   17.70    2.90
   1  -8  -6   17.70    2.90
   1  -8  -6   20.70    3.30
  -2   8   6  211.88    9.70
  -2   8   6  217.48    8.60
  -2   8   6  223.08    7.60
  -2   8   6  214.68    7.20
  -2   8   6  228.08    8.00
   2  -8  -6  202.98   10.10
   2  -8  -6  216.48    8.00
   2  -8  -6  218.38    7.90
   2  -8  -6  216.48    8.00
  -3   8   6  171.98    5.60
  -3   8   6  181.98    9.10
  -3   8   6  175.68    7.80
  -3   8   6  177.18    7.20
   3  -8  -6  164.58    5.70
   3  -8  -6  172.68    6.90
   3  -8  -6  172.68    6.90
   3  -8  -6  179.58    8.30
   3  -8  -6  149.99   10.00
  -4   8   6    5.70    3.40
  -4   8   6    9.00    3.10
   4  -8  -6   12.70    2.70
   4  -8  -6   12.70    2.70
   4  -8  -6   11.00    3.70
   4  -8  -6    4.80    4.50
  -5   8   6  191.38    9.20
  -5   8   6  194.88   10.30
  -5   8   6  190.78    8.90
   5  -8  -6  170.18    7.30
   5  -8  -6  170.18    7.30
   5  -8  -6  186.98   10.30
  -6   8   6   44.30    6.80
  -6   8   6   42.20    5.90
  -6   8   6   37.70    5.10
   6  -8  -6   42.40    4.00
   6  -8  -6   43.40    6.50
   6  -8  -6   42.80    6.40
   6  -8  -6   42.40    4.00
  -7   8   6   43.60    7.00
  -7   8   6   29.10    5.00
   7  -8  -6   29.60    6.40
   7  -8  -6   32.90    4.80
   7  -8  -6   32.90    4.80
   7  -8  -6   26.30    6.60
  -8   8   6  103.69    8.40
  -8   8   6  110.49   12.40
   8  -8  -6  102.99   13.20
   8  -8  -6  117.29   13.00
   5   8   5   75.39    8.00
   5   8   5   84.39    8.80
   5   8   5   71.79    6.30
   5   8   5   71.79    6.30
  -5  -8  -5   85.69    9.80
   4   8   5   94.09    8.60
   4   8   5   81.29    7.80
   4   8   5   84.29    6.70
   4   8   5   84.29    6.70
  -4  -8  -5   80.39    9.70
   3   8   5  161.98    8.90
   3   8   5  161.68    8.70
  -3  -8  -5  158.88    8.00
  -3  -8  -5  160.08    7.10
  -3  -8  -5  151.18   10.10
  -3  -8  -5  158.78    8.00
   2   8   5   91.69    4.80
   2   8   5   87.49    6.40
   2   8   5   83.49    6.40
  -2  -8  -5   85.59    5.90
  -2  -8  -5   85.59    5.90
  -2  -8  -5   91.69    7.60
   1   8   5    2.20    2.70
   1   8   5    4.00    2.80
   1   8   5    5.50    1.70
   1   8   5    6.70    2.70
   1   8   5    4.10    1.80
  -1  -8  -5    4.40    2.50
  -1  -8  -5    4.00    2.90
  -1  -8  -5    4.40    2.50
   0   8   5  563.04   14.80
   0   8   5  549.25   13.70
   0   8   5  558.34   17.20
   0   8   5  513.15   15.70
   0   8   5  538.95   16.70
   0   8   5  540.75   13.70
   0  -8  -5  531.25   15.30
   0  -8  -5  531.25   15.30
   0  -8  -5  545.85   16.30
  -1   8   5  120.99    6.50
  -1   8   5  121.49    5.80
  -1   8   5  125.49    7.10
  -1   8   5  124.69    7.00
  -1   8   5  125.79    5.30
  -1   8   5  123.29    6.10
   1  -8  -5  124.59    5.60
   1  -8  -5  124.59    5.60
   1  -8  -5  118.29    6.00
   1  -8  -5  123.19    6.80
  -2   8   5   50.89    5.10
  -2   8   5   52.29    3.50
  -2   8   5   46.20    4.40
  -2   8   5   46.30    5.30
  -2   8   5   48.20    4.50
   2  -8  -5   52.99    3.90
   2  -8  -5   46.70    3.60
   2  -8  -5   39.80    4.90
   2  -8  -5   40.00    4.90
   2  -8  -5   52.99    3.90
  -3   8   5  113.69    6.30
  -3   8   5  124.69    7.20
  -3   8   5  118.19    6.60
   3  -8  -5  127.99    5.40
   3  -8  -5  127.99    5.40
   3  -8  -5  118.39    7.20
   3  -8  -5  123.99    7.30
  -4   8   5   57.69    6.20
  -4   8   5   59.79    5.20
  -4   8   5   49.99    6.00
   4  -8  -5   57.69    4.10
   4  -8  -5   63.19    8.20
   4  -8  -5   59.69    6.30
   4  -8  -5   57.69    4.10
  -5   8   5  433.86   14.30
  -5   8   5  441.46   15.10
   5  -8  -5  445.06   12.60
   5  -8  -5  446.16   16.20
   5  -8  -5  445.06   12.60
   5  -8  -5  423.46   16.50
  -6   8   5   23.10    4.40
  -6   8   5   22.80    4.90
   6  -8  -5   19.80    2.90
   6  -8  -5   17.30    4.60
   6  -8  -5   19.80    2.90
   6  -8  -5   28.00    5.60
  -7   8   5   14.40    5.50
  -7   8   5   11.50    4.30
   7  -8  -5   10.90    5.40
   7  -8  -5    8.00    3.10
   7  -8  -5    8.00    3.10
   7  -8  -5   18.00    5.70
  -8   8   5    6.30    6.50
  -8   8   5    5.30    4.50
   8  -8  -5   -0.10    6.50
   8  -8  -5    0.20    6.70
   6   8   4   15.10    6.40
   6   8   4   13.30    7.40
   6   8   4    8.40    4.90
   6   8   4    8.40    4.90
  -6  -8  -4    9.70    7.30
   5   8   4    5.10    4.50
   5   8   4    5.80    3.70
   5   8   4    0.90    5.20
   5   8   4    5.80    3.70
  -5  -8  -4   12.70    4.60
  -5  -8  -4    6.90    5.50
   4   8   4   -4.20    3.20
   4   8   4    3.40    3.10
   4   8   4   -2.10    6.40
   4   8   4    3.40    3.10
  -4  -8  -4    0.20    4.30
  -4  -8  -4    1.10    3.40
   3   8   4  527.05   16.30
   3   8   4  542.45   17.00
   3   8   4  536.65   15.30
  -3  -8  -4  515.35   15.80
  -3  -8  -4  515.35   15.80
  -3  -8  -4  515.35   21.80
  -3  -8  -4  535.75   15.60
   2   8   4  129.29    5.40
   2   8   4  134.79    6.90
   2   8   4  136.39    7.10
   2   8   4  135.69    5.90
   2   8   4  134.49    5.90
  -2  -8  -4  124.99    7.80
  -2  -8  -4  127.19    6.50
  -2  -8  -4  127.19    6.50
   1   8   4  145.89    6.00
   1   8   4  145.79    7.20
   1   8   4  150.98    7.30
   1   8   4  153.68    6.00
   1   8   4  149.09    5.70
  -1  -8  -4  142.99    6.30
  -1  -8  -4  155.48    7.70
  -1  -8  -4  142.99    6.30
   0   8   4  221.48    9.20
   0   8   4  222.38    8.40
   0   8   4  220.48    7.50
   0   8   4  233.78    7.30
   0   8   4  233.18    9.20
   0   8   4  238.18    7.90
   0  -8  -4  223.38    7.90
   0  -8  -4  227.18    8.60
   0  -8  -4  223.38    7.90
  -1   8   4   50.99    4.80
  -1   8   4   37.40    3.70
  -1   8   4   47.00    3.60
  -1   8   4   47.20    3.80
  -1   8   4   51.19    4.40
  -1   8   4   46.50    4.10
  -1   8   4   37.40    3.70
   1  -8  -4   49.99    3.90
   1  -8  -4   42.80    3.50
   1  -8  -4   46.00    4.60
   1  -8  -4   42.80    3.50
  -2   8   4   64.79    5.40
  -2   8   4   60.49    4.00
  -2   8   4   67.49    4.80
  -2   8   4   60.49    4.60
  -2   8   4   60.49    4.00
   2  -8  -4   63.09    3.80
   2  -8  -4   63.09    3.80
   2  -8  -4   65.89    3.50
   2  -8  -4   60.09    5.30
   2  -8  -4   64.39    5.40
  -3   8   4  323.17   11.10
  -3   8   4  316.07    9.30
  -3   8   4  332.97   10.90
  -3   8   4  316.07    9.30
   3  -8  -4  306.07   11.50
   3  -8  -4  314.97    9.20
   3  -8  -4  314.97    9.20
   3  -8  -4  312.97   11.80
   3  -8  -4  327.87   12.00
  -4   8   4  969.60   25.70
  -4   8   4  913.41   23.40
  -4   8   4  974.20   26.30
  -4   8   4  913.41   23.40
   4  -8  -4  963.30   27.20
   4  -8  -4  955.40   26.90
   4  -8  -4  967.00   23.50
   4  -8  -4  967.00   23.50
  -5   8   4  226.18    7.80
  -5   8   4  219.78    9.40
  -5   8   4  226.18    7.80
  -5   8   4  254.47   11.10
   5  -8  -4  232.38    7.50
   5  -8  -4  227.58   12.50
   5  -8  -4  242.78   11.10
   5  -8  -4  232.38    7.50
  -6   8   4  150.18    9.80
  -6   8   4  142.09    8.00
   6  -8  -4  139.19    5.80
   6  -8  -4  153.18    9.90
   6  -8  -4  133.59    9.40
   6  -8  -4  139.19    5.80
  -7   8   4   31.30    5.40
  -7   8   4   25.50    5.70
   7  -8  -4   39.10    6.50
   7  -8  -4   16.70    4.60
   7  -8  -4   21.40    5.70
   7  -8  -4   16.70    4.60
  -8   8   4   67.69    8.70
   8  -8  -4   52.49    7.30
   8  -8  -4   61.99    8.80
   6   8   3   30.90    7.20
   6   8   3   24.50    4.80
   6   8   3   24.50    4.80
   6   8   3   37.10    6.70
  -6  -8  -3   37.70    7.20
   5   8   3   32.60    4.20
   5   8   3   24.50    5.00
   5   8   3   31.40    5.40
   5   8   3   32.60    4.20
  -5  -8  -3   38.80    6.50
  -5  -8  -3   32.20    5.30
   4   8   3   16.60    3.20
   4   8   3   16.50    3.20
   4   8   3    9.60    4.70
   4   8   3   -0.50    3.20
   4   8   3    1.50    3.30
  -4  -8  -3    6.60    4.20
  -4  -8  -3    5.30    3.30
   3   8   3  141.19    7.00
   3   8   3  137.79    7.10
   3   8   3  107.79    7.20
   3   8   3  107.79    7.20
   3   8   3  134.09    7.30
  -3  -8  -3  150.08    7.20
  -3  -8  -3  129.99    8.30
   2   8   3  563.24   15.30
   2   8   3  561.74   16.70
   2   8   3  573.94   16.50
  -2  -8  -3  543.75   15.90
  -2  -8  -3  541.35   14.60
  -2  -8  -3  552.94   15.70
  -2  -8  -3  570.24   17.50
  -2  -8  -3  552.94   15.70
   1   8   3  440.76   14.10
   1   8   3  472.35   13.30
   1   8   3  472.65   13.20
   1   8   3  464.75   14.50
   1   8   3  468.75   14.30
  -1  -8  -3  459.95   13.20
  -1  -8  -3  459.95   13.20
  -1  -8  -3  474.65   12.90
  -1  -8  -3  474.35   14.60
   0   8   3  224.08    7.60
   0   8   3  215.38    7.30
   0   8   3  223.18    8.80
   0   8   3  214.48    7.90
   0   8   3  215.38    7.30
   0   8   3  232.28    8.00
   0  -8  -3  225.98    7.50
   0  -8  -3  236.08    8.30
   0  -8  -3  225.98    7.50
   0  -8  -3  231.58    7.90
  -1   8   3   21.60    2.50
  -1   8   3   23.40    2.70
  -1   8   3   19.70    2.30
  -1   8   3   19.30    3.00
  -1   8   3   19.70    2.30
  -1   8   3   25.10    3.40
   1  -8  -3   24.90    2.60
   1  -8  -3   23.10    3.10
   1  -8  -3   25.90    3.30
   1  -8  -3   20.30    2.30
   1  -8  -3   20.30    2.30
  -2   8   3   66.69    3.50
  -2   8   3   64.29    2.90
  -2   8   3   66.69    3.50
  -2   8   3   61.89    4.50
  -2   8   3   59.79    2.80
   2  -8  -3   57.99    5.00
   2  -8  -3   61.19    3.40
   2  -8  -3   62.79    4.90
   2  -8  -3   54.99    5.40
   2  -8  -3   61.19    3.40
   2  -8  -3   60.79    5.20
  -3   8   3  204.08    8.10
  -3   8   3  217.38    8.60
  -3   8   3  199.08    6.30
  -3   8   3  199.08    6.30
   3  -8  -3  199.58    9.00
   3  -8  -3  179.08    9.00
   3  -8  -3  204.18    8.10
   3  -8  -3  197.28    8.80
   3  -8  -3  199.58    6.30
   3  -8  -3  199.58    6.30
  -4   8   3  277.07   10.10
  -4   8   3  258.17    7.80
  -4   8   3  258.07    7.80
  -4   8   3  289.97   11.20
   4  -8  -3  277.47   11.00
   4  -8  -3  262.17   11.10
   4  -8  -3  270.47    7.80
   4  -8  -3  270.47    7.80
  -5   8   3   57.39    5.10
  -5   8   3   66.69    4.20
  -5   8   3   66.69    4.20
  -5   8   3   70.09    7.20
   5  -8  -3   67.99    6.80
   5  -8  -3   61.59    3.50
   5  -8  -3   71.59    6.80
   5  -8  -3   61.59    3.50
  -6   8   3   36.10    6.10
  -6   8   3   28.60    4.30
   6  -8  -3   27.50    5.00
   6  -8  -3   34.80    3.30
   6  -8  -3   29.30    5.30
   6  -8  -3   34.80    3.30
  -7   8   3   48.40    5.70
  -7   8   3   54.99    7.30
   7  -8  -3   64.69    7.80
   7  -8  -3   48.20    7.50
  -8   8   3  150.18    9.60
  -8   8   3  182.48   12.60
   8  -8  -3  169.88   13.40
   8  -8  -3  165.68   13.60
   7   8   2   18.50    5.10
   7   8   2   39.70    7.90
   7   8   2   18.50    5.10
  -7  -8  -2   36.90    8.60
  -7  -8  -2   29.30    7.30
   6   8   2   50.59    5.30
   6   8   2   51.59    6.70
   6   8   2   50.59    5.30
   6   8   2   57.19    7.00
  -6  -8  -2   56.99    7.60
  -6  -8  -2   57.59    7.90
   5   8   2  181.38    9.70
   5   8   2  190.78    8.30
   5   8   2  193.48    9.20
   5   8   2  190.78    8.30
  -5  -8  -2  166.18    9.90
  -5  -8  -2  189.38   11.70
   4   8   2   47.60    5.10
   4   8   2   45.20    5.40
   4   8   2   52.99    4.70
   4   8   2   52.99    4.70
  -4  -8  -2   47.40    5.00
   3   8   2  177.78    7.00
   3   8   2  171.98    7.50
   3   8   2  169.78    7.10
   3   8   2  152.88    7.40
   3   8   2  177.78    7.00
  -3  -8  -2  159.58    7.70
  -3  -8  -2  161.18    6.60
  -3  -8  -2  155.68    8.40
   2   8   2  250.07    8.20
   2   8   2  250.97    9.00
   2   8   2  252.37    8.70
   2   8   2  228.38    9.70
   2   8   2  250.07    8.20
   2   8   2  243.78    8.80
  -2  -8  -2  236.38    8.10
  -2  -8  -2  240.38    8.30
  -2  -8  -2  237.48    9.10
  -2  -8  -2  241.88    9.80
  -2  -8  -2  240.38    8.30
   1   8   2   98.19    5.30
   1   8   2   96.99    5.40
   1   8   2   90.19    5.20
   1   8   2   89.99    4.40
   1   8   2   84.99    5.60
   1   8   2   89.69    5.20
   1   8   2   90.09    4.40
   1   8   2   97.89    6.40
   1   8   2   99.49    5.30
  -1  -8  -2   97.19    4.60
  -1  -8  -2   99.59    5.20
  -1  -8  -2   91.59    5.60
  -1  -8  -2   97.19    4.60
   0   8   2  183.48    6.20
   0   8   2  174.38    7.40
   0   8   2  185.48    7.90
   0   8   2  183.48    6.20
   0   8   2  195.78    7.10
   0   8   2  191.58    7.20
   0   8   2  190.88    7.70
   0   8   2  189.18    8.30
   0  -8  -2  191.88    7.30
   0  -8  -2  195.28    6.40
   0  -8  -2  195.68    7.60
   0  -8  -2  203.88    7.30
   0  -8  -2  195.28    6.40
  -1   8   2   50.69    4.90
  -1   8   2   55.59    4.10
  -1   8   2   50.79    3.00
  -1   8   2   51.79    3.40
  -1   8   2   58.69    5.30
  -1   8   2   52.89    3.40
  -1   8   2   54.19    5.50
  -1   8   2   50.79    3.00
   1  -8  -2   50.59    4.30
   1  -8  -2   51.69    4.30
   1  -8  -2   53.79    4.50
   1  -8  -2   50.99    3.10
   1  -8  -2   50.99    3.10
  -2   8   2  457.05   14.90
  -2   8   2  483.65   12.30
  -2   8   2  491.75   14.30
  -2   8   2  501.75   12.20
  -2   8   2  483.65   12.30
  -2   8   2  496.15   12.20
   2  -8  -2  482.45   12.40
   2  -8  -2  497.75   15.20
   2  -8  -2  482.95   14.10
   2  -8  -2  484.55   14.90
   2  -8  -2  482.45   12.40
   2  -8  -2  479.55   14.80
  -3   8   2  101.99    3.70
  -3   8   2   95.39    5.90
  -3   8   2  101.99    3.70
   3  -8  -2   96.19    6.20
   3  -8  -2   98.39    5.90
   3  -8  -2   99.99    3.60
   3  -8  -2  102.79    6.50
   3  -8  -2   99.99    3.60
  -4   8   2  124.29    4.30
  -4   8   2  118.39    7.40
  -4   8   2  124.29    4.30
  -4   8   2  123.79    6.50
   4  -8  -2  119.59    4.00
   4  -8  -2  118.89    6.70
   4  -8  -2  126.59    7.40
   4  -8  -2  119.59    4.00
   4  -8  -2  120.39    7.50
  -5   8   2    2.70    1.70
  -5   8   2    2.70    1.70
  -5   8   2    4.80    3.20
  -5   8   2   -0.40    3.90
   5  -8  -2    5.50    1.40
   5  -8  -2    8.70    3.40
   5  -8  -2   -1.50    3.40
   5  -8  -2    5.50    1.40
  -6   8   2   15.80    4.00
  -6   8   2   13.50    4.90
   6  -8  -2   15.80    1.90
   6  -8  -2   16.20    4.50
   6  -8  -2   15.80    1.90
   6  -8  -2   20.90    5.20
  -7   8   2   25.40    5.80
  -7   8   2   27.30    5.00
   7  -8  -2   26.60    6.10
   7  -8  -2   24.00    5.90
  -8   8   2  123.89    9.10
  -8   8   2  127.79   11.90
   8  -8  -2  151.38   13.90
   8  -8  -2  153.98   13.90
   7   8   1   32.30    4.60
   7   8   1   35.80    6.70
   7   8   1   32.30    4.70
  -7  -8  -1   41.50    7.80
  -7  -8  -1   30.00    7.80
   6   8   1  156.08    9.80
   6   8   1  162.48   10.30
   6   8   1  158.28    8.20
   6   8   1  158.28    8.20
  -6  -8  -1  166.18   12.30
  -6  -8  -1  189.18   10.70
   5   8   1  103.79    6.50
   5   8   1  109.19    6.30
   5   8   1  109.19    6.30
  -5  -8  -1   95.89    8.10
  -5  -8  -1  110.69    9.30
   4   8   1  136.79    6.40
   4   8   1  149.69    6.40
   4   8   1  149.19    7.20
   4   8   1  136.69    6.40
   4   8   1  122.49    8.00
  -4  -8  -1  138.19    6.80
  -4  -8  -1  140.29    8.00
  -4  -8  -1  145.69    8.90
   3   8   1   80.59    5.90
   3   8   1   88.49    4.80
   3   8   1   68.59    6.00
   3   8   1   87.39    5.30
   3   8   1   86.19    4.90
   3   8   1   88.49    4.80
  -3  -8  -1   84.39    6.60
  -3  -8  -1   86.79    6.00
  -3  -8  -1   91.99    5.60
   2   8   1  225.88    9.20
   2   8   1  246.68    8.50
   2   8   1  223.48    9.00
   2   8   1  243.08    7.90
   2   8   1  246.78    8.40
   2   8   1  243.08    7.90
   2   8   1  243.08    9.30
   2   8   1  237.08    8.00
   2   8   1  237.08    8.00
   2   8   1  250.47    9.00
  -2  -8  -1  239.98    9.20
  -2  -8  -1  251.47    8.50
  -2  -8  -1  236.28    9.60
   1   8   1  528.45   15.00
   1   8   1  486.05   13.60
   1   8   1  495.45   14.90
   1   8   1  525.85   13.80
   1   8   1  526.15   15.00
   1   8   1  508.45   15.00
   1   8   1  528.85   15.10
   1   8   1  511.45   14.70
   1   8   1  507.65   15.20
   1   8   1  486.05   13.60
   1   8   1  525.85   13.80
   1   8   1  528.15   15.20
  -1  -8  -1  519.35   15.30
  -1  -8  -1  524.45   14.50
   0   8   1  260.17    7.60
   0   8   1  260.17    7.60
   0   8   1  262.67    9.50
   0   8   1  258.97    9.00
   0   8   1  245.48    9.50
   0   8   1  259.87    9.20
   0   8   1  260.37    8.70
   0   8   1  265.67    8.70
   0  -8  -1  266.37    9.00
   0  -8  -1  266.17    7.80
   0  -8  -1  266.17    7.80
   0  -8  -1  259.77    9.20
   0  -8  -1  277.97    9.00
  -1   8   1  659.83   18.50
  -1   8   1  669.83   16.40
  -1   8   1  682.53   18.50
  -1   8   1  652.83   19.20
  -1   8   1  637.74   19.10
  -1   8   1  677.03   17.30
  -1   8   1  669.83   16.40
  -1   8   1  693.43   17.50
   1  -8  -1  689.33   18.70
   1  -8  -1  680.83   18.40
   1  -8  -1  672.73   16.60
   1  -8  -1  672.93   19.00
   1  -8  -1  672.73   16.60
  -2   8   1   13.50    1.50
  -2   8   1   13.50    1.50
  -2   8   1   11.70    1.50
  -2   8   1   13.50    2.60
  -2   8   1   11.30    2.60
  -2   8   1   11.30    2.70
   2  -8  -1    8.20    2.40
   2  -8  -1   10.60    2.70
   2  -8  -1   12.10    2.80
   2  -8  -1    7.20    3.20
  -3   8   1  445.66   11.20
  -3   8   1  429.56   10.70
  -3   8   1  429.56   10.70
  -3   8   1  447.36   10.90
  -3   8   1  444.66   14.10
   3  -8  -1  431.66   13.50
   3  -8  -1  442.66   10.80
   3  -8  -1  442.66   10.80
   3  -8  -1  441.56   14.70
   3  -8  -1  455.85   14.40
  -4   8   1  962.60   22.10
  -4   8   1  979.50   26.70
  -4   8   1  962.50   22.10
   4  -8  -1  927.41   22.10
   4  -8  -1  927.31   22.10
   4  -8  -1  955.00   26.70
   4  -8  -1  946.61   25.40
   4  -8  -1  970.00   27.10
  -5   8   1   33.70    4.30
   5  -8  -1   36.10    4.60
   5  -8  -1   35.80    4.30
  -6   8   1   65.29    8.20
  -6   8   1   59.49    6.20
   6  -8  -1   65.99    8.10
   6  -8  -1   64.39    7.20
  -7   8   1    7.60    4.40
  -7   8   1    7.60    5.00
   7  -8  -1    5.70    6.40
   7  -8  -1   16.20    5.60
  -8   8   1   10.10    5.10
  -8   8   1    1.70    6.50
   8  -8  -1   25.30    8.20
   8   8   0   25.10    7.40
  -8  -8   0   20.10    8.50
   7   8   0   52.89    6.80
   7   8   0   31.90    4.50
   7   8   0   31.90    4.60
  -7  -8   0   59.69    8.30
  -7  -8   0   42.60    7.30
   6   8   0  195.08    8.60
   6   8   0  195.08    8.60
   6   8   0  204.88    9.30
   6   8   0  204.18   10.90
  -6  -8   0  202.38   12.00
  -6  -8   0  213.58   11.50
   5   8   0  466.75   15.10
   5   8   0  466.55   13.40
   5   8   0  446.06   13.80
   5   8   0  435.06   14.30
   5   8   0  446.06   13.80
  -5  -8   0  446.26   13.80
  -5  -8   0  475.25   17.10
  -5  -8   0  467.05   16.20
   4   8   0  315.37   11.10
   4   8   0  329.47    9.90
   4   8   0  319.07   10.40
   4   8   0  327.07   11.10
   4   8   0  318.97   10.40
  -4  -8   0  344.27   10.80
  -4  -8   0  325.27   12.90
  -4  -8   0  334.07   12.40
   3   8   0  223.18    7.90
   3   8   0  207.08    7.40
   3   8   0  222.98    8.40
   3   8   0  208.18    9.00
   3   8   0  211.98    9.30
   3   8   0  207.08    7.40
   3   8   0  203.08    8.40
   3   8   0  218.88    7.40
  -3  -8   0  216.18    9.70
  -3  -8   0  220.18    9.30
  -3  -8   0  217.38    8.10
   2   8   0   99.59    5.50
   2   8   0  104.49    4.90
   2   8   0   98.39    5.80
   2   8   0  101.99    4.60
   2   8   0  104.79    4.90
   2   8   0  101.89    4.60
   2   8   0  106.09    4.90
   2   8   0  104.39    6.00
   2   8   0   97.89    5.60
   2   8   0   96.89    6.00
   2   8   0  104.39    4.90
  -2  -8   0  100.29    6.10
  -2  -8   0  105.09    5.50
   1   8   0   63.49    4.50
   1   8   0   60.59    4.30
   1   8   0   61.89    4.60
   1   8   0   53.69    3.50
   1   8   0   62.29    4.70
   1   8   0   59.19    3.90
   1   8   0   60.99    4.10
   1   8   0   52.49    4.70
   1   8   0   58.69    3.30
   1   8   0   53.69    3.50
   1   8   0   58.69    3.30
   1   8   0   58.19    4.70
  -1  -8   0   62.29    4.10
  -1  -8   0   64.69    4.70
   0   8   0   14.80    1.70
   0   8   0   19.40    2.70
   0   8   0   12.90    2.80
   0   8   0   18.20    1.70
   0   8   0   14.90    3.00
   0   8   0   14.80    1.70
   0   8   0   13.30    2.20
   0   8   0   15.10    2.50
   0   8   0   20.50    2.90
   0   8   0   18.20    1.70
   0  -8   0   15.50    2.70
   0  -8   0   14.20    2.20
   0  -8   0   14.90    2.40
  -1   8   0   65.79    4.00
  -1   8   0   68.39    4.60
  -1   8   0   62.39    3.60
  -1   8   0   59.29    5.30
  -1   8   0   65.39    4.70
  -1   8   0   56.49    2.80
  -1   8   0   56.49    2.80
  -1   8   0   63.99    5.30
   1  -8   0   63.79    4.80
   1  -8   0   61.69    4.20
   1  -8   0   55.89    5.10
  -2   8   0  104.29    3.00
  -2   8   0  111.49    3.10
  -2   8   0   93.29    5.80
  -2   8   0  104.29    3.00
  -2   8   0  111.49    3.10
  -2   8   0  115.09    5.00
  -2   8   0  103.39    5.90
  -2   8   0  102.89    5.80
   2  -8   0  109.19    6.30
   2  -8   0  110.29    6.10
   2  -8   0  106.69    4.70
   2  -8   0  104.89    5.80
  -3   8   0  205.68    8.80
  -3   8   0  225.48    6.60
   3  -8   0  211.18    7.00
   3  -8   0  215.58    8.70
   3  -8   0  216.28    9.10
   3  -8   0  213.58    9.60
  -4   8   0  318.07   12.20
  -4   8   0  294.77   10.90
   4  -8   0  340.17   12.90
   4  -8   0  325.47   12.20
   4  -8   0  327.27   11.20
   4  -8   0  322.47    9.50
  -5   8   0  455.45   12.90
  -5   8   0  457.55   14.80
  -5   8   0  480.55   16.90
   5  -8   0  479.45   14.30
   5  -8   0  505.75   17.40
   5  -8   0  461.15   15.00
   5  -8   0  485.15   16.60
  -6   8   0  192.58    9.20
  -6   8   0  198.38   11.60
   6  -8   0  209.78   12.20
   6  -8   0  205.58   11.20
  -7   8   0   42.30    5.60
  -7   8   0   47.40    7.50
   7  -8   0   48.00    7.20
   7  -8   0   57.69    8.20
  -8   8   0   22.30    5.70
   8  -8   0   10.00    8.70
   8   8  -1    4.30    6.00
   8   8  -1   20.10    7.20
  -8  -8   1   13.70    7.70
   7   8  -1   10.70    5.30
   7   8  -1    4.00    3.80
   7   8  -1    4.00    3.80
   7   8  -1    5.70    5.50
  -7  -8   1    5.30    6.10
  -7  -8   1    6.40    5.40
   6   8  -1   57.39    5.40
   6   8  -1   57.59    5.30
   6   8  -1   68.39    7.80
   6   8  -1   57.39    5.40
   6   8  -1   67.49    7.20
  -6  -8   1   66.19    7.20
  -6  -8   1   58.39    7.00
  -6  -8   1   76.79    8.30
   5   8  -1   35.60    3.70
   5   8  -1   40.40    4.00
   5   8  -1   27.30    4.30
   5   8  -1   33.00    3.90
   5   8  -1   35.60    3.70
   5   8  -1   39.00    4.40
  -5  -8   1   36.90    4.80
  -5  -8   1   35.80    5.40
  -5  -8   1   33.30    5.20
   4   8  -1  970.10   27.30
   4   8  -1  968.90   25.10
   4   8  -1  977.80   24.90
   4   8  -1  952.60   24.40
   4   8  -1  907.01   25.30
   4   8  -1  977.80   24.90
   4   8  -1  989.90   23.80
  -4  -8   1  975.60   25.20
  -4  -8   1  963.00   27.10
   3   8  -1  452.15   12.70
   3   8  -1  452.15   12.70
   3   8  -1  439.56   14.70
   3   8  -1  435.36   13.30
   3   8  -1  456.15   13.00
   3   8  -1  447.06   12.30
   3   8  -1  441.26   12.70
  -3  -8   1  450.05   13.50
  -3  -8   1  458.05   14.90
   2   8  -1   12.40    1.90
   2   8  -1   15.70    2.90
   2   8  -1   15.20    2.40
   2   8  -1   11.60    2.20
   2   8  -1   11.60    2.20
   2   8  -1   14.50    2.00
   2   8  -1   16.20    3.10
   2   8  -1    6.30    2.30
   2   8  -1    9.40    2.50
   2   8  -1   14.50    2.00
   2   8  -1   12.10    2.10
  -2  -8   1    8.50    2.80
  -2  -8   1   15.30    3.10
   1   8  -1  667.93   18.90
   1   8  -1  645.14   18.60
   1   8  -1  657.93   18.40
   1   8  -1  663.63   16.90
   1   8  -1  671.03   16.70
   1   8  -1  671.83   17.50
   1   8  -1  666.43   17.60
   1   8  -1  659.43   19.00
   1   8  -1  663.63   16.90
   1   8  -1  671.03   16.70
   1   8  -1  671.13   18.20
  -1  -8   1  677.23   18.00
  -1  -8   1  671.73   18.30
   0   8  -1  262.67    9.60
   0   8  -1  246.98   10.00
   0   8  -1  262.27    7.30
   0   8  -1  259.67    9.40
   0   8  -1  267.57    7.20
   0   8  -1  263.37    8.60
   0   8  -1  262.27    7.30
   0   8  -1  258.07    8.70
   0   8  -1  267.57    7.20
   0   8  -1  261.17    9.30
   0  -8   1  263.27    8.50
   0  -8   1  256.47    9.30
   0  -8   1  275.57    9.30
  -1   8  -1  532.15   12.40
  -1   8  -1  515.25   15.50
  -1   8  -1  512.95   12.30
  -1   8  -1  512.95   12.30
  -1   8  -1  532.15   12.40
  -1   8  -1  524.25   14.20
  -1   8  -1  491.35   16.20
  -1   8  -1  523.35   14.60
  -1   8  -1  478.45   15.20
   1  -8   1  509.65   15.00
   1  -8   1  508.85   14.70
   1  -8   1  527.25   15.60
   1  -8   1  518.05   14.50
  -2   8  -1  258.47    9.70
  -2   8  -1  247.28    7.80
  -2   8  -1  242.48    8.90
   2  -8   1  252.37   10.00
   2  -8   1  241.78    9.30
   2  -8   1  241.78    9.00
   2  -8   1  245.98    8.40
  -3   8  -1   74.19    5.70
  -3   8  -1   82.29    4.20
   3  -8   1   82.39    6.50
   3  -8   1   81.79    4.90
   3  -8   1   89.79    5.90
  -4   8  -1  139.29    5.90
  -4   8  -1  143.19    8.20
   4  -8   1  150.28    8.90
   4  -8   1  142.59    6.60
   4  -8   1  144.79    8.00
   4  -8   1  134.79    7.30
  -5   8  -1   94.39    5.60
  -5   8  -1  100.89    8.40
   5  -8   1   93.59    8.70
   5  -8   1   98.79    7.80
   5  -8   1   97.29    7.00
  -6   8  -1  156.68   11.20
  -6   8  -1  166.88    8.80
  -6   8  -1  170.18    8.40
   6  -8   1  157.98   11.60
   6  -8   1  142.59   10.50
  -7   8  -1   41.60    5.80
  -7   8  -1   40.50    7.40
   7  -8   1   40.40    8.40
   7  -8   1   36.20    7.00
   8   8  -2  119.99    8.90
   8   8  -2  139.99   13.30
   8   8  -2  120.49   10.90
   8   8  -2  119.99    8.90
  -8  -8   2  127.89   13.50
   7   8  -2   32.60    4.30
   7   8  -2   32.60    4.30
   7   8  -2   29.70    5.30
   7   8  -2   30.70    6.50
  -7  -8   2   26.90    6.00
  -7  -8   2   29.10    6.50
   6   8  -2   16.40    4.50
   6   8  -2   18.60    4.10
   6   8  -2   18.10    3.40
   6   8  -2   18.10    3.40
  -6  -8   2   18.00    4.80
  -6  -8   2   25.40    5.00
   5   8  -2    7.20    2.70
   5   8  -2    7.60    3.10
   5   8  -2    6.10    5.60
   5   8  -2    2.80    2.30
   5   8  -2    6.40    2.20
   5   8  -2    7.20    2.70
  -5  -8   2    7.80    3.90
  -5  -8   2    1.60    3.20
  -5  -8   2    2.90    3.60
   4   8  -2  116.59    7.50
   4   8  -2  128.19    6.20
   4   8  -2  118.49    5.70
   4   8  -2  112.29    5.60
   4   8  -2  115.99    5.10
   4   8  -2  125.09    4.40
   4   8  -2  112.29    5.60
  -4  -8   2  123.29    7.70
  -4  -8   2  118.59    6.80
   3   8  -2   91.69    4.90
   3   8  -2   93.39    6.20
   3   8  -2   99.79    4.70
   3   8  -2  100.19    4.30
   3   8  -2   98.89    4.40
   3   8  -2  101.39    6.00
   3   8  -2   99.79    4.70
   3   8  -2  101.39    6.00
   3   8  -2   98.79    5.00
  -3  -8   2  104.29    6.80
  -3  -8   2   94.29    8.80
   2   8  -2  479.05   14.90
   2   8  -2  487.15   12.80
   2   8  -2  490.25   13.60
   2   8  -2  508.25   16.80
   2   8  -2  482.25   13.00
   2   8  -2  468.95   13.20
   2   8  -2  485.95   13.20
   2   8  -2  468.95   13.20
   2   8  -2  482.25   13.00
  -2  -8   2  512.15   16.00
  -2  -8   2  489.35   13.40
   1   8  -2   49.70    3.30
   1   8  -2   50.59    4.20
   1   8  -2   52.19    4.60
   1   8  -2   40.30    4.90
   1   8  -2   56.19    3.70
   1   8  -2   52.09    2.80
   1   8  -2   47.80    4.90
   1   8  -2   55.39    4.90
   1   8  -2   52.09    2.80
   1   8  -2   49.70    3.30
  -1  -8   2   52.49    3.10
  -1  -8   2   52.49    4.00
   0   8  -2  198.48    5.50
   0   8  -2  198.48    5.50
   0   8  -2  187.18    5.60
   0   8  -2  187.08    5.60
   0   8  -2  195.68    6.80
   0   8  -2  179.88    7.70
   0   8  -2  201.48    8.30
   0   8  -2  198.18    7.50
   0  -8   2  182.88    7.90
   0  -8   2  194.18    6.70
   0  -8   2  188.98    7.70
   0  -8   2  197.48    7.80
  -1   8  -2   95.19    2.80
  -1   8  -2   96.09    5.20
  -1   8  -2  103.39    4.90
  -1   8  -2  101.99    6.20
  -1   8  -2   94.79    2.80
  -1   8  -2   94.79    2.80
  -1   8  -2  101.59    6.10
  -1   8  -2   95.19    2.80
   1  -8   2   95.39    5.60
   1  -8   2  102.59    5.80
   1  -8   2  100.89    6.00
   1  -8   2   87.89    4.90
  -2   8  -2  232.08    9.50
  -2   8  -2  242.78    8.00
  -2   8  -2  242.48    9.10
   2  -8   2  242.48   10.10
   2  -8   2  238.08    9.00
   2  -8   2  246.58    9.50
   2  -8   2  231.88    8.80
  -3   8  -2  155.58    6.50
  -3   8  -2  168.88    8.30
   3  -8   2  163.38    7.80
   3  -8   2  156.78    8.50
   3  -8   2  152.68    7.30
   3  -8   2  161.08    7.80
  -4   8  -2   43.60    4.50
  -4   8  -2   40.40    5.40
   4  -8   2   43.50    4.80
   4  -8   2   50.29    5.40
   4  -8   2   41.00    4.50
   4  -8   2   45.60    5.90
  -5   8  -2  183.68   10.80
  -5   8  -2  173.08    8.10
   5  -8   2  175.58   10.70
   5  -8   2  175.28    8.90
   5  -8   2  193.98   10.30
  -6   8  -2   51.09    5.80
  -6   8  -2   44.40    7.10
  -6   8  -2   54.29    5.60
   6  -8   2   64.19    8.00
   6  -8   2   55.09    6.90
   6  -8   2   56.49    6.20
  -7   8  -2   32.00    6.00
  -7   8  -2   33.90    7.50
   7  -8   2   25.90    8.10
   7  -8   2   29.90    7.40
   8   8  -3  165.98    9.50
   8   8  -3  165.98    9.50
   8   8  -3  142.69   13.40
   8   8  -3  167.28   11.20
  -8  -8   3  185.98   14.40
  -8  -8   3  152.68   11.40
   7   8  -3   50.09    4.70
   7   8  -3   47.50    5.30
   7   8  -3   50.09    4.70
   7   8  -3   33.00    6.10
  -7  -8   3   83.09   10.30
  -7  -8   3   62.89    6.90
   6   8  -3   32.40    4.00
   6   8  -3   23.50    3.40
   6   8  -3   27.10    5.20
   6   8  -3   23.50    3.40
  -6  -8   3   25.50    4.90
  -6  -8   3   31.20    5.70
   5   8  -3   61.49    5.00
   5   8  -3   64.59    7.70
   5   8  -3   72.29    5.80
   5   8  -3   62.79    4.90
   5   8  -3   62.79    4.90
  -5  -8   3   71.89    8.10
  -5  -8   3   63.99    6.10
   4   8  -3  251.67    8.80
   4   8  -3  276.27   11.10
   4   8  -3  262.17    8.50
   4   8  -3  273.27    7.30
   4   8  -3  278.87    7.00
   4   8  -3  251.67    8.80
   4   8  -3  269.67    8.80
  -4  -8   3  266.37   11.50
  -4  -8   3  261.37   10.30
   3   8  -3  200.58    8.70
   3   8  -3  203.38    6.60
   3   8  -3  202.48    6.40
   3   8  -3  199.88    6.90
   3   8  -3  199.88    6.90
   3   8  -3  187.78    6.30
   3   8  -3  189.88    6.50
  -3  -8   3  179.88    7.00
  -3  -8   3  205.78    9.50
  -3  -8   3  198.78    8.50
  -3  -8   3  179.88    6.90
   2   8  -3   60.59    4.50
   2   8  -3   60.59    2.80
   2   8  -3   65.59    3.50
   2   8  -3   65.59    3.50
   2   8  -3   59.39    3.30
   2   8  -3   62.09    5.10
  -2  -8   3   55.19    5.40
  -2  -8   3   61.29    3.80
  -2  -8   3   61.29    3.80
  -2  -8   3   65.99    4.00
  -2  -8   3   54.79    5.30
   1   8  -3   20.00    1.90
   1   8  -3   20.00    1.90
   1   8  -3   22.30    3.80
   1   8  -3   25.30    3.20
   1   8  -3   25.00    3.30
  -1  -8   3   22.90    2.20
  -1  -8   3   20.70    2.30
  -1  -8   3   15.40    3.10
  -1  -8   3   24.20    3.80
  -1  -8   3   22.90    2.20
  -1  -8   3   19.90    2.70
   0   8  -3  212.18    6.40
   0   8  -3  212.18    6.40
   0   8  -3  226.18    6.20
   0   8  -3  219.08    8.90
   0   8  -3  228.68    7.30
   0   8  -3  227.28    9.30
   0   8  -3  226.18    6.20
   0   8  -3  238.38    8.50
   0  -8   3  231.28    9.00
   0  -8   3  224.08    8.70
   0  -8   3  228.88    7.30
   0  -8   3  231.48    9.10
  -1   8  -3  441.26   10.60
  -1   8  -3  441.26   10.60
  -1   8  -3  459.25   13.00
  -1   8  -3  463.75   13.50
  -1   8  -3  460.55   14.80
   1  -8   3  466.95   14.60
   1  -8   3  449.56   13.10
   1  -8   3  444.96   14.10
   1  -8   3  430.96   14.00
  -2   8  -3  543.25   16.90
  -2   8  -3  555.64   15.50
  -2   8  -3  522.35   15.80
   2  -8   3  508.35   16.20
   2  -8   3  537.65   16.40
   2  -8   3  556.74   17.30
   2  -8   3  556.84   15.90
  -3   8  -3  137.39    7.80
  -3   8  -3  127.79    6.50
   3  -8   3  153.98    8.80
   3  -8   3  145.89    7.80
   3  -8   3  122.69    7.20
   3  -8   3  110.39    7.40
  -4   8  -3    8.70    3.80
  -4   8  -3    5.00    2.90
   4  -8   3    8.90    3.60
   4  -8   3    2.80    3.90
   4  -8   3    4.20    3.70
  -5   8  -3   41.60    6.60
  -5   8  -3   35.40    4.80
   5  -8   3   32.80    5.30
   5  -8   3   40.40    6.60
   5  -8   3   25.10    4.90
  -6   8  -3   22.90    5.40
  -6   8  -3   20.80    6.60
  -6   8  -3   27.10    5.00
   6  -8   3   36.10    6.60
   6  -8   3   30.20    5.60
   6  -8   3   34.80    7.60
   8   8  -4   55.09    5.90
   8   8  -4   53.49    8.30
   8   8  -4   55.19    5.90
  -8  -8   4  102.59   12.80
  -8  -8   4   72.79    7.80
   7   8  -4   37.40    4.50
   7   8  -4   33.60    6.50
   7   8  -4   37.40    4.50
   7   8  -4   38.90    4.60
  -7  -8   4   40.20    7.30
  -7  -8   4   35.60    5.70
   6   8  -4  144.19    9.70
   6   8  -4  141.29    6.80
   6   8  -4  141.59    7.00
   6   8  -4  141.59    7.10
  -6  -8   4  131.99   10.10
  -6  -8   4  131.99    8.40
   5   8  -4  233.68    8.20
   5   8  -4  227.38   10.90
   5   8  -4  220.78    8.50
   5   8  -4  220.78    8.50
   5   8  -4  224.88    7.60
  -5  -8   4  225.68    9.90
  -5  -8   4  230.08   11.50
   4   8  -4  941.61   23.90
   4   8  -4  864.01   23.20
   4   8  -4  941.61   23.90
   4   8  -4  938.01   26.70
   4   8  -4  975.30   22.60
  -4  -8   4  931.31   27.30
  -4  -8   4  941.71   25.40
   3   8  -4  324.07   12.00
   3   8  -4  311.67    9.60
   3   8  -4  311.67    9.60
   3   8  -4  317.77    9.40
  -3  -8   4  320.37    9.00
  -3  -8   4  311.67   11.30
  -3  -8   4  311.37   12.60
   2   8  -4   57.49    3.50
   2   8  -4   67.09    5.30
   2   8  -4   57.49    3.50
   2   8  -4   60.09    5.00
  -2  -8   4   65.09    5.50
  -2  -8   4   63.29    4.20
  -2  -8   4   63.99    3.90
  -2  -8   4   63.99    3.90
  -2  -8   4   64.19    6.20
   1   8  -4   52.39    4.80
   1   8  -4   42.00    5.20
   1   8  -4   44.00    2.80
   1   8  -4   50.69    5.40
   1   8  -4   52.09    2.90
   1   8  -4   44.00    2.80
  -1  -8   4   39.30    4.50
  -1  -8   4   40.00    3.10
  -1  -8   4   40.00    3.10
  -1  -8   4   47.70    4.40
  -1  -8   4   47.50    2.50
   0   8  -4  232.68    9.70
   0   8  -4  227.38    6.20
   0   8  -4  201.58    9.40
   0   8  -4  226.08    8.60
   0   8  -4  227.38    6.20
   0   8  -4  228.98    7.40
   0  -8   4  221.58    6.40
   0  -8   4  228.18    7.20
   0  -8   4  221.58    6.40
   0  -8   4  222.68    9.10
   0  -8   4  227.48    9.40
  -1   8  -4  144.49    3.90
  -1   8  -4  139.39    4.10
  -1   8  -4  150.08    6.90
  -1   8  -4  160.18    8.00
  -1   8  -4  144.49    3.90
  -1   8  -4  139.39    4.10
  -1   8  -4  146.19    6.70
   1  -8   4  144.09    8.00
   1  -8   4  155.58    7.50
   1  -8   4  149.09    6.30
  -2   8  -4  133.99    6.60
  -2   8  -4  138.99    7.90
  -2   8  -4  121.99    7.70
   2  -8   4  130.69    6.70
   2  -8   4  128.69    7.70
   2  -8   4  124.59    8.30
  -3   8  -4  516.65   16.10
  -3   8  -4  523.05   17.70
   3  -8   4  537.25   16.80
   3  -8   4  527.05   16.60
   3  -8   4  531.85   18.20
  -4   8  -4    2.80    4.10
  -4   8  -4   -3.20    3.30
   4  -8   4    2.50    3.60
   4  -8   4    6.00    4.20
   4  -8   4    2.60    4.60
  -5   8  -4    2.90    5.80
   5  -8   4   15.70    5.00
   5  -8   4    9.50    5.50
   5  -8   4   10.20    5.10
  -6   8  -4    8.70    7.10
  -6   8  -4   18.70    6.10
  -6   8  -4   23.10    5.40
   6  -8   4   22.60    8.50
   6  -8   4   23.70    6.80
   6  -8   4   17.90    5.80
   8   8  -5    0.50    4.20
   8   8  -5    0.50    4.20
   8   8  -5    3.10    6.80
  -8  -8   5   15.20    7.80
  -8  -8   5    0.90    5.70
   7   8  -5    0.70    3.40
   7   8  -5    0.70    3.40
   7   8  -5   15.00    5.70
  -7  -8   5    6.10    4.80
  -7  -8   5   15.10    6.60
   6   8  -5   22.20    3.90
   6   8  -5   15.50    3.40
   6   8  -5   24.00    5.30
   6   8  -5   15.50    3.40
  -6  -8   5   20.80    5.40
  -6  -8   5   22.90    5.10
   5   8  -5  428.56   11.40
   5   8  -5  444.26   13.30
   5   8  -5  432.56   16.00
   5   8  -5  444.26   13.30
  -5  -8   5  455.75   17.00
  -5  -8   5  429.56   14.80
   4   8  -5   64.59    4.60
   4   8  -5   64.59    4.60
   4   8  -5   57.39    6.00
  -4  -8   5   60.69    6.00
  -4  -8   5   67.89    7.00
   3   8  -5  116.99    5.30
   3   8  -5  116.99    5.30
   3   8  -5  120.49    5.30
   3   8  -5  115.79    7.20
  -3  -8   5  113.09    8.00
  -3  -8   5  115.29    7.30
   2   8  -5   44.70    5.10
   2   8  -5   49.00    3.40
   2   8  -5   49.40    5.70
   2   8  -5   57.79    6.00
   2   8  -5   49.00    3.40
  -2  -8   5   52.39    5.30
  -2  -8   5   45.70    4.30
  -2  -8   5   35.90    4.90
  -2  -8   5   43.00    3.80
  -2  -8   5   43.00    3.80
   1   8  -5  124.99    4.60
   1   8  -5  124.99    4.60
   1   8  -5  121.39    8.00
   1   8  -5  124.79    7.80
   1   8  -5  126.49    6.80
  -1  -8   5  123.99    7.00
  -1  -8   5  125.29    5.00
  -1  -8   5  125.29    5.00
  -1  -8   5  124.39    6.50
   0   8  -5  543.95   13.40
   0   8  -5  546.95   16.40
   0   8  -5  539.75   14.10
   0   8  -5  559.54   17.40
   0   8  -5  543.95   13.40
   0  -8   5  538.85   13.60
   0  -8   5  518.65   16.60
   0  -8   5  533.05   14.20
   0  -8   5  538.85   13.60
   0  -8   5  532.45   16.70
  -1   8  -5    3.40    1.20
  -1   8  -5    5.60    2.50
  -1   8  -5    5.90    3.20
  -1   8  -5    4.90    2.80
  -1   8  -5    3.40    1.20
   1  -8   5    5.20    1.20
   1  -8   5    5.20    1.20
   1  -8   5    5.20    3.70
   1  -8   5    9.00    3.20
   1  -8   5    7.00    2.20
  -2   8  -5   79.99    6.10
  -2   8  -5   67.59    8.10
  -2   8  -5   74.39    7.10
   2  -8   5   81.59    7.50
   2  -8   5   78.79    7.00
   2  -8   5   84.29    5.90
  -3   8  -5  153.78    9.40
  -3   8  -5  158.38    8.60
   3  -8   5  159.68    8.70
   3  -8   5  154.08   10.10
   3  -8   5  147.29    9.00
  -4   8  -5   83.89    8.00
  -4   8  -5   84.19    9.30
   4  -8   5   93.09    8.40
   4  -8   5   87.49    8.10
   4  -8   5   96.69    9.70
  -5   8  -5   71.09    9.30
  -5   8  -5   72.09    7.60
   5  -8   5   72.29    7.30
   5  -8   5   82.59   10.10
   8   8  -6   87.79    9.70
  -8  -8   6  111.19   14.10
  -8  -8   6   83.79    8.70
   7   8  -6   43.00    7.20
   7   8  -6   35.00    4.80
   7   8  -6   35.00    4.80
  -7  -8   6   27.40    5.80
  -7  -8   6   29.50    7.00
   6   8  -6   37.90    4.40
   6   8  -6   39.30    6.20
   6   8  -6   37.90    4.40
  -6  -8   6   46.20    7.30
  -6  -8   6   34.40    5.50
   5   8  -6  190.18    7.80
   5   8  -6  190.68   10.70
   5   8  -6  190.18    7.80
  -5  -8   6  203.38   11.50
  -5  -8   6  188.08    9.60
   4   8  -6    9.20    3.70
   4   8  -6    5.90    2.50
   4   8  -6    5.90    2.50
  -4  -8   6   15.00    4.60
  -4  -8   6   13.90    4.10
   3   8  -6  173.08    6.40
   3   8  -6  164.08    9.10
   3   8  -6  173.68    6.50
   3   8  -6  173.68    6.50
  -3  -8   6  163.68    8.60
  -3  -8   6  172.58    6.50
  -3  -8   6  157.88    9.70
   2   8  -6  209.68    9.40
   2   8  -6  210.58    8.60
   2   8  -6  218.98    7.10
   2   8  -6  213.78   10.30
   2   8  -6  218.98    7.10
  -2  -8   6  210.88    9.50
  -2  -8   6  206.78    7.70
  -2  -8   6  206.78    7.70
  -2  -8   6  215.78    8.40
   1   8  -6   24.80    2.30
   1   8  -6   16.50    5.20
   1   8  -6   24.80    2.30
   1   8  -6   18.10    4.30
   1   8  -6   22.00    3.50
  -1  -8   6   17.10    3.70
  -1  -8   6   20.30    2.70
  -1  -8   6   16.80    4.20
  -1  -8   6   20.30    2.70
   0   8  -6   27.20    2.20
   0   8  -6   20.70    3.40
   0   8  -6   18.30    4.00
   0   8  -6   27.20    2.20
   0   8  -6   24.20    2.40
   0  -8   6   19.70    3.90
   0  -8   6   18.50    2.40
   0  -8   6   23.90    2.40
   0  -8   6   18.50    2.40
   0  -8   6   22.80    4.50
  -1   8  -6   49.90    5.20
  -1   8  -6   48.30    2.90
  -1   8  -6   44.80    4.90
  -1   8  -6   48.30    2.90
  -1   8  -6   49.30    8.70
   1  -8   6   52.49    4.60
   1  -8   6   54.79    3.50
   1  -8   6   54.69    6.40
   1  -8   6   54.79    3.50
   1  -8   6   52.39    5.80
  -2   8  -6   43.10    5.80
  -2   8  -6   40.40    4.90
   2  -8   6   47.80    6.10
   2  -8   6   50.59    5.80
   2  -8   6   47.20    5.90
  -3   8  -6   14.90    5.30
  -3   8  -6   10.80    4.30
   3  -8   6   14.70    5.10
   3  -8   6    8.60    4.10
   3  -8   6    8.70    5.00
  -4   8  -6   39.50    6.10
  -4   8  -6   36.80    7.50
   4  -8   6   41.70    7.10
   4  -8   6   46.30    6.00
   4  -8   6   41.00    6.60
  -5   8  -6   -8.50    6.00
  -5   8  -6    4.00    7.80
   5  -8   6    3.50    6.20
   5  -8   6   -0.80    5.80
   8   8  -7   25.60    7.60
   7   8  -7   43.90    5.50
   7   8  -7   43.90    5.50
   7   8  -7   36.90    7.20
  -7  -8   7   31.80    7.90
  -7  -8   7   26.80    6.10
   6   8  -7   50.79    4.90
   6   8  -7   64.69    7.30
   6   8  -7   50.69    4.90
  -6  -8   7   50.19    6.50
  -6  -8   7   52.79    8.00
   5   8  -7   33.00    3.90
   5   8  -7   33.00    3.90
   5   8  -7   32.40    5.50
  -5  -8   7   44.80    6.50
  -5  -8   7   37.80    5.40
   4   8  -7  133.49    6.60
   4   8  -7  147.19    9.00
   4   8  -7  133.49    6.60
  -4  -8   7  141.89    8.60
  -4  -8   7  142.39   10.20
   3   8  -7  121.59    5.80
   3   8  -7  121.59    5.80
   3   8  -7  113.69    7.80
  -3  -8   7  134.49    9.50
  -3  -8   7  116.79    6.30
  -3  -8   7  127.59    8.10
   2   8  -7  122.49    7.70
   2   8  -7  131.69    5.70
   2   8  -7  135.99    8.00
   2   8  -7  131.69    5.70
  -2  -8   7  133.49    8.40
  -2  -8   7  136.09    7.30
   1   8  -7  359.46   10.10
   1   8  -7  367.06   13.10
   1   8  -7  359.46   10.10
  -1  -8   7  363.06   12.90
  -1  -8   7  335.87   10.70
  -1  -8   7  331.27   13.00
  -1  -8   7  335.77   10.70
   0   8  -7   50.99    3.70
   0   8  -7   49.40    5.30
   0   8  -7   50.99    3.70
   0   8  -7   58.99    6.50
   0  -8   7   52.99    3.80
   0  -8   7   53.19    6.70
   0  -8   7   47.60    5.80
  -1   8  -7   22.10    4.10
  -1   8  -7   23.90    5.10
  -1   8  -7   20.40    2.30
  -1   8  -7   20.40    2.30
   1  -8   7   17.90    3.30
   1  -8   7   17.30    5.10
   1  -8   7   23.20    5.00
  -2   8  -7    6.40    4.20
  -2   8  -7   -4.50    4.50
   2  -8   7    6.50    5.30
   2  -8   7    6.90    3.80
   2  -8   7    6.80    5.00
  -3   8  -7   58.59    7.40
  -3   8  -7   51.49    6.60
   3  -8   7   46.50    6.80
   3  -8   7   50.49    7.50
   3  -8   7   56.39    6.10
  -4   8  -7    6.10    7.40
  -4   8  -7    1.30    5.80
   4  -8   7    1.80    5.80
   4  -8   7    9.90    7.10
   4  -8   7    3.60    6.10
   7   8  -8   55.09    8.20
   7   8  -8   40.60    5.30
   7   8  -8   40.50    5.30
  -7  -8   8   33.40   10.00
  -7  -8   8   26.30    7.90
   6   8  -8   16.20    5.80
   6   8  -8   16.20    4.00
   6   8  -8   16.20    4.00
  -6  -8   8   11.60    6.80
  -6  -8   8   12.70    4.70
   5   8  -8  105.69    6.90
   5   8  -8  113.99    9.50
   5   8  -8  105.69    6.90
  -5  -8   8   91.79   11.20
  -5  -8   8  108.99    8.50
   4   8  -8   66.59    5.60
   4   8  -8   66.59    5.60
   4   8  -8   64.49    6.50
  -4  -8   8   59.79    7.60
  -4  -8   8   70.99    7.50
   3   8  -8   77.79    8.90
   3   8  -8   68.59    7.10
   3   8  -8   64.99    5.40
   3   8  -8   64.99    5.40
  -3  -8   8   60.69    5.90
  -3  -8   8   57.49    6.50
  -3  -8   8   59.29    7.50
   2   8  -8   63.69    7.20
   2   8  -8   77.39    5.00
   2   8  -8   77.39    5.00
   2   8  -8   49.70    6.50
  -2  -8   8   54.79    6.60
  -2  -8   8   60.09    6.50
   1   8  -8  127.59    9.50
   1   8  -8  127.49    8.00
   1   8  -8  122.29    5.80
   1   8  -8  122.29    5.80
  -1  -8   8  122.89    9.10
  -1  -8   8  125.69    8.60
   0   8  -8   56.09    4.40
   0   8  -8   65.39    7.10
   0   8  -8   56.09    4.40
   0   8  -8   56.49    6.20
   0  -8   8   59.39    6.60
   0  -8   8   59.59    7.00
  -1   8  -8  161.28    9.90
  -1   8  -8  154.78   10.70
   1  -8   8  160.28   11.50
   1  -8   8  144.49   10.40
  -2   8  -8  101.39    9.70
  -2   8  -8   98.79    9.90
   2  -8   8  101.59   11.70
   2  -8   8   95.39    9.90
  -3   8  -8    3.60    5.70
  -3   8  -8   -1.80    7.10
   3  -8   8   -0.70    7.10
   3  -8   8    2.80    6.30
   7   8  -9   42.70    8.10
  -7  -8   9   40.40    7.00
  -7  -8   9   35.90   10.70
   6   8  -9  183.58   13.50
   6   8  -9  194.78    9.60
   6   8  -9  194.88    9.60
  -6  -8   9  200.98   15.40
   5   8  -9   71.59    6.80
   5   8  -9   78.39    9.00
   5   8  -9   71.59    6.80
  -5  -8   9   67.79    7.40
  -5  -8   9   86.59   10.30
   4   8  -9    5.60    3.70
   4   8  -9    9.50    6.20
   4   8  -9    3.50    4.70
   4   8  -9    5.60    3.70
  -4  -8   9   -0.20    4.50
  -4  -8   9    9.10    6.40
   3   8  -9   41.40    4.20
   3   8  -9   42.80    5.70
   3   8  -9   41.40    4.20
   3   8  -9   43.00    7.20
  -3  -8   9   48.20    6.50
   2   8  -9   27.30    5.00
   2   8  -9   26.50    6.00
   2   8  -9   28.30    4.00
   2   8  -9   28.30    4.00
  -2  -8   9   31.10    6.30
  -2  -8   9   35.70    5.40
   1   8  -9   44.60    6.70
   1   8  -9   45.10    4.00
   1   8  -9   45.10    4.00
   1   8  -9   37.60    5.30
  -1  -8   9   44.90    6.40
  -1  -8   9   42.20    7.00
   0   8  -9   28.20    5.10
   0   8  -9   14.50    5.70
   0  -8   9   19.00    5.80
   0  -8   9   29.50    6.50
  -1   8  -9   45.90    7.70
  -1   8  -9   25.30    6.10
   1  -8   9   33.20    7.00
   1  -8   9   45.70    7.80
  -2   8  -9   -5.50    6.50
  -2   8  -9   -2.90    6.10
   2  -8   9   -3.90    6.30
   2  -8   9   14.10    7.40
   6   8 -10   53.29    6.40
   6   8 -10   53.29    6.40
   6   8 -10   42.30    7.90
  -6  -8  10   59.29    9.90
  -6  -8  10   46.50    7.10
   5   8 -10   40.50    5.40
   5   8 -10   36.90    6.70
   5   8 -10   40.60    5.40
  -5  -8  10   28.10    6.50
  -5  -8  10   35.50    8.80
   4   8 -10   94.79    9.90
   4   8 -10   92.89    8.00
   4   8 -10   92.89    8.00
   4   8 -10  113.69   12.30
  -4  -8  10   98.89   10.80
   3   8 -10  123.49    8.00
   3   8 -10  130.29    9.90
   3   8 -10  129.79   12.60
   3   8 -10  123.49    8.00
  -3  -8  10  137.79   10.30
   2   8 -10  117.19    7.50
   2   8 -10  117.19    7.50
   2   8 -10  117.99   11.20
   2   8 -10   97.39    9.50
  -2  -8  10  107.59   10.00
   1   8 -10   45.90    7.70
   1   8 -10   35.80    6.30
  -1  -8  10   48.60    7.50
  -1  -8  10   59.29    7.70
   0   8 -10   -1.70    6.40
   0   8 -10   14.50    5.50
   0  -8  10   -5.50    5.80
   0  -8  10   11.60    6.80
  -1   8 -10   77.49    9.70
   1  -8  10  101.29   10.80
   4   8 -11   -6.80    5.10
   4   8 -11   -6.80    5.10
   4   8 -11   -4.50    7.80
  -4  -8  11   -2.30    5.40
   3   8 -11  158.98    9.80
   3   8 -11  158.98    9.80
   3   8 -11  150.68   13.80
  -3  -8  11  159.58   11.60
   2   8 -11  237.28   15.30
  -2  -8  11  221.08   12.90
   0  -9 -10  198.08   14.80
  -1   9  10   48.50    7.40
  -1   9  10   35.90    6.70
   1  -9 -10   45.80    7.50
  -2   9  10    8.30    5.30
  -2   9  10    3.70    5.10
  -2   9  10    1.90    6.40
   2  -9 -10   -1.10    5.20
   2  -9 -10   -1.10    5.20
  -3   9  10   62.99    8.10
  -3   9  10   67.79    8.30
  -3   9  10   54.79    6.20
   3  -9 -10   69.79    6.80
   3  -9 -10   69.79    6.80
  -4   9  10   45.20    6.00
  -4   9  10   52.79    8.30
  -4   9  10   36.20    7.60
   4  -9 -10   34.70    5.70
   4  -9 -10   34.80    5.70
  -5   9  10  112.89   12.00
   5  -9 -10  104.29   12.90
   5  -9 -10   84.59    7.50
   5  -9 -10   84.59    7.50
   1   9   9   12.90    5.70
   1   9   9   13.00    6.60
  -1  -9  -9   32.90    9.20
  -1  -9  -9   32.90    9.20
  -1  -9  -9   18.40    7.20
   0   9   9    1.60    4.90
   0   9   9    6.10    4.90
   0  -9  -9    9.40    4.90
   0  -9  -9    9.40    4.90
   0  -9  -9   14.50    6.00
  -1   9   9   23.90    5.60
  -1   9   9   18.30    4.70
  -1   9   9   25.20    5.60
   1  -9  -9   31.50    5.30
   1  -9  -9   31.50    5.30
   1  -9  -9   27.70   10.20
  -2   9   9   15.50    4.40
  -2   9   9   20.60    5.50
  -2   9   9   17.90    5.40
   2  -9  -9   31.60    4.80
   2  -9  -9   31.60    4.80
   2  -9  -9   14.40    5.30
  -3   9   9   -4.30    4.90
  -3   9   9    1.00    5.20
  -3   9   9   -1.50    4.00
   3  -9  -9    5.50    3.80
   3  -9  -9    5.50    3.80
  -4   9   9   44.70    5.60
  -4   9   9   38.90    6.50
   4  -9  -9   41.20    6.30
   4  -9  -9   41.40    5.20
   4  -9  -9   41.40    5.20
  -5   9   9   88.99    7.90
  -5   9   9   94.09   10.50
   5  -9  -9   91.59    8.30
   5  -9  -9   73.39    8.30
   5  -9  -9   91.59    8.30
  -6   9   9   12.20    4.60
  -6   9   9   22.20    7.10
   6  -9  -9    9.60    6.90
   6  -9  -9   12.40    4.90
   6  -9  -9   12.40    4.90
   3   9   8   24.80   11.20
  -3  -9  -8   20.60    8.60
   2   9   8    9.50    4.90
   2   9   8   19.50    5.90
  -2  -9  -8   16.90    5.40
  -2  -9  -8   16.90    5.40
  -2  -9  -8   29.80    7.40
   1   9   8  103.79    9.30
   1   9   8   98.49    9.00
  -1  -9  -8  110.59   10.90
  -1  -9  -8  122.19    8.60
  -1  -9  -8  122.19    8.70
   0   9   8   17.80    4.60
   0   9   8   32.00    5.20
   0  -9  -8   22.50    4.40
   0  -9  -8   22.50    4.40
   0  -9  -8   26.70    5.60
  -1   9   8    0.40    4.10
  -1   9   8    2.60    3.80
  -1   9   8   10.00    4.00
   1  -9  -8    7.20    4.40
   1  -9  -8    9.00    3.90
   1  -9  -8    9.00    3.90
  -2   9   8   35.70    5.50
  -2   9   8   26.50    4.90
  -2   9   8   33.10    4.60
   2  -9  -8   37.70    4.60
   2  -9  -8   39.10    4.70
   2  -9  -8   37.70    4.60
  -3   9   8   82.29    8.40
  -3   9   8   74.89    6.80
   3  -9  -8   86.89    6.60
   3  -9  -8   86.89    6.60
   3  -9  -8   65.19    8.00
  -4   9   8   65.49    7.30
  -4   9   8   57.49    5.90
   4  -9  -8   54.49    6.30
   4  -9  -8   64.69    6.30
   4  -9  -8   64.79    6.30
  -5   9   8    5.40    3.90
  -5   9   8    8.10    5.10
   5  -9  -8    1.70    3.60
   5  -9  -8    4.40    5.00
   5  -9  -8    1.70    3.60
  -6   9   8   22.20    4.70
  -6   9   8   15.10    6.00
  -6   9   8   13.50    6.30
   6  -9  -8   24.70    6.80
   6  -9  -8   22.80    4.70
   6  -9  -8   22.80    4.70
  -7   9   8   84.79    9.20
  -7   9   8   90.59    9.80
  -7   9   8   95.29    8.20
   7  -9  -8   95.09    7.10
   7  -9  -8   95.09    7.10
   4   9   7   98.79   12.50
  -4  -9  -7  103.79   17.20
   3   9   7   30.90    6.80
   3   9   7   27.10    6.10
  -3  -9  -7   41.20    8.20
  -3  -9  -7   33.90    5.40
  -3  -9  -7   33.90    5.40
   2   9   7   -0.30    4.40
   2   9   7   -3.60    4.60
  -2  -9  -7   -0.70    4.10
  -2  -9  -7    6.20    5.40
  -2  -9  -7   -0.70    4.10
   1   9   7   37.40    5.30
   1   9   7   41.80    5.10
  -1  -9  -7   52.29    5.20
  -1  -9  -7   67.59    8.30
  -1  -9  -7   52.29    5.20
   0   9   7    2.50    3.50
   0   9   7   -7.60    3.20
   0   9   7    1.00    3.20
   0  -9  -7    3.00    3.90
   0  -9  -7    1.60    3.40
   0  -9  -7    1.60    3.40
  -1   9   7   54.89    6.10
  -1   9   7   42.80    5.10
  -1   9   7   54.69    5.70
   1  -9  -7   56.29    6.20
   1  -9  -7   47.30    4.70
   1  -9  -7   47.30    4.60
  -2   9   7   32.80    4.90
  -2   9   7   33.90    5.20
  -2   9   7   26.60    4.30
   2  -9  -7   30.60    3.80
   2  -9  -7   28.70    4.70
   2  -9  -7   24.10    3.80
   2  -9  -7   30.60    3.80
  -3   9   7   81.59    7.50
  -3   9   7   73.89    6.60
  -3   9   7   87.89    5.50
   3  -9  -7   90.39    6.00
   3  -9  -7   90.39    6.00
   3  -9  -7   64.59    4.70
   3  -9  -7   82.89    7.10
  -4   9   7   48.90    5.30
  -4   9   7   50.69    6.20
  -4   9   7   41.10    5.50
   4  -9  -7   46.10    4.40
   4  -9  -7   48.10    6.40
   4  -9  -7   46.10    4.40
  -5   9   7    9.30    4.90
  -5   9   7    6.20    4.10
  -5   9   7   10.30    4.50
   5  -9  -7   15.10    4.90
   5  -9  -7   11.40    3.40
   5  -9  -7   11.40    3.40
  -6   9   7   67.69    6.80
  -6   9   7   82.39    9.30
  -6   9   7   80.29   10.20
   6  -9  -7   69.49    7.90
   6  -9  -7   82.69    6.80
   6  -9  -7   82.69    6.80
  -7   9   7   17.10    4.70
  -7   9   7   20.30    7.20
  -7   9   7   27.70    7.00
   7  -9  -7   16.50    7.40
   7  -9  -7   20.70    4.80
   7  -9  -7   20.70    4.80
   4   9   6   26.40    6.80
   4   9   6   26.70    5.90
   4   9   6   23.40    5.00
   4   9   6   23.40    5.00
  -4  -9  -6   22.40    7.50
   3   9   6  208.98   11.00
   3   9   6  184.88   10.60
  -3  -9  -6  200.88   10.10
  -3  -9  -6  200.88   10.10
  -3  -9  -6  184.08   12.40
   2   9   6  100.79    8.00
   2   9   6  104.99    8.10
  -2  -9  -6  110.09    7.20
  -2  -9  -6  110.09    7.20
  -2  -9  -6  100.29    9.50
   1   9   6  551.44   18.00
   1   9   6  547.45   18.00
  -1  -9  -6  547.45   16.50
  -1  -9  -6  547.45   16.50
  -1  -9  -6  560.14   18.40
   0   9   6  120.09    7.70
   0   9   6  105.99    7.50
   0   9   6  105.19    6.50
   0  -9  -6  104.19    6.40
   0  -9  -6  106.09    7.30
   0  -9  -6  104.19    6.40
  -1   9   6  214.58    6.80
  -1   9   6  217.18    8.60
  -1   9   6  212.28   10.40
  -1   9   6  220.78   10.10
  -1   9   6  191.78    8.60
   1  -9  -6  227.48    9.10
  -2   9   6  103.09    6.50
  -2   9   6  105.39    6.40
  -2   9   6  114.49    7.50
  -2   9   6  104.89    5.60
  -2   9   6  110.09    5.60
   2  -9  -6  108.89    5.80
   2  -9  -6  107.29    6.00
   2  -9  -6  107.29    6.00
   2  -9  -6  104.09    7.40
  -3   9   6  270.77    7.50
  -3   9   6  262.27   10.10
  -3   9   6  262.07    9.70
  -3   9   6  274.87   11.90
   3  -9  -6  273.17    9.20
   3  -9  -6  273.27    9.20
   3  -9  -6  255.47   10.90
   3  -9  -6  268.47   11.60
  -4   9   6  414.66   13.90
  -4   9   6  408.96   13.90
  -4   9   6  428.46   15.60
   4  -9  -6  414.36   12.50
   4  -9  -6  414.26   12.50
   4  -9  -6  410.46   15.60
  -5   9   6   55.49    5.90
  -5   9   6   70.49    8.40
  -5   9   6   59.79    6.40
   5  -9  -6   51.09    4.30
   5  -9  -6   54.09    6.60
   5  -9  -6   51.09    4.30
  -6   9   6   22.50    4.70
  -6   9   6   25.60    5.50
  -6   9   6   33.20    5.80
   6  -9  -6   26.20    6.10
   6  -9  -6   30.10    3.70
   6  -9  -6   30.10    3.70
   6  -9  -6   27.70    5.70
  -7   9   6   80.49   10.30
  -7   9   6   54.89    8.50
   7  -9  -6   66.99    8.00
   7  -9  -6   64.39    8.40
   5   9   5  128.19   10.00
   5   9   5  119.99   11.10
   5   9   5  135.49   13.00
   5   9   5  128.39   10.00
  -5  -9  -5  123.79   13.30
   4   9   5   16.90    5.20
   4   9   5   28.60    4.70
   4   9   5   23.90    5.90
   4   9   5   28.60    4.70
  -4  -9  -5   25.10    6.60
   3   9   5   41.50    5.50
   3   9   5   39.20    5.40
  -3  -9  -5   33.10    4.60
  -3  -9  -5   42.40    6.60
  -3  -9  -5   33.10    4.60
   2   9   5  156.88    8.60
   2   9   5  153.98    8.50
  -2  -9  -5  155.58    7.90
  -2  -9  -5  155.58    7.90
  -2  -9  -5  164.08   11.60
   1   9   5   63.19    5.00
   1   9   5   76.79    4.30
   1   9   5   75.19    4.40
   1   9   5   74.89    6.20
   1   9   5   67.49    7.20
  -1  -9  -5   63.09    5.30
  -1  -9  -5   63.09    5.30
  -1  -9  -5   72.59    6.80
   0   9   5   60.79    6.20
   0   9   5   72.89    6.10
   0   9   5   77.99    4.50
   0   9   5   73.29    5.20
   0  -9  -5   67.09    5.90
   0  -9  -5   66.39    5.20
   0  -9  -5   66.39    5.20
  -1   9   5   14.60    3.60
  -1   9   5    9.80    2.70
  -1   9   5   12.70    3.10
  -1   9   5   13.90    2.50
  -1   9   5   11.30    3.20
  -1   9   5   10.80    3.10
   1  -9  -5   10.90    2.70
   1  -9  -5    8.40    2.80
   1  -9  -5   10.90    2.70
   1  -9  -5   12.40    2.90
  -2   9   5   61.69    6.30
  -2   9   5   50.79    5.70
  -2   9   5   58.29    5.10
  -2   9   5   47.70    3.80
  -2   9   5   63.39    5.20
   2  -9  -5   37.80    5.70
   2  -9  -5   55.19    4.30
   2  -9  -5   55.19    4.30
   2  -9  -5   52.29    4.00
  -3   9   5   32.00    5.10
  -3   9   5   33.40    4.00
  -3   9   5   50.29    5.70
   3  -9  -5   35.30    4.50
   3  -9  -5   38.90    5.20
   3  -9  -5   46.30    4.00
   3  -9  -5   46.30    4.00
  -4   9   5  461.25   14.90
  -4   9   5  470.35   16.50
  -4   9   5  489.15   15.70
   4  -9  -5  479.45   16.60
   4  -9  -5  458.45   16.40
   4  -9  -5  465.05   13.20
   4  -9  -5  465.05   13.20
  -5   9   5  129.99    8.90
  -5   9   5  115.29    7.40
   5  -9  -5  119.79    5.80
   5  -9  -5  138.69    9.50
   5  -9  -5  119.79    5.80
   5  -9  -5  132.29    9.20
  -6   9   5  119.99    9.30
  -6   9   5  100.09    7.60
   6  -9  -5  120.39    6.00
   6  -9  -5  106.39    9.50
   6  -9  -5  120.39    6.00
   6  -9  -5  119.39   10.60
  -7   9   5   31.60    6.60
  -7   9   5   23.00    5.10
   7  -9  -5   42.50    7.40
   7  -9  -5   23.70    5.80
  -8   9   5   31.00    6.10
  -8   9   5   37.80    8.40
   8  -9  -5   33.70    8.30
   6   9   4  115.49   11.00
   5   9   4   79.09    7.40
   5   9   4   59.29    7.40
   5   9   4   53.89    6.70
   5   9   4   79.09    7.40
  -5  -9  -4   58.09    8.10
   4   9   4    8.10    4.20
   4   9   4    3.50    4.30
   4   9   4   14.60    3.90
   4   9   4   14.60    3.90
  -4  -9  -4    6.10    4.10
  -4  -9  -4   12.10    5.30
   3   9   4  113.59    6.50
   3   9   4  120.59    8.50
   3   9   4  123.09    7.80
   3   9   4  113.59    6.50
  -3  -9  -4  110.99    7.10
  -3  -9  -4  108.09    8.70
  -3  -9  -4  110.99    7.10
  -3  -9  -4  123.69    7.30
   2   9   4  564.94   15.30
   2   9   4  598.34   16.30
   2   9   4  580.24   18.00
   2   9   4  583.94   15.90
   2   9   4  581.94   17.70
  -2  -9  -4  569.84   18.60
  -2  -9  -4  586.84   16.90
  -2  -9  -4  586.84   16.90
   1   9   4  138.59    5.90
   1   9   4  142.49    6.30
   1   9   4  131.79    6.10
   1   9   4  134.09    7.40
   1   9   4  130.09    7.20
  -1  -9  -4  140.39    6.60
  -1  -9  -4  140.39    6.60
  -1  -9  -4  134.69    7.70
   0   9   4  287.67    9.10
   0   9   4  296.77   11.10
   0   9   4  275.37   10.20
   0   9   4  297.57    9.60
   0   9   4  276.87    9.50
   0   9   4  286.17   11.00
   0  -9  -4  290.17    9.50
   0  -9  -4  292.07    9.50
   0  -9  -4  275.67   10.30
   0  -9  -4  292.07    9.50
  -1   9   4  150.18    6.30
  -1   9   4  143.89    7.70
  -1   9   4  143.69    6.70
  -1   9   4  146.29    6.10
  -1   9   4  144.19    7.20
   1  -9  -4  144.79    6.10
   1  -9  -4  137.69    7.40
   1  -9  -4  144.59    6.40
   1  -9  -4  144.79    6.10
  -2   9   4  394.36   12.30
  -2   9   4  401.76   10.60
  -2   9   4  380.86   11.20
  -2   9   4  382.56   13.80
  -2   9   4  406.66   10.90
  -2   9   4  411.26   12.60
  -2   9   4  380.86   11.20
  -2   9   4  397.86   13.40
   2  -9  -4  405.46   11.40
   2  -9  -4  387.86   13.70
   2  -9  -4  384.46   13.00
   2  -9  -4  405.76   11.40
  -3   9   4   84.59    4.80
  -3   9   4   93.29    6.00
  -3   9   4   84.59    4.80
  -3   9   4   98.99    6.70
   3  -9  -4   96.99    8.00
   3  -9  -4  101.59    7.10
   3  -9  -4   88.19    6.80
   3  -9  -4   91.09    4.60
   3  -9  -4   91.09    4.60
  -4   9   4  163.28    6.80
  -4   9   4  163.28    6.80
  -4   9   4  184.68    8.30
  -4   9   4  189.28    9.50
   4  -9  -4  184.68    6.40
   4  -9  -4  184.48    6.40
   4  -9  -4  197.68    9.60
  -5   9   4   14.20    4.70
  -5   9   4    9.90    3.10
   5  -9  -4    4.60    2.20
   5  -9  -4    5.50    3.90
   5  -9  -4    8.60    4.10
   5  -9  -4    4.60    2.20
  -6   9   4  129.29   10.00
  -6   9   4  119.69    7.90
   6  -9  -4  111.99    8.90
   6  -9  -4  126.59    5.60
   6  -9  -4  126.69    5.60
   6  -9  -4  116.39    9.80
  -7   9   4   11.50    4.50
  -7   9   4    3.50    5.90
   7  -9  -4    3.10    5.60
   7  -9  -4    5.50    6.20
  -8   9   4   -4.70    4.40
  -8   9   4    2.20    6.80
   8  -9  -4   12.30    8.10
   6   9   3   43.90    7.10
   6   9   3   57.79    8.60
   6   9   3   60.29    6.00
   6   9   3   60.29    6.00
  -6  -9  -3   71.99    9.30
   5   9   3   21.50    4.20
   5   9   3   36.10    5.50
   5   9   3   36.20    5.80
   5   9   3   21.50    4.20
  -5  -9  -3   36.80    5.70
  -5  -9  -3   43.60    7.30
   4   9   3   76.59    6.10
   4   9   3   66.69    6.80
   4   9   3   80.39    6.80
   4   9   3   76.59    6.10
  -4  -9  -3   73.59    7.20
  -4  -9  -3   74.19    8.30
   3   9   3   70.99    5.30
   3   9   3   70.99    5.30
   3   9   3   63.59    6.70
   3   9   3   60.19    5.70
   3   9   3   66.19    6.10
  -3  -9  -3   75.19    7.20
  -3  -9  -3   66.59    6.20
   2   9   3   97.49    6.10
   2   9   3   88.49    5.90
   2   9   3   93.29    6.20
   2   9   3   99.69    6.30
  -2  -9  -3   88.29    5.50
  -2  -9  -3   92.19    5.70
  -2  -9  -3   92.19    5.70
  -2  -9  -3   88.09    6.80
   1   9   3   33.80    3.70
   1   9   3   33.80    4.10
   1   9   3   37.20    4.50
   1   9   3   33.50    4.10
  -1  -9  -3   41.00    3.90
  -1  -9  -3   38.50    3.50
  -1  -9  -3   38.50    3.50
  -1  -9  -3   38.20    4.30
   0   9   3  158.68    7.50
   0   9   3  154.88    6.90
   0   9   3  153.98    6.50
   0   9   3  140.69    7.00
   0   9   3  156.28    7.60
   0   9   3  154.88    6.90
   0   9   3  143.39    6.80
   0  -9  -3  148.29    6.00
   0  -9  -3  149.29    7.00
   0  -9  -3  148.29    6.00
   0  -9  -3  149.69    6.70
  -1   9   3  150.58    7.60
  -1   9   3  145.49    7.40
  -1   9   3  143.09    6.00
  -1   9   3  147.89    5.70
  -1   9   3  147.89    5.70
  -1   9   3  155.68    6.00
  -1   9   3  151.48    6.50
   1  -9  -3  140.39    6.70
   1  -9  -3  143.99    5.80
   1  -9  -3  143.99    5.80
   1  -9  -3  146.79    7.20
  -2   9   3  252.57    7.60
  -2   9   3  252.57    7.60
  -2   9   3  259.47    9.20
  -2   9   3  242.78    7.10
  -2   9   3  252.47    7.70
   2  -9  -3  254.17    7.70
   2  -9  -3  235.28    8.80
   2  -9  -3  240.08    9.90
   2  -9  -3  254.17    7.70
   2  -9  -3  220.78    9.80
   2  -9  -3  250.97   10.20
  -3   9   3   55.09    5.50
  -3   9   3   44.90    3.80
  -3   9   3   44.90    3.80
  -3   9   3   48.90    4.50
   3  -9  -3   59.29    3.60
   3  -9  -3   58.09    5.90
   3  -9  -3   59.29    3.60
   3  -9  -3   55.29    5.80
   3  -9  -3   49.30    4.70
  -4   9   3   28.90    4.60
  -4   9   3   21.50    3.60
  -4   9   3   24.70    2.60
  -4   9   3   24.70    2.60
   4  -9  -3   24.20    2.40
   4  -9  -3   25.10    4.30
   4  -9  -3   24.20    2.40
  -5   9   3   35.00    4.60
   5  -9  -3   37.40    5.00
   5  -9  -3   38.70    5.50
   5  -9  -3   44.80    3.30
   5  -9  -3   44.80    3.30
  -6   9   3   11.30    3.70
  -6   9   3   30.40    5.90
   6  -9  -3   22.00    5.60
   6  -9  -3   26.30    5.20
  -7   9   3   33.50    6.90
  -7   9   3   23.70    5.00
   7  -9  -3   17.20    6.40
   7  -9  -3   23.20    5.90
  -8   9   3   60.79    9.00
  -8   9   3   70.99    7.50
   8  -9  -3   70.59   10.10
   7   9   2   15.40    7.50
  -7  -9  -2   29.50    8.50
   6   9   2   -2.00    4.80
   6   9   2   -2.30    5.80
   6   9   2   -6.60    4.00
   6   9   2   -6.60    4.00
  -6  -9  -2    2.30    5.90
  -6  -9  -2   -1.50    6.00
   5   9   2   61.59    5.70
   5   9   2   51.79    5.80
   5   9   2   50.19    5.30
   5   9   2   61.59    5.70
  -5  -9  -2   47.40    6.90
  -5  -9  -2   46.60    6.10
   4   9   2   71.09    5.60
   4   9   2   70.89    5.90
   4   9   2   71.09    5.60
   4   9   2   82.29    6.40
  -4  -9  -2   73.49    7.30
  -4  -9  -2   79.39    8.40
   3   9   2    3.30    2.60
   3   9   2    3.20    2.60
   3   9   2    5.30    2.50
   3   9   2    5.30    2.50
   3   9   2    1.30    3.50
  -3  -9  -2    1.70    3.30
  -3  -9  -2    6.90    3.10
  -3  -9  -2   -0.20    3.10
   2   9   2   79.79    5.40
   2   9   2   64.29    4.50
   2   9   2   65.59    5.60
   2   9   2   75.59    5.60
   2   9   2   64.29    4.50
   2   9   2   66.79    5.10
  -2  -9  -2   65.29    6.20
  -2  -9  -2   62.49    5.40
  -2  -9  -2   68.99    5.00
   1   9   2   54.39    4.90
   1   9   2   54.09    5.00
   1   9   2   55.09    4.60
   1   9   2   62.09    4.80
   1   9   2   50.89    5.20
  -1  -9  -2   59.59    4.20
  -1  -9  -2   61.49    4.80
  -1  -9  -2   59.59    4.20
  -1  -9  -2   54.29    5.20
   0   9   2  636.34   18.50
   0   9   2  649.83   18.00
   0   9   2  657.93   18.10
   0   9   2  640.24   17.80
   0   9   2  630.44   16.80
   0   9   2  657.03   18.90
   0   9   2  630.44   16.80
   0  -9  -2  668.13   18.70
   0  -9  -2  667.83   18.00
   0  -9  -2  670.93   17.10
   0  -9  -2  670.93   17.10
  -1   9   2  103.99    4.60
  -1   9   2  103.59    5.60
  -1   9   2   98.69    4.80
  -1   9   2   94.39    6.70
  -1   9   2   87.39    4.20
  -1   9   2   87.39    4.20
   1  -9  -2   97.69    5.90
   1  -9  -2   98.69    4.30
   1  -9  -2  100.79    5.80
   1  -9  -2   98.69    4.30
   1  -9  -2   94.89    6.20
  -2   9   2  158.08    7.10
  -2   9   2  153.08    5.20
  -2   9   2  155.58    5.00
  -2   9   2  153.08    5.20
   2  -9  -2  148.69    7.80
   2  -9  -2  128.29    8.30
   2  -9  -2  153.58    5.30
   2  -9  -2  165.78    7.30
   2  -9  -2  153.58    5.30
   2  -9  -2  149.39    7.40
  -3   9   2  175.18    5.50
  -3   9   2  184.18    8.30
  -3   9   2  175.18    5.50
   3  -9  -2  173.48    5.50
   3  -9  -2  175.98    8.70
   3  -9  -2  177.38    7.90
   3  -9  -2  191.58    9.00
   3  -9  -2  173.48    5.60
  -4   9   2   17.90    2.00
  -4   9   2   17.90    2.00
  -4   9   2   12.50    3.80
  -4   9   2   14.80    3.30
   4  -9  -2   16.20    1.70
   4  -9  -2   16.20    1.70
   4  -9  -2   15.40    3.60
   4  -9  -2   16.90    3.90
   4  -9  -2   11.00    3.40
  -5   9   2   27.50    4.90
  -5   9   2   27.60    3.90
   5  -9  -2   27.60    4.90
   5  -9  -2   28.70    4.80
  -6   9   2   47.50    6.90
  -6   9   2   47.10    5.30
   6  -9  -2   66.79    8.40
   6  -9  -2   53.89    7.00
  -7   9   2  119.59    8.50
  -7   9   2  140.49   11.30
   7  -9  -2  117.99   11.80
   7  -9  -2  122.49   11.20
  -8   9   2  101.29    8.80
   8  -9  -2  123.29   14.80
   7   9   1    8.70    7.50
   7   9   1    2.30    6.40
   7   9   1    8.70    7.50
  -7  -9  -1    0.20    7.20
  -7  -9  -1   -7.10    7.10
   6   9   1   81.99    7.20
   6   9   1   95.69    9.20
   6   9   1   81.99    7.20
   6   9   1   92.99    8.90
  -6  -9  -1  120.79   11.00
  -6  -9  -1   97.89   11.20
   5   9   1   16.30    3.50
   5   9   1   25.40    4.10
   5   9   1   16.30    3.50
   5   9   1   26.20    4.80
  -5  -9  -1   26.40    5.90
  -5  -9  -1   16.40    4.70
   4   9   1   30.70    3.50
   4   9   1   26.60    3.20
   4   9   1   35.40    4.20
   4   9   1   26.60    3.20
  -4  -9  -1   33.60    4.30
  -4  -9  -1   25.90    4.50
  -4  -9  -1   26.40    5.40
   3   9   1  168.08    7.40
   3   9   1  160.78    6.90
   3   9   1  146.59    8.60
   3   9   1  160.78    6.90
   3   9   1  156.88    6.90
  -3  -9  -1  159.88    7.50
  -3  -9  -1  155.48    8.20
  -3  -9  -1  161.98    9.10
   2   9   1   12.30    3.40
   2   9   1   23.30    3.10
   2   9   1   16.50    2.60
   2   9   1   16.50    2.60
   2   9   1   20.30    3.60
   2   9   1   19.20    3.60
   2   9   1   13.70    3.80
   2   9   1   17.40    2.80
  -2  -9  -1   22.30    3.40
  -2  -9  -1   23.50    3.80
  -2  -9  -1   15.70    3.40
   1   9   1  267.47    9.50
   1   9   1  235.88    9.40
   1   9   1  258.67    9.50
   1   9   1  264.27    9.70
   1   9   1  253.67    8.00
   1   9   1  236.28    9.60
   1   9   1  229.38    9.70
   1   9   1  264.07    9.20
   1   9   1  251.77    8.20
   1   9   1  247.28    9.90
   1   9   1  251.77    8.20
   1   9   1  253.67    8.00
  -1  -9  -1  267.47    9.20
   0   9   1   68.99    5.50
   0   9   1   69.39    5.10
   0   9   1   62.29    3.70
   0   9   1   62.29    3.70
   0   9   1   61.79    3.50
   0   9   1   67.79    4.80
   0   9   1   66.39    5.70
   0   9   1   61.99    7.00
   0   9   1   65.49    4.30
   0   9   1   61.79    3.50
   0  -9  -1   71.29    4.70
   0  -9  -1   60.69    3.60
   0  -9  -1   56.19    8.00
   0  -9  -1   60.69    3.60
   0  -9  -1   70.09    5.00
  -1   9   1   56.59    5.70
  -1   9   1   63.59    4.30
  -1   9   1   62.59    3.20
  -1   9   1   57.59    4.90
  -1   9   1   64.19    6.30
  -1   9   1   61.39    3.80
  -1   9   1   62.59    3.20
   1  -9  -1   63.89    3.30
   1  -9  -1   56.69    5.20
   1  -9  -1   64.39    4.90
   1  -9  -1   63.89    3.30
   1  -9  -1   63.89    5.30
  -2   9   1  136.09    4.40
  -2   9   1  141.99    7.10
  -2   9   1  140.59    5.40
  -2   9   1  145.89    5.00
  -2   9   1  136.09    4.40
   2  -9  -1  146.89    7.30
   2  -9  -1  140.59    4.60
   2  -9  -1  140.99    7.50
   2  -9  -1  140.59    4.60
   2  -9  -1  136.39    6.90
  -3   9   1  637.94   18.80
  -3   9   1  644.44   15.30
  -3   9   1  615.44   15.00
  -3   9   1  642.84   15.60
  -3   9   1  615.54   15.00
   3  -9  -1  628.84   15.10
   3  -9  -1  621.74   19.50
   3  -9  -1  622.64   19.00
   3  -9  -1  628.94   15.10
   3  -9  -1  629.84   18.20
  -4   9   1   60.99    6.50
   4  -9  -1   55.49    5.80
   4  -9  -1   54.89    6.20
   4  -9  -1   65.89    6.70
  -5   9   1   67.79    6.10
  -5   9   1   80.59    8.00
   5  -9  -1   79.89    7.80
   5  -9  -1   68.39    7.70
   5  -9  -1   70.49    6.30
  -6   9   1   18.70    4.00
  -6   9   1   17.90    5.30
   6  -9  -1   21.00    5.30
   6  -9  -1   32.40    6.20
  -7   9   1   16.40    5.00
  -7   9   1   13.40    6.00
   7  -9  -1   15.70    6.30
   7  -9  -1   26.60    7.30
   7   9   0    1.80    6.30
   7   9   0   13.30    6.20
   7   9   0   26.40    5.30
   7   9   0   26.40    5.30
  -7  -9   0    3.60    7.50
  -7  -9   0   14.50    7.50
   6   9   0   72.89    6.40
   6   9   0   63.69    6.60
   6   9   0   72.89    6.40
  -6  -9   0   61.49    7.90
  -6  -9   0   80.29    9.90
   5   9   0   -2.40    2.60
   5   9   0   -2.40    2.60
   5   9   0    0.20    4.00
   5   9   0    0.20    2.70
   5   9   0   -0.40    3.10
  -5  -9   0   -3.10    4.00
  -5  -9   0    1.30    4.50
  -5  -9   0    4.30    3.90
   4   9   0  267.57    9.80
   4   9   0  254.87   11.70
   4   9   0  262.47   10.40
   4   9   0  265.37    8.80
  -4  -9   0  255.17   11.90
  -4  -9   0  260.37    9.80
  -4  -9   0  252.67   11.20
   3   9   0  711.73   18.80
   3   9   0  660.33   19.80
   3   9   0  705.63   18.80
   3   9   0  679.23   19.50
   3   9   0  725.83   21.30
   3   9   0  705.63   18.80
   3   9   0  706.43   19.20
  -3  -9   0  703.43   19.20
  -3  -9   0  686.93   21.30
  -3  -9   0  713.83   21.10
   2   9   0   47.60    5.10
   2   9   0   55.69    5.60
   2   9   0   50.79    4.50
   2   9   0   49.60    4.00
   2   9   0   50.79    4.50
   2   9   0   53.99    3.80
   2   9   0   40.50    5.10
   2   9   0   53.99    3.80
   2   9   0   60.29    4.40
  -2  -9   0   55.69    5.20
  -2  -9   0   52.79    5.50
   1   9   0  445.76   14.00
   1   9   0  438.66   13.30
   1   9   0  439.86   14.00
   1   9   0  446.16   11.90
   1   9   0  433.66   13.70
   1   9   0  431.46   12.00
   1   9   0  415.26   13.20
   1   9   0  450.15   13.10
   1   9   0  452.85   13.70
   1   9   0  446.16   11.90
   1   9   0  431.46   12.00
   1   9   0  396.26   13.80
  -1  -9   0  406.66   14.30
  -1  -9   0  432.66   13.20
   0   9   0    1.60    3.10
   0   9   0   -1.40    1.50
   0   9   0    1.80    1.30
   0   9   0    3.50    2.40
   0   9   0    0.20    1.70
   0   9   0   -2.30    3.20
   0   9   0   -1.40    1.50
   0   9   0    2.70    2.40
   0   9   0    1.80    1.30
   0   9   0   -1.80    2.10
   0  -9   0   -1.40    2.50
   0  -9   0   -0.10    1.70
   0  -9   0   -0.40    2.30
  -1   9   0  412.16   13.40
  -1   9   0  440.36   11.10
  -1   9   0  436.76   13.90
  -1   9   0  447.36   11.20
  -1   9   0  434.46   12.40
  -1   9   0  434.16   12.90
  -1   9   0  447.36   11.20
  -1   9   0  440.36   11.10
   1  -9   0  439.06   14.30
   1  -9   0  441.16   13.50
   1  -9   0  457.55   13.80
  -2   9   0   51.99    2.10
  -2   9   0   58.59    5.70
  -2   9   0   54.59    2.20
  -2   9   0   51.99    2.10
  -2   9   0   54.09    3.20
  -2   9   0   54.59    2.20
  -2   9   0   55.29    4.30
  -2   9   0   53.69    5.20
   2  -9   0   42.50    5.20
   2  -9   0   57.29    5.30
   2  -9   0   50.09    4.90
  -3   9   0  681.63   18.00
  -3   9   0  697.83   20.60
   3  -9   0  712.73   18.10
   3  -9   0  714.93   21.40
   3  -9   0  703.13   20.00
   3  -9   0  696.13   20.60
  -4   9   0  266.47   11.70
   4  -9   0  266.37   10.40
   4  -9   0  270.67   11.40
   4  -9   0  271.97    8.60
  -5   9   0    1.00    4.00
   5  -9   0   -1.90    4.40
   5  -9   0    3.40    3.60
   5  -9   0   -0.10    3.50
  -6   9   0   61.29    7.40
  -6   9   0   67.79    6.70
   6  -9   0   63.19    7.80
   6  -9   0   62.49    7.10
  -7   9   0   12.40    4.80
  -7   9   0   19.10    6.70
   7  -9   0   13.20    7.00
   7  -9   0   17.90    6.50
   7   9  -1   -0.90    3.90
   7   9  -1   -0.90    3.90
   7   9  -1   13.70    5.80
   7   9  -1   16.60    6.10
  -7  -9   1   32.00    7.50
   6   9  -1   18.70    3.60
   6   9  -1   22.10    5.20
   6   9  -1   18.70    3.60
  -6  -9   1   25.80    5.40
  -6  -9   1   21.40    5.80
   5   9  -1   66.89    6.60
   5   9  -1   74.99    4.70
   5   9  -1   72.59    5.40
   5   9  -1   72.59    5.40
   5   9  -1   76.79    7.50
  -5  -9   1   70.89    7.00
  -5  -9   1   60.49    7.90
   4   9  -1   56.69    4.60
   4   9  -1   60.19    5.00
   4   9  -1   66.59    5.80
   4   9  -1   57.69    6.30
   4   9  -1   55.29    4.00
   4   9  -1   54.49    6.40
   4   9  -1   56.69    4.60
  -4  -9   1   55.89    6.50
  -4  -9   1   55.99    5.30
   3   9  -1  623.04   17.00
   3   9  -1  623.04   17.00
   3   9  -1  640.04   17.10
   3   9  -1  646.74   19.50
   3   9  -1  614.04   17.50
   3   9  -1  622.54   16.70
   3   9  -1  606.34   17.70
  -3  -9   1  638.64   18.00
  -3  -9   1  633.54   19.60
   2   9  -1  130.19    6.10
   2   9  -1  139.59    5.70
   2   9  -1  147.89    6.10
   2   9  -1  140.69    6.70
   2   9  -1  129.49    6.90
   2   9  -1  130.19    6.10
   2   9  -1  138.09    5.40
   2   9  -1  138.09    5.40
   2   9  -1  143.39    7.20
  -2  -9   1  146.79    7.90
  -2  -9   1  133.79    6.90
   1   9  -1   63.09    5.80
   1   9  -1   67.49    4.90
   1   9  -1   63.19    3.50
   1   9  -1   57.49    4.60
   1   9  -1   61.29    4.00
   1   9  -1   54.99    5.50
   1   9  -1   60.69    3.90
   1   9  -1   60.69    3.90
   1   9  -1   69.59    5.60
   1   9  -1   63.19    3.50
  -1  -9   1   62.69    5.30
  -1  -9   1   69.49    4.90
   0   9  -1   69.19    4.80
   0   9  -1   75.39    5.50
   0   9  -1   66.69    3.10
   0   9  -1   70.59    6.20
   0   9  -1   58.79    4.50
   0   9  -1   66.69    3.10
   0   9  -1   70.19    5.40
   0   9  -1   61.69    3.20
   0   9  -1   61.69    3.20
   0  -9   1   62.99    4.30
   0  -9   1   58.69    5.00
   0  -9   1   59.79    5.50
  -1   9  -1  264.07   10.10
  -1   9  -1  262.67    6.80
  -1   9  -1  262.67    6.80
  -1   9  -1  253.87    9.50
  -1   9  -1  257.97    6.70
  -1   9  -1  251.87    9.30
  -1   9  -1  257.97    6.70
  -1   9  -1  259.57    8.60
   1  -9   1  256.87    9.20
   1  -9   1  253.07    9.50
   1  -9   1  267.47    9.30
   1  -9   1  252.87   10.00
  -2   9  -1   22.50    2.50
  -2   9  -1   19.30    3.40
  -2   9  -1   17.30    3.50
   2  -9   1   18.20    3.70
   2  -9   1   23.60    3.10
   2  -9   1   24.60    3.90
   2  -9   1   16.30    3.10
  -3   9  -1  171.18    8.40
  -3   9  -1  167.18    6.20
   3  -9   1  155.98    8.10
   3  -9   1  170.68    8.40
   3  -9   1  165.68    9.10
   3  -9   1  161.18    7.10
  -4   9  -1   19.40    4.00
  -4   9  -1   25.50    3.00
   4  -9   1   29.20    5.20
   4  -9   1   21.90    4.20
   4  -9   1   32.70    4.70
   4  -9   1   24.90    3.80
  -5   9  -1   20.30    4.80
  -5   9  -1   18.30    3.10
   5  -9   1   21.70    4.60
   5  -9   1   21.00    5.10
   5  -9   1   18.30    4.60
  -6   9  -1   72.69    8.30
  -6   9  -1  110.69    7.70
   6  -9   1   93.89    8.00
   6  -9   1   89.19   10.00
   6  -9   1  113.19   11.40
  -7   9  -1    2.30    4.50
  -7   9  -1    6.00    6.60
   7  -9   1    7.30    6.60
   7  -9   1    4.00    7.70
   8   9  -2  115.79   12.50
  -8  -9   2  119.59   15.10
   7   9  -2  108.29    9.70
   7   9  -2  122.29   11.30
   7   9  -2  115.89    7.90
   7   9  -2  115.89    7.90
  -7  -9   2  116.99   10.10
  -7  -9   2  106.29   12.40
   6   9  -2   54.39    5.40
   6   9  -2   54.39    5.40
   6   9  -2   55.99    5.70
   6   9  -2   55.69    6.80
  -6  -9   2   58.59    6.30
  -6  -9   2   68.99    7.80
   5   9  -2   22.20    4.50
   5   9  -2   28.40    3.50
   5   9  -2   28.40    3.50
   5   9  -2   27.10    4.80
   5   9  -2   30.60    4.00
   5   9  -2   37.40    3.70
  -5  -9   2   25.60    4.80
  -5  -9   2   35.50    5.20
   4   9  -2    7.80    2.40
   4   9  -2   21.20    3.20
   4   9  -2   18.80    3.70
   4   9  -2   17.70    2.10
   4   9  -2   16.90    3.60
   4   9  -2    7.80    2.40
   4   9  -2   14.90    2.60
  -4  -9   2   14.80    4.00
  -4  -9   2   17.50    4.50
   3   9  -2  175.58    7.20
   3   9  -2  174.38    6.30
   3   9  -2  174.38    6.70
   3   9  -2  173.28    8.50
   3   9  -2  164.48    7.20
   3   9  -2  174.38    6.70
   3   9  -2  181.68    6.30
  -3  -9   2  176.78    8.40
  -3  -9   2  177.88    9.10
   2   9  -2  153.78    7.60
   2   9  -2  148.79    6.90
   2   9  -2  149.88    5.70
   2   9  -2  155.48    5.60
   2   9  -2  140.19    6.40
   2   9  -2  140.19    6.40
   2   9  -2  149.88    5.70
   2   9  -2  148.79    6.40
  -2  -9   2  157.08    8.50
  -2  -9   2  160.28    7.60
  -2  -9   2  153.68    6.30
   1   9  -2   95.29    4.00
   1   9  -2   98.79    4.50
   1   9  -2   98.79    4.50
   1   9  -2   95.69    6.30
   1   9  -2   96.99    5.10
   1   9  -2   95.29    4.00
   1   9  -2   93.19    7.50
   1   9  -2   99.99    4.60
   1   9  -2   95.29    6.50
   1   9  -2   98.29    5.90
  -1  -9   2   96.89    5.50
  -1  -9   2   94.59    6.30
   0   9  -2  641.04   16.00
   0   9  -2  663.43   17.40
   0   9  -2  663.93   15.90
   0   9  -2  641.04   16.00
   0   9  -2  604.74   18.50
   0   9  -2  657.63   19.30
   0   9  -2  632.54   18.90
   0   9  -2  663.93   15.90
   0   9  -2  651.03   18.20
   0  -9   2  671.13   18.90
   0  -9   2  651.33   17.40
   0  -9   2  668.73   18.80
   0  -9   2  621.54   18.50
  -1   9  -2   58.09    2.20
  -1   9  -2   62.29    4.30
  -1   9  -2   60.59    2.20
  -1   9  -2   60.59    2.20
  -1   9  -2   58.09    2.20
  -1   9  -2   54.89    4.80
  -1   9  -2   49.80    5.10
   1  -9   2   53.29    5.20
   1  -9   2   56.09    5.10
   1  -9   2   54.89    4.40
   1  -9   2   53.29    5.60
  -2   9  -2   67.09    5.80
  -2   9  -2   71.69    4.50
  -2   9  -2   67.49    6.10
   2  -9   2   66.99    5.30
   2  -9   2   69.39    5.60
   2  -9   2   69.49    6.30
   2  -9   2   62.29    5.70
  -3   9  -2    5.30    3.00
  -3   9  -2    4.20    2.20
   3  -9   2    1.50    3.30
   3  -9   2    4.10    3.70
   3  -9   2    7.80    3.00
   3  -9   2    2.20    3.40
  -4   9  -2   73.69    5.40
  -4   9  -2   69.49    7.30
   4  -9   2   71.39    6.90
   4  -9   2   72.59    8.30
   4  -9   2   84.99    8.30
  -5   9  -2   54.29    6.00
  -5   9  -2   35.60    5.80
   5  -9   2   50.49    5.80
   5  -9   2   42.80    6.10
   5  -9   2   47.50    7.10
  -6   9  -2   -9.40    5.40
  -6   9  -2    6.90    4.20
   6  -9   2   -2.80    6.30
   6  -9   2   -4.00    4.80
   6  -9   2    2.60    4.60
  -7   9  -2   36.90    6.50
   8   9  -3   78.39   10.70
  -8  -9   3   83.99   10.80
   7   9  -3   25.50    5.00
   7   9  -3   32.30    6.80
   7   9  -3   27.80    4.20
   7   9  -3   27.80    4.20
  -7  -9   3   30.30    6.30
  -7  -9   3   33.10    7.60
   6   9  -3   24.30    4.10
   6   9  -3   24.30    4.10
   6   9  -3   17.80    4.00
   6   9  -3    8.30    4.70
  -6  -9   3   27.50    5.40
  -6  -9   3   16.90    5.80
   5   9  -3   28.80    3.60
   5   9  -3   42.60    5.40
   5   9  -3   28.80    3.60
   5   9  -3   39.50    4.00
   5   9  -3   40.40    4.90
  -5  -9   3   48.70    5.70
  -5  -9   3   38.50    5.60
   4   9  -3   27.40    2.60
   4   9  -3   22.40    3.00
   4   9  -3   23.40    2.90
   4   9  -3   22.40    3.00
   4   9  -3   18.30    4.00
   4   9  -3   25.70    3.30
  -4  -9   3   29.10    5.10
  -4  -9   3   24.60    4.40
   3   9  -3   49.50    4.60
   3   9  -3   53.69    4.00
   3   9  -3   57.79    3.80
   3   9  -3   49.00    4.10
   3   9  -3   53.19    3.40
   3   9  -3   53.69    4.00
   3   9  -3   61.09    5.80
  -3  -9   3   53.79    5.80
  -3  -9   3   56.49    6.20
   2   9  -3  236.98    8.80
   2   9  -3  247.48    7.70
   2   9  -3  251.97    7.20
   2   9  -3  243.08    9.80
   2   9  -3  240.98   10.60
   2   9  -3  224.98    8.20
   2   9  -3  240.38    7.70
   2   9  -3  247.48    7.70
   2   9  -3  224.98    8.20
  -2  -9   3  248.68   10.80
  -2  -9   3  253.47   10.00
  -2  -9   3  248.58    8.40
   1   9  -3  149.29    5.10
   1   9  -3  136.79    5.60
   1   9  -3  154.88    7.20
   1   9  -3  149.29    5.10
   1   9  -3  148.99    8.10
   1   9  -3  145.09    5.60
   1   9  -3  130.39    7.20
   1   9  -3  136.79    5.60
  -1  -9   3  153.48    7.40
  -1  -9   3  149.79    5.30
  -1  -9   3  145.59    6.80
   0   9  -3  149.99    4.50
   0   9  -3  143.79    8.10
   0   9  -3  144.39    6.10
   0   9  -3  138.89    4.90
   0   9  -3  138.89    4.90
   0   9  -3  149.99    4.50
   0   9  -3  144.99    7.90
   0   9  -3  152.18    6.90
   0  -9   3  147.19    7.60
   0  -9   3  153.48    6.00
   0  -9   3  146.19    7.80
  -1   9  -3   36.80    4.60
  -1   9  -3   38.60    4.80
  -1   9  -3   32.60    4.00
   1  -9   3   25.10    4.10
   1  -9   3   36.20    4.70
   1  -9   3   30.30    4.50
   1  -9   3   32.50    3.90
  -2   9  -3   87.49    5.20
  -2   9  -3   96.59    6.60
  -2   9  -3   88.59    6.90
   2  -9   3   93.09    6.00
   2  -9   3   96.59    8.20
   2  -9   3   85.79    7.20
   2  -9   3   83.69    6.10
  -3   9  -3   62.79    5.30
  -3   9  -3   69.69    6.60
   3  -9   3   64.19    7.00
   3  -9   3   69.89    6.40
   3  -9   3   60.29    5.70
  -4   9  -3   68.79    7.70
  -4   9  -3   70.39    6.00
   4  -9   3   67.99    7.10
   4  -9   3   82.59    8.50
   4  -9   3   71.49    7.50
  -5   9  -3   28.90    4.80
  -5   9  -3   21.10    5.60
   5  -9   3   35.20    5.60
   5  -9   3   30.20    5.80
   5  -9   3   36.40    6.10
  -6   9  -3   48.10    8.50
   6  -9   3   60.29    8.10
   6  -9   3   66.59    7.30
   6  -9   3   68.69    8.70
   8   9  -4    6.10    7.20
  -8  -9   4   24.50    8.80
  -8  -9   4    1.90    6.50
   7   9  -4    7.40    5.60
   7   9  -4   10.10    3.90
   7   9  -4   10.10    3.90
  -7  -9   4    6.10    5.30
  -7  -9   4   12.10    7.00
   6   9  -4  132.09    6.80
   6   9  -4  114.59    7.20
   6   9  -4  114.59    7.20
   6   9  -4  135.09    9.80
  -6  -9   4  115.39    9.10
  -6  -9   4  111.99   10.70
   5   9  -4   11.10    2.50
   5   9  -4    6.30    3.50
   5   9  -4    7.30    2.90
   5   9  -4    7.30    2.90
  -5  -9   4    7.30    4.10
  -5  -9   4   13.00    4.40
   4   9  -4  205.78   12.70
   4   9  -4  191.08    7.40
   4   9  -4  196.08    5.40
   4   9  -4  191.08    7.40
  -4  -9   4  180.58    9.10
   3   9  -4   90.69    5.60
   3   9  -4   91.99    3.70
   3   9  -4   90.59    4.90
   3   9  -4   90.79    3.70
   3   9  -4   97.09    7.10
   3   9  -4   90.59    4.90
  -3  -9   4   86.19    6.30
  -3  -9   4   82.09    7.30
  -3  -9   4   91.59    4.50
   2   9  -4  384.56   12.10
   2   9  -4  389.06   14.00
   2   9  -4  405.26   13.60
   2   9  -4  389.46   10.80
   2   9  -4  389.36    9.80
   2   9  -4  389.46   10.80
   2   9  -4  387.66    9.60
  -2  -9   4  358.26   11.10
  -2  -9   4  385.76   11.80
  -2  -9   4  386.36   13.40
  -2  -9   4  380.66   14.50
  -2  -9   4  358.26   11.10
   1   9  -4  148.79    8.40
   1   9  -4  142.39    7.30
   1   9  -4  140.39    4.90
   1   9  -4  140.39    4.90
   1   9  -4  143.19    5.10
   1   9  -4  136.89    7.60
  -1  -9   4  147.69    7.90
  -1  -9   4  134.99    7.00
  -1  -9   4  140.89    5.30
  -1  -9   4  140.89    5.30
   0   9  -4  270.77    8.00
   0   9  -4  290.77   11.50
   0   9  -4  270.77    8.00
   0   9  -4  278.57   10.20
   0   9  -4  279.67    7.50
   0   9  -4  291.87    9.00
   0   9  -4  279.67    7.50
   0  -9   4  292.47   11.10
   0  -9   4  285.57    8.70
   0  -9   4  282.47   11.10
  -1   9  -4  131.79    8.00
  -1   9  -4  138.09    6.90
  -1   9  -4  141.99    7.30
   1  -9   4  149.29    8.30
   1  -9   4  148.69    6.60
   1  -9   4  138.09    8.00
  -2   9  -4  508.05   19.70
  -2   9  -4  583.64   16.60
  -2   9  -4  522.85   16.90
   2  -9   4  582.24   18.70
   2  -9   4  554.94   17.60
   2  -9   4  550.34   16.60
  -3   9  -4  116.79    7.30
  -3   9  -4  119.79    8.70
   3  -9   4  121.59    8.30
   3  -9   4  130.49    8.00
   3  -9   4  113.89    9.20
  -4   9  -4   14.30    5.10
  -4   9  -4    7.60    3.80
   4  -9   4   10.20    4.30
   4  -9   4   19.30    5.60
   4  -9   4    8.10    4.40
  -5   9  -4   58.39    6.50
  -5   9  -4   54.89    7.90
   5  -9   4   87.09   11.00
   5  -9   4   69.69    7.20
   5  -9   4   56.19    6.90
  -6   9  -4   91.69   11.70
   6  -9   4  121.49   10.40
   6  -9   4  137.19   12.60
   8   9  -5   44.00   11.30
  -8  -9   5   34.00    7.30
   7   9  -5   33.10    7.00
   7   9  -5   32.50    4.80
   7   9  -5   32.50    4.80
  -7  -9   5   27.10    6.10
  -7  -9   5   33.10    7.50
   6   9  -5  109.89    9.50
   6   9  -5   97.89    7.10
   6   9  -5   97.89    7.10
  -6  -9   5  100.09    8.90
  -6  -9   5  109.59   10.10
   5   9  -5  133.29    9.20
   5   9  -5  122.29    6.50
   5   9  -5  122.29    6.50
  -5  -9   5  121.59    8.50
  -5  -9   5  125.49    9.90
   4   9  -5  483.35   16.80
   4   9  -5  474.05   13.80
   4   9  -5  474.05   13.80
  -4  -9   5  436.66   15.40
  -4  -9   5  480.65   17.80
   3   9  -5   39.00    4.90
   3   9  -5   49.70    5.40
   3   9  -5   40.60    3.40
   3   9  -5   40.60    3.40
  -3  -9   5   46.80    3.90
  -3  -9   5   45.50    5.60
   2   9  -5   56.69    5.60
   2   9  -5   68.29    6.90
   2   9  -5   49.99    3.70
   2   9  -5   56.19    7.00
   2   9  -5   49.99    3.70
  -2  -9   5   50.59    5.40
  -2  -9   5   52.09    4.50
  -2  -9   5   53.39    4.90
  -2  -9   5   52.09    4.50
   1   9  -5    9.70    1.70
   1   9  -5   15.80    3.20
   1   9  -5    9.70    1.70
   1   9  -5   11.60    4.90
   1   9  -5    9.40    3.70
  -1  -9   5   11.10    2.30
  -1  -9   5   11.50    3.40
  -1  -9   5   11.10    2.30
  -1  -9   5   13.60    4.10
   0   9  -5   73.29    3.30
   0   9  -5   75.69    6.80
   0   9  -5   67.09    5.80
   0   9  -5   73.29    3.30
   0   9  -5   71.19    4.90
   0  -9   5   70.29    6.70
   0  -9   5   73.09    3.70
   0  -9   5   72.49    4.00
   0  -9   5   69.29    6.40
   0  -9   5   73.09    3.70
  -1   9  -5   76.79    5.90
  -1   9  -5   62.89    7.90
  -1   9  -5   72.89    6.40
   1  -9   5   78.19    7.50
   1  -9   5   74.49    5.30
   1  -9   5   69.29    7.10
  -2   9  -5  168.18    8.40
  -2   9  -5  148.89    9.30
   2  -9   5  160.98    9.30
   2  -9   5  159.98   10.20
   2  -9   5  155.28    7.90
  -3   9  -5   34.70    5.40
   3  -9   5   44.70    6.40
   3  -9   5   57.49    7.30
   3  -9   5   42.20    5.10
  -4   9  -5   22.30    6.50
  -4   9  -5   19.80    5.10
   4  -9   5   30.60    5.60
   4  -9   5   21.70    5.40
   4  -9   5   25.80    7.10
  -5   9  -5  123.79   11.10
  -5   9  -5  127.99   13.10
   5  -9   5  124.09   10.30
   5  -9   5  122.79   14.20
   5  -9   5  137.59   11.80
   7   9  -6   65.59    6.00
   7   9  -6   63.89    8.50
   7   9  -6   65.59    6.00
  -7  -9   6   75.39    8.00
  -7  -9   6   76.59    9.20
   6   9  -6   19.70    4.10
   6   9  -6   27.20    6.00
   6   9  -6   19.70    4.10
  -6  -9   6   27.20    6.00
  -6  -9   6   14.00    5.50
   5   9  -6   41.30    4.30
   5   9  -6   41.30    4.30
   5   9  -6   54.69    6.50
  -5  -9   6   71.59    8.90
  -5  -9   6   53.29    6.40
   4   9  -6  417.76   15.30
   4   9  -6  379.16   13.50
   4   9  -6  379.16   13.50
  -4  -9   6  394.16   14.60
  -4  -9   6  415.76   16.50
   3   9  -6  271.57   11.80
   3   9  -6  282.07    9.00
   3   9  -6  282.07    9.00
  -3  -9   6  274.97   13.20
  -3  -9   6  274.77    9.10
  -3  -9   6  254.27   11.50
   2   9  -6  107.39    8.50
   2   9  -6   97.19    7.80
   2   9  -6   99.19    7.20
   2   9  -6  102.09    4.90
   2   9  -6  102.09    4.90
  -2  -9   6  103.89    6.50
  -2  -9   6  110.99    6.60
  -2  -9   6  110.99    6.60
  -2  -9   6  104.79    7.80
   1   9  -6  222.78    6.90
   1   9  -6  222.78    6.90
   1   9  -6  192.28   10.90
  -1  -9   6  203.18    7.30
  -1  -9   6  203.28    7.30
  -1  -9   6  212.08   10.30
  -1  -9   6  226.98    9.70
   0   9  -6  120.79    8.70
   0   9  -6  111.79    4.40
   0   9  -6  111.79    4.40
   0  -9   6  104.29    4.80
   0  -9   6  116.09    8.40
   0  -9   6  116.59    8.30
  -1   9  -6  555.74   18.40
  -1   9  -6  540.95   17.20
   1  -9   6  512.55   20.80
   1  -9   6  526.05   17.70
   1  -9   6  542.75   15.50
  -2   9  -6  115.39    8.10
  -2   9  -6  106.19    9.30
   2  -9   6   99.09    7.20
   2  -9   6  111.49    9.90
   2  -9   6  103.39    8.80
  -3   9  -6  183.68   11.90
  -3   9  -6  192.78   10.80
   3  -9   6  228.38   13.20
   3  -9   6  192.48   11.00
   3  -9   6  172.08   11.70
  -4   9  -6   28.20    6.00
  -4   9  -6   17.50    7.00
   4  -9   6   33.40    7.70
   4  -9   6   28.10    6.80
   4  -9   6   32.40    6.20
   7   9  -7   13.60    7.00
   7   9  -7   16.80    5.00
   7   9  -7   16.80    5.00
  -7  -9   7   21.40    6.10
  -7  -9   7   25.50    7.80
   6   9  -7   63.39    5.60
   6   9  -7   75.99    9.30
   6   9  -7   63.39    5.60
  -6  -9   7   78.59    9.30
  -6  -9   7   65.29    7.50
   5   9  -7    5.70    3.10
   5   9  -7    5.70    3.10
   5   9  -7   10.40    5.00
  -5  -9   7    1.00    5.40
  -5  -9   7   16.90    5.00
   4   9  -7   49.70    6.30
   4   9  -7   49.90    4.30
   4   9  -7   49.90    4.30
  -4  -9   7   35.70    6.80
  -4  -9   7   50.99    6.50
   3   9  -7   92.69    8.70
   3   9  -7   83.59    5.30
   3   9  -7   83.59    5.30
   3   9  -7   76.99    7.40
  -3  -9   7   83.39    7.90
  -3  -9   7   69.89    9.00
  -3  -9   7   76.89    6.10
   2   9  -7   29.00    3.20
   2   9  -7   39.50    6.10
   2   9  -7   35.80    5.10
   2   9  -7   29.00    3.20
  -2  -9   7   33.00    4.40
  -2  -9   7   30.70    5.40
   1   9  -7   52.29    6.50
   1   9  -7   53.79    4.10
   1   9  -7   50.69    6.40
   1   9  -7   53.79    4.10
  -1  -9   7   38.70    5.80
  -1  -9   7   49.30    5.70
   0   9  -7   -6.10    4.10
   0   9  -7    2.10    2.00
   0   9  -7    2.10    2.00
   0   9  -7    0.30    3.00
   0  -9   7    7.50    4.30
   0  -9   7    6.00    4.60
  -1   9  -7   55.59    6.70
  -1   9  -7   50.89    6.80
   1  -9   7   48.10    6.50
   1  -9   7   45.20    6.50
  -2   9  -7   -6.40    4.30
  -2   9  -7   -0.60    5.10
   2  -9   7    1.10    5.10
   2  -9   7    2.10    5.30
   2  -9   7    0.30    4.00
  -3   9  -7   35.40    6.70
  -3   9  -7   39.60    7.60
   3  -9   7   34.00    6.70
   3  -9   7   40.50    8.80
   3  -9   7   29.00    7.40
  -4   9  -7  105.79   10.10
   7   9  -8   87.69    9.80
  -7  -9   8  104.59    9.50
   6   9  -8   20.30    4.60
   6   9  -8   20.30    4.60
   6   9  -8   11.60    6.80
  -6  -9   8   15.10    5.90
  -6  -9   8    3.90    7.10
   5   9  -8    6.50    3.70
   5   9  -8    6.50    3.70
   5   9  -8    9.70    5.60
  -5  -9   8    1.00    4.30
  -5  -9   8    2.30    5.90
   4   9  -8   63.19    7.10
   4   9  -8   60.39    5.00
   4   9  -8   60.39    5.00
  -4  -9   8   66.49    8.90
  -4  -9   8   59.19    6.80
   3   9  -8   80.89    9.80
   3   9  -8   93.99    7.90
   3   9  -8   76.89    6.00
   3   9  -8   76.89    6.00
  -3  -9   8   88.09    8.50
   2   9  -8   28.20    5.90
   2   9  -8   35.90    3.60
   2   9  -8   35.90    3.60
   2   9  -8   21.40    4.90
  -2  -9   8   33.70    5.00
  -2  -9   8   28.60    5.60
   1   9  -8   10.90    5.50
   1   9  -8   11.20    2.80
   1   9  -8   11.20    2.80
   1   9  -8    3.30    3.80
  -1  -9   8   12.40    5.60
  -1  -9   8   12.10    4.80
   0   9  -8   31.20    5.90
   0   9  -8   21.00    4.60
   0  -9   8   21.00    5.50
   0  -9   8   22.60    6.10
  -1   9  -8  118.69   10.80
  -1   9  -8  118.39    9.50
   1  -9   8  121.09   10.00
   1  -9   8  132.69   11.30
  -2   9  -8   28.30    6.40
  -2   9  -8   18.70    5.80
   2  -9   8   19.60    6.90
   2  -9   8   15.00    6.50
  -3   9  -8   21.60    8.30
  -3   9  -8   25.20    7.00
   3  -9   8   26.10    7.30
   3  -9   8   28.30   12.60
   6   9  -9   11.00    4.80
   6   9  -9   10.30    7.10
   6   9  -9   11.00    4.80
  -6  -9   9   17.40    6.00
  -6  -9   9   23.10    8.80
   5   9  -9   79.19   10.10
   5   9  -9   72.09    6.00
   5   9  -9   71.99    6.00
  -5  -9   9   74.29    9.80
   4   9  -9   55.89    8.60
   4   9  -9   54.79    5.20
   4   9  -9   54.79    5.20
   4   9  -9   49.99    6.70
  -4  -9   9   44.90    6.70
  -4  -9   9   53.79    8.90
   3   9  -9   -2.60    4.40
   3   9  -9   -1.10    3.50
   3   9  -9   -1.10    3.50
   3   9  -9    5.30    5.90
  -3  -9   9    2.80    5.00
   2   9  -9   17.00    5.90
   2   9  -9   12.70    4.40
  -2  -9   9   12.90    5.60
  -2  -9   9   14.20    5.60
   1   9  -9   31.00    5.60
   1   9  -9   33.60    6.80
  -1  -9   9   21.40    6.20
  -1  -9   9   33.50    6.20
   0   9  -9    8.00    5.20
   0   9  -9    3.80    6.00
   0  -9   9   12.50    6.10
   0  -9   9   14.20    6.10
  -1   9  -9   20.80    7.30
  -1   9  -9   27.10    6.70
   1  -9   9   30.80    7.40
   1  -9   9   16.40    6.50
   5   9 -10   99.39   11.70
   5   9 -10  128.29    9.70
   5   9 -10  128.29    9.70
  -5  -9  10   77.29    8.50
  -5  -9  10  118.39   14.70
   4   9 -10   41.30    9.40
   4   9 -10   35.60    5.40
   4   9 -10   35.60    5.40
   4   9 -10   41.20    7.10
  -4  -9  10   44.50    7.50
   3   9 -10   61.79    5.60
   3   9 -10   59.09    7.10
   3   9 -10   55.99    9.00
   3   9 -10   61.79    5.60
  -3  -9  10   51.29    7.90
   2   9 -10   -6.40    6.40
   2   9 -10    3.10    5.60
   1   9 -10   28.60    7.00
   1   9 -10   37.80    8.40
  -1  -9  10   37.70    7.50
   0   9 -10  138.99   14.10
   0  -9  10  134.59   16.50
   0  -9  10  182.08   14.10
  -2  10  10   80.09    7.20
  -3  10  10  110.09    9.00
   3 -10 -10  125.39   12.70
   3 -10 -10  125.39   12.70
   4 -10 -10  241.38   13.30
   4 -10 -10  241.38   13.30
  -1 -10  -9   33.30    8.50
   0  10   9   20.40    8.30
   0  10   9   -2.40    5.20
   0 -10  -9   16.70    6.80
   0 -10  -9    2.10    5.70
   0 -10  -9    2.10    5.70
  -1  10   9   96.99    9.90
  -1  10   9   66.29    7.70
   1 -10  -9  105.39    9.80
   1 -10  -9  100.49   12.60
   1 -10  -9  105.39    9.80
  -2  10   9   60.99    6.20
  -2  10   9   62.99    8.20
  -2  10   9   53.09    7.00
   2 -10  -9   46.80    5.90
   2 -10  -9   46.80    5.90
  -3  10   9   93.39    8.20
  -3  10   9  116.39   11.00
  -3  10   9   97.09   11.80
   3 -10  -9  116.99    9.10
   3 -10  -9  116.99    9.10
  -4  10   9  155.78   12.20
  -4  10   9  166.78    9.70
   4 -10  -9  174.18    9.80
   4 -10  -9  174.18    9.80
   4 -10  -9  159.28   12.10
  -5  10   9   70.09    9.00
  -5  10   9   79.59   11.10
   5 -10  -9   50.29    9.50
   5 -10  -9   57.89    6.50
   5 -10  -9   57.89    6.50
   2  10   8   23.30    6.90
  -2 -10  -8   27.10    8.10
   1  10   8   46.80    7.20
   1  10   8   46.90    7.00
  -1 -10  -8   33.70    5.70
  -1 -10  -8   33.70    5.70
  -1 -10  -8   36.10    7.30
   0  10   8   41.70    6.00
   0  10   8   44.90    6.10
   0 -10  -8   46.10    6.70
   0 -10  -8   37.80    5.70
   0 -10  -8   37.80    5.70
  -1  10   8    8.60    4.20
  -1  10   8    7.00    4.40
  -1  10   8   -0.50    4.70
   1 -10  -8    9.80    4.70
   1 -10  -8    2.60    4.70
   1 -10  -8    9.80    4.70
  -2  10   8   41.80    5.90
  -2  10   8   31.30    5.70
  -2  10   8   35.00    5.00
   2 -10  -8   45.20    5.10
   2 -10  -8   45.20    5.10
  -3  10   8  124.69   10.00
  -3  10   8  110.59    7.90
  -3  10   8  110.09    9.50
   3 -10  -8  116.09    7.90
   3 -10  -8   97.19    9.10
   3 -10  -8  116.09    7.90
  -4  10   8    9.20    5.30
  -4  10   8   14.30    4.60
   4 -10  -8   11.80    4.00
   4 -10  -8   15.90    5.20
   4 -10  -8   11.80    4.00
  -5  10   8  190.58   12.40
  -5  10   8  186.78   10.00
   5 -10  -8  187.18    9.60
   5 -10  -8  176.58   12.50
   5 -10  -8  187.18    9.60
  -6  10   8    7.80    6.70
  -6  10   8   -0.50    4.50
   6 -10  -8   10.90    4.90
   6 -10  -8   10.90    4.90
   6 -10  -8   -5.80    7.00
   3  10   7   12.30    6.80
  -3 -10  -7   19.80    7.70
   2  10   7   47.30    6.60
   2  10   7   49.40    6.90
  -2 -10  -7   45.90    7.50
  -2 -10  -7   42.40    6.20
  -2 -10  -7   42.40    6.20
   1  10   7   24.30    5.40
   1  10   7   17.90    4.50
  -1 -10  -7   19.70    4.30
  -1 -10  -7   27.40    6.00
  -1 -10  -7   19.70    4.30
   0  10   7   43.60    4.80
   0  10   7   34.60    5.30
   0  10   7   39.20    5.40
   0 -10  -7   40.40    5.20
   0 -10  -7   40.40    5.20
   0 -10  -7   39.40    5.70
  -1  10   7   47.10    5.00
  -1  10   7   42.40    6.00
  -1  10   7   48.60    6.10
   1 -10  -7   38.00    4.70
   1 -10  -7   38.00    4.70
   1 -10  -7   46.70    5.40
  -2  10   7   22.00    4.20
  -2  10   7   20.80    4.80
  -2  10   7   27.00    5.20
   2 -10  -7   25.80    4.00
   2 -10  -7   20.70    3.90
   2 -10  -7   20.70    3.90
  -3  10   7   38.70    5.30
  -3  10   7   27.40    5.10
   3 -10  -7   36.10    4.40
   3 -10  -7   36.10    4.40
   3 -10  -7   22.50    5.00
  -4  10   7   41.10    5.30
  -4  10   7   68.49    8.20
  -4  10   7   53.39    6.80
   4 -10  -7   56.19    5.00
   4 -10  -7   66.59    7.40
   4 -10  -7   56.19    5.00
  -5  10   7   18.30    6.10
  -5  10   7   31.30    5.50
  -5  10   7   31.20    5.20
   5 -10  -7   36.40    4.40
   5 -10  -7   30.20    6.50
   5 -10  -7   36.40    4.40
  -6  10   7  100.49   11.20
  -6  10   7   92.89    9.20
  -6  10   7  116.99   11.20
   6 -10  -7  100.29    7.90
   6 -10  -7  100.29    7.90
   6 -10  -7  117.09   11.40
  -7  10   7   52.59    6.30
  -7  10   7   67.79    8.90
  -7  10   7   60.69    9.20
   4  10   6   25.40    7.80
  -4 -10  -6   28.40    8.40
   3  10   6    5.80    5.40
   3  10   6    1.40    4.40
  -3 -10  -6    0.20    4.30
  -3 -10  -6    0.20    4.30
  -3 -10  -6    1.80    5.90
   2  10   6   75.89    7.90
   2  10   6   72.59    7.70
  -2 -10  -6   65.59    7.40
  -2 -10  -6   62.99    5.60
  -2 -10  -6   62.99    5.60
   1  10   6   42.80    5.30
   1  10   6   41.80    5.90
  -1 -10  -6   37.70    4.40
  -1 -10  -6   37.70    4.40
  -1 -10  -6   46.20    7.10
   0  10   6    7.10    4.00
   0  10   6    6.70    3.70
   0  10   6    9.10    3.80
   0 -10  -6   12.80    3.40
   0 -10  -6    7.00    3.70
   0 -10  -6   12.80    3.40
  -1  10   6   13.20    3.90
  -1  10   6   18.90    3.90
  -1  10   6   18.00    4.00
   1 -10  -6   15.30    3.80
   1 -10  -6   12.00    3.40
   1 -10  -6   12.00    3.40
  -2  10   6    8.10    3.70
  -2  10   6    9.20    4.00
  -2  10   6   11.10    3.30
   2 -10  -6    7.10    3.70
   2 -10  -6    8.90    3.40
   2 -10  -6    8.90    3.40
   2 -10  -6    8.30    3.10
  -3  10   6  147.99    7.90
  -3  10   6  133.99    7.60
  -3  10   6  129.59    9.20
   3 -10  -6  135.99    6.90
   3 -10  -6  135.99    6.90
   3 -10  -6  136.29    9.00
  -4  10   6   20.50    4.60
  -4  10   6   27.80    4.60
  -4  10   6   19.10    5.00
   4 -10  -6   26.40    3.40
   4 -10  -6   26.40    3.40
   4 -10  -6   26.40    5.20
  -5  10   6   -0.50    3.60
  -5  10   6   -5.00    4.60
  -5  10   6    5.10    5.00
   5 -10  -6    5.20    4.60
   5 -10  -6    4.20    3.00
   5 -10  -6    4.20    3.00
  -6  10   6   59.19    7.90
  -6  10   6   39.70    5.60
  -6  10   6   43.90    6.80
   6 -10  -6   46.90    5.50
   6 -10  -6   46.90    5.50
   6 -10  -6   45.70    7.90
   6 -10  -6   40.90    7.00
  -7  10   6   20.40    7.20
  -7  10   6   18.10    5.30
  -7  10   6   22.10    7.30
   7 -10  -6   17.50    8.00
   5  10   5   15.10    8.30
   4  10   5   63.79    7.00
   4  10   5   85.09    8.00
   4  10   5   85.09    8.00
   4  10   5   75.79    8.00
  -4 -10  -5   66.89    8.60
   3  10   5  178.38    9.10
   3  10   5  196.78   10.60
   3  10   5  176.08   10.10
   3  10   5  178.38    9.10
  -3 -10  -5  171.88    9.70
  -3 -10  -5  171.88    9.70
  -3 -10  -5  191.98   12.30
   2  10   5  128.69    8.50
   2  10   5  122.79    8.20
  -2 -10  -5  130.69    7.60
  -2 -10  -5  124.59    9.50
  -2 -10  -5  130.69    7.60
   1  10   5   49.10    4.30
   1  10   5   35.10    4.80
   1  10   5   41.80    4.20
   1  10   5   44.80    5.60
  -1 -10  -5   40.60    4.70
  -1 -10  -5   40.60    4.70
  -1 -10  -5   34.60    5.20
   0  10   5   32.10    4.00
   0  10   5   44.50    5.10
   0  10   5   34.80    4.90
   0  10   5   34.40    4.00
   0 -10  -5   39.60    4.10
   0 -10  -5   39.60    4.10
   0 -10  -5   38.50    4.50
  -1  10   5  151.28    7.40
  -1  10   5  151.38    8.70
  -1  10   5  149.59    7.50
  -1  10   5  146.29    8.70
  -1  10   5  151.18    7.50
  -1  10   5  161.08    6.80
   1 -10  -5  143.49    7.00
   1 -10  -5  148.99    7.40
   1 -10  -5  143.49    7.00
  -2  10   5  142.79    7.40
  -2  10   5  150.18    6.00
  -2  10   5  124.09    8.20
  -2  10   5  139.79    8.80
  -2  10   5  149.39    6.50
  -2  10   5  150.38    7.50
   2 -10  -5  153.48    6.70
   2 -10  -5  126.09    8.10
   2 -10  -5  153.48    6.70
  -3  10   5   72.19    6.90
  -3  10   5   69.69    6.00
  -3  10   5   56.79    6.80
   3 -10  -5   75.19    5.00
   3 -10  -5   75.19    5.00
   3 -10  -5   68.79    7.10
  -4  10   5   53.69    5.60
  -4  10   5   64.39    7.60
  -4  10   5   60.09    7.40
   4 -10  -5   63.59    4.90
   4 -10  -5   59.39    6.70
   4 -10  -5   50.89    5.90
   4 -10  -5   63.59    4.90
  -5  10   5  145.29    8.20
   5 -10  -5  129.89    6.30
   5 -10  -5  119.79    9.90
   5 -10  -5  129.89    6.30
   5 -10  -5  133.79   10.10
  -6  10   5  121.19    8.30
  -6  10   5  130.59   11.20
   6 -10  -5  124.09   10.80
   6 -10  -5  121.99   11.20
  -7  10   5  169.68   10.40
  -7  10   5  189.68   13.20
   7 -10  -5  173.58   13.50
   7 -10  -5  189.88   14.80
   5  10   4    2.90    5.30
   5  10   4    8.60    6.10
   5  10   4    6.70    4.80
   5  10   4    6.70    4.80
  -5 -10  -4   28.60    8.10
   4  10   4   63.19    5.70
   4  10   4   65.29    8.30
   4  10   4   61.59    7.70
   4  10   4   63.19    5.70
  -4 -10  -4   65.79    7.90
   3  10   4  114.59    6.80
   3  10   4  114.59    6.80
   3  10   4  108.59    8.00
   3  10   4  116.19    7.70
   3  10   4   94.39    7.80
  -3 -10  -4  122.99    9.70
   2  10   4  356.46   13.00
   2  10   4  348.37   11.50
   2  10   4  338.87   12.00
  -2 -10  -4  340.07   13.80
  -2 -10  -4  322.67   11.80
  -2 -10  -4  322.67   11.80
   1  10   4  372.16   11.40
   1  10   4  357.46   11.40
   1  10   4  363.96   11.60
   1  10   4  352.76   13.00
   1  10   4  374.26   13.40
  -1 -10  -4  358.26   13.40
  -1 -10  -4  358.56   11.40
   0  10   4  171.38    7.00
   0  10   4  151.08    8.30
   0  10   4  176.78    7.40
   0  10   4  167.88    8.50
   0  10   4  161.48    7.70
   0 -10  -4  166.58    6.90
   0 -10  -4  166.58    6.90
   0 -10  -4  154.88    8.00
   0 -10  -4  168.88    7.40
  -1  10   4    4.00    2.90
  -1  10   4    3.80    2.40
  -1  10   4   11.20    3.60
  -1  10   4    4.30    3.20
  -1  10   4    4.80    2.50
  -1  10   4    5.70    3.00
   1 -10  -4    1.30    2.40
   1 -10  -4    1.30    2.40
   1 -10  -4    6.00    3.20
   1 -10  -4    5.80    2.70
   1 -10  -4    6.70    3.20
  -2  10   4   61.59    5.40
  -2  10   4   53.99    5.90
  -2  10   4   59.29    7.80
  -2  10   4   58.59    3.90
  -2  10   4   69.69    5.60
  -2  10   4   56.69    6.90
   2 -10  -4   57.39    4.50
   2 -10  -4   57.39    4.50
   2 -10  -4   43.80    7.00
  -3  10   4  122.99    7.70
  -3  10   4  133.49    7.00
  -3  10   4  121.59    8.10
  -3  10   4  119.39    6.00
  -3  10   4  119.29    6.00
   3 -10  -4  132.69    5.70
   3 -10  -4  131.49    8.20
   3 -10  -4  134.79    8.30
   3 -10  -4  132.69    5.70
  -4  10   4  125.19    9.10
  -4  10   4  122.49    7.30
  -4  10   4  115.59    6.30
  -4  10   4  115.59    6.30
   4 -10  -4  133.09    9.20
   4 -10  -4  127.59    8.90
   4 -10  -4  135.99    5.70
   4 -10  -4  135.99    5.70
  -5  10   4   87.89    9.10
  -5  10   4   98.59    7.30
   5 -10  -4  104.89    5.20
   5 -10  -4   98.19    8.90
   5 -10  -4  109.09    9.40
   5 -10  -4  104.79    5.20
  -6  10   4   26.20    4.90
  -6  10   4   32.30    6.60
   6 -10  -4   28.10    5.70
   6 -10  -4   33.40    6.80
  -7  10   4  265.27   15.00
   7 -10  -4  286.37   15.10
   7 -10  -4  271.17   15.50
   6  10   3   53.59    8.30
  -6 -10  -3  106.19   17.50
   5  10   3   85.59    9.30
   5  10   3   77.29    7.30
   5  10   3   92.19    9.00
   5  10   3   77.29    7.30
  -5 -10  -3   94.69   10.20
  -5 -10  -3  111.49   12.60
   4  10   3   71.09    7.30
   4  10   3   70.99    6.40
   4  10   3   70.99    6.40
  -4 -10  -3   65.29    7.60
  -4 -10  -3   77.49    7.90
   3  10   3  195.38    9.20
   3  10   3  198.88    9.60
   3  10   3  211.58    8.70
   3  10   3  211.58    8.70
  -3 -10  -3  205.38   11.30
  -3 -10  -3  195.18    9.60
   2  10   3   60.29    4.80
   2  10   3   64.29    6.00
   2  10   3   60.29    4.80
   2  10   3   59.69    6.00
   2  10   3   49.10    4.90
  -2 -10  -3   49.60    5.10
  -2 -10  -3   56.49    6.80
  -2 -10  -3   49.60    5.10
  -2 -10  -3   52.69    5.50
   1  10   3   33.50    4.30
   1  10   3   37.50    4.50
   1  10   3   42.30    5.30
   1  10   3   38.40    4.10
  -1 -10  -3   37.90    4.70
  -1 -10  -3   42.50    4.00
  -1 -10  -3   42.50    4.00
  -1 -10  -3   37.20    4.20
   0  10   3  199.48    9.10
   0  10   3  221.68    9.40
   0  10   3  205.78    9.40
   0  10   3  209.78    8.60
   0  10   3  209.58    8.80
   0  10   3  220.18    8.40
   0 -10  -3  205.58    8.90
   0 -10  -3  215.58    8.40
   0 -10  -3  226.68    7.90
   0 -10  -3  226.68    7.90
  -1  10   3  111.49    5.50
  -1  10   3  111.49    5.50
  -1  10   3  111.69    5.90
  -1  10   3  109.79    7.30
  -1  10   3  117.29    5.60
  -1  10   3  118.29    7.20
  -1  10   3  133.29    6.60
   1 -10  -3  115.09    5.20
   1 -10  -3  111.49    6.80
   1 -10  -3  121.19    6.60
   1 -10  -3  115.09    5.20
  -2  10   3  393.86   10.50
  -2  10   3  389.46   10.50
  -2  10   3  358.26   10.70
  -2  10   3  412.66   12.80
  -2  10   3  358.16   10.70
   2 -10  -3  380.86   12.60
   2 -10  -3  380.96   11.00
   2 -10  -3  384.06   13.80
   2 -10  -3  380.96   11.00
   2 -10  -3  383.96   13.70
  -3  10   3   50.89    4.20
  -3  10   3   54.09    6.10
  -3  10   3   57.19    5.50
  -3  10   3   50.89    4.20
   3 -10  -3   46.90    7.50
   3 -10  -3   54.39    3.80
   3 -10  -3   54.39    3.80
   3 -10  -3   58.79    5.60
  -4  10   3   32.80    4.20
  -4  10   3   25.80    4.90
  -4  10   3   34.10    3.10
  -4  10   3   34.10    3.10
   4 -10  -3   36.40    2.80
   4 -10  -3   27.60    4.80
   4 -10  -3   34.90    5.50
   4 -10  -3   36.40    2.80
  -5  10   3   62.19    7.30
  -5  10   3   53.29    5.70
   5 -10  -3   51.39    3.70
   5 -10  -3   51.39    3.70
   5 -10  -3   55.89    6.80
   5 -10  -3   45.10    6.00
  -6  10   3   21.70    6.20
  -6  10   3   25.70    4.90
   6 -10  -3   26.30    6.60
   6 -10  -3   19.90    5.70
  -7  10   3   87.59   11.30
  -7  10   3  108.59   12.60
   7 -10  -3  116.29   12.70
   7 -10  -3  112.09   11.40
   6  10   2   23.40    6.50
   6  10   2   44.90    5.80
   6  10   2   44.90    5.80
  -6 -10  -2   22.00    7.50
  -6 -10  -2   32.00    7.40
   5  10   2  222.78   10.00
   5  10   2  230.38   10.90
   5  10   2  214.88   11.40
   5  10   2  222.78   10.00
  -5 -10  -2  213.18   13.80
  -5 -10  -2  222.68   12.40
   4  10   2   48.30    4.90
   4  10   2   48.30    4.80
   4  10   2   48.60    6.30
   4  10   2   59.09    6.20
  -4 -10  -2   58.69    7.00
  -4 -10  -2   64.19    6.60
   3  10   2   57.99    6.70
   3  10   2   54.59    5.60
   3  10   2   56.29    5.00
   3  10   2   56.39    5.00
  -3 -10  -2   56.49    5.90
  -3 -10  -2   41.10    6.50
  -3 -10  -2   57.89    5.70
   2  10   2  432.46   13.00
   2  10   2  432.46   13.00
   2  10   2  402.76   14.00
   2  10   2  446.86   14.00
   2  10   2  428.06   14.10
   2  10   2  461.65   14.50
  -2 -10  -2  435.76   13.20
  -2 -10  -2  431.66   15.20
   1  10   2  173.68    6.90
   1  10   2  178.28    8.10
   1  10   2  186.48    8.20
   1  10   2  177.78    8.30
   1  10   2  173.68    6.90
   1  10   2  182.08    8.30
   1  10   2  174.58    8.10
  -1 -10  -2  171.28    7.80
  -1 -10  -2  180.78    7.10
  -1 -10  -2  180.78    7.10
  -1 -10  -2  171.28    8.50
   0  10   2  749.23   20.90
   0  10   2  717.83   19.60
   0  10   2  717.83   19.60
   0  10   2  807.72   22.10
   0  10   2  734.03   21.60
   0  10   2  804.32   21.40
   0  10   2  795.52   21.10
   0 -10  -2  772.82   19.90
   0 -10  -2  785.02   21.10
   0 -10  -2  800.22   21.80
   0 -10  -2  772.72   19.90
  -1  10   2  172.28    7.00
  -1  10   2  169.48    6.20
  -1  10   2  180.08    6.80
  -1  10   2  183.28    7.90
  -1  10   2  169.48    6.20
   1 -10  -2  180.28    6.40
   1 -10  -2  180.98    7.90
   1 -10  -2  176.08    8.20
   1 -10  -2  180.28    6.40
   1 -10  -2  182.88    8.70
  -2  10   2   93.49    6.40
  -2  10   2   96.39    4.30
  -2  10   2  102.49    4.30
  -2  10   2  101.49    4.50
  -2  10   2   96.39    4.30
   2 -10  -2   97.49    4.30
   2 -10  -2   97.49    4.30
   2 -10  -2   92.59    6.50
   2 -10  -2   93.69    6.30
   2 -10  -2   92.09    6.80
  -3  10   2   50.29    5.80
  -3  10   2   48.30    3.40
  -3  10   2   48.30    3.40
   3 -10  -2   52.19    6.00
   3 -10  -2   38.90    4.40
   3 -10  -2   48.20    3.00
   3 -10  -2   48.20    3.00
   3 -10  -2   49.80    6.20
  -4  10   2    6.20    3.00
  -4  10   2   12.60    3.90
   4 -10  -2   12.30    4.00
   4 -10  -2   11.20    4.00
   4 -10  -2   11.20    1.60
   4 -10  -2    8.00    3.40
   4 -10  -2   11.20    1.60
  -5  10   2   -0.30    3.30
  -5  10   2    3.80    4.60
   5 -10  -2    8.40    4.40
   5 -10  -2   -1.60    4.40
  -6  10   2   49.20    5.60
  -6  10   2   63.89    8.20
   6 -10  -2   51.69    7.20
   6 -10  -2   58.89    7.20
  -7  10   2    9.10    4.70
  -7  10   2   11.00    7.10
   7 -10  -2   14.90    6.80
   7 -10  -2   17.10    7.50
   7  10   1  132.19   13.80
  -7 -10  -1  117.09   14.40
   6  10   1   49.00    5.40
   6  10   1   49.00    5.40
   6  10   1   63.29    7.30
  -6 -10  -1   69.79    8.00
  -6 -10  -1   55.59    8.30
   5  10   1   34.70    4.80
   5  10   1   27.80    4.70
   5  10   1   31.30    4.30
   5  10   1   31.30    4.30
  -5 -10  -1   44.50    6.90
   4  10   1   62.99    5.30
   4  10   1   60.89    7.10
   4  10   1   52.39    5.40
   4  10   1   62.89    5.30
  -4 -10  -1   57.09    5.20
  -4 -10  -1   59.59    6.40
  -4 -10  -1   53.79    6.70
   3  10   1  271.87    9.70
   3  10   1  257.57   10.00
   3  10   1  251.97   11.30
  -3 -10  -1  247.38   11.60
  -3 -10  -1  243.98    9.60
  -3 -10  -1  243.18   11.10
   2  10   1  119.29    7.30
   2  10   1  131.29    7.60
   2  10   1  115.79    5.60
   2  10   1  122.59    6.70
   2  10   1  115.79    5.60
   2  10   1  123.19    6.40
  -2 -10  -1  123.89    7.70
  -2 -10  -1  118.09    7.90
   1  10   1  106.59    6.80
   1  10   1  103.19    6.40
   1  10   1  105.99    5.00
   1  10   1  106.29    6.00
   1  10   1  102.79    6.20
   1  10   1  105.99    5.00
   1  10   1  102.79    6.20
   1  10   1  104.49    6.40
  -1 -10  -1  104.79    6.40
   0  10   1  109.09    6.30
   0  10   1  116.19    6.70
   0  10   1  111.69    4.80
   0  10   1  111.69    4.80
   0  10   1  114.99    6.00
   0  10   1  113.89    5.00
   0  10   1  113.89    5.00
   0  10   1  121.19    6.70
   0 -10  -1  115.39    6.50
   0 -10  -1  112.09    6.60
   0 -10  -1  117.29    6.30
  -1  10   1  565.14   14.60
  -1  10   1  565.14   14.60
  -1  10   1  588.74   15.80
  -1  10   1  584.04   16.10
  -1  10   1  583.84   17.30
  -1  10   1  577.84   14.80
  -1  10   1  577.84   14.80
   1 -10  -1  576.54   17.30
   1 -10  -1  557.24   17.70
   1 -10  -1  579.14   16.90
  -2  10   1   37.80    2.60
  -2  10   1   37.30    3.00
  -2  10   1   36.60    2.70
  -2  10   1   44.10    5.30
  -2  10   1   37.90    2.60
  -2  10   1   33.60    3.80
  -2  10   1   36.60    2.70
   2 -10  -1   47.40    5.80
   2 -10  -1   44.30    4.80
   2 -10  -1   35.10    4.20
  -3  10   1  242.88    7.80
  -3  10   1  254.47   10.70
  -3  10   1  254.37    7.10
  -3  10   1  259.07    6.80
  -3  10   1  259.07    6.80
  -3  10   1  259.47    6.70
  -3  10   1  259.37    6.70
   3 -10  -1  255.27   11.00
   3 -10  -1  269.37   11.60
   3 -10  -1  253.57   10.20
  -4  10   1   56.19    7.00
   4 -10  -1   69.49    7.40
   4 -10  -1   56.19    5.90
   4 -10  -1   57.39    7.00
  -5  10   1   11.00    3.90
  -5  10   1   11.90    5.30
   5 -10  -1    7.70    4.40
   5 -10  -1   16.90    4.50
   5 -10  -1   12.50    5.20
  -6  10   1  269.27   14.50
  -6  10   1  266.47   11.80
   6 -10  -1  290.47   14.70
   6 -10  -1  299.17   14.60
  -7  10   1   41.50    8.20
  -7  10   1   29.80    6.80
   7 -10  -1   37.30    7.30
   7 -10  -1   37.00    8.40
   7  10   0   54.49    9.00
   7  10   0   54.89    8.30
  -7 -10   0   58.49    9.80
  -7 -10   0   62.49   10.10
   6  10   0   70.09    6.00
   6  10   0   70.09    6.00
   6  10   0   71.99    8.30
   6  10   0   62.49    7.20
  -6 -10   0   83.59   10.10
  -6 -10   0   85.99    9.40
   5  10   0   32.50    5.60
   5  10   0   36.50    4.40
   5  10   0   36.50    4.40
   5  10   0   37.10    5.50
   5  10   0   40.70    4.30
  -5 -10   0   31.60    5.80
  -5 -10   0   27.30    5.80
  -5 -10   0   38.20    5.50
   4  10   0   33.40    5.40
   4  10   0   34.40    5.40
   4  10   0   45.20    5.30
   4  10   0   35.30    4.00
   4  10   0   35.30    4.00
   4  10   0   32.30    3.70
  -4 -10   0   36.10    4.90
  -4 -10   0   29.80    5.30
   3  10   0   48.20    4.40
   3  10   0   52.39    4.70
   3  10   0   48.20    4.40
   3  10   0   42.10    5.10
   3  10   0   52.69    5.60
   3  10   0   48.40    4.80
  -3 -10   0   44.30    4.80
  -3 -10   0   47.70    5.50
   2  10   0  139.79    8.00
   2  10   0  133.99    8.20
   2  10   0  135.19    7.90
   2  10   0  140.49    6.00
   2  10   0  151.18    8.20
   2  10   0  159.58    7.00
   2  10   0  140.59    6.00
   2  10   0  145.79    6.60
  -2 -10   0  142.79    7.40
  -2 -10   0  145.79    8.40
   1  10   0   38.10    4.40
   1  10   0   36.60    4.50
   1  10   0   38.50    4.60
   1  10   0   36.00    3.30
   1  10   0   29.40    3.20
   1  10   0   36.00    3.30
   1  10   0   29.40    3.20
   1  10   0   29.80    4.30
   1  10   0   41.40    4.10
  -1 -10   0   38.00    4.50
  -1 -10   0   36.70    4.00
   0  10   0  270.07   10.10
   0  10   0  287.17   10.80
   0  10   0  284.67    8.10
   0  10   0  271.27    8.20
   0  10   0  284.67    8.10
   0  10   0  271.27    8.20
   0  10   0  276.27    9.60
   0  10   0  251.07   10.10
   0 -10   0  275.87   10.40
   0 -10   0  269.27    9.70
   0 -10   0  278.17   10.40
  -1  10   0   36.10    2.50
  -1  10   0   38.70    4.70
  -1  10   0   38.50    3.80
  -1  10   0   36.30    2.70
  -1  10   0   36.30    2.70
  -1  10   0   36.10    2.50
  -1  10   0   27.40    4.10
  -1  10   0   34.40    4.20
   1 -10   0   36.90    4.50
   1 -10   0   31.30    4.10
   1 -10   0   35.90    4.40
  -2  10   0  144.29    4.20
  -2  10   0  144.29    4.20
  -2  10   0  147.99    4.30
  -2  10   0  147.99    4.30
  -2  10   0  149.59    7.90
  -2  10   0  151.48    5.70
  -2  10   0  146.49    6.70
   2 -10   0  148.99    7.80
   2 -10   0  154.68    7.70
   2 -10   0  149.59    8.40
  -3  10   0   47.00    4.80
  -3  10   0   54.19    3.50
  -3  10   0   45.70    5.70
   3 -10   0   51.79    6.30
   3 -10   0   46.50    5.70
   3 -10   0   43.60    4.90
  -4  10   0   24.50    4.60
   4 -10   0   31.40    5.20
   4 -10   0   34.90    4.80
   4 -10   0   37.00    5.60
  -5  10   0   40.80    6.20
   5 -10   0   44.90    6.50
   5 -10   0   34.00    5.20
   5 -10   0   40.30    5.70
  -6  10   0   65.09    7.00
  -6  10   0   69.99    8.90
   6 -10   0   62.69    7.60
   6 -10   0   60.89    8.30
  -7  10   0   31.90    8.00
   7 -10   0   56.69    9.50
   7 -10   0   80.29   10.30
   7  10  -1   36.00    7.10
   7  10  -1   23.50    4.90
   7  10  -1   36.90    7.50
   7  10  -1   23.50    4.90
  -7 -10   1   34.60    8.20
   6  10  -1  284.57   14.40
   6  10  -1  251.77   11.00
   6  10  -1  281.67   13.00
   6  10  -1  251.77   11.00
  -6 -10   1  263.87   12.20
  -6 -10   1  300.07   14.80
   5  10  -1    9.30    3.20
   5  10  -1   12.70    5.00
   5  10  -1    9.90    2.90
   5  10  -1    9.30    3.20
   5  10  -1   12.40    3.90
  -5 -10   1   11.90    4.50
  -5 -10   1    6.30    4.60
   4  10  -1   64.89    6.90
   4  10  -1   64.99    4.40
   4  10  -1   51.49    5.00
   4  10  -1   54.99    6.80
   4  10  -1   61.49    5.40
   4  10  -1   51.49    5.00
  -4 -10   1   72.39    7.60
  -4 -10   1   53.49    5.40
   3  10  -1  269.47   11.30
   3  10  -1  248.08   10.30
   3  10  -1  228.18   10.00
   3  10  -1  275.57    8.90
   3  10  -1  259.47    9.00
   3  10  -1  247.88    8.90
   3  10  -1  247.88    8.90
  -3 -10   1  266.17   10.20
  -3 -10   1  258.17   11.60
   2  10  -1   36.90    3.60
   2  10  -1   44.20    4.50
   2  10  -1   34.00    4.20
   2  10  -1   36.90    3.60
   2  10  -1   40.10    4.90
   2  10  -1   36.10    3.70
   2  10  -1   37.60    4.70
   2  10  -1   37.10    4.20
  -2 -10   1   38.10    4.60
  -2 -10   1   44.20    5.30
   1  10  -1  593.14   15.20
   1  10  -1  603.24   18.20
   1  10  -1  552.44   15.30
   1  10  -1  552.54   17.40
   1  10  -1  588.44   16.30
   1  10  -1  591.44   17.30
   1  10  -1  593.14   15.20
   1  10  -1  558.94   16.50
   1  10  -1  552.44   15.30
  -1 -10   1  576.84   17.30
  -1 -10   1  585.14   16.90
   0  10  -1  117.39    6.60
   0  10  -1  115.59    7.00
   0  10  -1  114.29    4.30
   0  10  -1  116.89    6.10
   0  10  -1  114.39    4.30
   0  10  -1  104.49    6.90
   0  10  -1  110.89    4.60
   0  10  -1  110.89    4.60
   0 -10   1  118.69    5.90
   0 -10   1  108.69    7.00
   0 -10   1  124.09    6.90
  -1  10  -1  106.99    6.80
  -1  10  -1   95.79    3.80
  -1  10  -1   95.79    3.80
  -1  10  -1   97.99    6.60
  -1  10  -1  107.59    6.80
  -1  10  -1  106.99    5.50
   1 -10   1  100.49    6.90
   1 -10   1  108.99    6.00
   1 -10   1   99.39    6.70
  -2  10  -1  114.59    7.00
  -2  10  -1  116.19    5.40
  -2  10  -1  118.49    7.30
   2 -10   1  118.99    7.00
   2 -10   1  115.89    7.20
   2 -10   1  109.59    6.50
   2 -10   1  126.39    7.80
  -3  10  -1  238.88   13.70
  -3  10  -1  260.27    8.40
   3 -10   1  245.68    9.50
   3 -10   1  267.07   11.00
   3 -10   1  247.18   10.40
  -4  10  -1   51.19    6.20
  -4  10  -1   51.99    4.60
   4 -10   1   71.59    7.80
   4 -10   1   51.39    5.60
   4 -10   1   52.69    6.90
  -5  10  -1   22.80    5.40
   5 -10   1   33.60    6.50
   5 -10   1   32.90    5.00
   5 -10   1   29.40    5.70
  -6  10  -1   50.09    8.10
  -6  10  -1   59.09    6.20
   6 -10   1   59.89    7.80
   6 -10   1   66.89    9.30
   6 -10   1   61.39    6.70
  -7  10  -1  117.69    9.80
   7  10  -2   18.70    4.60
   7  10  -2    8.30    5.90
   7  10  -2   11.70    6.70
   7  10  -2   18.70    4.60
  -7 -10   2    3.50    6.20
  -7 -10   2    7.70    7.00
   6  10  -2   54.29    5.30
   6  10  -2   56.89    7.70
   6  10  -2   54.29    5.30
   6  10  -2   57.69    6.00
  -6 -10   2   58.19    6.90
  -6 -10   2   66.89    7.70
   5  10  -2    0.70    2.80
   5  10  -2    3.10    3.50
   5  10  -2   -3.20    4.00
   5  10  -2    0.70    2.80
  -5 -10   2    2.60    4.40
  -5 -10   2    4.00    4.80
   4  10  -2    6.90    3.70
   4  10  -2    9.90    2.90
   4  10  -2    8.40    5.60
   4  10  -2    8.20    2.80
   4  10  -2    8.20    2.80
   4  10  -2   11.80    2.40
   4  10  -2   12.60    3.90
  -4 -10   2   13.40    4.30
   3  10  -2   47.30    4.00
   3  10  -2   40.70    4.80
   3  10  -2   51.29    5.50
   3  10  -2   43.00    4.00
   3  10  -2   48.70    5.80
   3  10  -2   43.00    4.00
   3  10  -2   50.69    4.00
  -3 -10   2   44.90    5.70
  -3 -10   2   55.79    6.00
   2  10  -2   84.99    4.60
   2  10  -2   80.69    5.50
   2  10  -2   80.69    5.50
   2  10  -2   96.39    6.70
   2  10  -2   84.99    4.60
   2  10  -2   99.49    4.80
   2  10  -2   99.19    5.80
   2  10  -2  107.39    7.50
   2  10  -2   92.19    6.60
  -2 -10   2  106.49    7.70
  -2 -10   2   89.69    6.70
  -2 -10   2   96.19    5.60
   1  10  -2  169.08    6.50
   1  10  -2  164.38    5.80
   1  10  -2  164.38    5.80
   1  10  -2  179.58    9.10
   1  10  -2  177.88    7.30
   1  10  -2  180.68    8.10
   1  10  -2  169.08    6.50
   1  10  -2  182.58    6.70
   1  10  -2  161.68    8.70
  -1 -10   2  180.78    7.80
  -1 -10   2  176.68    8.20
   0  10  -2  771.42   19.40
   0  10  -2  793.02   21.80
   0  10  -2  785.62   21.00
   0  10  -2  771.52   19.40
   0  10  -2  789.62   19.20
   0  10  -2  826.42   23.20
   0  10  -2  789.62   19.20
   0 -10   2  807.52   22.50
   0 -10   2  807.32   21.00
   0 -10   2  768.92   22.20
  -1  10  -2  173.88    4.80
  -1  10  -2  173.98    4.80
  -1  10  -2  176.28    4.80
  -1  10  -2  176.28    4.80
  -1  10  -2  175.78    8.80
  -1  10  -2  182.28    7.30
  -1  10  -2  172.78    8.00
   1 -10   2  156.68    8.20
   1 -10   2  185.18    7.70
   1 -10   2  170.88    8.30
   1 -10   2  189.08    9.00
  -2  10  -2  418.86   14.90
  -2  10  -2  438.66   13.00
   2 -10   2  451.45   14.40
   2 -10   2  444.96   15.90
   2 -10   2  427.36   14.70
   2 -10   2  440.46   14.30
  -3  10  -2   60.89    5.00
  -3  10  -2   58.59    6.50
   3 -10   2   48.10    5.50
   3 -10   2   60.89    6.60
   3 -10   2   56.79    6.10
   3 -10   2   61.69    7.00
  -4  10  -2   56.89    5.40
  -4  10  -2   41.20    5.80
   4 -10   2   51.89    6.10
   4 -10   2   44.80    5.50
   4 -10   2   75.09    8.70
  -5  10  -2  201.88   12.00
   5 -10   2  221.18   12.40
   5 -10   2  204.78   10.50
   5 -10   2  231.48   13.30
  -6  10  -2   19.00    6.80
  -6  10  -2   30.80    5.50
   6 -10   2   33.80    6.10
   6 -10   2   37.10    8.40
   6 -10   2   42.10    8.00
   7  10  -3  106.29   11.50
   7  10  -3   96.49    8.40
   7  10  -3   96.49    8.40
  -7 -10   3  110.39   13.20
  -7 -10   3   98.19   10.40
   6  10  -3   22.50    4.20
   6  10  -3   21.70    5.00
   6  10  -3   20.20    4.50
   6  10  -3   22.50    4.20
  -6 -10   3   24.40    5.50
  -6 -10   3   25.10    6.40
   5  10  -3   45.40    5.80
   5  10  -3   43.40    5.50
   5  10  -3   49.99    4.60
   5  10  -3   49.99    4.60
  -5 -10   3   52.09    6.60
  -5 -10   3   61.49    6.50
   4  10  -3   38.70    5.40
   4  10  -3   28.20    4.20
   4  10  -3   34.20    4.40
  -4 -10   3   29.10    5.20
  -4 -10   3   34.40    5.10
   3  10  -3   58.79    3.80
   3  10  -3   48.30    6.00
   3  10  -3   51.79    4.40
   3  10  -3   57.99    4.80
   3  10  -3   51.79    4.40
   3  10  -3   54.69    5.70
   3  10  -3   50.79    4.30
  -3 -10   3   60.69    6.40
  -3 -10   3   56.39    6.60
   2  10  -3  405.46   10.70
   2  10  -3  400.26   14.40
   2  10  -3  336.57   11.60
   2  10  -3  396.46   11.10
   2  10  -3  409.96   13.70
   2  10  -3  336.57   11.60
   2  10  -3  387.76   11.20
   2  10  -3  396.46   11.10
   2  10  -3  371.16   12.60
  -2 -10   3  397.56   12.10
  -2 -10   3  394.66   14.90
  -2 -10   3  374.56   13.20
   1  10  -3  119.99    4.70
   1  10  -3  119.99    4.70
   1  10  -3  117.39    7.00
   1  10  -3  115.29    7.90
   1  10  -3  105.09    5.40
   1  10  -3  104.99    5.40
   1  10  -3  120.69    5.70
   1  10  -3  115.59    7.70
   1  10  -3  123.19    5.10
  -1 -10   3  117.29    6.70
  -1 -10   3  114.59    7.00
   0  10  -3  213.28    6.10
   0  10  -3  213.28    6.60
   0  10  -3  213.28    6.10
   0  10  -3  201.78    8.00
   0  10  -3  213.28    6.60
   0  10  -3  209.38    8.80
   0  10  -3  217.88   10.00
   0 -10   3  219.68    9.60
   0 -10   3  207.88    7.70
   0 -10   3  212.08    9.70
  -1  10  -3   35.30    3.80
  -1  10  -3   35.80    4.40
  -1  10  -3   32.20    4.70
   1 -10   3   42.40    4.90
   1 -10   3   36.20    4.00
   1 -10   3   32.20    4.70
  -2  10  -3   55.59    6.40
  -2  10  -3   52.69    4.70
   2 -10   3   52.49    5.70
   2 -10   3   49.90    5.60
   2 -10   3   56.79    7.00
  -3  10  -3  203.28    8.60
  -3  10  -3  207.88   10.30
   3 -10   3  191.28    9.80
   3 -10   3  190.28    9.80
   3 -10   3  203.98   11.50
  -4  10  -3   68.59    8.00
  -4  10  -3   83.19    6.60
   4 -10   3   78.39    8.30
   4 -10   3   55.69    6.40
   4 -10   3   64.09    7.60
  -5  10  -3   73.49    8.20
   5 -10   3   88.09    9.50
   5 -10   3   85.59   10.20
   5 -10   3   98.69    8.70
  -6  10  -3   64.69   13.40
   6 -10   3   95.19    9.40
   6 -10   3   68.19    8.80
   7  10  -4  242.08   11.30
   7  10  -4  242.08   11.30
   7  10  -4  294.27   15.60
  -7 -10   4  274.27   16.30
  -7 -10   4  249.58   13.20
   6  10  -4   24.70    4.20
   6  10  -4   24.70    4.20
   6  10  -4   25.00    5.80
  -6 -10   4   30.20    6.50
  -6 -10   4   31.50    6.30
   5  10  -4  102.09    9.00
   5  10  -4   91.29    6.10
   5  10  -4   91.29    6.10
  -5 -10   4   97.59    8.20
  -5 -10   4   88.49    9.30
   4  10  -4  117.89    7.60
   4  10  -4  128.89    4.70
   4  10  -4  117.89    7.60
   4  10  -4  129.89    8.80
   4  10  -4  119.49    6.20
  -4 -10   4  135.79    8.50
  -4 -10   4  141.69    9.70
   3  10  -4  128.79    6.10
   3  10  -4  126.49    4.80
   3  10  -4  127.89    5.70
   3  10  -4  128.09    7.10
   3  10  -4  128.79    6.10
   3  10  -4  119.09    5.00
  -3 -10   4  130.39    8.20
  -3 -10   4  143.09    9.40
  -3 -10   4  133.29    5.90
   2  10  -4   57.89    6.70
   2  10  -4   61.89    3.60
   2  10  -4   70.49    8.10
   2  10  -4   51.89    4.40
   2  10  -4   61.49    4.00
   2  10  -4   63.59    6.20
   2  10  -4   61.49    4.00
   2  10  -4   51.89    4.40
   2  10  -4   62.49    3.00
  -2 -10   4   67.19    5.20
  -2 -10   4   61.79    6.60
   1  10  -4    4.00    2.40
   1  10  -4    6.50    1.60
   1  10  -4    2.60    2.20
   1  10  -4    2.70    1.70
   1  10  -4    3.80    3.70
   1  10  -4    4.00    2.40
   1  10  -4    2.30    2.80
   1  10  -4    6.50    1.60
  -1 -10   4    4.70    3.40
  -1 -10   4    6.10    2.90
   0  10  -4  158.48    5.60
   0  10  -4  131.89   11.40
   0  10  -4  156.98    7.80
   0  10  -4  174.18    7.20
   0  10  -4  171.18    5.10
   0  10  -4  171.38    5.10
   0  10  -4  158.48    5.60
   0 -10   4  164.38    6.50
   0 -10   4  174.88    8.80
   0 -10   4  159.98    9.00
  -1  10  -4  356.96   12.20
  -1  10  -4  354.76   12.30
  -1  10  -4  362.56   13.80
   1 -10   4  364.46   11.70
   1 -10   4  362.96   13.50
   1 -10   4  349.07   13.80
  -2  10  -4  315.77   13.40
  -2  10  -4  338.97   11.80
   2 -10   4  348.47   12.20
   2 -10   4  307.97   12.50
   2 -10   4  326.47   14.10
  -3  10  -4  110.29    8.80
  -3  10  -4  106.89    7.50
   3 -10   4  106.19    8.20
   3 -10   4  118.19    9.80
   3 -10   4  111.49    8.20
  -4  10  -4   48.30    6.60
  -4  10  -4   59.09    7.40
   4 -10   4   51.69    6.30
   4 -10   4   63.29    6.80
   4 -10   4   57.99    8.00
  -5  10  -4   11.90    6.50
   5 -10   4   14.90    5.70
   5 -10   4   16.00    6.30
   5 -10   4   24.70    7.80
   7  10  -5  155.28    9.60
   7  10  -5  196.28   13.90
   7  10  -5  155.28    9.60
  -7 -10   5  183.78   11.50
  -7 -10   5  172.18   14.40
   6  10  -5  134.59   11.10
   6  10  -5  126.29    8.10
   6  10  -5  126.29    8.10
  -6 -10   5  145.89   10.20
  -6 -10   5  144.69   12.90
   5  10  -5  138.49    7.30
   5  10  -5  132.49   10.20
   5  10  -5  138.49    7.30
  -5 -10   5  138.99    9.40
  -5 -10   5  145.29   11.20
   4  10  -5   53.29    4.30
   4  10  -5   59.49    7.70
   4  10  -5   53.29    4.30
  -4 -10   5   57.29    6.60
  -4 -10   5   56.69    7.10
   3  10  -5   60.69    4.80
   3  10  -5   73.09    8.30
   3  10  -5   60.69    4.80
   3  10  -5   59.59    6.80
  -3 -10   5   73.69    8.20
  -3 -10   5   66.79    5.00
  -3 -10   5   77.49    7.10
   2  10  -5  136.09    9.70
   2  10  -5  142.39    5.70
   2  10  -5  140.19    9.40
   2  10  -5  142.39    5.70
  -2 -10   5  145.99    7.30
  -2 -10   5  124.49    6.50
  -2 -10   5  143.09    8.60
  -2 -10   5  124.49    6.50
   1  10  -5  146.19    5.40
   1  10  -5  159.88    8.20
   1  10  -5  146.19    5.40
   1  10  -5  154.48    5.10
   1  10  -5  153.28    4.80
   1  10  -5  142.39    9.10
  -1 -10   5  158.18    8.30
  -1 -10   5  150.28    9.00
  -1 -10   5  149.59    6.10
  -1 -10   5  149.59    6.10
   0  10  -5   38.90    2.90
   0  10  -5   37.70    4.50
   0  10  -5   38.90    2.90
   0  10  -5   39.60    5.50
   0 -10   5   39.00    3.70
   0 -10   5   36.90    5.40
   0 -10   5   37.70    5.40
  -1  10  -5   39.90    5.60
  -1  10  -5   30.60    4.10
   1 -10   5   33.00    5.30
   1 -10   5   43.20    5.00
  -2  10  -5  116.89   12.20
  -2  10  -5  121.89    9.20
   2 -10   5  136.39    9.10
   2 -10   5  114.59    7.70
   2 -10   5  123.79   10.10
  -3  10  -5  195.08   11.50
  -3  10  -5  178.38   10.10
   3 -10   5  188.88   12.40
   3 -10   5  180.88   10.70
   3 -10   5  184.28   10.40
  -4  10  -5   59.19    7.90
  -4  10  -5   71.99    9.20
   4 -10   5   73.59    7.50
   4 -10   5   79.89    9.50
   4 -10   5   75.89    7.80
  -5  10  -5    6.70   13.30
   5 -10   5   20.80    6.20
   5 -10   5   18.60    7.10
   7  10  -6   14.70    4.90
   7  10  -6   15.80    7.40
   7  10  -6   14.70    4.90
  -7 -10   6   16.20    7.90
  -7 -10   6   17.00    6.50
   6  10  -6   60.59    7.50
   6  10  -6   41.10    5.00
   6  10  -6   41.10    5.00
  -6 -10   6   36.60    6.50
  -6 -10   6   66.89    9.30
   5  10  -6   -4.50    3.30
   5  10  -6   -0.50    4.50
   5  10  -6   -4.50    3.30
  -5 -10   6    3.30    4.40
  -5 -10   6   -6.40    4.90
   4  10  -6   20.40    3.50
   4  10  -6   20.40    3.50
   4  10  -6   15.30    4.80
  -4 -10   6   15.00    6.00
  -4 -10   6   22.80    5.00
   3  10  -6  133.19    6.20
   3  10  -6  136.49    9.10
   3  10  -6  133.19    6.20
   3  10  -6  135.89   10.20
  -3 -10   6  132.79    6.80
  -3 -10   6  122.99    8.80
  -3 -10   6  131.39   10.30
   2  10  -6    8.80    3.50
   2  10  -6   20.80    5.40
   2  10  -6    9.40    2.40
   2  10  -6    9.40    2.40
  -2 -10   6    9.00    3.70
  -2 -10   6   12.70    4.40
   1  10  -6   12.60    3.90
   1  10  -6   16.20    2.30
   1  10  -6   16.20    2.30
   1  10  -6   13.20    4.90
  -1 -10   6   14.10    4.70
  -1 -10   6   10.30    4.30
   0  10  -6   10.00    1.90
   0  10  -6   10.00    1.90
   0  10  -6    3.80    4.20
   0  10  -6    7.00    3.70
   0 -10   6   13.20    4.70
   0 -10   6   13.10    4.60
   0 -10   6    3.80    3.10
  -1  10  -6   56.49    6.20
  -1  10  -6   43.60    5.90
   1 -10   6   44.20    5.50
   1 -10   6   47.90    6.40
   1 -10   6   44.70    6.40
  -2  10  -6   83.29    7.80
  -2  10  -6   63.19    7.30
   2 -10   6   73.69    8.20
   2 -10   6   57.59    7.10
   2 -10   6   74.39    7.50
  -3  10  -6    2.00    4.90
  -3  10  -6    1.50    5.10
   3 -10   6    0.20    6.80
   3 -10   6    1.30    5.90
   3 -10   6    3.60    4.90
  -4  10  -6   36.50    8.10
  -4  10  -6   29.90    6.90
   4 -10   6   34.20    6.90
   4 -10   6   35.70    7.00
   4 -10   6   34.60    9.00
  -7 -10   7   56.19    7.50
   6  10  -7   83.89    8.10
   6  10  -7  105.59   11.60
   6  10  -7   83.99    8.20
  -6 -10   7  110.49   12.90
  -6 -10   7  110.99    9.90
   5  10  -7   27.80    4.40
   5  10  -7   27.50    6.10
   5  10  -7   27.80    4.40
  -5 -10   7   25.10    6.00
  -5 -10   7   29.00    7.10
   4  10  -7   48.20    4.40
   4  10  -7   57.19    7.00
   4  10  -7   48.20    4.40
  -4 -10   7   41.90    6.10
  -4 -10   7   52.39    7.80
   3  10  -7   33.20    6.60
   3  10  -7   30.90    5.20
   3  10  -7   31.40    3.60
   3  10  -7   31.40    3.60
  -3 -10   7   28.80    5.50
   2  10  -7   19.80    6.10
   2  10  -7   24.20    4.90
   2  10  -7   22.50    3.20
   2  10  -7   22.50    3.20
  -2 -10   7   23.80    5.40
  -2 -10   7   30.80    5.00
   1  10  -7   53.09    4.50
   1  10  -7   57.39    7.40
   1  10  -7   53.09    4.50
   1  10  -7   56.69    7.10
  -1 -10   7   56.09    6.30
  -1 -10   7   52.29    7.00
   0  10  -7   28.40    4.70
   0  10  -7   45.50    6.90
   0 -10   7   42.20    6.10
   0 -10   7   41.10    6.80
  -1  10  -7   26.70    5.10
  -1  10  -7   18.80    5.90
   1 -10   7   14.40    6.20
   1 -10   7   31.70    6.20
  -2  10  -7   37.60    7.30
  -2  10  -7   40.60    6.40
   2 -10   7   43.80    7.10
   2 -10   7   43.90    7.60
  -3  10  -7   20.10    7.20
  -3  10  -7   18.00    6.80
   3 -10   7   29.00    7.00
   3 -10   7   28.40    8.40
   6  10  -8    5.60    4.90
   6  10  -8   -8.90    6.60
   6  10  -8    5.60    4.90
  -6 -10   8   15.10    8.00
  -6 -10   8   -1.30    4.90
   5  10  -8  181.48   13.00
   5  10  -8  201.18    9.50
   5  10  -8  201.18    9.50
  -5 -10   8  190.18   15.20
  -5 -10   8  192.58   11.70
   4  10  -8    7.60    5.10
   4  10  -8   17.20    3.80
   4  10  -8   17.20    3.80
   4  10  -8   16.90    6.60
  -4 -10   8   14.20    5.50
  -4 -10   8    8.80    6.50
   3  10  -8  105.09    7.00
   3  10  -8  105.09    7.00
   3  10  -8  117.49    9.50
   3  10  -8  106.69   11.20
  -3 -10   8  103.79    9.30
   2  10  -8   41.00    4.00
   2  10  -8   26.50    5.50
   2  10  -8   28.30    7.00
   2  10  -8   41.00    4.00
  -2 -10   8   40.00    6.10
  -2 -10   8   39.20    6.30
   1  10  -8    1.00    4.30
   1  10  -8   -2.90    5.40
  -1 -10   8    8.00    5.00
   0  10  -8   37.50    6.90
   0  10  -8   44.30    5.80
   0 -10   8   41.10    7.20
   0 -10   8   50.49    7.50
  -1  10  -8   55.99    8.10
  -1  10  -8   53.99    6.90
   1 -10   8   50.49    7.50
   1 -10   8   51.39    8.10
  -2  10  -8   35.80    7.80
  -2  10  -8   16.30    6.70
   2 -10   8   24.80    7.00
   2 -10   8   24.30    8.30
   5  10  -9   54.89    6.00
   5  10  -9   54.89    6.00
   5  10  -9   42.80    7.20
  -5 -10   9   75.49   11.10
  -5 -10   9   67.59    7.70
   4  10  -9  171.78    9.60
   4  10  -9  171.78    9.60
   4  10  -9  197.08   14.70
   4  10  -9  183.38   11.90
  -4 -10   9  148.79   10.90
   3  10  -9   96.29    7.70
   3  10  -9   93.79    9.80
   3  10  -9   91.79   10.20
   3  10  -9   96.29    7.70
  -3 -10   9   98.89   15.00
   2  10  -9   51.59    6.70
   2  10  -9   55.69    8.00
  -2 -10   9   60.19    8.10
   1  10  -9  111.69   11.80
   1  10  -9   90.49    9.60
  -1 -10   9   81.69    8.90
  -1 -10   9   92.99   11.60
   0  10  -9   13.00    6.90
   0  10  -9   16.00    5.60
   0 -10   9   15.40    9.30
   0 -10   9   13.10    7.40
  -1  10  -9   29.00    7.30
  -1  10  -9   38.50    8.70
   1 -10   9   28.90    6.90
   1 -10   9   48.00    9.00
   4  10 -10  237.58   11.70
   4  10 -10  237.58   11.70
   3  10 -10   90.29   10.70
  -3 -10  10  108.29   10.40
   2  10 -10   72.29   10.00
  -2 -10  10   61.09    8.30
   1 -11  -9   -1.80    7.10
   1 -11  -9   -1.80    7.10
  -2  11   9   19.80    5.50
  -2  11   9   15.20    6.40
   2 -11  -9   19.70    5.90
   2 -11  -9   19.70    5.90
  -3  11   9   -5.70    5.90
  -3  11   9    2.50    4.90
   3 -11  -9    9.70    5.20
   3 -11  -9    9.70    5.20
  -4  11   9    8.50    8.20
  -4  11   9    4.70    5.00
   4 -11  -9   13.40    5.80
   4 -11  -9   13.40    5.80
   1  11   8   32.90    7.30
  -1 -11  -8   30.10    7.70
   0  11   8   46.10    6.80
   0  11   8   36.00    6.00
   0 -11  -8   38.00    6.00
   0 -11  -8   34.00    7.00
   0 -11  -8   38.00    6.00
  -1  11   8   10.30    4.80
  -1  11   8    1.20    5.30
  -1  11   8    2.40    5.30
   1 -11  -8    2.10    5.00
   1 -11  -8    2.10    5.00
  -2  11   8   17.80    4.80
  -2  11   8   14.10    5.20
  -2  11   8   25.90    6.30
   2 -11  -8   24.80    5.20
   2 -11  -8   24.80    5.20
  -3  11   8    2.80    4.40
  -3  11   8    6.90    5.80
  -3  11   8   10.50    5.60
   3 -11  -8    7.30    4.50
   3 -11  -8    7.30    4.50
   3 -11  -8   -1.20    5.20
  -4  11   8   11.60    4.80
  -4  11   8   17.70    6.00
   4 -11  -8   18.00    4.80
   4 -11  -8   18.00    4.80
   4 -11  -8   14.70    5.70
  -5  11   8    5.00    6.60
   5 -11  -8   13.10    4.90
   5 -11  -8   13.00    4.90
   2  11   7   61.69    8.20
   2  11   7   54.19    8.90
  -2 -11  -7   60.39    7.10
  -2 -11  -7   60.39    7.10
  -2 -11  -7   65.19    8.80
   1  11   7   49.30    6.20
   1  11   7   73.09    9.10
  -1 -11  -7   51.89    7.20
  -1 -11  -7   58.89    6.80
  -1 -11  -7   58.89    6.80
   0  11   7   41.30    6.00
   0  11   7   53.09    6.90
   0 -11  -7   49.80    8.70
   0 -11  -7   53.59    5.70
   0 -11  -7   53.59    5.70
  -1  11   7   70.29    7.50
  -1  11   7   65.89    7.30
  -1  11   7   70.19    7.10
   1 -11  -7   79.29    7.60
   1 -11  -7   79.29    7.60
   1 -11  -7   71.09    7.90
  -2  11   7   47.80    5.70
  -2  11   7   39.90    5.80
  -2  11   7   37.10    5.90
   2 -11  -7   47.00    5.30
   2 -11  -7   47.00    5.30
  -3  11   7   11.30    4.50
  -3  11   7   10.80    5.00
   3 -11  -7   -2.70    4.20
   3 -11  -7   10.00    4.00
   3 -11  -7   10.00    4.00
  -4  11   7  109.39   10.10
  -4  11   7   94.99    8.00
   4 -11  -7   98.59    7.60
   4 -11  -7   85.29    9.80
   4 -11  -7   98.59    7.60
  -5  11   7   48.30    7.70
  -5  11   7   54.39    6.50
   5 -11  -7   68.09    5.80
   5 -11  -7   68.09    5.80
   5 -11  -7   60.69    7.90
  -6  11   7   76.39    9.50
  -6  11   7   97.29   11.80
  -6  11   7   70.59    7.20
   3  11   6   25.70    6.10
   3  11   6   21.10    4.90
   3  11   6   21.10    4.90
   3  11   6   29.80    6.70
  -3 -11  -6   26.00    5.60
  -3 -11  -6   26.00    5.60
  -3 -11  -6   28.10    7.40
   2  11   6   25.70    5.50
   2  11   6   14.50    5.30
  -2 -11  -6   22.10    6.40
  -2 -11  -6   28.50    5.10
  -2 -11  -6   28.50    5.10
   1  11   6  362.16   14.60
   1  11   6  354.56   14.70
  -1 -11  -6  360.06   15.20
  -1 -11  -6  370.16   13.60
  -1 -11  -6  370.36   13.60
   0  11   6  130.39    9.50
   0  11   6  128.29    7.80
   0  11   6  119.49    9.00
   0 -11  -6  122.49    7.80
   0 -11  -6  125.49    9.10
   0 -11  -6  122.49    7.80
  -1  11   6   17.30    4.00
  -1  11   6   23.70    4.50
  -1  11   6   26.10    5.10
   1 -11  -6   15.20    4.20
   1 -11  -6   13.00    3.90
   1 -11  -6   13.00    3.90
  -2  11   6  141.09    9.40
  -2  11   6  134.49    7.90
  -2  11   6  130.19    7.80
   2 -11  -6  130.99    8.90
   2 -11  -6  132.29    7.70
   2 -11  -6  132.29    7.70
  -3  11   6    5.50    4.30
  -3  11   6    1.90    3.60
  -3  11   6    2.20    4.30
   3 -11  -6    2.60    3.40
   3 -11  -6    2.60    3.40
   3 -11  -6    1.20    3.70
  -4  11   6   15.30    4.50
  -4  11   6   12.20    5.20
  -4  11   6   10.00    5.10
   4 -11  -6   19.20    4.20
   4 -11  -6    8.00    4.80
   4 -11  -6   19.20    4.20
  -5  11   6  204.18   10.50
  -5  11   6  232.38   12.70
  -5  11   6  252.87   13.60
   5 -11  -6  235.88   13.10
  -6  11   6  135.19   12.30
  -6  11   6  132.59    9.70
  -6  11   6  168.48   13.70
   6 -11  -6  154.08   13.60
   6 -11  -6  132.49   12.00
   4  11   5  144.19   11.40
   4  11   5  146.79   12.30
  -4 -11  -5  154.28   14.60
   3  11   5   99.59    7.80
   3  11   5   99.59    7.80
   3  11   5   75.89    8.90
   3  11   5   73.29    8.80
  -3 -11  -5   84.49   11.00
   2  11   5  108.79    8.70
   2  11   5  108.89    8.40
  -2 -11  -5  114.79   10.00
  -2 -11  -5   99.79    8.00
  -2 -11  -5   99.79    8.00
   1  11   5  102.59    7.80
   1  11   5   84.89    8.10
   1  11   5   87.79    6.70
  -1 -11  -5   98.39    7.30
  -1 -11  -5   98.39    7.30
  -1 -11  -5   87.19    8.50
   0  11   5   52.99    5.10
   0  11   5   42.60    5.20
   0  11   5   43.80    5.40
   0  11   5   38.50    4.50
   0 -11  -5   43.70    4.50
   0 -11  -5   47.80    5.50
   0 -11  -5   43.70    4.50
  -1  11   5   74.69    7.40
  -1  11   5   75.49    6.00
  -1  11   5   78.29    6.30
  -1  11   5   88.19    7.60
   1 -11  -5   69.49    6.00
   1 -11  -5   70.99    6.50
   1 -11  -5   69.49    6.00
  -2  11   5   90.99    8.20
  -2  11   5   96.49    7.20
  -2  11   5   93.89    5.20
  -2  11   5   96.39    6.80
   2 -11  -5   98.49    6.10
   2 -11  -5   98.49    6.10
   2 -11  -5   96.29    7.80
  -3  11   5    4.60    4.10
  -3  11   5    5.40    4.30
  -3  11   5   11.90    4.10
   3 -11  -5   11.20    2.90
   3 -11  -5   11.20    2.90
   3 -11  -5   -0.40    3.70
  -4  11   5   31.90    5.00
  -4  11   5   35.20    5.90
  -4  11   5   39.90    6.20
   4 -11  -5   34.00    3.70
   4 -11  -5   27.00    5.80
   4 -11  -5   34.00    3.70
   4 -11  -5   34.10    5.40
  -5  11   5  163.48   11.50
  -5  11   5  137.49    8.70
  -5  11   5  155.08   11.20
   5 -11  -5  140.09   11.10
   5 -11  -5  139.79    6.90
   5 -11  -5  140.39   10.70
   5 -11  -5  139.79    6.90
  -6  11   5   46.60    7.70
  -6  11   5   32.40    6.40
   6 -11  -5   35.80    7.00
   6 -11  -5   35.10    7.80
  -7  11   5   21.60    7.90
  -7  11   5   23.10    5.30
   7 -11  -5   28.00    9.10
   5  11   4  143.09   12.60
  -5 -11  -4  142.39   15.80
   4  11   4   35.40    5.50
   4  11   4   32.00    6.20
   4  11   4   26.00    5.80
   4  11   4   35.40    5.50
  -4 -11  -4   21.20    7.40
   3  11   4   16.00    4.60
   3  11   4   28.00    4.30
   3  11   4   28.00    4.30
   3  11   4   24.40    5.10
  -3 -11  -4   22.80    6.20
   2  11   4  129.09    8.50
   2  11   4  122.19    7.50
   2  11   4  121.59    7.00
   2  11   4  121.39    8.30
   2  11   4  121.59    7.00
  -2 -11  -4  108.19    7.60
  -2 -11  -4  108.19    7.60
  -2 -11  -4  119.49    9.60
   1  11   4   53.19    5.80
   1  11   4   46.90    5.30
   1  11   4   53.89    6.60
   1  11   4   56.79    6.00
  -1 -11  -4   58.29    7.20
  -1 -11  -4   44.90    4.40
  -1 -11  -4   57.29    5.90
  -1 -11  -4   44.90    4.40
   0  11   4   28.00    6.10
   0  11   4   25.20    4.30
   0  11   4   33.30    4.90
   0  11   4   28.70    4.10
   0  11   4   33.50    3.90
   0 -11  -4   25.30    4.50
   0 -11  -4   36.10    3.90
   0 -11  -4   36.10    3.90
   0 -11  -4   24.70    4.20
  -1  11   4   45.30    5.10
  -1  11   4   48.40    5.60
  -1  11   4   53.39    6.20
  -1  11   4   46.10    4.80
  -1  11   4   49.10    5.30
  -1  11   4   42.60    5.10
   1 -11  -4   47.30    5.50
   1 -11  -4   49.20    4.00
   1 -11  -4   49.60    5.00
   1 -11  -4   49.20    4.00
  -2  11   4   59.49    4.10
  -2  11   4   64.49    6.20
  -2  11   4   72.89    7.10
  -2  11   4   65.19    6.20
   2 -11  -4   61.59    6.00
   2 -11  -4   58.79    5.10
   2 -11  -4   58.79    5.10
   2 -11  -4   53.09    6.50
  -3  11   4    6.80    3.50
  -3  11   4   10.50    4.20
  -3  11   4   -1.40    3.80
   3 -11  -4    6.90    2.70
   3 -11  -4   11.00    4.40
   3 -11  -4    5.50    3.70
   3 -11  -4    6.90    2.70
  -4  11   4  131.69    8.30
  -4  11   4  142.09    9.80
   4 -11  -4  129.89    6.00
   4 -11  -4  139.99    9.90
   4 -11  -4  140.59    9.50
   4 -11  -4  129.89    6.00
  -5  11   4   33.30    6.60
  -5  11   4   30.80    4.70
   5 -11  -4   33.00    6.50
   5 -11  -4   32.00    6.10
  -6  11   4   33.50    7.40
  -6  11   4   17.70    4.40
   6 -11  -4   19.30    6.10
   6 -11  -4   35.70    7.50
  -7  11   4   78.39    7.90
  -7  11   4   59.49    9.10
   7 -11  -4   60.29    9.30
   5  11   3    0.90    5.90
   5  11   3    6.70    4.70
   5  11   3  -13.80    5.00
   5  11   3    6.70    4.70
  -5 -11  -3   -2.40    6.90
   4  11   3  134.69    9.60
   4  11   3  134.49    9.30
   4  11   3  153.28    8.70
   4  11   3  153.38    8.70
  -4 -11  -3  134.29   10.70
  -4 -11  -3  152.78   12.10
   3  11   3  152.48    8.90
   3  11   3  145.99    9.00
   3  11   3  170.48    9.70
   3  11   3  160.98    8.40
   3  11   3  160.98    8.40
  -3 -11  -3  153.58   10.80
   2  11   3  342.87   11.70
   2  11   3  345.97   13.30
   2  11   3  348.37   12.70
   2  11   3  342.87   11.70
   2  11   3  350.36   13.00
  -2 -11  -3  330.57   14.10
  -2 -11  -3  361.56   14.50
   1  11   3  104.09    7.20
   1  11   3  117.19    7.60
   1  11   3  101.29    8.10
   1  11   3   99.79    7.00
  -1 -11  -3  105.79    6.40
  -1 -11  -3   99.79    8.00
  -1 -11  -3  110.09    6.80
  -1 -11  -3  105.79    6.40
   0  11   3  397.86   13.00
   0  11   3  401.26   14.30
   0  11   3  439.26   15.20
   0  11   3  406.66   13.20
   0  11   3  333.67   13.60
   0 -11  -3  384.96   12.80
   0 -11  -3  398.26   12.10
   0 -11  -3  398.26   12.10
  -1  11   3  102.19    9.50
  -1  11   3   97.69    6.40
  -1  11   3  118.09    6.90
  -1  11   3  119.49    5.90
   1 -11  -3  107.19    6.90
   1 -11  -3  116.89    5.70
   1 -11  -3  116.89    5.70
  -2  11   3  535.75   17.70
  -2  11   3  483.35   14.10
  -2  11   3  483.35   14.10
  -2  11   3  537.45   14.10
  -2  11   3  548.35   16.50
   2 -11  -3  509.15   14.20
   2 -11  -3  540.95   17.50
   2 -11  -3  509.25   14.20
   2 -11  -3  540.45   16.30
   2 -11  -3  545.65   17.80
  -3  11   3  228.58   10.30
  -3  11   3  213.18    7.80
  -3  11   3  227.38    9.70
  -3  11   3  213.08    7.80
   3 -11  -3  225.68    9.60
   3 -11  -3  233.08   10.90
   3 -11  -3  218.38    7.50
   3 -11  -3  225.58   11.10
   3 -11  -3  218.38    7.50
  -4  11   3    0.40    3.10
  -4  11   3    1.40    4.60
   4 -11  -3    4.90    2.20
   4 -11  -3    4.90    2.20
   4 -11  -3    3.60    4.00
   4 -11  -3    1.90    4.00
  -5  11   3   84.59    8.60
  -5  11   3   80.19    7.10
   5 -11  -3   91.59    9.50
   5 -11  -3   90.49    9.40
  -6  11   3  124.79    8.50
  -6  11   3  109.59   11.50
   6 -11  -3  124.79   11.60
   6 -11  -3  114.49   11.70
  -7  11   3   34.50    8.30
  -7  11   3   18.80    5.10
   7 -11  -3   29.80    8.40
   6  11   2    4.80    6.90
   5  11   2  108.09    8.40
   5  11   2   89.59    9.50
   5  11   2  108.09    8.40
  -5 -11  -2  104.59   12.50
  -5 -11  -2   89.79   10.90
   4  11   2   48.00    5.40
   4  11   2   49.99    5.10
   4  11   2   47.70    5.90
   4  11   2   49.99    5.10
  -4 -11  -2   45.50    7.20
  -4 -11  -2   48.40    6.70
   3  11   2  109.69    7.40
   3  11   2  105.49    7.80
   3  11   2  121.09    8.80
   3  11   2  125.99    7.10
   3  11   2  125.99    7.10
  -3 -11  -2  115.09    8.70
  -3 -11  -2  129.39   10.10
   2  11   2   42.70    4.80
   2  11   2   41.20    4.80
   2  11   2   42.70    4.80
   2  11   2   43.50    5.60
   2  11   2   43.90    5.30
   2  11   2   42.20    5.30
  -2 -11  -2   41.70    5.50
  -2 -11  -2   41.60    4.80
   1  11   2   35.70    3.40
   1  11   2   35.70    3.40
   1  11   2   39.60    4.40
   1  11   2   46.00    5.80
   1  11   2   39.30    4.80
   1  11   2   35.60    4.30
  -1 -11  -2   33.30    4.50
   0  11   2   41.30    5.00
   0  11   2   38.50    4.70
   0  11   2   37.60    5.10
   0  11   2   38.80    4.50
   0  11   2   38.70    3.40
   0  11   2   39.30    4.50
   0  11   2   38.70    3.40
   0 -11  -2   39.80    4.80
   0 -11  -2   39.90    3.50
   0 -11  -2   34.60    4.20
   0 -11  -2   39.90    3.50
  -1  11   2  136.89    6.20
  -1  11   2  129.69    5.90
  -1  11   2  150.38    8.20
  -1  11   2  142.39    7.60
  -1  11   2  129.69    5.90
  -1  11   2  145.69    6.90
   1 -11  -2  146.89    8.30
   1 -11  -2  138.49    5.90
   1 -11  -2  138.49    5.90
   1 -11  -2  131.89    7.40
   1 -11  -2  129.29    7.70
  -2  11   2   10.80    2.60
  -2  11   2   14.70    2.20
  -2  11   2   12.40    2.40
  -2  11   2   11.60    3.60
  -2  11   2   12.40    2.40
   2 -11  -2   14.70    3.50
   2 -11  -2   14.60    2.30
   2 -11  -2   12.70    3.50
   2 -11  -2   14.60    2.30
  -3  11   2  207.78   10.00
   3 -11  -2  204.58    9.40
   3 -11  -2  211.28    6.70
   3 -11  -2  211.28    6.70
   3 -11  -2  218.58   10.70
   3 -11  -2  203.38   10.60
  -4  11   2   75.59    8.00
  -4  11   2   76.49    6.60
   4 -11  -2   68.89    6.80
   4 -11  -2   69.29    7.90
   4 -11  -2   72.19    8.10
  -5  11   2   61.29    6.60
  -5  11   2   66.49    7.80
   5 -11  -2   64.69    7.90
   5 -11  -2   65.79    7.60
  -6  11   2   41.80    7.90
  -6  11   2   30.70    5.60
   6 -11  -2   33.70    8.00
   6 -11  -2   26.50    6.70
  -7  11   2  158.18   10.10
  -7  11   2  189.28   14.70
   7 -11  -2  152.98   14.70
   6  11   1   19.60    6.50
   6  11   1   29.90    5.60
   6  11   1   14.10    7.00
   6  11   1   29.90    5.60
  -6 -11  -1   20.70    7.70
  -6 -11  -1   37.10    8.30
   5  11   1    5.10    4.40
   5  11   1   13.80    4.50
   5  11   1    7.00    4.00
   5  11   1    7.00    4.00
   5  11   1    0.00    5.10
  -5 -11  -1    3.60    5.90
  -5 -11  -1    2.40    5.90
   4  11   1   33.00    5.80
   4  11   1   26.80    4.10
   4  11   1   33.10    4.60
   4  11   1   26.80    4.10
   4  11   1   30.90    4.30
  -4 -11  -1   33.00    5.30
  -4 -11  -1   34.10    6.40
  -4 -11  -1   32.00    5.70
   3  11   1  163.58    9.60
   3  11   1  162.28    8.00
   3  11   1  165.38    8.30
   3  11   1  156.58    7.40
   3  11   1  156.58    7.40
  -3 -11  -1  161.88    9.70
  -3 -11  -1  154.08    8.30
   2  11   1   68.19    5.60
   2  11   1   61.89    4.90
   2  11   1   63.69    6.80
   2  11   1   61.89    4.90
   2  11   1   72.89    6.00
   2  11   1   69.69    7.00
  -2 -11  -1   75.69    6.60
   1  11   1  363.96   13.00
   1  11   1  353.56   10.80
   1  11   1  353.96   10.80
   1  11   1  346.07   12.30
   1  11   1  355.66   12.70
   1  11   1  359.16   12.60
  -1 -11  -1  355.66   12.30
   0  11   1   59.19    4.10
   0  11   1   71.69    6.00
   0  11   1   59.19    4.10
   0  11   1   57.59    5.90
   0  11   1   63.59    4.60
   0  11   1   50.69    6.30
   0  11   1   53.19    5.00
   0  11   1   63.59    4.60
   0 -11  -1   59.19    5.90
   0 -11  -1   54.39    5.20
   0 -11  -1   61.49    6.00
  -1  11   1  639.84   19.20
  -1  11   1  649.14   18.00
  -1  11   1  616.44   16.20
  -1  11   1  616.44   16.20
  -1  11   1  647.84   16.40
  -1  11   1  640.34   17.50
  -1  11   1  647.84   16.40
   1 -11  -1  634.44   19.80
   1 -11  -1  635.34   18.70
   1 -11  -1  654.63   19.30
  -2  11   1  726.13   17.80
  -2  11   1  720.23   19.20
  -2  11   1  764.92   21.70
  -2  11   1  727.53   18.70
  -2  11   1  717.23   17.90
  -2  11   1  717.23   17.90
  -2  11   1  726.13   17.80
   2 -11  -1  722.73   21.60
   2 -11  -1  726.33   21.20
   2 -11  -1  723.83   22.30
  -3  11   1   46.80    2.50
  -3  11   1   44.40    7.80
  -3  11   1   36.60    3.10
  -3  11   1   46.80    2.50
   3 -11  -1   41.00    5.80
   3 -11  -1   50.89    6.30
   3 -11  -1   37.60    4.70
  -4  11   1    2.50    4.00
   4 -11  -1    3.70    3.60
   4 -11  -1    3.90    4.10
   4 -11  -1   -1.10    4.10
  -5  11   1   23.30    6.00
  -5  11   1   24.40    4.80
   5 -11  -1   29.40    5.10
   5 -11  -1   29.80    5.80
   5 -11  -1   28.80    5.60
  -6  11   1   -2.40    6.60
  -6  11   1    5.90    4.30
   6 -11  -1    7.20    6.10
   6 -11  -1    9.70    6.00
  -7  11   1  114.39    9.20
   6  11   0    5.40    4.20
   6  11   0   13.90    5.80
   6  11   0    9.00    5.50
   6  11   0    5.40    4.20
  -6 -11   0    5.20    6.90
   5  11   0   15.20    6.30
   5  11   0   18.40    4.20
   5  11   0   18.40    4.20
   5  11   0   19.50    4.80
   5  11   0    7.90    4.80
  -5 -11   0   18.30    5.80
  -5 -11   0   15.00    5.40
   4  11   0   55.79    5.60
   4  11   0   55.79    5.60
   4  11   0   62.69    5.60
   4  11   0   48.00    6.20
   4  11   0   67.19    6.20
  -4 -11   0   66.79    6.30
   3  11   0  137.69    6.80
   3  11   0  137.69    6.80
   3  11   0  126.59    7.00
   3  11   0  130.69    6.90
  -3 -11   0  123.39    9.20
  -3 -11   0  135.99    8.00
   2  11   0  528.35   15.90
   2  11   0  517.35   16.10
   2  11   0  555.14   17.60
   2  11   0  550.34   17.90
   2  11   0  528.55   15.10
   2  11   0  528.55   15.10
  -2 -11   0  550.24   16.70
   1  11   0  138.19    8.40
   1  11   0  140.59    5.80
   1  11   0  142.19    7.50
   1  11   0  140.59    5.80
   1  11   0  145.39    7.60
   1  11   0  148.59    7.10
  -1 -11   0  146.89    7.90
   0  11   0    0.30    1.60
   0  11   0   -0.20    2.50
   0  11   0   -0.20    2.20
   0  11   0    6.60    3.60
   0  11   0    0.30    1.60
   0  11   0   -0.20    2.20
   0  11   0    3.50    3.30
   0 -11   0    0.00    2.40
   0 -11   0   -1.50    3.40
   0 -11   0    6.10    3.30
  -1  11   0  148.79    5.00
  -1  11   0  148.89    5.00
  -1  11   0  125.99    5.00
  -1  11   0  142.49    7.70
  -1  11   0  140.59    8.10
  -1  11   0  144.69    6.50
  -1  11   0  125.99    5.00
   1 -11   0  143.19    7.60
   1 -11   0  146.29    7.90
   1 -11   0  144.69    8.20
  -2  11   0  523.85   12.80
  -2  11   0  523.85   12.80
  -2  11   0  520.35   15.40
  -2  11   0  516.35   12.70
  -2  11   0  516.35   12.70
  -2  11   0  536.95   17.30
  -2  11   0  541.15   14.50
   2 -11   0  522.45   17.90
   2 -11   0  532.85   17.00
   2 -11   0  531.75   16.80
  -3  11   0  134.39    5.50
  -3  11   0  131.29    8.40
   3 -11   0  131.99    9.00
   3 -11   0  126.99    7.50
   3 -11   0  131.89   10.00
  -4  11   0   55.49    6.40
   4 -11   0   47.60    5.60
   4 -11   0   52.39    6.70
   4 -11   0   57.29    6.40
  -5  11   0   16.90    5.90
   5 -11   0   12.80    4.40
   5 -11   0    7.60    5.50
   5 -11   0   13.10    5.30
  -6  11   0  -10.90    5.90
  -6  11   0    1.80    4.40
   6 -11   0    7.30    6.40
   6 -11   0    2.90    6.70
  -7 -11   1  100.09   11.30
   6  11  -1   -5.90    4.30
   6  11  -1   -6.10    5.20
   6  11  -1    9.90    6.10
   6  11  -1   -5.90    4.30
  -6 -11   1    9.40    6.70
   5  11  -1   27.00    6.20
   5  11  -1   42.50    4.70
   5  11  -1   42.50    4.70
   5  11  -1   29.00    4.90
  -5 -11   1   31.70    6.50
  -5 -11   1   34.50    5.60
   4  11  -1   -0.50    3.00
   4  11  -1   -3.70    3.80
   4  11  -1    5.20    3.00
   4  11  -1   -0.50    3.00
   4  11  -1    0.90    2.70
  -4 -11   1   -2.50    4.30
  -4 -11   1    0.40    4.00
   3  11  -1   44.80    4.80
   3  11  -1   42.70    3.90
   3  11  -1   42.70    3.90
   3  11  -1   39.50    5.40
   3  11  -1   49.99    5.00
  -3 -11   1   42.40    6.20
  -3 -11   1   43.60    5.60
   2  11  -1  743.03   19.30
   2  11  -1  688.33   20.80
   2  11  -1  725.83   20.40
   2  11  -1  743.03   19.30
   2  11  -1  710.13   19.80
   2  11  -1  721.23   21.70
   2  11  -1  763.72   22.50
  -2 -11   1  731.93   21.20
   1  11  -1  660.83   18.10
   1  11  -1  656.13   16.90
   1  11  -1  609.94   17.00
   1  11  -1  616.54   18.50
   1  11  -1  665.43   20.20
   1  11  -1  656.13   16.90
   1  11  -1  609.94   17.00
   1  11  -1  647.14   19.20
  -1 -11   1  664.63   19.00
  -1 -11   1  636.04   19.10
   0  11  -1   54.39    3.40
   0  11  -1   57.19    4.00
   0  11  -1   57.19    4.00
   0  11  -1   60.29    6.40
   0  11  -1   54.49    3.40
   0  11  -1   49.80    6.40
   0  11  -1   57.89    5.20
   0 -11   1   64.09    6.20
   0 -11   1   61.09    5.00
   0 -11   1   57.39    6.10
  -1  11  -1  333.47   12.80
  -1  11  -1  343.37    9.00
  -1  11  -1  348.57    9.00
  -1  11  -1  343.37    9.00
  -1  11  -1  348.57    9.00
  -1  11  -1  349.67   11.30
  -1  11  -1  337.67   13.00
   1 -11   1  360.86   13.50
   1 -11   1  338.07   12.70
   1 -11   1  350.36   12.10
  -2  11  -1   69.59    7.10
  -2  11  -1   50.39    6.50
  -2  11  -1   75.99    4.80
   2 -11   1   66.69    9.70
   2 -11   1   66.79    6.00
   2 -11   1   74.69    6.40
  -3  11  -1  157.18    9.20
  -3  11  -1  159.68    6.70
   3 -11   1  158.48    9.20
   3 -11   1  145.49    8.70
   3 -11   1  160.98   10.00
  -4  11  -1   33.20    4.40
  -4  11  -1   32.60    5.80
   4 -11   1   30.90    5.10
   4 -11   1   38.70    6.20
   4 -11   1   33.30    5.60
  -5  11  -1    3.30    5.20
   5 -11   1    6.40    5.50
   5 -11   1    4.80    5.80
   5 -11   1    8.30    4.60
  -6  11  -1   15.50    6.90
  -6  11  -1   26.30    7.00
   6 -11   1   24.70    6.80
   6 -11   1   28.30    7.40
   6 -11   1   19.70    8.00
  -7 -11   2  126.29   14.50
   6  11  -2   34.90    6.80
   6  11  -2   20.70    4.60
   6  11  -2   24.90    6.50
   6  11  -2   20.70    4.60
  -6 -11   2   30.70    6.50
  -6 -11   2   34.20    7.50
   5  11  -2   50.19    4.70
   5  11  -2   50.19    4.80
   5  11  -2   54.19    6.70
   5  11  -2   55.59    5.40
  -5 -11   2   72.29    8.50
  -5 -11   2   59.79    6.70
   4  11  -2   75.29    7.90
   4  11  -2   54.99    5.50
   4  11  -2   54.99    5.50
   4  11  -2   72.19    4.80
   4  11  -2   62.79    5.70
  -4 -11   2   65.49    6.50
  -4 -11   2   64.59    8.30
   3  11  -2  203.88    7.90
   3  11  -2  222.38    8.10
   3  11  -2  205.18   11.00
   3  11  -2  203.98    7.90
   3  11  -2  202.38    9.40
   3  11  -2  218.88    7.90
   3  11  -2  191.68    9.70
  -3 -11   2  183.78   12.30
  -3 -11   2  220.18   10.00
   2  11  -2   22.50    3.80
   2  11  -2   13.80    4.60
   2  11  -2   11.40    2.30
   2  11  -2   12.80    3.50
   2  11  -2   17.60    3.30
   2  11  -2   16.00    2.60
   2  11  -2   13.20    4.70
   2  11  -2   11.40    2.30
  -2 -11   2    7.80    3.80
  -2 -11   2   17.10    3.40
   1  11  -2  142.09    5.40
   1  11  -2  142.09    5.40
   1  11  -2  140.49    7.70
   1  11  -2  144.79    8.80
   1  11  -2  147.89    6.60
   1  11  -2  132.09    6.20
   1  11  -2  132.09    6.20
   1  11  -2  137.19    7.30
  -1 -11   2  136.59    8.10
  -1 -11   2  143.09    7.70
   0  11  -2   36.70    3.00
   0  11  -2   38.90    4.90
   0  11  -2   38.00    2.90
   0  11  -2   38.00    2.90
   0  11  -2   48.80    6.10
   0  11  -2   36.70    3.00
   0  11  -2   39.10    5.30
   0 -11   2   37.70    4.90
   0 -11   2   38.50    4.60
   0 -11   2   43.10    5.00
  -1  11  -2   35.70    2.30
  -1  11  -2   34.50    4.60
  -1  11  -2   38.80    2.20
  -1  11  -2   38.80    2.20
  -1  11  -2   38.90    4.40
  -1  11  -2   35.70    2.30
   1 -11   2   39.80    5.00
   1 -11   2   36.90    4.80
   1 -11   2   38.00    4.90
  -2  11  -2   39.00    4.50
  -2  11  -2   37.00    4.90
   2 -11   2   59.09    6.90
   2 -11   2   39.40    5.90
   2 -11   2   44.60    5.70
   2 -11   2   40.10    5.80
  -3  11  -2  108.79    8.30
  -3  11  -2  130.09    6.60
   3 -11   2  117.99    8.50
   3 -11   2  115.59    8.50
   3 -11   2  126.19    9.90
  -4  11  -2   51.09    5.60
  -4  11  -2   50.89    6.70
   4 -11   2   40.80    5.80
   4 -11   2   46.50    7.30
   4 -11   2   51.39    6.60
  -5  11  -2   93.89   10.30
   5 -11   2   98.39    8.50
   5 -11   2   98.19   11.00
   5 -11   2  109.49   12.00
  -6  11  -2   15.60    5.00
   6 -11   2    2.70    6.90
   6 -11   2    7.20    5.80
  -7 -11   3   29.50    8.90
  -7 -11   3   38.20    7.70
   6  11  -3  117.59    8.30
   6  11  -3  117.59    8.30
   6  11  -3  134.69   11.30
  -6 -11   3  100.49   10.00
  -6 -11   3  122.79   12.50
   5  11  -3   81.49    6.70
   5  11  -3   92.79    8.00
   5  11  -3   96.19    9.30
   5  11  -3   81.49    6.70
  -5 -11   3   86.19   10.30
  -5 -11   3   80.99    8.70
   4  11  -3    7.30    3.00
   4  11  -3   13.50    4.50
   4  11  -3    7.30    3.00
   4  11  -3    7.90    2.90
   4  11  -3    5.00    2.40
  -4 -11   3    1.20    4.30
  -4 -11   3   10.20    4.70
   3  11  -3  221.38    7.60
   3  11  -3  224.88    8.20
   3  11  -3  228.08   10.90
   3  11  -3  224.98    8.20
   3  11  -3  223.08   11.90
   3  11  -3  232.68    8.50
  -3 -11   3  224.38   11.80
  -3 -11   3  205.38   10.30
   2  11  -3  528.95   14.30
   2  11  -3  528.95   14.30
   2  11  -3  531.85   18.40
   2  11  -3  457.95   16.20
   2  11  -3  495.75   14.60
   2  11  -3  530.75   14.10
   2  11  -3  544.55   17.40
  -2 -11   3  534.55   17.20
  -2 -11   3  546.65   15.80
   1  11  -3  110.39    5.40
   1  11  -3  111.09    6.40
   1  11  -3  104.19    5.80
   1  11  -3  100.69    4.70
   1  11  -3  104.19    5.80
   1  11  -3   88.39   10.60
   1  11  -3  110.19    7.20
   1  11  -3  100.59    4.70
  -1 -11   3  119.69    7.30
  -1 -11   3  110.39    7.90
   0  11  -3  395.66   10.10
   0  11  -3  392.96   14.80
   0  11  -3  372.36   10.50
   0  11  -3  395.66   10.10
   0  11  -3  372.46   10.50
   0  11  -3  373.66   13.00
   0  11  -3  382.56   12.30
   0 -11   3  399.76   14.10
   0 -11   3  393.76   12.00
   0 -11   3  384.36   13.90
  -1  11  -3  119.39    8.30
  -1  11  -3  102.59    6.50
  -1  11  -3   90.89    7.80
   1 -11   3  105.59    6.40
   1 -11   3   92.69    8.10
   1 -11   3   95.39    7.50
  -2  11  -3  340.17   11.60
  -2  11  -3  349.27   13.90
   2 -11   3  339.07   12.50
   2 -11   3  330.17   13.40
   2 -11   3  336.07   14.50
  -3  11  -3  158.28    9.70
  -3  11  -3  149.49    7.90
   3 -11   3  150.88   11.00
   3 -11   3  132.29    9.90
   3 -11   3  147.59    9.10
  -4  11  -3  151.58    8.50
  -4  11  -3  144.79   10.60
   4 -11   3  137.49    9.70
   4 -11   3  150.68   10.80
   4 -11   3  155.08   12.20
  -5  11  -3    3.10    5.90
   5 -11   3   -1.80    5.10
   5 -11   3    6.60    6.20
   5 -11   3   10.30    7.10
  -7 -11   4   67.29    8.50
  -7 -11   4   57.49    9.90
   6  11  -4   25.10    4.80
   6  11  -4   40.10    7.50
   6  11  -4   25.10    4.80
  -6 -11   4   41.60    8.20
  -6 -11   4   26.90    6.20
   5  11  -4   38.50    6.30
   5  11  -4   32.60    4.30
   5  11  -4   32.60    4.30
  -5 -11   4   22.30    6.70
  -5 -11   4   33.20    6.10
   4  11  -4  151.48    7.20
   4  11  -4  151.48    7.20
   4  11  -4  134.19    9.90
  -4 -11   4  125.69    9.20
  -4 -11   4  127.39   10.60
   3  11  -4   10.50    2.90
   3  11  -4    7.60    2.90
   3  11  -4    8.50    2.90
   3  11  -4    7.60    2.90
   3  11  -4    4.00    4.10
   3  11  -4    9.50    4.70
  -3 -11   4    4.30    4.50
  -3 -11   4    2.60    4.10
   2  11  -4   57.09    4.40
   2  11  -4   57.09    4.40
   2  11  -4   53.39    6.10
   2  11  -4   57.29    7.30
   2  11  -4   60.39    7.60
  -2 -11   4   61.59    5.90
  -2 -11   4   60.19    6.40
   1  11  -4   40.80    4.00
   1  11  -4   50.89    3.50
   1  11  -4   50.59    6.20
   1  11  -4   49.40    3.70
   1  11  -4   50.89    3.50
   1  11  -4   47.80    6.10
   1  11  -4   40.80    4.00
  -1 -11   4   42.50    4.90
  -1 -11   4   35.00    5.50
   0  11  -4   24.30    4.00
   0  11  -4   34.50    5.50
   0  11  -4   24.80    2.10
   0  11  -4   24.70    2.10
   0 -11   4   31.10    3.30
   0 -11   4   27.70    5.20
   0 -11   4   25.30    4.60
  -1  11  -4   59.39    5.80
  -1  11  -4   58.89    7.50
   1 -11   4   52.99   10.10
   1 -11   4   48.40    5.70
   1 -11   4   52.09    5.40
  -2  11  -4  105.29    9.00
  -2  11  -4  113.79    7.50
   2 -11   4  113.99    8.80
   2 -11   4  112.69    7.90
   2 -11   4  113.59   10.00
  -3  11  -4   20.90    5.30
  -3  11  -4   20.30    4.50
   3 -11   4   23.60    6.80
   3 -11   4   15.50    5.20
  -4  11  -4   21.10    6.40
  -4  11  -4   24.10    6.40
   4 -11   4   29.70    6.20
   4 -11   4   19.30    6.00
   4 -11   4   28.60    7.80
   5 -11   4  129.99   13.10
  -7 -11   5   28.80    7.40
   6  11  -5   35.50    7.30
   6  11  -5   40.80    5.30
   6  11  -5   40.80    5.30
  -6 -11   5   49.00    8.60
  -6 -11   5   38.80    7.20
   5  11  -5  142.99    7.80
   5  11  -5  145.39   11.20
   5  11  -5  142.99    7.80
  -5 -11   5  152.38   10.20
  -5 -11   5  138.69   12.00
   4  11  -5   32.40    3.90
   4  11  -5   32.40    3.90
   4  11  -5   33.20    6.10
  -4 -11   5   31.40    5.90
  -4 -11   5   34.60    6.90
   3  11  -5    1.80    2.80
   3  11  -5   15.00    4.70
   3  11  -5    1.80    2.80
   3  11  -5   15.40    5.40
  -3 -11   5    9.70    3.20
  -3 -11   5    7.10    5.40
  -3 -11   5    5.80    4.50
   2  11  -5  106.39    9.30
   2  11  -5   99.39    7.80
   2  11  -5   83.29    5.00
   2  11  -5   83.29    5.00
  -2 -11   5   90.29    7.00
  -2 -11   5   98.79    8.30
   1  11  -5   81.09    4.20
   1  11  -5   76.29    7.10
   1  11  -5   81.09    4.20
   1  11  -5   93.29    8.20
  -1 -11   5   76.79    7.80
  -1 -11   5   86.09    7.40
   0  11  -5   41.50    5.20
   0  11  -5   45.80    3.30
   0  11  -5   45.90    6.10
   0  11  -5   45.80    3.30
   0 -11   5   51.39    6.10
   0 -11   5   33.40    4.30
   0 -11   5   40.30    5.80
  -1  11  -5   90.79    8.70
  -1  11  -5   97.39    7.20
   1 -11   5  100.99    9.70
   1 -11   5   90.29    6.60
   1 -11   5   86.39    7.70
  -2  11  -5  115.49    8.10
  -2  11  -5  106.19    9.50
   2 -11   5  106.49    8.30
   2 -11   5  109.19    8.90
   2 -11   5  108.99   11.20
  -3  11  -5   70.39    8.50
  -3  11  -5   61.39    7.20
   3 -11   5   96.49   11.30
   3 -11   5   93.09    9.00
   3 -11   5   74.89    7.90
  -4  11  -5  139.59   11.50
  -4  11  -5  128.79   12.80
   4 -11   5  153.98   11.10
   4 -11   5  169.88   14.60
   4 -11   5  144.69   12.30
   6  11  -6  142.39   13.10
   6  11  -6  129.79    9.40
   6  11  -6  129.79    9.40
  -6 -11   6  139.89   11.60
  -6 -11   6  131.09   13.70
   5  11  -6  202.18    9.60
   5  11  -6  202.18    9.60
   5  11  -6  218.18   13.30
  -5 -11   6  220.88   12.00
  -5 -11   6  204.58   14.10
   4  11  -6    3.40    5.00
   4  11  -6   10.90    3.40
   4  11  -6   10.90    3.40
  -4 -11   6   14.40    5.50
  -4 -11   6   13.40    5.80
   3  11  -6    7.40    2.90
   3  11  -6    7.20    5.70
   3  11  -6    7.40    2.90
   3  11  -6    7.10    4.50
  -3 -11   6    0.40    4.30
   2  11  -6  120.69    9.00
   2  11  -6  116.49   10.40
   2  11  -6  127.59    6.00
   2  11  -6  127.59    6.00
  -2 -11   6  147.89    9.40
  -2 -11   6  126.39    8.10
   1  11  -6   15.30    5.10
   1  11  -6   26.90    4.70
   1  11  -6   21.80    2.70
   1  11  -6   21.80    2.70
  -1 -11   6   17.20    4.60
  -1 -11   6   15.00    4.70
   0  11  -6  110.79    9.90
   0  11  -6  134.19    8.50
   0 -11   6  120.49    8.70
   0 -11   6  120.79   10.10
  -1  11  -6  366.56   15.50
  -1  11  -6  345.87   13.60
   1 -11   6  341.07   14.60
   1 -11   6  369.96   16.10
  -2  11  -6   29.20    6.70
  -2  11  -6   36.20    5.80
   2 -11   6   34.80    7.10
   2 -11   6   26.50    6.10
  -3  11  -6   29.10    6.30
  -3  11  -6   34.50    7.40
   3 -11   6   23.70    6.60
   3 -11   6   32.00    7.90
   6  11  -7   61.29    6.20
   6  11  -7   89.59   10.30
   6  11  -7   61.29    6.20
  -6 -11   7   66.69   10.40
  -6 -11   7   74.29    8.30
   5  11  -7   50.89    5.70
   5  11  -7   50.89    5.70
   5  11  -7   51.79    7.80
  -5 -11   7   53.69    7.50
  -5 -11   7   67.29    9.70
   4  11  -7   93.99    6.90
   4  11  -7   93.89    6.90
   4  11  -7   93.09   11.00
   4  11  -7   97.59    9.80
  -4 -11   7   82.09    9.70
  -4 -11   7   85.59    8.80
   3  11  -7   10.40    3.30
   3  11  -7    3.20    4.70
   3  11  -7   -2.90    5.80
   3  11  -7   10.40    3.30
  -3 -11   7    7.40    5.00
   2  11  -7   49.10    4.10
   2  11  -7   46.00    6.50
   2  11  -7   49.10    4.10
   2  11  -7   38.10    7.00
  -2 -11   7   45.70    6.10
  -2 -11   7   44.90    6.60
   1  11  -7   77.49    8.20
   1  11  -7   75.69    8.40
  -1 -11   7   64.19    7.10
  -1 -11   7   71.59    9.00
   0  11  -7   54.39    6.30
   0  11  -7   47.30    7.30
   0 -11   7   48.70    6.80
   0 -11   7   57.89    7.70
  -1  11  -7   59.59    6.80
  -1  11  -7   56.29    8.00
   1 -11   7   46.50    7.00
   1 -11   7   70.49    8.80
  -2  11  -7   52.19    8.20
  -2  11  -7   68.19    7.80
   2 -11   7   60.89    9.10
   2 -11   7   72.19    8.40
   5  11  -8    3.30    6.70
   5  11  -8    5.10    4.60
   5  11  -8    5.10    4.60
  -5 -11   8    0.70    5.80
  -5 -11   8   16.80    8.20
   4  11  -8   20.70    4.20
   4  11  -8   18.50    6.40
   4  11  -8   20.70    4.20
   4  11  -8   24.00    7.60
   3  11  -8    1.00    3.70
   3  11  -8    3.40    5.40
   3  11  -8    4.50    6.80
   3  11  -8    1.00    3.70
  -3 -11   8    1.30    5.30
   2  11  -8    4.50    5.20
   2  11  -8   21.80    6.80
  -2 -11   8    8.00    5.40
   1  11  -8   -3.70    4.70
   1  11  -8   17.50    6.50
  -1 -11   8    7.40    5.70
  -1 -11   8    4.70    6.50
   0  11  -8   41.60    7.30
   0  11  -8   40.80    6.30
   0 -11   8   34.20    7.30
   0 -11   8   35.60    7.70
  -1  11  -8   37.00    7.90
  -1  11  -8   42.20    7.20
   1 -11   8   35.10    7.90
   1 -11   8   48.30    8.90
   4  11  -9   12.50    8.80
   4  11  -9   11.70    5.30
   4  11  -9   11.70    5.30
  -4 -11   9    1.20    5.50
   3  11  -9   -2.30    5.70
   3  11  -9   -3.30    7.80
  -3 -11   9    7.40    5.60
   2  11  -9   19.00    8.60
   2  11  -9   21.80    5.50
  -2 -11   9   18.20    6.00
   1  11  -9   -9.80    5.30
   1  11  -9   -8.90    7.00
  -1 -11   9   -2.90    5.50
  -1  12   8  144.59   11.70
  -1  12   8  134.19    9.40
   1 -12  -8  126.19   10.40
   1 -12  -8  126.19   10.40
  -2  12   8   -0.40    5.60
  -2  12   8    2.40    4.90
   2 -12  -8   -3.70    5.20
   2 -12  -8   -3.70    5.20
  -3  12   8  148.29    9.90
  -3  12   8  140.99   12.50
   3 -12  -8  145.89   10.90
   3 -12  -8  145.89   10.90
  -4  12   8  142.49   10.80
  -4  12   8  176.78   19.90
   4 -12  -8  147.29   10.70
   4 -12  -8  147.29   10.70
   1  12   7   13.10    6.00
  -1 -12  -7   18.40    6.00
  -1 -12  -7   18.40    6.00
  -1 -12  -7   15.60    6.90
   0  12   7  100.99    9.80
   0  12   7   83.39   10.60
   0 -12  -7   94.49   10.80
   0 -12  -7   92.29    8.90
   0 -12  -7   92.29    8.90
  -1  12   7    7.30    5.00
  -1  12   7   13.90    5.10
  -1  12   7    9.40    5.10
   1 -12  -7    8.40    4.80
   1 -12  -7    8.40    4.80
  -2  12   7   18.90    5.20
  -2  12   7    7.30    5.80
  -2  12   7   17.40    5.50
   2 -12  -7   17.90    5.30
   2 -12  -7   17.90    5.30
  -3  12   7   75.49    8.60
  -3  12   7   70.99    7.70
   3 -12  -7   83.89    6.70
   3 -12  -7   83.79    6.70
   3 -12  -7   82.69    9.40
  -4  12   7   43.40    6.10
  -4  12   7   33.70    6.90
   4 -12  -7   35.50    5.40
   4 -12  -7   26.60    5.90
   4 -12  -7   35.50    5.40
  -5  12   7    4.00    4.80
  -5  12   7    6.40    6.90
   2  12   6    9.70    6.00
   2  12   6   19.90    5.80
  -2 -12  -6   16.10    5.60
  -2 -12  -6   16.10    5.60
  -2 -12  -6   30.80    7.10
   1  12   6   63.49    7.30
   1  12   6   53.89    6.30
  -1 -12  -6   60.69    6.20
  -1 -12  -6   60.69    6.20
  -1 -12  -6   66.09    7.70
   0  12   6    4.70    5.00
   0  12   6    2.80    4.60
   0  12   6   11.30    4.70
   0 -12  -6   -1.20    4.80
   0 -12  -6   10.60    4.50
   0 -12  -6   10.60    4.50
  -1  12   6   30.30    5.60
  -1  12   6   27.90    4.90
  -1  12   6   38.90    6.30
   1 -12  -6   34.80    4.90
   1 -12  -6   34.80    4.90
   1 -12  -6   32.00    8.20
  -2  12   6   14.30    5.00
  -2  12   6    9.40    4.20
  -2  12   6   10.90    5.10
   2 -12  -6   13.30    4.70
   2 -12  -6   11.60    4.30
   2 -12  -6   11.60    4.30
  -3  12   6   17.00    4.30
  -3  12   6   16.70    5.50
   3 -12  -6   19.70    4.30
   3 -12  -6   22.70    5.40
   3 -12  -6   19.70    4.30
  -4  12   6   89.99   10.20
  -4  12   6   63.09    6.70
  -4  12   6   64.29    8.10
   4 -12  -6   74.59    7.30
   4 -12  -6   74.49    7.30
   4 -12  -6   58.29    7.50
  -5  12   6  127.39   12.10
  -5  12   6  123.39   12.00
  -5  12   6  135.19   14.90
   5 -12  -6  124.19   12.20
  -6  12   6   25.10    8.20
  -6  12   6   29.90    5.90
   3  12   5   41.50    5.80
   3  12   5   44.50    6.90
   3  12   5   41.50    5.80
   3  12   5   57.49    7.30
  -3 -12  -5   43.80    8.00
   2  12   5   44.50    5.30
   2  12   5   59.09    6.60
   2  12   5   44.40    5.30
   2  12   5   45.10    6.10
  -2 -12  -5   56.69    6.20
  -2 -12  -5   60.79    8.00
  -2 -12  -5   56.69    6.20
   1  12   5  110.49    9.40
   1  12   5  114.79    7.80
   1  12   5  128.49    9.10
  -1 -12  -5  118.89    8.30
  -1 -12  -5  119.19    8.30
  -1 -12  -5  108.29   10.00
   0  12   5    4.60    4.20
   0  12   5    6.60    4.40
   0  12   5    4.40    4.40
   0 -12  -5    9.70    4.80
   0 -12  -5    5.90    3.70
   0 -12  -5    5.90    3.70
  -1  12   5   72.19    8.00
  -1  12   5   57.79    6.50
  -1  12   5   73.19    6.90
  -1  12   5   69.19    6.80
  -1  12   5   65.49    6.50
   1 -12  -5   64.69    6.10
   1 -12  -5   64.69    6.10
  -2  12   5   30.50    5.80
  -2  12   5   34.50    5.20
  -2  12   5   36.50    5.50
   2 -12  -5   29.60    5.10
   2 -12  -5   35.90    4.70
   2 -12  -5   36.00    4.70
  -3  12   5   29.80    5.80
  -3  12   5   20.30    5.30
  -3  12   5   14.30    4.40
   3 -12  -5   20.50    3.90
   3 -12  -5   20.50    3.90
   3 -12  -5   20.60    5.00
  -4  12   5    2.70    6.90
  -4  12   5   11.20    5.50
  -4  12   5    3.50    4.20
   4 -12  -5    3.80    3.50
   4 -12  -5    3.80    3.50
   4 -12  -5   -0.70    4.90
  -5  12   5   96.39   10.70
  -5  12   5  110.09   12.30
  -5  12   5   96.99    8.10
   5 -12  -5   87.49    9.10
   5 -12  -5   99.09   10.90
  -6  12   5   -4.00    7.10
  -6  12   5    1.60    4.20
   6 -12  -5   11.10    7.70
   4  12   4   43.50    7.40
   4  12   4   53.69    7.80
   4  12   4   37.20    6.50
   4  12   4   43.50    7.40
  -4 -12  -4   48.70    9.00
   3  12   4    2.20    4.60
   3  12   4   -3.80    4.70
   3  12   4    4.30    4.20
   3  12   4    4.30    4.20
  -3 -12  -4   -1.20    6.00
   2  12   4  105.89    8.80
   2  12   4  112.49    7.70
   2  12   4  104.59    8.60
   2  12   4  112.49    7.70
  -2 -12  -4  112.09   10.20
   1  12   4   83.39    7.80
   1  12   4   88.49    7.90
   1  12   4   93.19    7.10
   1  12   4   99.49    7.30
  -1 -12  -4   91.29    7.10
  -1 -12  -4   91.29    7.10
  -1 -12  -4   80.69    6.90
  -1 -12  -4   75.19    8.60
   0  12   4  224.78    9.80
   0  12   4  228.68   11.20
   0  12   4  224.28    9.70
   0  12   4  224.78   11.00
   0  12   4  227.58   10.20
   0 -12  -4  223.08    9.30
   0 -12  -4  224.88    9.60
   0 -12  -4  223.08    9.30
  -1  12   4   98.69    6.50
  -1  12   4  102.69    7.10
  -1  12   4  100.79    7.10
  -1  12   4   95.69    8.20
  -1  12   4  107.89    8.40
   1 -12  -4  114.79    6.50
   1 -12  -4  105.19    7.90
   1 -12  -4   87.99    6.90
   1 -12  -4  114.79    6.50
  -2  12   4   42.30    5.80
  -2  12   4   46.40    5.40
  -2  12   4   45.70    5.30
   2 -12  -4   39.50    3.80
   2 -12  -4   39.50    3.80
   2 -12  -4   32.40    4.90
   2 -12  -4   47.30    5.30
  -3  12   4   81.19    8.30
  -3  12   4   82.99    6.90
  -3  12   4   86.59    9.00
   3 -12  -4   86.19    8.60
   3 -12  -4   82.39    5.70
   3 -12  -4   82.39    5.70
   3 -12  -4   83.59    8.70
  -4  12   4    6.90    5.20
  -4  12   4    1.20    4.10
   4 -12  -4    9.50    4.80
   4 -12  -4   -0.40    3.20
   4 -12  -4   -0.40    3.20
   4 -12  -4    8.40    5.10
  -5  12   4  243.98   11.60
  -5  12   4  245.18   14.50
   5 -12  -4  282.07   14.80
   5 -12  -4  252.87   14.70
  -6  12   4   49.90    6.20
  -6  12   4   71.19    9.60
   6 -12  -4   63.49    9.50
   6 -12  -4   57.29    8.50
   5  12   3   34.70    7.50
  -5 -12  -3   46.30    9.80
   4  12   3   83.49    7.20
   4  12   3   83.49    7.20
   4  12   3   88.79    9.30
   4  12   3   83.89    9.40
  -4 -12  -3  105.79   12.40
   3  12   3  303.67   13.40
   3  12   3  342.77   14.00
   3  12   3  311.37   12.00
   3  12   3  311.47   12.00
   3  12   3  338.47   13.10
  -3 -12  -3  346.57   15.80
   2  12   3    5.80    4.30
   2  12   3    7.50    3.70
   2  12   3    6.70    3.40
   2  12   3   -0.40    4.30
   2  12   3    6.70    3.40
   2  12   3   12.60    4.40
  -2 -12  -3   -2.50    4.80
  -2 -12  -3    4.90    4.20
   1  12   3   49.10    5.80
   1  12   3   45.00    5.30
   1  12   3   47.40    4.40
   1  12   3   39.20    5.10
   1  12   3   39.90    5.30
   1  12   3   47.40    4.40
  -1 -12  -3   42.20    4.90
   0  12   3   26.70    4.70
   0  12   3   27.00    4.30
   0  12   3   27.20    4.70
   0  12   3   31.10    4.50
   0 -12  -3   23.50    4.40
   0 -12  -3   25.20    3.70
   0 -12  -3   25.20    3.70
  -1  12   3  157.18    8.50
  -1  12   3  159.58    9.50
  -1  12   3  161.58    7.40
   1 -12  -3  157.18    7.00
   1 -12  -3  150.18    8.20
   1 -12  -3  157.18    7.00
   1 -12  -3  154.08    8.80
  -2  12   3  308.87   13.40
  -2  12   3  323.17   12.40
  -2  12   3  322.77    9.60
   2 -12  -3  313.77   10.10
   2 -12  -3  313.77   10.10
   2 -12  -3  322.37   13.20
   2 -12  -3  317.47   13.60
   2 -12  -3  315.17   12.00
  -3  12   3   31.60    6.10
  -3  12   3   33.60    4.90
   3 -12  -3   28.30    5.10
   3 -12  -3   34.50    5.00
   3 -12  -3   33.50    6.20
   3 -12  -3   32.40    3.30
   3 -12  -3   32.40    3.30
  -4  12   3    2.00    4.10
  -4  12   3    4.40    4.80
   4 -12  -3    7.50    5.00
   4 -12  -3   14.90    5.00
  -5  12   3   18.80    4.70
  -5  12   3   13.60    6.70
   5 -12  -3   33.80    6.60
   5 -12  -3   14.50    6.10
  -6  12   3  205.18   15.60
  -6  12   3  229.78   11.60
   6 -12  -3  227.68   14.70
   6 -12  -3  217.28   14.60
   5  12   2   92.59    8.80
   5  12   2   92.59    8.80
   5  12   2   91.89   10.10
   5  12   2   97.59   11.00
  -5 -12  -2  109.69   12.70
  -5 -12  -2  110.79   11.70
   4  12   2   21.00    4.50
   4  12   2   21.00    4.50
   4  12   2   14.50    4.90
   4  12   2   19.50   12.60
   4  12   2   20.40    4.90
   4  12   2   13.50    5.50
  -4 -12  -2   21.80   11.00
  -4 -12  -2   27.40    7.40
   3  12   2   63.59    5.40
   3  12   2   78.99    9.00
   3  12   2   82.09    7.70
   3  12   2   70.89    7.50
   3  12   2   63.59    5.40
  -3 -12  -2   76.29    7.70
  -3 -12  -2   72.29    9.30
   2  12   2    5.30    2.90
   2  12   2    5.30    2.90
   2  12   2    2.10    3.60
   2  12   2    4.80    3.40
   2  12   2    3.00    4.30
  -2 -12  -2   -2.70    3.90
   1  12   2   83.79    5.70
   1  12   2   77.69    7.50
   1  12   2   92.19    7.10
   1  12   2   83.79    5.70
   1  12   2   83.79    7.50
   1  12   2   85.49    7.50
  -1 -12  -2   76.89    7.10
   0  12   2   16.90    2.80
   0  12   2   16.60    4.00
   0  12   2   13.50    3.40
   0  12   2   16.90    2.80
   0  12   2   12.90    4.40
   0 -12  -2   10.80    4.10
  -1  12   2   49.70    4.60
  -1  12   2   58.99    6.50
  -1  12   2   51.69    4.20
  -1  12   2   47.00    4.90
  -1  12   2   45.90    5.50
  -1  12   2   49.70    4.60
  -1  12   2   51.59    4.20
   1 -12  -2   46.50    5.40
   1 -12  -2   42.60    5.70
   1 -12  -2   40.10    4.80
  -2  12   2   16.10    2.40
  -2  12   2   18.30    2.70
  -2  12   2   13.90    3.90
  -2  12   2   16.10    2.40
   2 -12  -2   17.20    4.10
   2 -12  -2   19.00    4.40
   2 -12  -2   20.20    5.00
  -3  12   2    5.20    2.00
  -3  12   2    7.30    3.90
  -3  12   2    5.20    2.00
   3 -12  -2    7.30    4.30
   3 -12  -2    1.50    3.50
   3 -12  -2    2.50    4.10
  -4  12   2   23.60    4.70
  -4  12   2   25.20    5.90
   4 -12  -2   23.00    5.00
   4 -12  -2   17.00    5.30
   4 -12  -2   30.10    5.70
  -5  12   2   35.80    7.50
  -5  12   2   31.70    5.40
   5 -12  -2   37.90    7.30
   5 -12  -2   34.30    6.20
  -6  12   2  121.39   13.10
  -6  12   2   90.89    8.70
   6 -12  -2  115.09   12.60
   6 -12  -2  104.69   12.80
   5  12   1   33.00    5.40
   5  12   1   16.30    5.70
   5  12   1   33.00    5.40
   5  12   1   33.30    7.30
  -5 -12  -1   16.60    7.00
   4  12   1  114.69   10.00
   4  12   1   93.89    7.50
   4  12   1   93.89    7.50
   4  12   1  101.89    8.60
   4  12   1  107.49    7.80
  -4 -12  -1  120.79   11.00
  -4 -12  -1  115.69    9.10
   3  12   1   52.59    6.50
   3  12   1   38.80    4.30
   3  12   1   36.60    5.80
   3  12   1   38.80    4.30
   3  12   1   47.70    5.30
   3  12   1   48.40    5.30
  -3 -12  -1   50.89    5.90
   2  12   1   62.49    6.50
   2  12   1   61.99    5.30
   2  12   1   67.09    6.00
   2  12   1   61.99    5.30
   2  12   1   59.69    7.20
   2  12   1   67.49    8.10
  -2 -12  -1   64.19    6.10
   1  12   1  330.07   12.30
   1  12   1  299.77   10.30
   1  12   1  327.77   12.90
   1  12   1  320.37   12.30
   1  12   1  299.77   10.30
   1  12   1  324.97   11.90
  -1 -12  -1  321.17   11.90
   0  12   1   73.99    6.70
   0  12   1   83.99    7.30
   0  12   1   89.19    5.00
   0  12   1   89.99    6.10
   0  12   1   96.79    7.40
   0  12   1   89.19    5.00
   0 -12  -1   80.89    6.30
   0 -12  -1   80.19    7.20
   0 -12  -1   76.79    7.00
  -1  12   1   98.69    5.30
  -1  12   1  110.09    4.80
  -1  12   1   85.39    7.20
  -1  12   1  110.09    4.80
  -1  12   1  105.19    5.80
  -1  12   1   98.69    5.30
  -1  12   1  107.29    7.60
   1 -12  -1  105.99    7.40
   1 -12  -1   98.19    7.30
   1 -12  -1   97.39   10.20
  -2  12   1   65.29    3.70
  -2  12   1   65.39    3.70
  -2  12   1   80.69    4.60
   2 -12  -1   83.59    8.00
   2 -12  -1   67.29    6.80
   2 -12  -1   71.79    7.20
  -3  12   1   24.30    4.90
   3 -12  -1   17.00    4.40
   3 -12  -1   15.60    4.70
   3 -12  -1   23.10    5.20
  -4  12   1    7.20    4.90
   4 -12  -1    9.50    5.70
   4 -12  -1    4.30    3.80
   4 -12  -1    6.40    4.60
  -5  12   1    9.70    5.90
  -5  12   1   12.80    4.70
   5 -12  -1   14.00    5.80
   5 -12  -1    5.90    4.60
   5 -12  -1    4.10    5.90
  -6  12   1   47.60    6.50
  -6  12   1   34.80    9.20
   6 -12  -1   29.50    7.80
   6 -12  -1   41.20    8.20
   6  12   0   90.69   11.70
   6  12   0   94.09   11.80
  -6 -12   0   98.39   11.20
   5  12   0   26.50    4.70
   5  12   0   26.50    4.70
   5  12   0   23.30    5.30
   5  12   0   15.40    6.10
  -5 -12   0   21.10    6.70
   4  12   0   -6.00    3.40
   4  12   0   -6.00    3.40
   4  12   0   -3.30    4.80
   4  12   0    0.10    3.20
   4  12   0   -1.80    3.50
  -4 -12   0   -4.00    5.10
  -4 -12   0    2.30    4.90
   3  12   0   39.00    4.60
   3  12   0   48.00    7.40
   3  12   0   56.99    5.50
   3  12   0   56.99    5.50
   3  12   0   45.10    4.70
   3  12   0   33.10    5.60
  -3 -12   0   38.20    5.60
  -3 -12   0   37.80    7.00
   2  12   0    7.90    2.80
   2  12   0    0.90    2.90
   2  12   0   10.50    4.30
   2  12   0    7.90    2.80
   2  12   0    6.90    3.70
   2  12   0    7.00    3.30
  -2 -12   0    9.20    4.30
   1  12   0   32.00    4.50
   1  12   0   25.00    3.80
   1  12   0   34.30    3.40
   1  12   0   31.80    4.40
   1  12   0   34.20    3.40
   1  12   0   28.20    5.00
  -1 -12   0   31.60    5.00
   0  12   0  216.08    7.40
   0  12   0  216.08    7.40
   0  12   0  214.48    7.90
   0  12   0  235.18   10.70
   0  12   0  217.88    9.20
   0  12   0  214.38    7.90
   0 -12   0  223.98   10.30
   0 -12   0  222.58   10.50
   0 -12   0  229.38    9.40
  -1  12   0   29.00    3.60
  -1  12   0   31.80    2.60
  -1  12   0   31.50    4.80
  -1  12   0   31.80    2.60
  -1  12   0   33.30    3.70
  -1  12   0   35.70    6.10
  -1  12   0   33.30    3.70
   1 -12   0   31.10    4.30
   1 -12   0   22.40    4.30
  -2  12   0   10.30    1.60
  -2  12   0    6.90    3.80
  -2  12   0    3.10    2.40
  -2  12   0   10.30    1.60
   2 -12   0    9.30    3.80
   2 -12   0    7.70    4.00
   2 -12   0    4.30    3.90
  -3  12   0   44.20    4.60
  -3  12   0   29.70    5.10
   3 -12   0   43.00    5.70
   3 -12   0   30.00    5.60
   3 -12   0   40.20    5.40
  -4  12   0   -4.50    4.90
   4 -12   0   -4.80    4.40
   4 -12   0   -2.00    4.90
   4 -12   0    2.10    3.90
  -5  12   0   14.00    6.10
   5 -12   0   24.80    7.00
   5 -12   0   31.80    5.30
   5 -12   0   24.90    6.60
  -6  12   0   91.29   12.00
  -6  12   0   84.09    8.60
   6 -12   0  108.39   13.70
   6 -12   0   65.79   13.40
   6  12  -1   26.00    5.70
   6  12  -1   26.00    5.70
   6  12  -1   29.30    7.50
  -6 -12   1   41.00    8.50
   5  12  -1    8.00    4.10
   5  12  -1    8.00    4.10
   5  12  -1    5.90    5.60
   5  12  -1   16.60    4.70
  -5 -12   1   15.80    5.70
  -5 -12   1   12.60    6.30
   4  12  -1    2.90    3.30
   4  12  -1    4.70    3.50
   4  12  -1    3.70    3.20
   4  12  -1   -0.20    4.60
   4  12  -1    3.70    3.20
  -4 -12   1    9.40    5.10
  -4 -12   1    0.60    5.50
   3  12  -1   19.60    3.50
   3  12  -1   23.80    3.60
   3  12  -1   24.90    5.80
   3  12  -1   22.80    3.80
   3  12  -1   23.80    3.60
   3  12  -1   28.90    5.00
  -3 -12   1   20.30    5.10
  -3 -12   1   16.00    5.50
   2  12  -1   79.69    5.60
   2  12  -1   64.99    5.10
   2  12  -1   74.19    8.60
   2  12  -1   66.29    6.30
   2  12  -1   84.89    7.40
   2  12  -1   64.99    5.10
  -2 -12   1   73.29    7.10
   1  12  -1  108.29    6.50
   1  12  -1   97.19    5.10
   1  12  -1   97.19    5.10
   1  12  -1   95.29    7.30
  -1 -12   1  101.49    7.20
  -1 -12   1  106.19    7.80
   0  12  -1   77.59    4.10
   0  12  -1   70.39    4.90
   0  12  -1   88.19   11.00
   0  12  -1   70.39    4.90
   0  12  -1   77.59    4.10
   0  12  -1   88.69    6.30
   0 -12   1   83.29    7.40
   0 -12   1   72.49    5.90
   0 -12   1   78.59    7.30
  -1  12  -1  306.87    8.50
  -1  12  -1  306.87    8.50
  -1  12  -1  325.37   11.00
  -1  12  -1  349.77   13.40
   1 -12   1  328.07   12.00
   1 -12   1  297.37   12.50
  -2  12  -1   62.99    6.80
  -2  12  -1   67.79    5.10
   2 -12   1   68.09    7.20
   2 -12   1   57.89    6.60
   2 -12   1   60.09    6.80
  -3  12  -1   45.00    6.10
  -3  12  -1   52.09    5.10
   3 -12   1   38.40    6.30
   3 -12   1   31.80    5.20
   3 -12   1   41.20    5.60
  -4  12  -1   96.89    9.60
   4 -12   1  120.29   10.10
   4 -12   1  113.09   10.70
   4 -12   1  101.99    8.00
  -5  12  -1   22.70    6.40
   5 -12   1   32.10    6.90
   5 -12   1   22.20    7.10
   5 -12   1   20.10    5.50
   6  12  -2  114.39    8.90
   6  12  -2  112.89   11.60
   6  12  -2  114.59    8.90
  -6 -12   2  106.39   10.90
  -6 -12   2  119.39   14.00
   5  12  -2   20.70    4.10
   5  12  -2   29.80    6.70
   5  12  -2   20.70    4.10
   5  12  -2   26.70    5.80
  -5 -12   2   36.10    7.10
  -5 -12   2   38.10    6.20
   4  12  -2   21.40    3.60
   4  12  -2   21.60    4.10
   4  12  -2   22.00    5.10
   4  12  -2   21.40    3.60
  -4 -12   2   18.70    5.20
  -4 -12   2   12.00    6.00
   3  12  -2    5.80    2.70
   3  12  -2   12.90    4.60
   3  12  -2    7.50    5.00
   3  12  -2    7.60    3.10
   3  12  -2    5.80    2.70
   3  12  -2    3.90    2.80
  -3 -12   2    8.70    4.60
  -3 -12   2    3.30    4.80
   2  12  -2   18.20    2.90
   2  12  -2   21.60    3.00
   2  12  -2   25.30    4.00
   2  12  -2   21.60    3.00
   2  12  -2   26.50    5.70
  -2 -12   2   20.50    4.70
   1  12  -2   45.70    4.20
   1  12  -2   50.89    6.30
   1  12  -2   48.10    4.00
   1  12  -2   46.90    5.90
   1  12  -2   48.10    4.00
   1  12  -2   53.69    5.00
   1  12  -2   45.70    4.20
   1  12  -2   43.00    5.30
  -1 -12   2   57.99    6.50
  -1 -12   2   63.59    6.50
   0  12  -2   16.90    4.70
   0  12  -2   18.40    3.60
   0  12  -2   10.70    2.00
   0  12  -2   10.70    2.00
   0  12  -2   11.30    4.60
   0 -12   2   14.40    3.10
   0 -12   2   20.90    4.40
   0 -12   2    9.80    4.10
  -1  12  -2   81.19    6.00
  -1  12  -2   76.29    7.60
   1 -12   2   63.59    7.60
   1 -12   2   83.99    6.50
   1 -12   2   80.09    6.90
  -2  12  -2    4.30    2.90
  -2  12  -2    7.30    4.70
   2 -12   2    2.20    4.30
   2 -12   2    4.00    4.30
   2 -12   2   14.10    4.00
  -3  12  -2   84.89    6.30
  -3  12  -2   71.19    8.20
   3 -12   2   76.99    8.20
   3 -12   2   86.79    8.00
   3 -12   2   87.79    9.40
  -4  12  -2   25.50    6.10
   4 -12   2   14.10    5.00
   4 -12   2   22.40    6.40
   4 -12   2   14.10    6.70
  -5  12  -2  100.09   11.10
   5 -12   2  100.79   10.10
   5 -12   2   97.69   10.70
   6  12  -3  239.08   11.30
   6  12  -3  232.78   14.90
   6  12  -3  239.08   11.30
  -6 -12   3  243.78   16.40
  -6 -12   3  219.98   13.00
   5  12  -3   35.40    4.70
   5  12  -3   20.20    6.30
   5  12  -3   35.40    4.70
  -5 -12   3   20.90    5.90
  -5 -12   3   33.40    7.50
   4  12  -3    1.20    5.00
   4  12  -3    6.30    3.40
   4  12  -3    6.30    3.40
  -4 -12   3    8.80    5.80
  -4 -12   3    0.80    4.50
   3  12  -3   34.60    5.60
   3  12  -3   32.90    4.00
   3  12  -3   39.50    6.80
   3  12  -3   31.30    3.40
  -3 -12   3   26.40    5.30
  -3 -12   3   31.20    6.60
   2  12  -3  322.67   10.00
   2  12  -3  313.47   13.20
   2  12  -3  321.27   10.20
   2  12  -3  341.87   14.60
   2  12  -3  321.27   10.20
  -2 -12   3  315.47   13.00
  -2 -12   3  312.57   11.80
   1  12  -3  153.78    8.80
   1  12  -3  165.58    9.90
   1  12  -3  157.98    6.80
   1  12  -3  148.49    6.00
   1  12  -3  148.49    6.00
  -1 -12   3  137.09    8.90
  -1 -12   3  155.88    8.90
   0  12  -3   19.90    2.10
   0  12  -3   19.90    2.10
   0  12  -3   36.30    5.60
   0  12  -3   21.20    3.90
   0 -12   3   25.80    3.70
   0 -12   3   27.90    4.80
   0 -12   3   26.00    5.20
  -1  12  -3   29.60    5.10
  -1  12  -3   36.90    4.60
   1 -12   3   34.00    4.50
   1 -12   3   33.60    5.80
   1 -12   3   46.90    6.00
  -2  12  -3    8.70    3.30
  -2  12  -3    9.00    5.00
   2 -12   3    6.10    4.60
   2 -12   3    2.20    4.80
   2 -12   3    8.10    4.10
  -3  12  -3  327.77   12.30
  -3  12  -3  329.77   14.60
   3 -12   3  339.67   16.30
   3 -12   3  318.67   14.00
   3 -12   3  322.17   13.80
  -4  12  -3   93.39   10.20
   4 -12   3   85.69   10.80
   4 -12   3   88.59   10.20
   4 -12   3   96.59    9.40
   5 -12   3   64.19    9.20
   5 -12   3   53.69    7.10
   6  12  -4   63.29    6.10
   6  12  -4   63.29    6.10
   6  12  -4   72.89    9.20
  -6 -12   4   48.90    9.50
  -6 -12   4   66.79    8.60
   5  12  -4  254.77   10.60
   5  12  -4  254.77   10.60
   5  12  -4  246.68   14.30
  -5 -12   4  227.18   14.90
  -5 -12   4  237.08   13.10
   4  12  -4    5.90    3.60
   4  12  -4    5.90    3.60
   4  12  -4    5.00    5.40
  -4 -12   4    7.00    6.00
  -4 -12   4    2.60    4.80
   3  12  -4   94.79    6.20
   3  12  -4   72.49    8.40
   3  12  -4   95.89    9.90
   3  12  -4   85.59    8.40
   3  12  -4   72.49    8.40
  -3 -12   4   76.49    8.20
   2  12  -4   45.60    4.50
   2  12  -4   47.30    7.10
   2  12  -4   38.30    5.70
   2  12  -4   45.70    4.50
  -2 -12   4   45.40    5.20
  -2 -12   4   40.20    6.10
   1  12  -4   96.59    4.80
   1  12  -4   96.59    4.80
   1  12  -4   96.29    8.90
   1  12  -4   96.09    7.90
   1  12  -4   93.89    5.10
  -1 -12   4   99.69    8.60
  -1 -12   4   95.69    8.00
   0  12  -4  236.98   11.90
   0  12  -4  194.88   12.80
   0 -12   4  234.28   11.70
   0 -12   4  229.18    8.60
   0 -12   4  207.28   10.90
  -1  12  -4   89.99   10.50
  -1  12  -4   88.29    8.70
   1 -12   4   86.29    6.90
   1 -12   4   78.89    9.40
   1 -12   4   76.89    7.70
  -2  12  -4   97.39    9.50
   2 -12   4   90.49    8.30
   2 -12   4  101.19   10.70
   2 -12   4  110.89    9.10
  -3  12  -4   -2.30    5.00
  -3  12  -4   -3.10    4.50
   3 -12   4    0.60    5.40
   3 -12   4   12.50    6.60
   3 -12   4   -4.50    5.10
  -4  12  -4   30.10    6.90
   4 -12   4   41.50    9.40
   4 -12   4   37.40   11.10
   4 -12   4   52.59    8.30
   6  12  -5   -0.50    4.80
   6  12  -5    5.20    7.00
   6  12  -5   -0.50    4.80
  -6 -12   5   20.90    8.10
  -6 -12   5    4.00    6.60
   5  12  -5  106.09   10.90
   5  12  -5   94.39    7.70
   5  12  -5   94.39    7.70
  -5 -12   5   90.39   10.30
  -5 -12   5   89.09    8.90
   4  12  -5    5.60    6.40
   4  12  -5    7.20    3.80
   4  12  -5    7.20    3.80
   4  12  -5   11.50    5.60
  -4 -12   5    5.20    5.60
  -4 -12   5    3.90    6.30
   3  12  -5   18.70    5.30
   3  12  -5   24.30    6.80
   3  12  -5   17.80    4.80
   3  12  -5   17.80    4.80
  -3 -12   5   17.80    5.40
   2  12  -5   36.80    5.40
   2  12  -5   27.30    3.30
   2  12  -5   27.30    3.30
   2  12  -5   29.70    6.40
  -2 -12   5   39.00    5.10
  -2 -12   5   33.00    5.60
   1  12  -5   76.79    8.90
   1  12  -5   63.49    4.30
   1  12  -5   64.69    7.20
   1  12  -5   63.49    4.30
  -1 -12   5   60.09    6.40
  -1 -12   5   64.09    7.20
   0  12  -5    0.80    5.00
   0  12  -5    3.00    3.70
   0 -12   5    6.00    4.80
   0 -12   5    0.10    5.00
  -1  12  -5  127.69   10.20
  -1  12  -5  113.49    8.20
   1 -12   5  103.19    9.20
   1 -12   5  131.29   11.10
  -2  12  -5   56.79    8.10
  -2  12  -5   73.49    8.20
   2 -12   5   63.29    7.80
   2 -12   5   62.39    8.70
  -3  12  -5   45.20    6.40
  -3  12  -5   44.50    7.30
   3 -12   5   24.40    8.00
   3 -12   5   32.80    8.20
   6  12  -6   13.90    5.60
   6  12  -6   13.90    5.60
  -6 -12   6   31.90    6.80
   5  12  -6  101.79    8.30
   5  12  -6  126.59   11.80
   5  12  -6  101.69    8.30
  -5 -12   6  112.99   11.00
  -5 -12   6  113.89   13.80
   4  12  -6   86.19   10.00
   4  12  -6   74.99    6.90
   4  12  -6   63.69    9.00
   4  12  -6   74.99    6.90
  -4 -12   6   61.99    9.40
  -4 -12   6   63.29    8.00
   3  12  -6   26.20    3.70
   3  12  -6   26.20    3.70
   3  12  -6   19.60    6.50
   3  12  -6   22.50    5.80
  -3 -12   6   23.40    5.70
   2  12  -6   -2.40    5.40
   2  12  -6   10.30    3.00
   2  12  -6   10.40    3.00
   2  12  -6    5.00    4.50
  -2 -12   6    8.60    4.60
  -2 -12   6   13.90    5.60
   1  12  -6   35.80    6.60
   1  12  -6   42.40    5.70
  -1 -12   6   38.90    6.70
  -1 -12   6   42.90    6.20
   0  12  -6    6.00    4.20
   0  12  -6    0.70    5.60
   0 -12   6    7.90    5.70
   0 -12   6    7.80    5.40
  -1  12  -6   67.89    8.40
  -1  12  -6   63.39    8.10
   1 -12   6   67.09    8.50
   1 -12   6   62.09    7.80
  -2  12  -6   23.60    7.10
  -2  12  -6   21.60    5.80
   2 -12   6   10.00    7.80
   2 -12   6   11.10    9.40
   5  12  -7   -1.20    4.50
   5  12  -7   -1.20    4.50
   5  12  -7    3.70    7.30
  -5 -12   7    7.10    5.50
  -5 -12   7    5.50    8.90
   4  12  -7   41.50    8.60
   4  12  -7   28.10    6.90
   4  12  -7   38.90    5.00
   4  12  -7   38.90    5.00
   3  12  -7   92.99   11.50
   3  12  -7   67.79    6.60
   3  12  -7   67.69    7.60
   3  12  -7   67.79    6.60
  -3 -12   7   80.49    8.50
   2  12  -7    3.90    6.20
   2  12  -7   17.80    5.50
  -2 -12   7   16.40    5.60
   1  12  -7    9.80    6.10
   1  12  -7    9.20    5.10
  -1 -12   7    4.80    5.50
  -1 -12   7   11.20    6.20
   0  12  -7   89.79    9.30
   0  12  -7   98.59   11.50
   0 -12   7   95.39   12.00
   0 -12   7   69.59   12.00
  -1  12  -7   11.20    6.30
  -1  12  -7   11.20    5.70
   1 -12   7   13.50    8.30
   1 -12   7   -2.10    5.00
   4  12  -8  161.78    9.50
   4  12  -8  193.78   21.90
   4  12  -8  161.78    9.50
  -4 -12   8  143.89   11.50
   3  12  -8  111.09   14.00
   3  12  -8  115.99   11.50
  -3 -12   8  113.59   10.30
   2  12  -8  -13.40    5.40
   2  12  -8    4.50    7.30
  -2 -12   8    4.30    5.30
   1  12  -8  129.19   11.10
   1  12  -8  148.89   14.00
  -1 -12   8  142.49   15.90
  -1 -12   8  125.99   10.70
   0  12  -8   66.19    7.70
   0  12  -8   62.39    9.00
   0 -12   8   64.89    8.50
   0 -12   8   77.29   10.60
   0  13   7   77.79   10.50
   0 -13  -7   94.09    8.30
   0 -13  -7   94.09    8.30
  -1  13   7   41.00    6.50
  -1  13   7   29.20    6.60
   1 -13  -7   39.50    6.20
   1 -13  -7   39.50    6.20
  -2  13   7   13.90    6.40
  -2  13   7    8.30    5.20
   2 -13  -7   -4.50    5.30
   2 -13  -7   -4.50    5.30
  -3  13   7   11.50    5.30
  -3  13   7   -0.80    6.20
   3 -13  -7   12.60    5.70
   3 -13  -7   12.60    5.70
  -4  13   7   40.90    6.30
   4 -13  -7   49.50    7.80
   4 -13  -7   49.50    7.80
   1  13   6  112.09   11.10
   1  13   6  113.59   11.30
  -1 -13  -6  134.49   10.50
  -1 -13  -6  119.09   12.70
  -1 -13  -6  134.49   10.50
   0  13   6   67.29    8.10
   0  13   6   61.89    6.50
   0  13   6   56.39    7.80
   0 -13  -6   64.39    6.80
   0 -13  -6   64.39    6.80
  -1  13   6    4.30    5.50
  -1  13   6    5.20    4.60
  -1  13   6    6.90    5.50
   1 -13  -6    3.30    4.80
   1 -13  -6    3.30    4.80
  -2  13   6   30.90    6.40
  -2  13   6   26.10    5.40
  -2  13   6   36.50    6.60
   2 -13  -6   25.50    5.00
   2 -13  -6   25.50    5.00
  -3  13   6   27.50    5.40
  -3  13   6   24.30    6.60
   3 -13  -6   28.00    6.20
   3 -13  -6   34.20    5.50
   3 -13  -6   34.20    5.50
  -4  13   6   22.20    5.90
  -4  13   6   22.50    7.10
   4 -13  -6   20.70    6.70
  -5  13   6   32.80    6.00
   2  13   5   -7.00    4.70
   2  13   5    2.30    5.60
   2  13   5    3.90    5.70
   2  13   5   -7.00    4.70
  -2 -13  -5   -7.00    6.70
   1  13   5    9.00    7.80
   1  13   5    2.90    4.80
   1  13   5    3.10    5.60
  -1 -13  -5    1.80    4.70
  -1 -13  -5    1.80    4.70
  -1 -13  -5    2.20    6.20
   0  13   5    7.70    5.30
   0  13   5   10.50    4.80
   0  13   5    7.30    5.00
   0  13   5    6.80    5.20
   0 -13  -5    9.20    4.10
   0 -13  -5    9.20    4.10
  -1  13   5    9.50    5.20
  -1  13   5   13.60    5.50
  -1  13   5   11.10    4.80
   1 -13  -5   11.20    4.30
   1 -13  -5   11.20    4.30
  -2  13   5   13.90    4.60
  -2  13   5   17.60    5.40
  -2  13   5   12.80    6.00
   2 -13  -5   15.40    3.90
   2 -13  -5   13.70    5.30
   2 -13  -5   15.40    3.90
  -3  13   5  219.88   12.40
  -3  13   5  223.88   13.10
  -3  13   5  211.88   10.70
   3 -13  -5  203.38    9.30
   3 -13  -5  203.38    9.30
   3 -13  -5  206.98   12.50
  -4  13   5   34.60    7.10
  -4  13   5   45.00    7.80
  -4  13   5   35.00    5.70
   4 -13  -5   39.10    7.10
  -5  13   5   51.29    9.40
  -5  13   5   49.80    6.60
  -5  13   5   55.29    8.70
   5 -13  -5   49.30    8.70
   3  13   4   87.29    7.50
   3  13   4   87.29    7.50
   3  13   4   85.59    8.50
   3  13   4   92.49   10.30
  -3 -13  -4  111.89   13.30
   2  13   4  150.68    8.80
   2  13   4  150.68    8.80
   2  13   4  132.29   10.00
   2  13   4  107.69   11.00
   2  13   4  120.79   10.20
  -2 -13  -4  109.29   10.40
   1  13   4   14.90    4.70
   1  13   4   13.10    4.00
   1  13   4   19.80    5.20
   1  13   4   14.80    5.20
   1  13   4   13.10    4.00
   1  13   4   16.00    4.80
  -1 -13  -4   14.00    4.80
   0  13   4  182.68   11.20
   0  13   4  193.98   10.00
   0  13   4  184.98   11.20
   0  13   4  204.38    9.80
   0  13   4  199.98   10.50
   0 -13  -4  188.68    9.30
   0 -13  -4  188.48    9.30
   0 -13  -4  184.18    9.20
  -1  13   4  160.78   10.60
  -1  13   4  157.78    9.20
  -1  13   4  147.39   10.40
  -1  13   4  162.18    8.90
   1 -13  -4  154.48    8.10
   1 -13  -4  145.99    8.80
   1 -13  -4  154.48    8.10
  -2  13   4   41.60    6.00
  -2  13   4   33.70    5.20
  -2  13   4   33.10    6.60
   2 -13  -4   43.20    5.60
   2 -13  -4   31.90    4.20
   2 -13  -4   31.90    4.20
   2 -13  -4   35.80    6.00
  -3  13   4  125.69   10.30
  -3  13   4  128.49   10.50
  -3  13   4  105.79    8.10
   3 -13  -4  116.29    6.90
   3 -13  -4  116.19    6.90
   3 -13  -4   98.39    9.90
  -4  13   4   57.09    6.70
  -4  13   4   76.09    8.50
  -4  13   4   59.49    7.50
   4 -13  -4   58.89    7.80
   4 -13  -4   84.29   10.30
  -5  13   4    9.80    7.80
   5 -13  -4    7.10    6.60
   5 -13  -4   10.00    7.10
   4  13   3   27.90    6.50
   4  13   3   38.20    8.50
   4  13   3   49.70    7.20
  -4 -13  -3   41.20    8.90
   3  13   3   32.00    6.70
   3  13   3   29.80    5.90
   3  13   3   34.00    5.40
   3  13   3   34.00    6.00
   3  13   3   34.00    5.40
  -3 -13  -3   32.10    7.40
   2  13   3   96.09    7.70
   2  13   3  126.79    9.20
   2  13   3  121.79    9.80
   2  13   3  122.59   10.40
   2  13   3  116.79    9.70
   2  13   3   96.09    7.70
  -2 -13  -3  105.79    8.10
   1  13   3   -3.20    4.30
   1  13   3    4.80    3.30
   1  13   3    4.80    3.30
   1  13   3   -1.00    4.50
   1  13   3   -2.60    3.80
   1  13   3    7.30    4.50
  -1 -13  -3    1.50    4.30
   0  13   3   74.49    7.40
   0  13   3   83.19    6.00
   0  13   3   88.29    8.00
   0  13   3   83.29    6.00
   0  13   3   86.09    8.10
   0  13   3   86.19    8.00
   0 -13  -3   70.99    7.00
  -1  13   3  142.49    7.60
  -1  13   3  157.98    9.40
  -1  13   3  157.48   10.30
   1 -13  -3  135.89    9.30
   1 -13  -3  138.39    7.30
   1 -13  -3  137.59    8.70
   1 -13  -3  138.39    7.30
  -2  13   3   33.70    6.30
   2 -13  -3   28.60    5.20
   2 -13  -3   27.20    3.80
   2 -13  -3   27.20    3.80
   2 -13  -3   30.90    5.50
   2 -13  -3   34.30    6.30
  -3  13   3   23.20    5.70
  -3  13   3   25.30    4.80
   3 -13  -3   28.80    6.10
   3 -13  -3   25.40    6.00
   3 -13  -3   19.20    4.90
  -4  13   3   13.30    6.60
  -4  13   3   14.50    4.60
   4 -13  -3   13.40    6.30
   4 -13  -3    8.50    5.70
  -5  13   3  130.39   13.90
  -5  13   3  112.79    8.90
   5 -13  -3  145.69   12.90
   5 -13  -3  133.59   13.30
   4  13   2  114.09    9.20
   4  13   2  100.89   10.40
   4  13   2  114.09    9.20
   4  13   2  103.59    9.80
   4  13   2  143.09   13.00
   4  13   2  117.09   12.00
   3  13   2  182.98    9.10
   3  13   2  182.98    9.10
   3  13   2  172.08   10.30
   3  13   2  141.69   14.40
   3  13   2  164.98   10.50
   3  13   2  188.38   12.20
  -3 -13  -2  176.78   10.20
   2  13   2  158.18    9.40
   2  13   2  178.88   10.80
   2  13   2  167.48   11.10
   2  13   2  145.69    8.30
   2  13   2  166.48    9.90
   2  13   2  145.69    8.30
  -2 -13  -2  167.18    9.70
   1  13   2  455.05   14.00
   1  13   2  461.65   16.20
   1  13   2  461.55   16.20
   1  13   2  455.15   14.00
   1  13   2  453.35   16.20
   1  13   2  470.85   16.40
  -1 -13  -2  450.75   15.50
   0  13   2  410.26   15.30
   0  13   2  419.46   14.30
   0  13   2  410.06   12.80
   0  13   2  411.76   15.70
   0  13   2  410.16   12.80
   0  13   2  429.16   15.20
   0 -13  -2  410.16   14.40
  -1  13   2  150.48    6.60
  -1  13   2  141.99    7.50
  -1  13   2  158.78   10.10
  -1  13   2  150.48    6.60
  -1  13   2  141.29    9.50
   1 -13  -2  139.39    8.90
   1 -13  -2  139.09    9.90
   1 -13  -2  147.49    8.80
  -2  13   2   73.39    7.50
  -2  13   2   70.39    4.80
  -2  13   2   70.39    4.80
   2 -13  -2   70.49    7.90
   2 -13  -2   70.29    7.10
   2 -13  -2   62.39    7.30
  -3  13   2    9.70    4.90
   3 -13  -2    3.20    4.00
   3 -13  -2    2.30    4.50
   3 -13  -2    7.90    5.10
  -4  13   2  138.19    9.10
  -4  13   2  156.88   11.80
   4 -13  -2  172.58   11.90
   4 -13  -2  140.99   11.80
   4 -13  -2  152.88    9.50
  -5  13   2   31.10    8.00
  -5  13   2   29.50    5.30
   5 -13  -2   43.70    7.70
   5 -13  -2   47.40    8.20
   5  13   1   12.30    6.10
   5  13   1   17.30    8.00
  -5 -13  -1   15.90    8.20
   4  13   1  107.39    8.40
   4  13   1   82.69    9.30
   4  13   1  107.39    8.40
   4  13   1  132.49   12.50
   4  13   1   78.39    9.10
  -4 -13  -1   87.49    9.40
   3  13   1   46.40    5.30
   3  13   1   46.40    5.30
   3  13   1   48.80   10.30
   3  13   1   44.20    5.50
   3  13   1   53.69    7.40
   3  13   1   37.40    6.70
  -3 -13  -1   44.30    6.00
   2  13   1   22.00    3.60
   2  13   1   22.00    3.60
   2  13   1   18.20    4.70
   2  13   1   14.50    6.40
   2  13   1   25.10    4.40
  -2 -13  -1   18.00    4.90
   1  13   1   62.59    6.80
   1  13   1   65.99   10.60
   1  13   1   71.09    5.50
   1  13   1   60.49    6.30
   1  13   1   71.19    7.00
   1  13   1   71.09    5.50
  -1 -13  -1   61.49    6.40
   0  13   1  240.38   10.40
   0  13   1  241.98    8.50
   0  13   1  242.08    8.50
   0  13   1  243.68   10.90
   0  13   1  255.67   11.90
   0 -13  -1  241.18   10.90
  -1  13   1  178.58    8.20
  -1  13   1  171.48    6.60
  -1  13   1  171.28    9.80
  -1  13   1  171.48    6.60
   1 -13  -1  171.58    9.60
   1 -13  -1  181.68   10.60
   1 -13  -1  176.98    9.50
  -2  13   1  153.58   10.10
   2 -13  -1  153.38   10.50
   2 -13  -1  156.18   10.00
   2 -13  -1  148.89    9.20
  -3  13   1   51.19    6.70
   3 -13  -1   29.70    6.60
   3 -13  -1   33.10    5.50
   3 -13  -1   33.00    5.90
  -4  13   1   10.80    5.40
   4 -13  -1   18.60    6.00
   4 -13  -1   20.50    6.30
   4 -13  -1   11.50    4.80
  -5  13   1   43.90    6.00
  -5  13   1   42.30    8.40
   5 -13  -1   44.20    7.80
   5 -13  -1   33.70    5.70
   5 -13  -1   42.90    8.50
   5  13   0   25.90    5.90
   5  13   0   29.60    5.40
   5  13   0   29.60    5.40
   5  13   0   25.30    7.70
  -5 -13   0   29.90    8.40
   4  13   0  106.69    8.40
   4  13   0  106.69    8.40
   4  13   0  110.29    8.90
   4  13   0   94.59   11.00
   4  13   0  111.89   12.10
  -4 -13   0  118.89    9.90
  -4 -13   0  113.89   11.80
   3  13   0   50.69    4.90
   3  13   0   46.40    6.70
   3  13   0   61.09    7.00
   3  13   0   53.69    5.60
   3  13   0   50.69    4.90
   3  13   0   58.29    7.60
  -3 -13   0   54.99    6.40
   2  13   0   34.10    5.30
   2  13   0   30.00    6.30
   2  13   0   31.10    3.90
   2  13   0   31.10    3.90
   2  13   0   35.70    4.40
   2  13   0   32.70    4.80
  -2 -13   0   34.30    5.70
   1  13   0   66.59    7.10
   1  13   0   71.59    8.20
   1  13   0   79.19    7.50
   1  13   0   83.09    6.80
   1  13   0   71.39    5.30
   1  13   0   71.39    5.30
  -1 -13   0   75.59    7.20
   0  13   0   -1.70    2.20
   0  13   0    3.70    3.40
   0  13   0    0.20    3.30
   0  13   0   -7.60    4.00
   0  13   0   -1.70    2.20
   0 -13   0   -3.70    3.00
   0 -13   0   -4.20    3.80
   0 -13   0    3.40    4.20
  -1  13   0   69.49    7.80
  -1  13   0   71.79    6.10
  -1  13   0   73.19    4.40
  -1  13   0   73.09    4.30
   1 -13   0   68.09    7.40
   1 -13   0   79.39    8.90
   1 -13   0   64.29    9.80
  -2  13   0   34.60    5.90
  -2  13   0   28.00    3.70
   2 -13   0   31.00    5.10
   2 -13   0   31.20    6.10
   2 -13   0   32.50    5.80
  -3  13   0   44.30    6.20
   3 -13   0   49.20    6.40
   3 -13   0   39.50    7.00
   3 -13   0   59.69    7.10
  -4  13   0  105.59   10.60
   4 -13   0  111.59   11.50
   4 -13   0  113.49   11.30
   4 -13   0  104.19    8.70
  -5  13   0   26.70    7.80
   5 -13   0   23.80    7.40
   5 -13   0   31.10    5.80
   5 -13   0   41.30    7.70
   5  13  -1   47.60    8.30
   5  13  -1   25.60    5.50
   5  13  -1   25.60    5.50
  -5 -13   1   42.90    8.90
  -5 -13   1   32.70    7.00
   4  13  -1   16.80    5.30
   4  13  -1   21.10    4.40
   4  13  -1   17.40    6.60
   4  13  -1   15.40    5.60
   4  13  -1   21.10    4.40
  -4 -13   1   21.20    6.80
  -4 -13   1   13.60    5.60
   3  13  -1   41.20    4.60
   3  13  -1   39.00    4.80
   3  13  -1   39.90    6.20
   3  13  -1   41.20    4.60
   3  13  -1   40.70    7.30
   3  13  -1   34.00    4.40
  -3 -13   1   40.60    6.00
   2  13  -1  158.38    7.40
   2  13  -1  158.38    7.40
   2  13  -1  155.48    8.00
   2  13  -1  150.78    8.70
   2  13  -1  145.59   11.10
   2  13  -1  155.28    9.70
  -2 -13   1  154.08    9.90
   1  13  -1  177.78    7.10
   1  13  -1  171.28    9.40
   1  13  -1  165.08    8.60
   1  13  -1  177.08   10.70
   1  13  -1  176.08    9.40
   1  13  -1  177.78    7.10
  -1 -13   1  168.48    9.90
  -1 -13   1  167.58    9.60
   0  13  -1  237.98   10.60
   0  13  -1  241.18   12.10
   0  13  -1  241.68    7.90
   0  13  -1  241.58    7.90
   0 -13   1  244.88   11.50
   0 -13   1  246.18   12.10
   0 -13   1  244.38   10.10
  -1  13  -1   68.49    8.00
  -1  13  -1   58.29    6.00
   1 -13   1   57.69    6.80
   1 -13   1   62.49    6.80
   1 -13   1   65.79    6.90
  -2  13  -1   21.70    3.70
  -2  13  -1   20.60    5.50
   2 -13   1   15.60    5.90
   2 -13   1   13.30    5.00
   2 -13   1   24.40    4.80
  -3  13  -1   40.30    6.40
   3 -13   1   49.80    7.50
   3 -13   1   30.90    5.80
   3 -13   1   52.79    6.60
  -4  13  -1   81.69   10.40
   4 -13   1   87.89   11.00
   4 -13   1   70.29    8.70
   4 -13   1   88.69    8.70
  -5  13  -1   -8.10   10.00
   5 -13   1   10.80    5.40
   5 -13   1   15.80    7.20
   5  13  -2   36.60    7.10
   5  13  -2   33.00    5.20
   5  13  -2   33.00    5.20
  -5 -13   2   35.60    7.00
  -5 -13   2   37.60    8.80
   4  13  -2  138.69    8.10
   4  13  -2  173.98   13.00
   4  13  -2  146.89   11.90
   4  13  -2  138.69    8.10
  -4 -13   2  152.28   12.60
  -4 -13   2  131.39   10.40
   3  13  -2   -1.00    3.50
   3  13  -2   -7.00    4.50
   3  13  -2    1.40    3.30
   3  13  -2    0.50    5.70
   3  13  -2   -2.20    3.00
   3  13  -2   -2.20    3.00
  -3 -13   2    3.90    4.90
   2  13  -2   76.39    8.50
   2  13  -2   65.89    5.30
   2  13  -2   65.79    7.00
   2  13  -2   66.09    5.30
   2  13  -2   68.09    8.20
   2  13  -2   63.69    6.00
  -2 -13   2   63.09    7.20
   1  13  -2  146.89    6.30
   1  13  -2  146.89    6.30
   1  13  -2  142.69    7.70
   1  13  -2  144.39   10.40
  -1 -13   2  132.99    9.30
  -1 -13   2  147.59    9.20
   0  13  -2  402.86   14.40
   0  13  -2  410.76   11.30
   0  13  -2  410.76   11.30
   0  13  -2  420.76   16.40
   0 -13   2  418.46   15.60
   0 -13   2  399.16   13.60
   0 -13   2  433.26   16.10
  -1  13  -2  473.85   17.40
  -1  13  -2  450.15   14.80
   1 -13   2  423.46   17.20
   1 -13   2  459.95   15.50
   1 -13   2  449.86   16.60
  -2  13  -2  172.08   11.00
  -2  13  -2  176.78    8.20
   2 -13   2  151.88   11.50
   2 -13   2  156.88   15.60
   2 -13   2  142.09    9.70
  -3  13  -2  189.88   11.90
   3 -13   2  166.18   10.60
   3 -13   2  165.78   11.50
   3 -13   2  183.78   12.90
  -4  13  -2  126.99   11.60
   4 -13   2  111.29   12.70
   4 -13   2  114.49   11.20
   4 -13   2  116.69   11.90
   5  13  -3  128.29    9.10
   5  13  -3  141.39   12.50
   5  13  -3  128.29    9.10
  -5 -13   3  122.19   11.00
  -5 -13   3  133.49   14.10
   4  13  -3   13.10    5.90
   4  13  -3   11.30    4.10
   4  13  -3   11.30    4.10
   4  13  -3   24.10    7.60
  -4 -13   3   10.60    6.80
  -4 -13   3    9.60    5.70
   3  13  -3   20.60    3.80
   3  13  -3   23.20    4.50
   3  13  -3   27.00    6.80
   3  13  -3   20.60    3.80
   3  13  -3   32.50    6.20
  -3 -13   3   29.30    6.10
   2  13  -3   34.20    4.80
   2  13  -3   29.80    5.30
   2  13  -3   29.30    3.50
   2  13  -3   35.50    7.00
   2  13  -3   29.30    3.50
  -2 -13   3   26.10    5.90
  -2 -13   3   35.40    5.00
   1  13  -3  152.48    6.30
   1  13  -3  152.58    6.30
   1  13  -3  143.59    7.20
   1  13  -3  138.39    9.20
   1  13  -3  158.58   11.00
  -1 -13   3  142.99    9.50
  -1 -13   3  138.99    9.70
   0  13  -3   79.09    9.20
   0 -13   3   68.49    6.20
   0 -13   3   68.09    7.50
   0 -13   3   95.49    9.00
  -1  13  -3   -3.30    4.60
  -1  13  -3   -3.60    3.80
   1 -13   3    1.20    4.20
   1 -13   3    2.60    3.70
   1 -13   3   -5.40    4.80
  -2  13  -3  111.09    9.90
  -2  13  -3  109.59    7.40
   2 -13   3   83.29   10.20
   2 -13   3  114.59   11.30
   2 -13   3  106.39    9.20
  -3  13  -3   34.30    6.60
   3 -13   3   34.00    6.50
   3 -13   3   34.00    6.40
   3 -13   3   41.30    8.00
  -4  13  -3   50.39   12.50
   4 -13   3   37.70    7.20
   4 -13   3   31.70    6.40
   4 -13   3   39.20    9.30
   5  13  -4    4.40    4.70
   5  13  -4    1.00    6.80
   5  13  -4    4.40    4.70
  -5 -13   4    9.00    7.90
  -5 -13   4    5.50    6.30
   4  13  -4   64.39    5.80
   4  13  -4   75.19    9.50
   4  13  -4   64.39    5.80
   4  13  -4   87.79   10.20
  -4 -13   4   55.89    7.50
  -4 -13   4   61.39    9.30
   3  13  -4  106.39   11.60
   3  13  -4   95.69    7.00
   3  13  -4   95.59    7.00
   3  13  -4  112.29   10.10
  -3 -13   4  114.19    9.60
   2  13  -4   42.10    6.10
   2  13  -4   46.20    4.00
   2  13  -4   30.90    6.80
   2  13  -4   46.20    4.00
  -2 -13   4   38.80    6.70
  -2 -13   4   45.20    5.90
   1  13  -4  167.88   11.40
   1  13  -4  152.78    9.60
  -1 -13   4  163.38   10.30
  -1 -13   4  137.89    9.90
   0  13  -4  194.18   10.20
   0  13  -4  182.68   12.00
   0 -13   4  180.98   11.00
   0 -13   4  186.08   11.60
  -1  13  -4    5.80    4.20
  -1  13  -4   22.50    6.00
   1 -13   4   10.50    5.10
   1 -13   4   12.20    6.20
  -2  13  -4  105.69    9.20
  -2  13  -4  101.19   10.80
   2 -13   4  121.39   10.00
   2 -13   4  118.79   12.30
  -3  13  -4   86.59   10.80
   3 -13   4   84.79   10.00
   3 -13   4   68.99    8.00
   5  13  -5   49.20    8.70
   5  13  -5   53.29    6.20
   5  13  -5   53.29    6.20
  -5 -13   5   67.89    8.70
  -5 -13   5   43.80    9.50
   4  13  -5   46.00    8.60
   4  13  -5   39.50    5.00
   4  13  -5   39.50    5.00
   4  13  -5   37.60    7.10
  -4 -13   5   36.70    7.00
   3  13  -5  190.68   12.40
   3  13  -5  189.68    8.80
   3  13  -5  211.08   14.10
   3  13  -5  189.58    8.80
  -3 -13   5  197.08   11.70
   2  13  -5   18.00    5.50
   2  13  -5   14.20    3.40
   2  13  -5   14.20    3.40
   2  13  -5   17.10    7.00
  -2 -13   5   17.50    5.70
  -2 -13   5   18.90    5.10
   1  13  -5   10.80    4.90
   1  13  -5   13.60    5.80
  -1 -13   5   16.80    5.50
   0  13  -5   -4.40    5.60
   0  13  -5    1.70    4.60
   0 -13   5   10.40    5.90
   0 -13   5    7.60    4.60
  -1  13  -5    6.20    4.50
  -1  13  -5   10.30    5.70
   1 -13   5    6.90    6.50
   1 -13   5    6.70    5.20
  -2  13  -5    1.20    5.70
  -2  13  -5    7.90    5.20
   2 -13   5   -9.20    7.20
   2 -13   5   -0.10    5.30
   5  13  -6   35.60    5.40
   5  13  -6   35.60    5.40
  -5 -13   6   24.40    6.40
   4  13  -6   20.30    7.30
   4  13  -6   21.60    4.90
   4  13  -6   21.60    4.90
   4  13  -6   23.10    8.40
  -4 -13   6   14.20    6.90
   3  13  -6   28.10    6.80
   3  13  -6   38.30    4.40
   3  13  -6   38.30    4.40
   3  13  -6   21.40    7.30
  -3 -13   6   21.80    7.40
   2  13  -6   27.50    7.00
   2  13  -6   17.10    5.50
  -2 -13   6   27.40    6.20
   1  13  -6    3.60    6.30
   1  13  -6    5.50    5.20
  -1 -13   6    3.70    6.20
  -1 -13   6   -3.90    5.60
   0  13  -6   57.09    7.00
   0  13  -6   57.49    8.40
   0 -13   6   59.79    8.40
  -1  13  -6  116.59   11.90
  -1  13  -6  119.59   10.10
   1 -13   6  113.99   11.10
   1 -13   6  115.09   10.30
   4  13  -7   46.40    5.70
   4  13  -7   46.40    5.70
  -4 -13   7   49.40    8.00
   3  13  -7   -1.30    7.60
   3  13  -7   12.30    6.30
  -3 -13   7   11.60    5.90
   2  13  -7    5.40    7.10
   2  13  -7    7.40    5.90
  -2 -13   7    3.40    5.30
   1  13  -7   40.50    8.20
   1  13  -7   32.60    6.30
  -1 -13   7   29.70    6.30
   0  13  -7   85.89    8.60
   0  13  -7   61.49   12.50
   0 -13   7   66.29    8.00
   0 -13   7   80.29   10.30
   0  14   6   86.69    7.60
   0  14   6   78.09    9.30
   0 -14  -6   63.69    7.20
   0 -14  -6   63.69    7.10
  -1  14   6    5.00    5.20
  -1  14   6    1.00    6.30
   1 -14  -6    1.40    5.90
   1 -14  -6    1.40    5.90
  -2  14   6   40.70    8.00
  -2  14   6   33.20    6.00
   2 -14  -6   52.99    6.40
   2 -14  -6   52.99    6.40
  -3  14   6   18.60    8.10
   1  14   5   25.30    6.40
   1  14   5   17.30    5.20
   1  14   5   17.30    5.20
   1  14   5   19.50    8.60
   1  14   5   19.40    6.80
   0  14   5  159.38   12.50
   0  14   5  153.18   10.10
   0  14   5  135.29   11.50
   0 -14  -5  140.49   10.20
   0 -14  -5  140.29   10.20
  -1  14   5   28.30    6.00
  -1  14   5   14.70    5.40
  -1  14   5   10.60    5.90
   1 -14  -5   15.70    5.00
   1 -14  -5   15.70    5.00
  -2  14   5    9.40    6.20
  -2  14   5   19.80    5.20
  -2  14   5   15.10    6.30
   2 -14  -5   15.70    6.00
   2 -14  -5   19.60    5.10
   2 -14  -5   19.60    5.10
  -3  14   5   52.19    8.10
  -3  14   5   66.09    7.10
   3 -14  -5   41.20    6.90
  -4  14   5   23.90    5.30
   2  14   4   56.79    7.40
   2  14   4   41.10    6.10
   2  14   4   64.59    8.40
   2  14   4   41.10    6.10
   2  14   4   55.39    7.70
   1  14   4   82.69    6.70
   1  14   4   72.79    8.20
   1  14   4   91.39   10.10
   1  14   4   89.09    9.60
   1  14   4   82.69    6.70
   1  14   4   85.79    8.50
  -1 -14  -4   78.19    8.20
   0  14   4   37.40    4.80
   0  14   4   35.60    6.80
   0  14   4   37.20    6.50
   0  14   4   37.40    4.80
   0  14   4   46.20    5.90
   0 -14  -4   37.60    5.90
  -1  14   4   97.29    8.40
  -1  14   4  104.39   10.70
  -1  14   4  108.29    9.60
  -1  14   4   79.89   10.20
   1 -14  -4  121.79    8.20
   1 -14  -4  111.79    8.70
   1 -14  -4  121.79    8.20
  -2  14   4  154.08    9.60
  -2  14   4  160.18   11.30
  -2  14   4  155.78   12.70
   2 -14  -4  147.59   11.30
   2 -14  -4  158.18    8.70
   2 -14  -4  158.18    8.70
  -3  14   4   48.30    6.30
  -3  14   4   53.89    7.90
  -3  14   4   69.29    8.30
   3 -14  -4   44.50    7.00
  -4  14   4   64.79    8.90
  -4  14   4   78.69    9.60
  -4  14   4   55.29    7.10
   4 -14  -4   56.39    8.90
   4 -14  -4   57.79    8.60
   3  14   3   -8.50    4.60
   3  14   3    6.40    5.70
   3  14   3   -8.50    4.60
   3  14   3    3.80    5.70
   3  14   3    3.60    7.70
   2  14   3   28.50    5.80
   2  14   3   34.40    5.10
   2  14   3   24.00    7.00
   2  14   3   34.40    5.10
   2  14   3   23.60    6.50
  -2 -14  -3   30.10    5.90
   1  14   3   61.39    5.80
   1  14   3   62.49    7.00
   1  14   3   61.39    5.80
   1  14   3   70.49    7.60
   1  14   3   75.69    9.40
   1  14   3   75.69    9.30
  -1 -14  -3   55.69    6.40
   0  14   3   19.90    4.90
   0  14   3   11.50    5.00
   0  14   3   22.90    4.10
   0  14   3   24.00    6.90
   0  14   3   22.90    4.10
   0  14   3   14.70    5.40
   0 -14  -3   23.80    5.30
  -1  14   3   14.60    5.30
  -1  14   3   17.30    5.50
  -1  14   3   17.40    6.30
   1 -14  -3   13.70    5.00
   1 -14  -3   17.40    5.00
  -2  14   3   15.60    5.60
  -2  14   3   14.60    5.90
   2 -14  -3    9.50    4.60
   2 -14  -3   11.40    5.10
  -3  14   3   10.00    6.00
  -3  14   3   11.10    4.80
  -3  14   3    7.60    6.30
   3 -14  -3    4.00    4.70
   3 -14  -3    7.30    5.80
   3 -14  -3   12.70    6.50
  -4  14   3  229.58   15.30
  -4  14   3  251.27   12.30
   4 -14  -3  267.27   15.10
   4 -14  -3  254.67   15.40
  -5  14   3  136.99    9.90
   3  14   2   51.09    7.00
   3  14   2   61.99    6.40
   3  14   2   41.90    8.10
   3  14   2   61.99    6.40
   3  14   2   59.59    7.10
   3  14   2   51.39    8.20
   2  14   2   84.59    7.30
   2  14   2   74.09    9.40
   2  14   2   92.39   10.80
   2  14   2   84.59    7.30
   2  14   2   85.09   10.50
   2  14   2   85.49    8.80
  -2 -14  -2   81.19    8.60
   1  14   2    8.40    5.10
   1  14   2    7.90    5.40
   1  14   2   12.00    5.00
   1  14   2   11.30    3.90
   1  14   2   11.30    3.90
   1  14   2   12.30    4.90
  -1 -14  -2   10.50    4.90
   0  14   2  123.69   10.40
   0  14   2  154.78   10.50
   0  14   2  150.98    9.80
   0  14   2  140.49    9.10
   0  14   2  123.39    8.70
   0  14   2  123.39    8.70
   0 -14  -2  155.28    9.30
  -1  14   2   21.50    5.70
  -1  14   2   23.60    3.60
  -1  14   2   30.30    6.10
  -1  14   2   23.50    3.60
   1 -14  -2   19.50    5.10
   1 -14  -2   25.40    5.40
  -2  14   2   34.20    6.10
   2 -14  -2   31.60    6.60
   2 -14  -2   22.70    5.00
   2 -14  -2   28.20    5.50
  -3  14   2   41.50    7.00
   3 -14  -2   25.30    6.40
   3 -14  -2   19.30    5.30
   3 -14  -2   33.20    7.20
  -4  14   2  115.39    8.80
  -4  14   2  117.39   12.90
   4 -14  -2  131.69   12.60
   4 -14  -2  119.09    8.90
   4 -14  -2  104.09   12.50
  -5  14   2  135.29   15.70
  -5  14   2  125.79    9.70
   4  14   1   38.20    6.80
   4  14   1   46.60    6.10
   4  14   1   36.10    8.10
   4  14   1   46.60    6.10
   4  14   1   44.10    9.50
   3  14   1   43.80    5.30
   3  14   1   33.50    5.90
   3  14   1   42.40    8.00
   3  14   1   43.80    5.30
   3  14   1   38.00    7.40
   3  14   1   46.10    6.50
  -3 -14  -1   40.80    6.70
   2  14   1    9.20    6.00
   2  14   1   10.50    4.50
   2  14   1    3.20    3.80
   2  14   1   18.00    5.00
   2  14   1    3.20    3.80
   2  14   1   20.10    5.50
  -2 -14  -1    8.10    5.30
   1  14   1    8.50    4.20
   1  14   1   10.50    4.90
   1  14   1   12.00    4.70
   1  14   1    4.10    3.50
   1  14   1   16.40    5.40
   1  14   1    4.10    3.50
  -1 -14  -1    2.50    4.80
   0  14   1  121.79    6.60
   0  14   1  128.29    8.50
   0  14   1  100.19    9.00
   0  14   1  118.09    9.60
   0  14   1  121.89    6.60
   0  14   1  119.19    9.70
   0 -14  -1  116.39    9.10
  -1  14   1    6.20    5.10
  -1  14   1   -1.00    3.70
  -1  14   1   -2.40    4.70
   1 -14  -1    4.40    4.90
   1 -14  -1    8.90    4.80
   1 -14  -1    3.70    4.10
  -2  14   1   23.10    6.00
   2 -14  -1   29.90    6.00
   2 -14  -1   24.40    5.60
   2 -14  -1   41.50    7.10
  -3  14   1  103.09   10.50
   3 -14  -1   80.99    9.20
   3 -14  -1   91.99   10.70
   3 -14  -1   85.69    8.40
  -4  14   1    3.00    6.80
   4 -14  -1   19.40    6.60
   4 -14  -1   12.10    7.00
   4 -14  -1    0.10    4.60
   4  14   0   88.39    7.20
   4  14   0   95.89   10.60
   4  14   0   88.39    7.20
   4  14   0  102.99   11.80
   4  14   0   97.19    9.90
  -4 -14   0   80.39    8.40
   3  14   0   14.40    7.00
   3  14   0   29.60    4.80
   3  14   0   20.40    6.30
   3  14   0   29.60    4.80
   3  14   0   29.80    5.70
   3  14   0   12.30    4.90
  -3 -14   0   22.80    5.90
   2  14   0   -2.40    4.30
   2  14   0   -2.10    3.60
   2  14   0   -2.10    3.60
   2  14   0    6.10    5.10
   2  14   0    1.40    5.80
   2  14   0    0.90    4.10
  -2 -14   0    3.00    5.00
   1  14   0   78.69    6.30
   1  14   0   78.69    6.30
   1  14   0   81.69    9.90
   1  14   0   77.39    8.00
   1  14   0   82.49    8.40
   1  14   0   85.79    9.10
  -1 -14   0   90.09    8.30
   0  14   0  207.08    8.10
   0  14   0  206.98    8.10
   0  14   0  224.18   11.00
   0  14   0  217.68   11.70
   0  14   0  231.78   12.40
   0  14   0  227.38   10.40
   0 -14   0  216.48   12.20
   0 -14   0  212.48   11.30
  -1  14   0   73.79    6.90
  -1  14   0   74.39    9.00
   1 -14   0   79.59    8.10
   1 -14   0   79.99    8.40
   1 -14   0   84.49   10.40
  -2  14   0    0.40    5.40
   2 -14   0   -1.70    4.20
   2 -14   0   -2.40    4.90
   2 -14   0   -3.60    5.40
  -3  14   0   13.40    6.00
   3 -14   0   18.00    6.40
   3 -14   0   13.20    5.50
   3 -14   0   34.50    7.50
  -4  14   0   85.49    9.80
   4 -14   0  115.89    9.20
   4 -14   0   98.49   12.60
   4 -14   0   90.09    9.60
   4  14  -1    3.30    4.90
   4  14  -1    3.30    4.90
   4  14  -1    6.80    7.80
   4  14  -1   14.30    6.50
  -4 -14   1   12.10    6.40
   3  14  -1   90.09   11.30
   3  14  -1   77.99    6.30
   3  14  -1   77.99    6.30
   3  14  -1   97.89   10.50
   3  14  -1   97.59    8.70
   3  14  -1  106.79   12.10
  -3 -14   1   88.79    9.50
   2  14  -1   23.20    6.40
   2  14  -1   21.10    4.30
   2  14  -1   18.20    5.40
   2  14  -1   26.20    9.10
   2  14  -1   17.50    3.90
   2  14  -1   17.50    3.90
  -2 -14   1   31.00    6.00
   1  14  -1    7.60    3.80
   1  14  -1   -8.70    2.80
   1  14  -1    7.90    4.50
   1  14  -1   -0.30    5.50
   1  14  -1   12.50    4.80
   1  14  -1   -8.70    2.80
  -1 -14   1   -3.80    4.60
   0  14  -1  108.29    8.30
   0  14  -1  122.59   10.20
   0  14  -1  115.79    8.40
   0 -14   1  106.89    9.10
   0 -14   1  114.49   10.20
  -1  14  -1   12.30    3.90
  -1  14  -1    5.50    5.50
   1 -14   1    9.10    4.80
   1 -14   1    0.40    5.20
   1 -14   1    2.30    4.10
  -2  14  -1   17.50    6.20
   2 -14   1   15.40    6.20
   2 -14   1   10.80    5.10
   2 -14   1   13.00    5.10
  -3  14  -1   39.90    6.90
   3 -14   1   29.80    7.60
   3 -14   1   57.09    7.50
  -4  14  -1   42.20    8.20
   4 -14   1   36.20    6.60
   4 -14   1   62.49    8.30
   4 -14   1   36.70    8.50
   5  14  -2  127.29   16.20
   5  14  -2  116.29    9.80
   5  14  -2  116.29    9.80
   5  14  -2  131.19   18.90
  -5 -14   2  132.39   14.90
  -5 -14   2  121.49   11.90
   4  14  -2  120.79   12.20
   4  14  -2  135.19   14.70
   4  14  -2  138.09    8.90
   4  14  -2  138.09    8.90
  -4 -14   2  122.59   11.10
   3  14  -2   24.00    4.30
   3  14  -2   22.90    6.40
   3  14  -2   31.50    7.80
   3  14  -2   24.00    4.30
  -3 -14   2   25.70    6.30
   2  14  -2   23.20    4.00
   2  14  -2   24.80    7.00
   2  14  -2   23.30    4.00
   2  14  -2   35.70    5.60
   2  14  -2   25.30    5.90
  -2 -14   2   28.00    5.90
   1  14  -2   24.80    6.80
   1  14  -2   19.10    5.20
   1  14  -2   25.60    3.60
   1  14  -2   25.10    4.30
   1  14  -2   25.60    3.60
  -1 -14   2   24.70    5.90
  -1 -14   2   15.80    5.40
   0  14  -2  137.89    9.30
   0  14  -2  131.69   10.90
   0 -14   2  132.39   11.00
   0 -14   2  134.59    8.30
   0 -14   2  143.59    9.90
  -1  14  -2    9.40    4.10
  -1  14  -2   19.20    5.80
   1 -14   2   11.20    5.50
   1 -14   2   13.00    5.40
   1 -14   2   12.10    5.90
  -2  14  -2   88.09    9.30
   2 -14   2   58.19    8.20
   2 -14   2   84.29    9.30
   2 -14   2   72.79    8.10
  -3  14  -2   58.79    7.70
   3 -14   2   48.80    8.20
   3 -14   2   49.80    6.60
   3 -14   2   44.20    7.50
   5  14  -3  148.49   10.50
   5  14  -3  148.49   10.50
  -5 -14   3  145.49   16.10
   4  14  -3  256.97   16.60
   4  14  -3  241.68   11.20
   4  14  -3  242.38   15.00
   4  14  -3  241.88   11.20
  -4 -14   3  231.78   13.60
   3  14  -3    6.20    4.10
   3  14  -3    6.20    4.10
   3  14  -3   21.10    7.60
   3  14  -3    6.60    5.60
  -3 -14   3    6.60    5.60
   2  14  -3   16.50    5.10
   2  14  -3   13.70    5.20
   2  14  -3   12.60    4.20
   2  14  -3   10.50    6.50
   2  14  -3   12.60    4.20
  -2 -14   3   16.50    5.60
   1  14  -3   11.10    4.80
   1  14  -3    6.70    6.40
  -1 -14   3   16.30    5.50
  -1 -14   3   26.40    5.90
   0  14  -3   14.90    5.70
   0  14  -3   23.30    5.00
   0 -14   3   23.20    6.20
   0 -14   3   17.70    5.80
  -1  14  -3   69.39    8.10
  -1  14  -3   76.09    8.50
   1 -14   3   57.79    8.20
   1 -14   3   71.99    8.20
  -2  14  -3   25.50    7.10
   2 -14   3   24.40    7.90
   2 -14   3   25.90    7.10
   2 -14   3   10.20    6.80
  -3  14  -3    6.20    9.50
   3 -14   3    6.20    9.50
   3 -14   3    7.60    7.60
   3 -14   3    7.50    5.00
   4  14  -4   63.39    9.20
   4  14  -4   62.19   10.30
   4  14  -4   51.39    6.30
   4  14  -4   51.39    6.30
  -4 -14   4   67.89    8.40
   3  14  -4   58.79    7.90
   3  14  -4   45.10    5.00
   3  14  -4   45.10    5.00
   3  14  -4   51.39    9.00
  -3 -14   4   55.29    7.60
   2  14  -4  169.38   12.80
   2  14  -4  141.89   11.10
  -2 -14   4  167.58   11.20
   1  14  -4   83.49    9.20
   1  14  -4   98.49    9.80
  -1 -14   4  105.29    9.60
  -1 -14   4  106.69   10.10
   0  14  -4   35.10    5.70
   0  14  -4   13.50    6.50
   0 -14   4   33.20    6.70
   0 -14   4   43.00    7.60
  -1  14  -4   70.79    7.00
  -1  14  -4   80.79    9.00
   1 -14   4   67.79    9.00
   1 -14   4   69.49    9.40
  -2  14  -4   43.90    7.90
   2 -14   4   58.39    9.20
   2 -14   4   60.49    7.70
   4  14  -5   29.50    7.50
   4  14  -5   11.00    5.20
   4  14  -5   11.00    5.20
  -4 -14   5    5.70    5.40
   3  14  -5   44.40    7.80
   3  14  -5   73.19   10.10
  -3 -14   5   61.19    8.40
   2  14  -5   -0.90    5.50
   2  14  -5   23.80    7.40
   1  14  -5   16.90    6.60
   1  14  -5   20.60    5.80
  -1 -14   5   14.90    6.70
  -1 -14   5   19.60    6.70
   0  14  -5  152.08   12.90
   0  14  -5  131.09   11.10
   0 -14   5  136.29   10.50
   0 -14   5  156.28   13.10
  -1  14  -5   15.60    5.70
  -1  14  -5   12.20    6.70
   1 -14   5   21.70    5.90
   1 -14   5   28.40    8.40
   3  14  -6    6.00    6.70
  -3 -14   6   10.30    5.70
   2  14  -6   36.10    6.90
   2  14  -6   55.29   13.80
  -2 -14   6   41.80    7.40
   1  14  -6   23.00   12.00
   1  14  -6    5.60    6.20
  -1 -14   6    7.90    5.60
   0  14  -6   74.59    8.20
   0 -14   6   63.69    7.80
   0 -14   6   78.49    9.50
   1 -15  -5  110.19   10.70
   1 -15  -5  110.19   10.70
   1  15   4  107.79   10.10
   1  15   4  150.38   12.80
   1  15   4  102.39   12.40
   1  15   4  107.79   10.10
   1  15   4  132.69   10.40
   0  15   4    8.30    6.70
   0  15   4    6.60    4.90
   0  15   4    6.60    4.90
   0  15   4    5.80    6.40
   0  15   4    2.40    5.30
   0 -15  -4   11.40    5.50
  -1  15   4   29.90    6.50
  -1  15   4   32.70    6.30
  -1  15   4   23.20    6.90
  -1  15   4   29.90    6.50
  -1  15   4   24.60    6.90
   1 -15  -4   25.70    5.70
  -2  15   4    0.60    6.90
  -2  15   4   17.00    5.40
   2 -15  -4   11.50    6.60
  -3  15   4   52.69    6.80
  -3  15   4   58.29    9.60
   2  15   3    8.30    5.30
   2  15   3    8.30    5.30
   2  15   3   13.90    7.20
   2  15   3   13.20    7.70
   2  15   3   14.30    6.40
  -2 -15  -3    2.00    5.70
   1  15   3   11.10    6.50
   1  15   3   10.60    8.60
   1  15   3   11.90    5.60
   1  15   3   10.40    4.90
   1  15   3   10.40    4.90
  -1 -15  -3    4.60    5.30
   0  15   3   42.80    7.60
   0  15   3   47.60    7.30
   0  15   3   55.09    7.10
   0  15   3   42.90    5.20
   0  15   3   42.80    5.20
   0 -15  -3   44.20    6.20
  -1  15   3   59.29    7.60
  -1  15   3   64.59    8.10
  -1  15   3   62.59    8.60
   1 -15  -3   51.59    6.80
  -2  15   3  118.39   12.70
  -2  15   3  109.99   11.50
   2 -15  -3  120.29   11.10
   2 -15  -3  100.59    9.20
  -3  15   3    8.10    7.40
  -3  15   3   -0.70    7.30
  -3  15   3    2.50    4.70
   3 -15  -3    0.80    7.60
   3 -15  -3    1.50    4.90
   3 -15  -3    3.00    6.30
   2  15   2   29.30    6.30
   2  15   2   14.10    4.90
   2  15   2   14.10    4.90
   2  15   2   26.70    7.10
   2  15   2   27.80    7.90
   2  15   2   25.80    6.70
  -2 -15  -2    4.90    5.90
   1  15   2   52.89    7.00
   1  15   2   53.99    7.20
   1  15   2   71.19    8.30
   1  15   2   56.79    5.60
   1  15   2   56.79    5.60
   1  15   2   55.39    7.20
  -1 -15  -2   53.19    7.00
   0  15   2   39.60    7.00
   0  15   2   52.39    5.00
   0  15   2   30.70    6.90
   0  15   2   52.39    5.00
   0  15   2   49.30    6.60
   0 -15  -2   42.40    6.60
  -1  15   2   86.39   10.70
  -1  15   2   70.59    8.20
  -1  15   2   71.79    8.00
   1 -15  -2   66.69    7.30
   1 -15  -2   60.19    7.40
  -2  15   2   18.30    6.40
  -2  15   2    9.90    6.60
   2 -15  -2   17.70    7.30
   2 -15  -2   22.20    6.00
   2 -15  -2   19.60    6.00
  -3  15   2   25.60    7.50
   3 -15  -2   30.70    8.20
   3 -15  -2   26.10    7.40
   3 -15  -2   32.30    6.00
   3  15   1    3.50    5.30
   3  15   1    5.50    7.80
   3  15   1    7.20    7.30
   3  15   1  -10.50    4.80
   3  15   1  -10.40    4.80
  -3 -15  -1   -0.60    6.10
   2  15   1   17.10    4.90
   2  15   1   11.80    7.50
   2  15   1   20.10    6.10
   2  15   1   16.60    6.70
   2  15   1   17.10    4.90
   2  15   1   26.10    5.50
  -2 -15  -1   25.80    6.20
   1  15   1   89.29   11.30
   1  15   1  104.09   10.30
   1  15   1   97.99    9.60
   1  15   1  116.49    7.90
   1  15   1  102.79   10.20
   1  15   1  116.49    7.90
  -1 -15  -1   99.19    9.60
   0  15   1   58.19    7.90
   0  15   1   66.99    9.90
   0  15   1   49.70    7.10
   0  15   1   63.29    7.00
   0 -15  -1   56.69    7.00
  -1  15   1   69.59    8.70
  -1  15   1   65.39    7.90
   1 -15  -1   70.79    8.60
   1 -15  -1   70.89    7.40
   1 -15  -1   63.49    7.30
  -2  15   1    4.30    5.80
   2 -15  -1   -2.10    6.40
   2 -15  -1    1.40    5.70
   2 -15  -1   -2.00    5.80
  -3  15   1   55.99    8.80
   3 -15  -1   57.39    8.50
   3 -15  -1   60.49    7.00
   3 -15  -1   45.20    8.60
   3  15   0   41.20    5.60
   3  15   0   26.60    7.80
   3  15   0   41.20    5.60
   3  15   0   35.30    9.00
  -3 -15   0   38.40    7.20
   2  15   0   12.30    5.50
   2  15   0   12.40    4.40
   2  15   0   -2.10    5.80
   2  15   0    5.90    7.00
   2  15   0   16.20    5.10
   2  15   0   12.40    4.40
  -2 -15   0    8.50    5.60
   1  15   0   49.60    7.40
   1  15   0   65.59    5.30
   1  15   0   71.29    7.00
   1  15   0   70.19    7.60
   1  15   0   65.59    5.30
   1  15   0   55.19    8.30
  -1 -15   0   56.39    7.10
   0  15   0   -4.70    4.70
   0  15   0  -14.20    5.50
   0  15   0    0.10    5.60
   0 -15   0    0.70    5.10
  -1  15   0   62.19    8.20
   1 -15   0   56.69    6.70
   1 -15   0   52.49    7.20
   1 -15   0   69.89    8.60
  -2  15   0    5.70    6.30
   2 -15   0    8.60    5.60
   2 -15   0   15.10    7.20
   2 -15   0   13.30    8.80
  -3  15   0   32.00    7.40
   3 -15   0   29.50    8.20
   3 -15   0   25.00    5.90
   3 -15   0   40.10    7.60
   3  15  -1   51.79    9.70
   3  15  -1   42.60    8.00
   3  15  -1   44.50    5.70
   3  15  -1   44.50    5.70
  -3 -15   1   46.20    7.50
   2  15  -1   -4.30    6.70
   2  15  -1    4.50    6.10
   2  15  -1   -3.20    4.00
   2  15  -1   -3.20    4.00
   2  15  -1    1.20    5.20
  -2 -15   1    0.60    5.60
   1  15  -1   82.29    8.10
   1  15  -1   67.09    8.30
   1  15  -1   80.29    9.40
   1  15  -1   99.39   11.50
  -1 -15   1   75.69    8.10
   0  15  -1   55.49    6.70
   0  15  -1   55.09    6.30
   0  15  -1   42.50    7.50
   0 -15   1   58.09    7.40
   0 -15   1   54.39    7.90
  -1  15  -1   90.29   11.10
   1 -15   1  128.99   12.50
   1 -15   1   86.09    9.30
   1 -15   1   93.29    9.70
  -2  15  -1   10.50    6.60
   2 -15   1   29.60    7.80
   2 -15   1   19.20    5.70
   2 -15   1   16.00    6.30
  -3  15  -1   -8.50    6.10
   3 -15   1   -3.00    7.40
   3 -15   1    2.70    7.10
   3 -15   1    1.40    5.00
   3  15  -2   20.20    5.20
   3  15  -2   20.20    5.20
   3  15  -2   31.80    7.80
   3  15  -2   23.60    8.30
  -3 -15   2   28.30    7.20
   2  15  -2   23.50    7.70
   2  15  -2   24.30    6.70
   2  15  -2   27.20    6.70
  -2 -15   2   29.50    6.80
   1  15  -2   64.19    7.60
   1  15  -2   75.19    9.40
   1  15  -2   73.79    7.80
  -1 -15   2   66.89    8.00
  -1 -15   2   70.39    7.80
   0  15  -2   28.70    5.70
   0  15  -2   34.20    7.00
   0 -15   2   43.00    7.80
   0 -15   2   30.00    6.70
  -1  15  -2   51.89    7.90
   1 -15   2   39.60    6.90
   1 -15   2   54.59    8.40
  -2  15  -2   24.50    7.20
   2 -15   2   12.40    7.60
   2 -15   2   14.90   10.10
   2 -15   2   19.10    5.90
   3  15  -3    2.90    7.00
   3  15  -3   -4.00    5.00
   3  15  -3   -4.00    5.00
   3  15  -3   -4.70    7.80
  -3 -15   3   -0.70    9.40
   2  15  -3  129.19   13.60
   2  15  -3  115.59   11.90
  -2 -15   3  105.49   11.80
   1  15  -3   67.09    9.10
   1  15  -3   54.49    7.20
  -1 -15   3   65.09    8.20
   0  15  -3   50.39    6.70
   0  15  -3   46.30    7.70
   0 -15   3   43.00    6.90
   0 -15   3   51.69    8.30
  -1  15  -3   15.00    6.80
   1 -15   3   13.90    7.60
   1 -15   3    4.60    5.30
   2 -15   3   13.40    6.10
   2 -15   3    5.80    7.90
   3  15  -4   46.10    8.30
  -3 -15   4   37.10    7.10
   2  15  -4   14.00    6.60
   2  15  -4    7.70    7.70
  -2 -15   4   12.20    5.70
   1  15  -4   33.10    6.70
   1  15  -4   40.90    8.80
  -1 -15   4   21.40    6.00
  -1 -15   4   40.30    8.00
   0  15  -4   12.60    7.00
   0 -15   4   11.30    5.50
   0 -15   4   17.90    7.60
   1 -15   4  130.49   14.60
   1 -15   4  123.09   10.70
   1  15  -5  118.89   12.20
   0  16   2   24.70    7.90
   0  16   2    7.50    7.00
   0  16   2    9.10    6.20
   0 -16  -2   11.50    5.90
  -1  16   2    5.10    7.40
  -1  16   2   11.00    7.80
  -1  16   2    7.00    6.60
   1 -16  -2   14.10    5.50
   1  16   1   11.70    6.00
   1  16   1    8.50    7.00
   1  16   1   27.00    8.20
  -1 -16  -1   12.50    6.00
   0  16   1   38.60    8.50
   0  16   1   54.49    8.60
   0  16   1   46.20    7.60
  -1  16   1  140.39   13.30
  -1  16   1  124.09   12.50
  -1  16   1  120.79   13.30
   1 -16  -1  133.79   10.00
   1  16   0  121.59   12.30
   1  16   0  129.09   14.20
   1  16   0  128.99   13.80
  -1 -16   0  126.79   13.60
   0  16   0   57.79    8.60
   0  16   0   54.79    7.50
   0  16   0   59.49    9.00
   0 -16   0   44.80    7.10
  -1  16   0  132.79   12.70
  -1  16   0  116.49   14.10
   1 -16   0  123.39   11.30
   1 -16   0  125.19   10.60
   1 -16   0  113.39   13.20
   1  16  -1  108.59   11.20
   1  16  -1   99.69   11.70
   1  16  -1  122.19   12.70
  -1 -16   1  122.09    9.80
   0  16  -1   41.40    8.10
   0  16  -1   49.30    8.90
   0 -16   1   52.09    8.90
   0 -16   1   46.50    7.00
  -1  16  -1   23.80    7.90
   1 -16   1   14.70    8.20
   1 -16   1   37.00    6.80
   1  16  -2    5.20    6.30
   1  16  -2   17.50    7.20
   1  16  -2    2.80    7.60
  -1 -16   2   -3.30    5.50
   0  16  -2    8.50    7.80
   0 -16   2   12.00    5.40
   0 -16   2   15.60    8.30
   0   0   0    0.00    0.00

_computing_structure_solution     'SHELXT 2018/2 (Sheldrick, 2018)'
;
_shelx_hkl_checksum              81823
_olex2_submission_special_instructions 'No special instructions were received'
loop_
_space_group_symop_operation_xyz
'x, y, z'
'-x, y+1/2, -z'
loop_
_atom_site_label
_atom_site_type_symbol
_atom_site_fract_x
_atom_site_fract_y
_atom_site_fract_z
_atom_site_U_iso_or_equiv
_atom_site_adp_type
_atom_site_occupancy
_atom_site_site_symmetry_order
_atom_site_calc_flag
_atom_site_refinement_flags_posn
O1 O 0.3254(2) 0.29864(12) 0.41099(18) 0.0246(3) Uani 1 1 d .
O2 O 0.2912(2) 0.74504(11) 0.72785(15) 0.0194(3) Uani 1 1 d .
O3 O 0.2980(2) 0.62346(11) 0.91434(16) 0.0198(3) Uani 1 1 d .
N1 N 0.4034(2) 0.57852(12) 0.56882(17) 0.0136(3) Uani 1 1 d .
H1 H 0.477(4) 0.639(2) 0.568(3) 0.020(6) Uiso 1 1 d .
N2 N 0.7660(2) 0.34793(13) 0.56441(17) 0.0151(3) Uani 1 1 d .
H2 H 0.735824 0.315235 0.473962 0.018 Uiso 1 1 calc R
C1 C 0.9355(3) 0.32774(15) 0.6894(2) 0.0146(3) Uani 1 1 d .
C2 C 1.0967(3) 0.25547(16) 0.7032(2) 0.0191(4) Uani 1 1 d .
H2A H 1.099485 0.208778 0.620434 0.023 Uiso 1 1 calc R
C3 C 1.2529(3) 0.25489(16) 0.8434(2) 0.0202(4) Uani 1 1 d .
H3 H 1.364964 0.206595 0.856833 0.024 Uiso 1 1 calc R
C4 C 1.2492(3) 0.32385(16) 0.9656(2) 0.0196(4) Uani 1 1 d .
H4 H 1.358965 0.321785 1.059790 0.024 Uiso 1 1 calc R
C5 C 1.0881(3) 0.39503(15) 0.9513(2) 0.0164(3) Uani 1 1 d .
H5 H 1.086602 0.441246 1.034851 0.020 Uiso 1 1 calc R
C6 C 0.9274(2) 0.39769(14) 0.81140(19) 0.0139(3) Uani 1 1 d .
C7 C 0.7421(3) 0.45923(14) 0.7547(2) 0.0139(3) Uani 1 1 d .
C8 C 0.6489(3) 0.54179(16) 0.83275(19) 0.0171(3) Uani 1 1 d .
H8A H 0.719168 0.615993 0.846984 0.021 Uiso 1 1 calc R
H8B H 0.657410 0.512364 0.934716 0.021 Uiso 1 1 calc R
C9 C 0.4273(2) 0.55602(14) 0.72895(19) 0.0133(3) Uani 1 1 d .
H9 H 0.354509 0.483927 0.733234 0.016 Uiso 1 1 calc R
C10 C 0.3310(2) 0.65217(15) 0.78655(19) 0.0134(3) Uani 1 1 d .
C11 C 0.1932(3) 0.70867(18) 0.9712(2) 0.0243(4) Uani 1 1 d .
H11A H 0.064949 0.726750 0.891115 0.036 Uiso 1 1 calc GR
H11B H 0.275185 0.777793 0.999011 0.036 Uiso 1 1 calc GR
H11C H 0.168740 0.679019 1.061741 0.036 Uiso 1 1 calc GR
C12 C 0.6514(2) 0.42795(14) 0.6046(2) 0.0132(3) Uani 1 1 d .
C13 C 0.4665(2) 0.48293(14) 0.4942(2) 0.0127(3) Uani 1 1 d .
C14 C 0.5099(3) 0.53054(17) 0.3540(2) 0.0183(3) Uani 1 1 d .
H14A H 0.389291 0.567680 0.284382 0.027 Uiso 1 1 calc GR
H14B H 0.548843 0.468020 0.300213 0.027 Uiso 1 1 calc GR
H14C H 0.619255 0.586156 0.388451 0.027 Uiso 1 1 calc GR
C15 C 0.2921(3) 0.39780(15) 0.42851(19) 0.0154(3) Uani 1 1 d .
C16 C 0.0830(3) 0.44515(16) 0.3797(2) 0.0196(4) Uani 1 1 d .
H16A H -0.011337 0.389279 0.315260 0.029 Uiso 1 1 calc GR
H16B H 0.076146 0.515516 0.321318 0.029 Uiso 1 1 calc GR
H16C H 0.047808 0.461533 0.470722 0.029 Uiso 1 1 calc GR
loop_
_atom_site_aniso_label
_atom_site_aniso_U_11
_atom_site_aniso_U_22
_atom_site_aniso_U_33
_atom_site_aniso_U_23
_atom_site_aniso_U_13
_atom_site_aniso_U_12
O1 0.0204(7) 0.0155(6) 0.0357(8) -0.0070(6) 0.0070(6) -0.0011(5)
O2 0.0263(7) 0.0149(6) 0.0199(6) 0.0033(5) 0.0118(5) 0.0053(5)
O3 0.0271(7) 0.0159(6) 0.0215(6) 0.0037(5) 0.0148(6) 0.0063(5)
N1 0.0162(7) 0.0113(6) 0.0134(6) -0.0002(5) 0.0052(5) -0.0006(5)
N2 0.0149(7) 0.0155(7) 0.0150(7) -0.0029(5) 0.0051(5) 0.0011(6)
C1 0.0145(7) 0.0133(7) 0.0170(8) 0.0001(6) 0.0067(6) -0.0009(6)
C2 0.0195(8) 0.0172(8) 0.0223(9) -0.0008(7) 0.0094(7) 0.0019(7)
C3 0.0162(8) 0.0181(8) 0.0260(9) 0.0042(7) 0.0070(7) 0.0040(7)
C4 0.0167(8) 0.0192(9) 0.0200(8) 0.0041(7) 0.0026(7) 0.0019(7)
C5 0.0171(8) 0.0149(8) 0.0162(8) 0.0011(6) 0.0043(6) -0.0006(6)
C6 0.0143(7) 0.0118(7) 0.0159(8) 0.0016(6) 0.0057(6) -0.0003(6)
C7 0.0143(8) 0.0136(8) 0.0139(8) 0.0000(6) 0.0048(6) 0.0006(6)
C8 0.0168(8) 0.0189(8) 0.0134(7) -0.0033(6) 0.0025(6) 0.0039(6)
C9 0.0148(7) 0.0112(7) 0.0141(7) 0.0005(6) 0.0052(6) 0.0013(6)
C10 0.0112(7) 0.0143(7) 0.0141(7) -0.0012(6) 0.0038(6) 0.0005(6)
C11 0.0322(10) 0.0224(9) 0.0256(10) 0.0037(8) 0.0194(9) 0.0096(8)
C12 0.0132(7) 0.0123(7) 0.0146(7) -0.0008(6) 0.0057(6) -0.0011(6)
C13 0.0127(7) 0.0126(7) 0.0125(7) -0.0006(6) 0.0040(6) -0.0006(6)
C14 0.0187(8) 0.0220(9) 0.0150(8) 0.0020(7) 0.0070(6) -0.0020(7)
C15 0.0160(7) 0.0158(8) 0.0142(7) -0.0021(6) 0.0050(6) -0.0024(6)
C16 0.0141(8) 0.0176(8) 0.0255(9) -0.0032(7) 0.0048(7) -0.0019(6)
loop_
_atom_type_symbol
_atom_type_description
_atom_type_scat_dispersion_real
_atom_type_scat_dispersion_imag
_atom_type_scat_source
C C 0.0033 0.0016 'International Tables Vol C Tables 4.2.6.8 and 6.1.1.4'
H H 0.0000 0.0000 'International Tables Vol C Tables 4.2.6.8 and 6.1.1.4'
N N 0.0061 0.0033 'International Tables Vol C Tables 4.2.6.8 and 6.1.1.4'
O O 0.0106 0.0060 'International Tables Vol C Tables 4.2.6.8 and 6.1.1.4'
loop_
_geom_angle_atom_site_label_1
_geom_angle_atom_site_label_2
_geom_angle_atom_site_label_3
_geom_angle
C10 O3 C11 114.90(14)
C9 N1 C13 113.28(13)
C1 N2 C12 108.47(14)
N2 C1 C2 129.39(17)
N2 C1 C6 108.05(14)
C2 C1 C6 122.54(16)
C3 C2 C1 117.01(17)
C2 C3 C4 121.57(17)
C5 C4 C3 121.11(17)
C4 C5 C6 118.90(17)
C1 C6 C7 106.53(15)
C5 C6 C1 118.87(15)
C5 C6 C7 134.59(17)
C6 C7 C8 130.83(16)
C12 C7 C6 106.76(15)
C12 C7 C8 122.40(16)
C7 C8 C9 107.15(14)
N1 C9 C8 112.92(14)
N1 C9 C10 108.54(14)
C10 C9 C8 110.41(14)
O2 C10 O3 123.04(16)
O2 C10 C9 125.35(15)
O3 C10 C9 111.60(14)
N2 C12 C13 124.59(15)
C7 C12 N2 110.15(15)
C7 C12 C13 124.89(15)
N1 C13 C12 110.12(14)
N1 C13 C14 107.73(14)
N1 C13 C15 110.25(14)
C12 C13 C14 110.35(14)
C12 C13 C15 112.63(14)
C14 C13 C15 105.57(14)
O1 C15 C13 120.51(16)
O1 C15 C16 122.31(16)
C16 C15 C13 117.08(15)
loop_
_geom_bond_atom_site_label_1
_geom_bond_atom_site_label_2
_geom_bond_distance
O1 C15 1.210(2)
O2 C10 1.208(2)
O3 C10 1.331(2)
O3 C11 1.451(2)
N1 C9 1.461(2)
N1 C13 1.468(2)
N2 C1 1.374(2)
N2 C12 1.377(2)
C1 C2 1.396(2)
C1 C6 1.416(2)
C2 C3 1.389(3)
C3 C4 1.401(3)
C4 C5 1.386(3)
C5 C6 1.403(2)
C6 C7 1.433(2)
C7 C8 1.495(2)
C7 C12 1.369(2)
C8 C9 1.545(2)
C9 C10 1.511(2)
C12 C13 1.504(2)
C13 C14 1.543(2)
C13 C15 1.545(2)
C15 C16 1.502(2)
